data_PCOD8073733
_publ_section_title
;
Structure prediction by ZEFSAII (Michael W. Deem and Ramdas Pophale) SiO2 
 PCOD8073733
Probable space group: P 21/M
;
_chemical_formula_sum "Si O2"
_cell_formula_units_Z 32
_cell_length_a 21.619919
_cell_length_b 8.622779
_cell_length_c 28.061226
_cell_angle_alpha 90.000000
_cell_angle_beta 161.998909
_cell_angle_gamma 90.000000
_cell_volume 1616.649134
_symmetry_space_group_name_H-M "P 21/M"
_symmetry_group_IT_number 11
_symmetry_cell_setting 'monoclinic'
loop_
_space_group_symop_operation_xyz
x,y,z
-x,1/2+y,-z
-x,-y,-z
x,1/2-y,z
loop_
_atom_site_type_symbol
_atom_site_label
_atom_site_fract_x
_atom_site_fract_y
_atom_site_fract_z
Si Si1 0.871448 0.429768 0.570284
Si Si2 0.026316 0.929084 0.595536
Si Si3 0.446760 0.569789 0.246726
Si Si4 0.491359 0.433118 0.546086
Si Si5 0.083659 0.431184 0.297227
Si Si6 0.323065 0.570570 0.050821
Si Si7 0.782026 0.568558 0.834257
Si Si8 0.704557 0.070181 0.293042
O O1 0.814311 0.250000 0.526778
O O2 0.038612 0.469540 0.652833
O O3 0.680891 0.534099 0.417436
O O4 0.956114 0.473397 0.683909
O O5 0.021314 0.750000 0.606247
O O6 0.219359 0.968771 0.704547
O O7 0.824051 0.967813 0.418648
O O8 0.413069 0.750000 0.234560
O O9 0.348279 0.524498 0.124361
O O10 0.346158 0.464549 0.212860
O O11 0.500000 0.500000 0.500000
O O12 0.497153 0.250000 0.547328
O O13 0.288378 0.489750 0.423126
O O14 0.681666 0.492593 0.714580
O O15 0.095770 0.250000 0.318660
O O16 0.903777 0.468598 0.129382
O O17 0.374196 0.750000 0.080112
O O18 0.470980 0.471171 0.125799
O O19 0.796750 0.750000 0.836035
O O20 0.000000 0.500000 0.000000
O O21 0.742307 0.250000 0.332560
#
# Coordination Sequence:
#
# PCOD8073733 Si02
#       8
#     4   4   4   4   4   4   4   4
#     4  12  23  37  61  92 120 159 208 254 303 360
#     4  10  20  35  57  85 120 161 201 250 309 365
#     4  11  22  39  64  92 124 160 202 255 310 363
#     4  11  24  43  67  93 125 166 208 253 309 371
#     4  10  23  43  64  87 122 166 204 246 304 367
#     4  10  22  39  62  90 122 163 204 247 307 368
#     4  12  26  44  66  95 128 163 208 259 311 366
#     4  10  20  34  56  88 122 156 200 254 308 362
#
# _framework density 19.794028999999998
#
# number of rings (size 3 to 8) (size 9 to 14) (size 15 to 20)
#    0.000    1.250    2.500    3.750    1.750    3.000 
#    0.000    0.625    0.000    0.000    0.000    0.000 
#    0.000    0.000    0.000    0.000    0.000    0.000 
#
# Total GULP energy -396989.227767 kJ/mol
# GULP energy per Si atom -12405.913368 kJ/mol
# Density = 1.974898 g / cm^3
# Si number density = 19.794029 Si / 1000 Ang^3
#
#
#
# Elastic Constant Matrix: (Units=GPa)
#
#
# Indices 1 2 3 4 5 6 
#
# 1 137.9758 41.1578 46.1107 0.0000 -13.4095 0.0000
# 2 41.1578 62.8520 25.3094 0.0000 -1.9996 0.0000
# 3 46.1107 25.3094 104.9411 0.0000 -14.0902 0.0000
# 4 0.0000 0.0000 0.0000 28.0121 0.0000 0.3574
# 5 -13.4095 -1.9996 -14.0902 0.0000 29.9813 0.0000
# 6 0.0000 0.0000 0.0000 0.3574 0.0000 37.0462
#
#
#
# Elastic Compliance Matrix: (Units=1/GPa)
#
#
# Indices 1 2 3 4 5 6 
#
# 1 0.010044 -0.005387 -0.002732 0.000000 0.002849 0.000000
# 2 -0.005387 0.020532 -0.002908 0.000000 -0.002407 0.000000
# 3 -0.002732 -0.002908 0.011998 0.000000 0.004223 0.000000
# 4 0.000000 0.000000 0.000000 0.035703 0.000000 -0.000344
# 5 0.002849 -0.002407 0.004223 0.000000 0.036453 0.000000
# 6 0.000000 0.000000 0.000000 -0.000344 0.000000 0.026997
#
#
# Mechanical properties :
#
#
# Convention : Reuss Voigt Hill
#
# Bulk Modulus (GPa) = 48.72984 58.99162 53.86073
# Shear Modulus (GPa) = 29.30479 31.88733 30.59606
#
# Velocity S-wave (km/s) = 3.85188 4.01803 3.93583
# Velocity P-wave (km/s) = 6.66743 7.16893 6.92272
#
# Compressibility (1/GPa) = 0.02052131
#
# Stress axis : x y z
#
# Youngs Moduli (GPa) = 99.55852 48.70372 83.34845
#
# Poissons Ratio (x) = 0.26235 0.22768
# Poissons Ratio (y) = 0.53630 0.24239
# Poissons Ratio (z) = 0.27196 0.14164
#
# Static dielectric constant tensor:
#      x y z
#    x 3.935720 0.000000 0.111640 
#    y 0.000000 3.612910 0.000000 
#    z 0.111640 0.000000 3.548250 
# 
# 
# High freq. dielectric constant tensor:
#      x y z
#    x 1.785930 0.000000 0.002460 
#    y 0.000000 1.777300 0.000000 
#    z 0.002460 0.000000 1.757480 
# 
# From -- ./inp_files/72229.got.cif
#   From: 2010.06.25/outbox.cif.g09.slc.cpg/sg11_37_cif.got.tgz:72229.got - 2010.06.27 23:14:04.
