data_PCOD8073064
_publ_section_title
;
Structure prediction by ZEFSAII (Michael W. Deem and Ramdas Pophale) SiO2 
 PCOD8073064
Probable space group: P 21/M
;
_chemical_formula_sum "Si O2"
_cell_formula_units_Z 28
_cell_length_a 9.192246
_cell_length_b 8.842529
_cell_length_c 28.996411
_cell_angle_alpha 90.000000
_cell_angle_beta 140.584959
_cell_angle_gamma 90.000000
_cell_volume 1496.478611
_symmetry_space_group_name_H-M "P 21/M"
_symmetry_group_IT_number 11
_symmetry_cell_setting 'monoclinic'
loop_
_space_group_symop_operation_xyz
x,y,z
-x,1/2+y,-z
-x,-y,-z
x,1/2-y,z
loop_
_atom_site_type_symbol
_atom_site_label
_atom_site_fract_x
_atom_site_fract_y
_atom_site_fract_z
Si Si1 0.861840 0.931253 0.508076
Si Si2 0.788993 0.918803 0.348557
Si Si3 0.087972 0.569900 0.199693
Si Si4 0.753598 0.574711 0.938416
Si Si5 0.457965 0.917204 0.355018
Si Si6 0.401164 0.424312 0.202682
Si Si7 0.433110 0.428829 0.935453
O O1 0.879771 0.750000 0.511955
O O2 0.594888 0.985046 0.433127
O O3 0.000000 0.000000 0.500000
O O4 0.968102 0.996772 0.581511
O O5 0.845306 0.750000 0.345003
O O6 0.635964 0.914829 0.356524
O O7 0.649670 0.005274 0.274653
O O8 0.121024 0.750000 0.205072
O O9 0.227382 0.502267 0.278812
O O10 0.192639 0.503344 0.178489
O O11 0.825552 0.522259 0.140224
O O12 0.776017 0.750000 0.957260
O O13 0.639723 0.552067 0.861080
O O14 0.595945 0.491202 0.936245
O O15 0.000000 0.500000 0.000000
O O16 0.383754 0.750000 0.351326
O O17 0.403814 0.250000 0.217758
O O18 0.459219 0.250000 0.945214
O O19 0.500000 0.500000 0.000000
#
# Coordination Sequence:
#
# PCOD8073064 Si02
#       7
#     4   4   4   4   4   4   4
#     4   9  14  21  36  60  92 129 167 208 254 304
#     4   9  16  26  41  63  95 133 168 207 254 305
#     4   9  18  33  52  75 103 136 172 211 256 309
#     4  11  24  40  58  80 107 137 173 216 262 314
#     4   7  12  23  39  61  91 126 163 202 247 296
#     4  10  20  33  51  76 103 134 172 215 260 307
#     4  11  23  38  58  81 107 139 174 213 259 311
#
# _framework density 18.710591999999998
#
# number of rings (size 3 to 8) (size 9 to 14) (size 15 to 20)
#    0.000    2.571    0.000    4.714    0.000    5.714 
#    0.000    0.714    0.000    0.000    0.000    1.000 
#    0.000    0.000    0.000    0.000    0.000    0.000 
#
# Total GULP energy -346884.058967 kJ/mol
# GULP energy per Si atom -12388.716392 kJ/mol
# Density = 1.866801 g / cm^3
# Si number density = 18.710592 Si / 1000 Ang^3
#
#
#
# Elastic Constant Matrix: (Units=GPa)
#
#
# Indices 1 2 3 4 5 6 
#
# 1 74.1505 31.7819 57.8860 0.0000 12.0456 0.0000
# 2 31.7819 86.7679 69.0944 0.0000 6.6678 0.0000
# 3 57.8860 69.0944 184.8877 0.0000 23.1731 0.0000
# 4 0.0000 0.0000 0.0000 32.7315 0.0000 -0.3196
# 5 12.0456 6.6678 23.1731 0.0000 18.3175 0.0000
# 6 0.0000 0.0000 0.0000 -0.3196 0.0000 21.6518
#
#
#
# Elastic Compliance Matrix: (Units=1/GPa)
#
#
# Indices 1 2 3 4 5 6 
#
# 1 0.019001 -0.003372 -0.003894 0.000000 -0.006341 0.000000
# 2 -0.003372 0.017076 -0.005734 0.000000 0.003255 0.000000
# 3 -0.003894 -0.005734 0.009731 0.000000 -0.007663 0.000000
# 4 0.000000 0.000000 0.000000 0.030556 0.000000 0.000451
# 5 -0.006341 0.003255 -0.007663 0.000000 0.067272 0.000000
# 6 0.000000 0.000000 0.000000 0.000451 0.000000 0.046192
#
#
# Mechanical properties :
#
#
# Convention : Reuss Voigt Hill
#
# Bulk Modulus (GPa) = 50.48208 73.70340 62.09274
# Shear Modulus (GPa) = 22.47894 27.00975 24.74434
#
# Velocity S-wave (km/s) = 3.46988 3.80353 3.64053
# Velocity P-wave (km/s) = 6.56449 7.66590 7.13647
#
# Compressibility (1/GPa) = 0.01980901
#
# Stress axis : x y z
#
# Youngs Moduli (GPa) = 52.62749 58.56291 102.76330
#
# Poissons Ratio (x) = 0.19745 0.40019
# Poissons Ratio (y) = 0.17744 0.58922
# Poissons Ratio (z) = 0.20495 0.33578
#
# Static dielectric constant tensor:
#      x y z
#    x 2.904290 0.000000 0.112500 
#    y 0.000000 9.871930 0.000000 
#    z 0.112500 0.000000 4.081760 
# 
# 
# High freq. dielectric constant tensor:
#      x y z
#    x 1.665670 0.000000 0.008840 
#    y 0.000000 1.723770 0.000000 
#    z 0.008840 0.000000 1.762580 
# 
# From -- ./inp_files/29073.got.cif
#   From: 2010.06.25/outbox.cif.g09.slc.cpg/sg11_15_cif.got.tgz:29073.got - 2010.06.27 23:14:04.
