data_PCOD8073049
_publ_section_title
;
Structure prediction by ZEFSAII (Michael W. Deem and Ramdas Pophale) SiO2 
 PCOD8073049
Probable space group: P 21/M
;
_chemical_formula_sum "Si O2"
_cell_formula_units_Z 28
_cell_length_a 16.317104
_cell_length_b 9.017954
_cell_length_c 18.371369
_cell_angle_alpha 90.000000
_cell_angle_beta 37.361545
_cell_angle_gamma 90.000000
_cell_volume 1640.471235
_symmetry_space_group_name_H-M "P 21/M"
_symmetry_group_IT_number 11
_symmetry_cell_setting 'monoclinic'
loop_
_space_group_symop_operation_xyz
x,y,z
-x,1/2+y,-z
-x,-y,-z
x,1/2-y,z
loop_
_atom_site_type_symbol
_atom_site_label
_atom_site_fract_x
_atom_site_fract_y
_atom_site_fract_z
Si Si1 0.790708 0.575621 0.482353
Si Si2 0.552798 0.578664 0.070128
Si Si3 0.710536 0.421614 0.836255
Si Si4 0.608283 0.412682 0.330558
Si Si5 0.023303 0.073871 0.406216
Si Si6 0.692879 0.587402 0.398740
Si Si7 0.495573 0.924307 0.747354
O O1 0.827540 0.750000 0.459564
O O2 0.774110 0.520668 0.410267
O O3 0.653895 0.545971 0.623441
O O4 0.906696 0.475401 0.433849
O O5 0.597185 0.750000 0.035496
O O6 0.402653 0.557617 0.145280
O O7 0.557322 0.521353 0.148975
O O8 0.657457 0.480129 0.950881
O O9 0.753445 0.250000 0.813779
O O10 0.835013 0.522028 0.725520
O O11 0.670643 0.250000 0.278658
O O12 0.712036 0.499708 0.309566
O O13 0.463343 0.403975 0.470448
O O14 0.589730 0.480506 0.262825
O O15 0.022493 0.250000 0.415827
O O16 0.000000 0.000000 0.500000
O O17 0.750163 0.750000 0.342652
O O18 0.471596 0.750000 0.778356
#
# Coordination Sequence:
#
# PCOD8073049 Si02
#       7
#     4   4   4   4   4   4   4
#     4   9  18  32  48  68  97 131 165 198 236 283
#     4  10  20  33  51  74  96 121 157 199 239 281
#     4  10  21  37  54  71  94 125 159 195 239 284
#     4   8  14  24  39  62  92 124 157 192 232 278
#     4  12  24  36  51  72  98 127 161 198 236 279
#     4   8  14  25  41  62  90 124 158 193 234 278
#     4   9  17  29  46  69  98 131 162 195 237 282
#
# _framework density 17.068266000000001
#
# number of rings (size 3 to 8) (size 9 to 14) (size 15 to 20)
#    0.000    2.571    0.000    4.714    0.000    5.714 
#    0.000    2.857    0.000    0.000    0.000    1.000 
#    0.000    0.000    0.000    0.000    0.000    0.000 
#
# Total GULP energy -347077.506400 kJ/mol
# GULP energy per Si atom -12395.625229 kJ/mol
# Density = 1.702942 g / cm^3
# Si number density = 17.068266 Si / 1000 Ang^3
#
#
#
# Elastic Constant Matrix: (Units=GPa)
#
#
# Indices 1 2 3 4 5 6 
#
# 1 120.5852 59.7483 49.1529 0.0000 21.7380 0.0000
# 2 59.7483 99.9907 40.7524 0.0000 8.1597 0.0000
# 3 49.1529 40.7524 63.5399 0.0000 12.2362 0.0000
# 4 0.0000 0.0000 0.0000 26.8657 0.0000 4.5458
# 5 21.7380 8.1597 12.2362 0.0000 24.8614 0.0000
# 6 0.0000 0.0000 0.0000 4.5458 0.0000 30.7054
#
#
#
# Elastic Compliance Matrix: (Units=1/GPa)
#
#
# Indices 1 2 3 4 5 6 
#
# 1 0.015334 -0.005825 -0.006531 0.000000 -0.008281 0.000000
# 2 -0.005825 0.015754 -0.006168 0.000000 0.002958 0.000000
# 3 -0.006531 -0.006168 0.025692 0.000000 -0.004910 0.000000
# 4 0.000000 0.000000 0.000000 0.038179 0.000000 -0.005652
# 5 -0.008281 0.002958 -0.004910 0.000000 0.048910 0.000000
# 6 0.000000 0.000000 0.000000 -0.005652 0.000000 0.033404
#
#
# Mechanical properties :
#
#
# Convention : Reuss Voigt Hill
#
# Bulk Modulus (GPa) = 50.67936 64.82477 57.75207
# Shear Modulus (GPa) = 22.63485 25.45065 24.04275
#
# Velocity S-wave (km/s) = 3.64557 3.86568 3.75723
# Velocity P-wave (km/s) = 6.89034 7.61490 7.26167
#
# Compressibility (1/GPa) = 0.01973190
#
# Stress axis : x y z
#
# Youngs Moduli (GPa) = 65.21281 63.47628 38.92276
#
# Poissons Ratio (x) = 0.36976 0.25422
# Poissons Ratio (y) = 0.37987 0.24006
# Poissons Ratio (z) = 0.42594 0.39149
#
# Static dielectric constant tensor:
#      x y z
#    x 3.345580 0.000000 0.175250 
#    y 0.000000 3.347580 0.000000 
#    z 0.175250 0.000000 2.918860 
# 
# 
# High freq. dielectric constant tensor:
#      x y z
#    x 1.663650 0.000000 0.021660 
#    y 0.000000 1.661680 0.000000 
#    z 0.021660 0.000000 1.620040 
# 
# From -- ./inp_files/60069.got.cif
#   From: 2010.06.25/outbox.cif.g09.slc.cpg/sg11_31_cif.got.tgz:60069.got - 2010.06.27 23:14:04.
