data_PCOD8073107
_publ_section_title
;
Structure prediction by ZEFSAII (Michael W. Deem and Ramdas Pophale) SiO2 
 PCOD8073107
Probable space group: P 21/M
;
_chemical_formula_sum "Si O2"
_cell_formula_units_Z 32
_cell_length_a 14.353627
_cell_length_b 9.072404
_cell_length_c 28.115737
_cell_angle_alpha 90.000000
_cell_angle_beta 29.184776
_cell_angle_gamma 90.000000
_cell_volume 1785.343870
_symmetry_space_group_name_H-M "P 21/M"
_symmetry_group_IT_number 11
_symmetry_cell_setting 'monoclinic'
loop_
_space_group_symop_operation_xyz
x,y,z
-x,1/2+y,-z
-x,-y,-z
x,1/2-y,z
loop_
_atom_site_type_symbol
_atom_site_label
_atom_site_fract_x
_atom_site_fract_y
_atom_site_fract_z
Si Si1 0.932898 0.583493 0.813070
Si Si2 0.704102 0.083942 0.288605
Si Si3 0.977553 0.080582 0.697008
Si Si4 0.245761 0.080718 0.922622
Si Si5 0.414391 0.917327 0.165846
Si Si6 0.592757 0.923825 0.504396
Si Si7 0.602240 0.076661 0.998164
Si Si8 0.107275 0.423339 0.882109
O O1 0.852947 0.750000 0.846759
O O2 0.907810 0.514855 0.772386
O O3 0.150547 0.579178 0.732107
O O4 0.816430 0.488733 0.903892
O O5 0.685811 0.250000 0.276652
O O6 0.508359 0.028922 0.400839
O O7 0.766720 0.980179 0.217799
O O8 0.987931 0.250000 0.708959
O O9 0.816336 0.060133 0.727164
O O10 0.186209 0.028342 0.586884
O O11 0.185103 0.250000 0.955341
O O12 0.469210 0.055957 0.836914
O O13 0.220494 0.029932 0.879498
O O14 0.105585 0.991509 0.020625
O O15 0.454789 0.750000 0.129838
O O16 0.494504 0.036885 0.094041
O O17 0.569661 0.750000 0.506885
O O18 0.500000 0.000000 0.500000
O O19 0.608802 0.250000 0.988248
O O20 0.500000 0.000000 0.000000
O O21 0.084552 0.250000 0.886609
#
# Coordination Sequence:
#
# PCOD8073107 Si02
#       8
#     4   4   4   4   4   4   4   4
#     4  11  21  33  49  71 102 138 172 209 257 308
#     4  10  21  35  52  75 106 140 171 213 270 317
#     4  10  20  33  52  74  99 133 175 214 252 307
#     4   9  19  36  56  78 108 138 168 212 267 319
#     4  10  20  35  53  74 101 137 173 211 263 314
#     4  10  20  35  53  76 103 136 178 220 264 311
#     4  12  23  33  46  69 102 138 174 210 248 300
#     4  10  20  34  55  82 105 133 175 218 260 312
#
# _framework density 17.923718000000001
#
# number of rings (size 3 to 8) (size 9 to 14) (size 15 to 20)
#    0.000    1.750    2.500    2.625    0.000    5.500 
#    0.000    0.000    0.000    0.750    0.000    0.000 
#    0.000    0.000    0.000    0.000    0.000    0.375 
#
# Total GULP energy -396688.293836 kJ/mol
# GULP energy per Si atom -12396.509182 kJ/mol
# Density = 1.788292 g / cm^3
# Si number density = 17.923718 Si / 1000 Ang^3
#
#
#
# Elastic Constant Matrix: (Units=GPa)
#
#
# Indices 1 2 3 4 5 6 
#
# 1 92.5293 28.6766 51.8161 0.0000 -14.6259 0.0000
# 2 28.6766 84.4840 38.3684 0.0000 -2.9884 0.0000
# 3 51.8161 38.3684 117.6557 0.0000 -14.2084 0.0000
# 4 0.0000 0.0000 0.0000 23.5094 0.0000 2.6187
# 5 -14.6259 -2.9884 -14.2084 0.0000 29.2623 0.0000
# 6 0.0000 0.0000 0.0000 2.6187 0.0000 22.5297
#
#
#
# Elastic Compliance Matrix: (Units=1/GPa)
#
#
# Indices 1 2 3 4 5 6 
#
# 1 0.015368 -0.002625 -0.005329 0.000000 0.004826 0.000000
# 2 -0.002625 0.014362 -0.003727 0.000000 -0.001655 0.000000
# 3 -0.005329 -0.003727 0.012423 0.000000 0.002988 0.000000
# 4 0.000000 0.000000 0.000000 0.043094 0.000000 -0.005009
# 5 0.004826 -0.001655 0.002988 0.000000 0.037867 0.000000
# 6 0.000000 0.000000 0.000000 -0.005009 0.000000 0.044968
#
#
# Mechanical properties :
#
#
# Convention : Reuss Voigt Hill
#
# Bulk Modulus (GPa) = 53.22287 59.15458 56.18873
# Shear Modulus (GPa) = 25.28971 26.78081 26.03526
#
# Velocity S-wave (km/s) = 3.76035 3.86962 3.81538
# Velocity P-wave (km/s) = 6.97225 7.28289 7.12926
#
# Compressibility (1/GPa) = 0.01878892
#
# Stress axis : x y z
#
# Youngs Moduli (GPa) = 65.06932 69.62882 80.49819
#
# Poissons Ratio (x) = 0.18281 0.42900
# Poissons Ratio (y) = 0.17084 0.30003
# Poissons Ratio (z) = 0.34677 0.25952
#
# Static dielectric constant tensor:
#      x y z
#    x 3.415060 0.000000 -0.263530 
#    y 0.000000 3.385730 0.000000 
#    z -0.263530 0.000000 3.496670 
# 
# 
# High freq. dielectric constant tensor:
#      x y z
#    x 1.683040 0.000000 -0.019450 
#    y 0.000000 1.697430 0.000000 
#    z -0.019450 0.000000 1.679750 
# 
# From -- ./inp_files/56487.got.cif
#   From: 2010.06.25/outbox.cif.g09.slc.cpg/sg11_29_cif.got.tgz:56487.got - 2010.06.27 23:14:04.
