data_PCOD8073552
_publ_section_title
;
Structure prediction by ZEFSAII (Michael W. Deem and Ramdas Pophale) SiO2 
 PCOD8073552
Probable space group: P 21/M
;
_chemical_formula_sum "Si O2"
_cell_formula_units_Z 32
_cell_length_a 14.147129
_cell_length_b 8.755153
_cell_length_c 14.094363
_cell_angle_alpha 90.000000
_cell_angle_beta 93.537640
_cell_angle_gamma 90.000000
_cell_volume 1742.405201
_symmetry_space_group_name_H-M "P 21/M"
_symmetry_group_IT_number 11
_symmetry_cell_setting 'monoclinic'
loop_
_space_group_symop_operation_xyz
x,y,z
-x,1/2+y,-z
-x,-y,-z
x,1/2-y,z
loop_
_atom_site_type_symbol
_atom_site_label
_atom_site_fract_x
_atom_site_fract_y
_atom_site_fract_z
Si Si1 0.202164 0.924683 0.166843
Si Si2 0.147508 0.429828 0.776287
Si Si3 0.655428 0.926039 0.696310
Si Si4 0.520785 0.929609 0.399460
Si Si5 0.097590 0.928706 0.971687
Si Si6 0.806700 0.926469 0.542916
Si Si7 0.281410 0.929370 0.640193
Si Si8 0.946417 0.073445 0.684477
O O1 0.231084 0.750000 0.186237
O O2 0.109648 0.966754 0.222715
O O3 0.291167 0.027782 0.203549
O O4 0.177765 0.955917 0.056204
O O5 0.166524 0.250000 0.778711
O O6 0.135282 0.486918 0.881895
O O7 0.236175 0.517180 0.736428
O O8 0.055075 0.469845 0.708330
O O9 0.626745 0.750000 0.699591
O O10 0.722935 0.961087 0.611483
O O11 0.560809 0.024935 0.679691
O O12 0.525445 0.750000 0.412449
O O13 0.500000 0.000000 0.500000
O O14 0.619386 0.986652 0.364695
O O15 0.081735 0.750000 0.951087
O O16 0.000000 0.000000 0.000000
O O17 0.810410 0.750000 0.513613
O O18 0.789376 0.026098 0.448870
O O19 0.906912 0.973468 0.594976
O O20 0.298748 0.750000 0.642119
O O21 0.934089 0.250000 0.656859
#
# Coordination Sequence:
#
# PCOD8073552 Si02
#       8
#     4   4   4   4   4   4   4   4
#     4   9  18  34  55  83 116 150 188 234 284 336
#     4  11  23  40  58  82 116 154 195 241 289 342
#     4  10  20  34  56  87 117 147 187 235 283 337
#     4  12  23  38  61  87 115 150 189 236 285 338
#     4  11  21  36  59  87 117 152 195 240 288 339
#     4  10  20  34  54  81 114 151 192 235 279 335
#     4  12  25  40  58  82 114 154 194 237 286 343
#     4   9  18  34  54  78 112 153 193 233 279 335
#
# _framework density 18.365418999999999
#
# number of rings (size 3 to 8) (size 9 to 14) (size 15 to 20)
#    0.000    1.500    2.500    3.750    0.000    3.500 
#    0.000    0.000    0.000    0.750    0.000    0.000 
#    0.000    0.000    0.000    0.000    0.000    0.000 
#
# Total GULP energy -396953.142316 kJ/mol
# GULP energy per Si atom -12404.785697 kJ/mol
# Density = 1.832362 g / cm^3
# Si number density = 18.365419 Si / 1000 Ang^3
#
#
#
# Elastic Constant Matrix: (Units=GPa)
#
#
# Indices 1 2 3 4 5 6 
#
# 1 102.4852 49.1000 45.0588 0.0000 -0.2470 0.0000
# 2 49.1000 114.6274 40.2605 0.0000 3.9431 0.0000
# 3 45.0588 40.2605 79.8314 0.0000 -0.0434 0.0000
# 4 0.0000 0.0000 0.0000 33.2193 0.0000 2.4224
# 5 -0.2470 3.9431 -0.0434 0.0000 23.7009 0.0000
# 6 0.0000 0.0000 0.0000 2.4224 0.0000 31.5554
#
#
#
# Elastic Compliance Matrix: (Units=1/GPa)
#
#
# Indices 1 2 3 4 5 6 
#
# 1 0.014367 -0.004052 -0.006065 0.000000 0.000813 0.000000
# 2 -0.004052 0.011820 -0.003675 0.000000 -0.002015 0.000000
# 3 -0.006065 -0.003675 0.017804 0.000000 0.000581 0.000000
# 4 0.000000 0.000000 0.000000 0.030272 0.000000 -0.002324
# 5 0.000813 -0.002015 0.000581 0.000000 0.042537 0.000000
# 6 0.000000 0.000000 0.000000 -0.002324 0.000000 0.031869
#
#
# Mechanical properties :
#
#
# Convention : Reuss Voigt Hill
#
# Bulk Modulus (GPa) = 60.95318 62.86474 61.90896
# Shear Modulus (GPa) = 27.51452 28.53010 28.02231
#
# Velocity S-wave (km/s) = 3.87482 3.94568 3.91041
# Velocity P-wave (km/s) = 7.29932 7.42039 7.36010
#
# Compressibility (1/GPa) = 0.01640603
#
# Stress axis : x y z
#
# Youngs Moduli (GPa) = 69.60194 84.60547 56.16845
#
# Poissons Ratio (x) = 0.34280 0.34069
# Poissons Ratio (y) = 0.28201 0.20642
# Poissons Ratio (z) = 0.42217 0.31092
#
# Static dielectric constant tensor:
#      x y z
#    x 3.361630 0.000000 0.124410 
#    y 0.000000 3.495000 0.000000 
#    z 0.124410 0.000000 3.371330 
# 
# 
# High freq. dielectric constant tensor:
#      x y z
#    x 1.701500 0.000000 0.012630 
#    y 0.000000 1.724870 0.000000 
#    z 0.012630 0.000000 1.702720 
# 
# From -- ./inp_files/51394.got.cif
#   From: 2010.06.25/outbox.cif.g09.slc.cpg/sg11_26_cif.got.tgz:51394.got - 2010.06.27 23:14:04.
