data_PCOD8073077
_publ_section_title
;
Structure prediction by ZEFSAII (Michael W. Deem and Ramdas Pophale) SiO2 
 PCOD8073077
Probable space group: P 21/M
;
_chemical_formula_sum "Si O2"
_cell_formula_units_Z 32
_cell_length_a 12.403251
_cell_length_b 9.171334
_cell_length_c 16.405296
_cell_angle_alpha 90.000000
_cell_angle_beta 76.290754
_cell_angle_gamma 90.000000
_cell_volume 1813.008270
_symmetry_space_group_name_H-M "P 21/M"
_symmetry_group_IT_number 11
_symmetry_cell_setting 'monoclinic'
loop_
_space_group_symop_operation_xyz
x,y,z
-x,1/2+y,-z
-x,-y,-z
x,1/2-y,z
loop_
_atom_site_type_symbol
_atom_site_label
_atom_site_fract_x
_atom_site_fract_y
_atom_site_fract_z
Si Si1 0.884718 0.418759 0.024160
Si Si2 0.112616 0.081440 0.463909
Si Si3 0.685136 0.082002 0.502048
Si Si4 0.435484 0.080301 0.341015
Si Si5 0.319857 0.914259 0.685731
Si Si6 0.890036 0.416275 0.842581
Si Si7 0.856335 0.922576 0.183589
Si Si8 0.230330 0.084351 0.275314
O O1 0.901250 0.250000 0.044480
O O2 0.833948 0.433489 0.942359
O O3 0.813942 0.498762 0.107606
O O4 0.000000 0.500000 0.000000
O O5 0.101674 0.250000 0.490415
O O6 0.143416 0.062999 0.363879
O O7 0.202793 0.007622 0.505279
O O8 0.000000 0.000000 0.500000
O O9 0.703522 0.250000 0.523559
O O10 0.652596 0.066382 0.413981
O O11 0.587439 0.014473 0.574266
O O12 0.411784 0.250000 0.366838
O O13 0.562571 0.056313 0.289815
O O14 0.352306 0.031101 0.283292
O O15 0.277707 0.750000 0.711584
O O16 0.226308 0.027814 0.730236
O O17 0.893210 0.250000 0.814394
O O18 0.809816 0.496703 0.795224
O O19 0.017816 0.473968 0.818126
O O20 0.850267 0.750000 0.172454
O O21 0.236438 0.250000 0.245591
#
# Coordination Sequence:
#
# PCOD8073077 Si02
#       8
#     4   4   4   4   4   4   4   4
#     4   9  17  32  52  75 104 136 166 201 250 306
#     4  10  21  35  49  69 101 139 172 211 257 302
#     4  10  20  33  51  76  99 131 176 215 258 309
#     4   9  19  37  54  72 100 136 176 217 260 300
#     4  10  21  35  53  75 103 136 172 216 261 308
#     4   9  19  33  51  77 105 132 164 202 248 304
#     4  10  21  34  50  78 108 134 167 207 258 308
#     4   9  19  33  51  73  97 130 171 209 249 299
#
# _framework density 17.650223
#
# number of rings (size 3 to 8) (size 9 to 14) (size 15 to 20)
#    0.000    2.500    0.000    3.375    1.750    7.000 
#    0.000    0.000    0.000    0.750    0.000    0.000 
#    0.000    0.000    0.000    0.000    0.000    0.000 
#
# Total GULP energy -396692.437153 kJ/mol
# GULP energy per Si atom -12396.638661 kJ/mol
# Density = 1.761005 g / cm^3
# Si number density = 17.650223 Si / 1000 Ang^3
#
#
#
# Elastic Constant Matrix: (Units=GPa)
#
#
# Indices 1 2 3 4 5 6 
#
# 1 66.6356 33.2309 32.7743 0.0000 9.0903 0.0000
# 2 33.2309 95.9389 44.4985 0.0000 7.9328 0.0000
# 3 32.7743 44.4985 79.0720 0.0000 13.6660 0.0000
# 4 0.0000 0.0000 0.0000 35.6220 0.0000 -0.2298
# 5 9.0903 7.9328 13.6660 0.0000 19.5591 0.0000
# 6 0.0000 0.0000 0.0000 -0.2298 0.0000 25.3126
#
#
#
# Elastic Compliance Matrix: (Units=1/GPa)
#
#
# Indices 1 2 3 4 5 6 
#
# 1 0.020282 -0.004217 -0.005346 0.000000 -0.003981 0.000000
# 2 -0.004217 0.014982 -0.006792 0.000000 0.000629 0.000000
# 3 -0.005346 -0.006792 0.020221 0.000000 -0.008889 0.000000
# 4 0.000000 0.000000 0.000000 0.028074 0.000000 0.000255
# 5 -0.003981 0.000629 -0.008889 0.000000 0.058933 0.000000
# 6 0.000000 0.000000 0.000000 0.000255 0.000000 0.039508
#
#
# Mechanical properties :
#
#
# Convention : Reuss Voigt Hill
#
# Bulk Modulus (GPa) = 43.90538 51.40598 47.65568
# Shear Modulus (GPa) = 22.49184 24.84160 23.66672
#
# Velocity S-wave (km/s) = 3.57362 3.75565 3.66577
# Velocity P-wave (km/s) = 6.47742 6.92782 6.70640
#
# Compressibility (1/GPa) = 0.02277625
#
# Stress axis : x y z
#
# Youngs Moduli (GPa) = 49.30444 66.74548 49.45296
#
# Poissons Ratio (x) = 0.28144 0.26436
# Poissons Ratio (y) = 0.20790 0.33590
# Poissons Ratio (z) = 0.26357 0.45336
#
# Static dielectric constant tensor:
#      x y z
#    x 5.404750 0.000000 -1.628550 
#    y 0.000000 3.395500 0.000000 
#    z -1.628550 0.000000 4.488700 
# 
# 
# High freq. dielectric constant tensor:
#      x y z
#    x 1.665400 0.000000 0.006530 
#    y 0.000000 1.691930 0.000000 
#    z 0.006530 0.000000 1.672430 
# 
# From -- ./inp_files/49298.got.cif
#   From: 2010.06.25/outbox.cif.g09.slc.cpg/sg11_25_cif.got.tgz:49298.got - 2010.06.27 23:14:04.
