data_PCOD8073499
_publ_section_title
;
Structure prediction by ZEFSAII (Michael W. Deem and Ramdas Pophale) SiO2 
 PCOD8073499
Probable space group: P 21/M
;
_chemical_formula_sum "Si O2"
_cell_formula_units_Z 32
_cell_length_a 16.410748
_cell_length_b 9.075327
_cell_length_c 11.144100
_cell_angle_alpha 90.000000
_cell_angle_beta 84.897458
_cell_angle_gamma 90.000000
_cell_volume 1653.145897
_symmetry_space_group_name_H-M "P 21/M"
_symmetry_group_IT_number 11
_symmetry_cell_setting 'monoclinic'
loop_
_space_group_symop_operation_xyz
x,y,z
-x,1/2+y,-z
-x,-y,-z
x,1/2-y,z
loop_
_atom_site_type_symbol
_atom_site_label
_atom_site_fract_x
_atom_site_fract_y
_atom_site_fract_z
Si Si1 0.259886 0.922383 0.666795
Si Si2 0.676530 0.416987 0.728369
Si Si3 0.415253 0.581363 0.013252
Si Si4 0.413919 0.578066 0.493315
Si Si5 0.184500 0.079463 0.162909
Si Si6 0.269992 0.424605 0.911304
Si Si7 0.116914 0.420202 0.566599
Si Si8 0.032542 0.418473 0.326093
O O1 0.243460 0.750000 0.686767
O O2 0.353436 0.951400 0.613515
O O3 0.238507 0.007649 0.791679
O O4 0.198996 0.985370 0.573746
O O5 0.701224 0.250000 0.695407
O O6 0.616369 0.428039 0.848066
O O7 0.629799 0.486091 0.620281
O O8 0.760077 0.500666 0.745093
O O9 0.423725 0.750000 0.968696
O O10 0.500000 0.500000 0.000000
O O11 0.357023 0.496194 0.929040
O O12 0.500000 0.500000 0.500000
O O13 0.432052 0.750000 0.474589
O O14 0.204099 0.250000 0.177338
O O15 0.089331 0.045267 0.203124
O O16 0.205471 0.030527 0.024265
O O17 0.279682 0.250000 0.897771
O O18 0.134673 0.250000 0.592206
O O19 0.087957 0.447378 0.435398
O O20 0.045962 0.476034 0.666670
O O21 0.001731 0.250000 0.328024
#
# Coordination Sequence:
#
# PCOD8073499 Si02
#       8
#     4   4   4   4   4   4   4   4
#     4  11  23  39  57  79 112 149 185 226 276 330
#     4   9  19  35  53  76 106 137 174 220 271 323
#     4  10  20  34  54  79 106 137 178 226 276 326
#     4  10  23  39  55  79 107 141 181 223 272 326
#     4   9  18  34  57  83 108 140 181 224 273 322
#     4  10  21  37  56  79 107 144 187 229 274 328
#     4  10  20  34  56  87 115 147 184 220 272 330
#     4   9  18  34  57  85 117 144 178 227 274 324
#
# _framework density 19.357033999999999
#
# number of rings (size 3 to 8) (size 9 to 14) (size 15 to 20)
#    0.000    2.250    0.000    2.250    1.750    3.500 
#    0.000    0.625    0.000    0.000    0.000    0.000 
#    0.000    0.000    0.000    0.000    0.000    0.000 
#
# Total GULP energy -396846.906734 kJ/mol
# GULP energy per Si atom -12401.465835 kJ/mol
# Density = 1.931298 g / cm^3
# Si number density = 19.357034 Si / 1000 Ang^3
#
#
#
# Elastic Constant Matrix: (Units=GPa)
#
#
# Indices 1 2 3 4 5 6 
#
# 1 86.0298 41.1586 17.3316 0.0000 -13.1765 0.0000
# 2 41.1586 89.8174 28.5658 0.0000 -4.6799 0.0000
# 3 17.3316 28.5658 63.7731 0.0000 1.9499 0.0000
# 4 0.0000 0.0000 0.0000 28.6154 0.0000 3.1552
# 5 -13.1765 -4.6799 1.9499 0.0000 22.8250 0.0000
# 6 0.0000 0.0000 0.0000 3.1552 0.0000 38.8553
#
#
#
# Elastic Compliance Matrix: (Units=1/GPa)
#
#
# Indices 1 2 3 4 5 6 
#
# 1 0.016358 -0.006497 -0.001788 0.000000 0.008264 0.000000
# 2 -0.006497 0.015796 -0.005308 0.000000 -0.000058 0.000000
# 3 -0.001788 -0.005308 0.018658 0.000000 -0.003715 0.000000
# 4 0.000000 0.000000 0.000000 0.035262 0.000000 -0.002863
# 5 0.008264 -0.000058 -0.003715 0.000000 0.048888 0.000000
# 6 0.000000 0.000000 0.000000 -0.002863 0.000000 0.025969
#
#
# Mechanical properties :
#
#
# Convention : Reuss Voigt Hill
#
# Bulk Modulus (GPa) = 42.32666 45.97025 44.14846
# Shear Modulus (GPa) = 25.51128 28.23009 26.87069
#
# Velocity S-wave (km/s) = 3.63427 3.82303 3.72985
# Velocity P-wave (km/s) = 6.28684 6.57933 6.43475
#
# Compressibility (1/GPa) = 0.02362577
#
# Stress axis : x y z
#
# Youngs Moduli (GPa) = 61.13205 63.30737 53.59694
#
# Poissons Ratio (x) = 0.41129 0.09584
# Poissons Ratio (y) = 0.39716 0.28450
# Poissons Ratio (z) = 0.10932 0.33604
#
# Static dielectric constant tensor:
#      x y z
#    x 3.436750 0.000000 -0.084970 
#    y 0.000000 3.645510 0.000000 
#    z -0.084970 0.000000 3.622980 
# 
# 
# High freq. dielectric constant tensor:
#      x y z
#    x 1.750120 0.000000 -0.011310 
#    y 0.000000 1.756300 0.000000 
#    z -0.011310 0.000000 1.750170 
# 
# From -- ./inp_files/38163.got.cif
#   From: 2010.06.25/outbox.cif.g09.slc.cpg/sg11_20_cif.got.tgz:38163.got - 2010.06.27 23:14:04.
