data_PCOD8073634
_publ_section_title
;
Structure prediction by ZEFSAII (Michael W. Deem and Ramdas Pophale) SiO2 
 PCOD8073634
Probable space group: P 21/M
;
_chemical_formula_sum "Si O2"
_cell_formula_units_Z 32
_cell_length_a 18.413747
_cell_length_b 9.009223
_cell_length_c 23.920035
_cell_angle_alpha 90.000000
_cell_angle_beta 155.513520
_cell_angle_gamma 90.000000
_cell_volume 1644.725161
_symmetry_space_group_name_H-M "P 21/M"
_symmetry_group_IT_number 11
_symmetry_cell_setting 'monoclinic'
loop_
_space_group_symop_operation_xyz
x,y,z
-x,1/2+y,-z
-x,-y,-z
x,1/2-y,z
loop_
_atom_site_type_symbol
_atom_site_label
_atom_site_fract_x
_atom_site_fract_y
_atom_site_fract_z
Si Si1 0.005716 0.416006 0.365030
Si Si2 0.339063 0.427846 0.918796
Si Si3 0.200441 0.413858 0.385739
Si Si4 0.495011 0.420935 0.354817
Si Si5 0.140365 0.922980 0.135864
Si Si6 0.611824 0.577312 0.920196
Si Si7 0.986889 0.920679 0.147307
Si Si8 0.678975 0.423677 0.366196
O O1 0.951056 0.250000 0.347051
O O2 0.116825 0.403719 0.387421
O O3 0.134313 0.491367 0.501195
O O4 0.835717 0.515662 0.234484
O O5 0.342639 0.250000 0.917690
O O6 0.351851 0.486073 0.992076
O O7 0.500000 0.500000 0.000000
O O8 0.264467 0.250000 0.411868
O O9 0.361478 0.528248 0.499216
O O10 0.054098 0.472255 0.242056
O O11 0.448619 0.250000 0.332213
O O12 0.328081 0.519169 0.250240
O O13 0.563286 0.451128 0.340409
O O14 0.132098 0.750000 0.118816
O O15 0.091476 0.961461 0.165046
O O16 0.000000 0.000000 0.000000
O O17 0.578395 0.750000 0.903282
O O18 0.437264 0.512994 0.767377
O O19 0.778733 0.547347 0.996708
O O20 0.017257 0.750000 0.186160
O O21 0.720706 0.250000 0.389077
#
# Coordination Sequence:
#
# PCOD8073634 Si02
#       8
#     4   4   4   4   4   4   4   4
#     4  10  20  36  57  86 120 150 186 230 280 339
#     4  11  22  38  62  88 117 151 185 228 281 338
#     4  10  20  34  55  83 112 143 185 236 284 332
#     4  10  20  35  56  79 111 149 189 233 283 340
#     4  11  23  37  54  76 108 146 187 237 288 342
#     4   9  18  35  60  86 111 142 189 237 279 333
#     4  10  20  36  57  80 107 145 192 235 281 337
#     4   9  18  35  60  86 111 149 195 236 280 333
#
# _framework density 19.456137999999999
#
# number of rings (size 3 to 8) (size 9 to 14) (size 15 to 20)
#    0.000    2.000    1.250    2.625    0.000    5.000 
#    0.000    2.500    0.000    0.000    0.000    0.000 
#    0.000    0.000    0.000    0.000    0.000    0.000 
#
# Total GULP energy -396699.834807 kJ/mol
# GULP energy per Si atom -12396.869838 kJ/mol
# Density = 1.941186 g / cm^3
# Si number density = 19.456138 Si / 1000 Ang^3
#
#
#
# Elastic Constant Matrix: (Units=GPa)
#
#
# Indices 1 2 3 4 5 6 
#
# 1 37.6828 27.6868 34.3686 0.0000 -1.4466 0.0000
# 2 27.6868 60.2605 39.8347 0.0000 -5.5527 0.0000
# 3 34.3686 39.8347 151.7666 0.0000 -6.4922 0.0000
# 4 0.0000 0.0000 0.0000 37.9484 0.0000 5.0215
# 5 -1.4466 -5.5527 -6.4922 0.0000 19.9441 0.0000
# 6 0.0000 0.0000 0.0000 5.0215 0.0000 23.7818
#
#
#
# Elastic Compliance Matrix: (Units=1/GPa)
#
#
# Indices 1 2 3 4 5 6 
#
# 1 0.043873 -0.016699 -0.005694 0.000000 -0.003321 0.000000
# 2 -0.016699 0.026743 -0.003013 0.000000 0.005254 0.000000
# 3 -0.005694 -0.003013 0.008737 0.000000 0.001592 0.000000
# 4 0.000000 0.000000 0.000000 0.027109 0.000000 -0.005724
# 5 -0.003321 0.005254 0.001592 0.000000 0.051880 0.000000
# 6 0.000000 0.000000 0.000000 -0.005724 0.000000 0.043258
#
#
# Mechanical properties :
#
#
# Convention : Reuss Voigt Hill
#
# Bulk Modulus (GPa) = 35.03818 50.38782 42.71300
# Shear Modulus (GPa) = 19.08935 26.18952 22.63943
#
# Velocity S-wave (km/s) = 3.13573 3.67288 3.41488
# Velocity P-wave (km/s) = 5.58196 6.62881 6.12778
#
# Compressibility (1/GPa) = 0.02854030
#
# Stress axis : x y z
#
# Youngs Moduli (GPa) = 22.79319 37.39317 114.44940
#
# Poissons Ratio (x) = 0.62444 0.65170
# Poissons Ratio (y) = 0.38063 0.34482
# Poissons Ratio (z) = 0.12979 0.11266
#
# Static dielectric constant tensor:
#      x y z
#    x 3.512890 0.000000 -0.243940 
#    y 0.000000 3.642100 0.000000 
#    z -0.243940 0.000000 4.012200 
# 
# 
# High freq. dielectric constant tensor:
#      x y z
#    x 1.736220 0.000000 -0.001120 
#    y 0.000000 1.753370 0.000000 
#    z -0.001120 0.000000 1.774020 
# 
# From -- ./inp_files/72120.got.cif
#   From: 2010.06.25/outbox.cif.g09.slc.cpg/sg11_37_cif.got.tgz:72120.got - 2010.06.27 23:14:04.
