data_PCOD8073817
_publ_section_title
;
Structure prediction by ZEFSAII (Michael W. Deem and Ramdas Pophale) SiO2 
 PCOD8073817
Probable space group: P 21/M
;
_chemical_formula_sum "Si O2"
_cell_formula_units_Z 32
_cell_length_a 17.800782
_cell_length_b 9.236077
_cell_length_c 24.052473
_cell_angle_alpha 90.000000
_cell_angle_beta 152.124956
_cell_angle_gamma 90.000000
_cell_volume 1848.883830
_symmetry_space_group_name_H-M "P 21/M"
_symmetry_group_IT_number 11
_symmetry_cell_setting 'monoclinic'
loop_
_space_group_symop_operation_xyz
x,y,z
-x,1/2+y,-z
-x,-y,-z
x,1/2-y,z
loop_
_atom_site_type_symbol
_atom_site_label
_atom_site_fract_x
_atom_site_fract_y
_atom_site_fract_z
Si Si1 0.969728 0.420997 0.537517
Si Si2 0.530941 0.578881 0.887721
Si Si3 0.556117 0.420213 0.404902
Si Si4 0.393779 0.580112 0.683256
Si Si5 0.198100 0.916837 0.874800
Si Si6 0.634090 0.584482 0.619245
Si Si7 0.237975 0.916575 0.774498
Si Si8 0.162781 0.419393 0.345905
O O1 0.992638 0.250000 0.544885
O O2 0.792224 0.463196 0.440931
O O3 0.000000 0.500000 0.500000
O O4 0.090457 0.480459 0.662678
O O5 0.555990 0.750000 0.903335
O O6 0.481058 0.514073 0.794692
O O7 0.394152 0.534789 0.842420
O O8 0.697977 0.506588 0.013587
O O9 0.596912 0.250000 0.430484
O O10 0.527206 0.475705 0.322827
O O11 0.389469 0.452980 0.330363
O O12 0.709820 0.497707 0.532470
O O13 0.411875 0.750000 0.701512
O O14 0.202021 0.750000 0.895657
O O15 0.271933 0.937713 0.861831
O O16 0.015597 0.976133 0.757745
O O17 0.500000 0.500000 0.500000
O O18 0.589706 0.750000 0.581599
O O19 0.802845 0.551422 0.698284
O O20 0.193114 0.750000 0.731306
O O21 0.177524 0.250000 0.369928
#
# Coordination Sequence:
#
# PCOD8073817 Si02
#       8
#     4   4   4   4   4   4   4   4
#     4  11  20  32  50  71  97 125 154 189 233 282
#     4  10  20  35  50  63  89 125 159 199 239 272
#     4   9  16  28  49  74  95 119 155 187 220 278
#     4   9  18  32  48  68  95 123 152 193 233 267
#     4  10  21  34  49  69  93 122 159 199 234 278
#     4   8  14  25  44  69  95 122 147 178 225 277
#     4  10  20  35  51  69  94 121 155 199 242 277
#     4   9  17  30  46  69 101 125 144 184 238 277
#
# _framework density 17.307739999999999
#
# number of rings (size 3 to 8) (size 9 to 14) (size 15 to 20)
#    0.000    2.500    1.250    1.500    0.000    1.500 
#    0.000    1.250    0.000    0.750    0.000    0.000 
#    0.000    0.000    0.000    0.000    0.000    0.000 
#
# Total GULP energy -396530.411292 kJ/mol
# GULP energy per Si atom -12391.575353 kJ/mol
# Density = 1.726835 g / cm^3
# Si number density = 17.307740 Si / 1000 Ang^3
#
#
#
# Elastic Constant Matrix: (Units=GPa)
#
#
# Indices 1 2 3 4 5 6 
#
# 1 145.8590 21.8327 45.0607 0.0000 -8.7703 0.0000
# 2 21.8327 35.4993 25.5574 0.0000 -4.9289 0.0000
# 3 45.0607 25.5574 85.5541 0.0000 -9.2911 0.0000
# 4 0.0000 0.0000 0.0000 27.7760 0.0000 -0.4580
# 5 -8.7703 -4.9289 -9.2911 0.0000 16.4814 0.0000
# 6 0.0000 0.0000 0.0000 -0.4580 0.0000 16.2377
#
#
#
# Elastic Compliance Matrix: (Units=1/GPa)
#
#
# Indices 1 2 3 4 5 6 
#
# 1 0.008408 -0.002389 -0.003522 0.000000 0.001774 0.000000
# 2 -0.002389 0.036957 -0.009288 0.000000 0.004545 0.000000
# 3 -0.003522 -0.009288 0.016844 0.000000 0.004844 0.000000
# 4 0.000000 0.000000 0.000000 0.036019 0.000000 0.001016
# 5 0.001774 0.004545 0.004844 0.000000 0.065708 0.000000
# 6 0.000000 0.000000 0.000000 0.001016 0.000000 0.061614
#
#
# Mechanical properties :
#
#
# Convention : Reuss Voigt Hill
#
# Bulk Modulus (GPa) = 31.43619 50.20155 40.81887
# Shear Modulus (GPa) = 18.75797 23.72978 21.24387
#
# Velocity S-wave (km/s) = 3.29567 3.70679 3.50726
# Velocity P-wave (km/s) = 5.71703 6.88394 6.32744
#
# Compressibility (1/GPa) = 0.03181047
#
# Stress axis : x y z
#
# Youngs Moduli (GPa) = 118.92912 27.05858 59.36726
#
# Poissons Ratio (x) = 0.06465 0.20911
# Poissons Ratio (y) = 0.28414 0.55141
# Poissons Ratio (z) = 0.41890 0.25132
#
# Static dielectric constant tensor:
#      x y z
#    x 3.622530 0.000000 -0.207270 
#    y 0.000000 3.145170 0.000000 
#    z -0.207270 0.000000 2.839820 
# 
# 
# High freq. dielectric constant tensor:
#      x y z
#    x 1.686510 0.000000 -0.003180 
#    y 0.000000 1.655860 0.000000 
#    z -0.003180 0.000000 1.636610 
# 
# From -- ./inp_files/42546.got.cif
#   From: 2010.06.25/outbox.cif.g09.slc.cpg/sg11_22_cif.got.tgz:42546.got - 2010.06.27 23:14:04.
