data_PCOD8073615
_publ_section_title
;
Structure prediction by ZEFSAII (Michael W. Deem and Ramdas Pophale) SiO2 
 PCOD8073615
Probable space group: P 21/M
;
_chemical_formula_sum "Si O2"
_cell_formula_units_Z 32
_cell_length_a 33.059826
_cell_length_b 9.039833
_cell_length_c 12.373873
_cell_angle_alpha 90.000000
_cell_angle_beta 28.344760
_cell_angle_gamma 90.000000
_cell_volume 1755.720145
_symmetry_space_group_name_H-M "P 21/M"
_symmetry_group_IT_number 11
_symmetry_cell_setting 'monoclinic'
loop_
_space_group_symop_operation_xyz
x,y,z
-x,1/2+y,-z
-x,-y,-z
x,1/2-y,z
loop_
_atom_site_type_symbol
_atom_site_label
_atom_site_fract_x
_atom_site_fract_y
_atom_site_fract_z
Si Si1 0.682681 0.576941 0.692280
Si Si2 0.851718 0.575491 0.674954
Si Si3 0.196113 0.081393 0.967310
Si Si4 0.684970 0.421199 0.470411
Si Si5 0.467086 0.580305 0.681712
Si Si6 0.009674 0.420785 0.364561
Si Si7 0.726183 0.422583 0.804315
Si Si8 0.505617 0.418539 0.798539
O O1 0.703078 0.750000 0.651751
O O2 0.716800 0.514027 0.498614
O O3 0.732527 0.493608 0.670595
O O4 0.581876 0.542608 0.934679
O O5 0.858277 0.750000 0.642692
O O6 0.945477 0.503930 0.433573
O O7 0.789874 0.506510 0.732726
O O8 0.818825 0.535396 0.872698
O O9 0.228796 0.250000 0.885610
O O10 0.266818 0.974858 0.750509
O O11 0.109499 0.065337 0.099347
O O12 0.705767 0.250000 0.440916
O O13 0.584075 0.447615 0.693857
O O14 0.500000 0.500000 0.500000
O O15 0.490106 0.750000 0.615669
O O16 0.517720 0.520680 0.665954
O O17 0.367159 0.551240 0.928456
O O18 0.982557 0.250000 0.438081
O O19 0.000000 0.500000 0.500000
O O20 0.749403 0.250000 0.742477
O O21 0.504174 0.250000 0.760903
#
# Coordination Sequence:
#
# PCOD8073615 Si02
#       8
#     4   4   4   4   4   4   4   4
#     4  10  20  37  57  74 101 139 180 224 268 312
#     4  10  20  34  55  82 110 140 176 215 260 319
#     4   9  20  35  51  78 111 141 174 211 260 315
#     4  11  22  34  53  79 107 137 176 224 266 312
#     4  10  21  34  50  72 103 141 175 216 264 311
#     4   9  17  32  53  77 107 141 175 213 260 314
#     4  10  21  36  54  77 104 137 179 220 261 312
#     4   9  20  36  52  74 101 136 180 221 263 311
#
# _framework density 18.226139
#
# number of rings (size 3 to 8) (size 9 to 14) (size 15 to 20)
#    0.000    2.250    0.000    3.375    1.750    6.000 
#    0.000    0.000    0.000    0.750    0.000    0.000 
#    0.000    0.000    0.000    0.000    0.000    0.000 
#
# Total GULP energy -396796.042642 kJ/mol
# GULP energy per Si atom -12399.876333 kJ/mol
# Density = 1.818466 g / cm^3
# Si number density = 18.226139 Si / 1000 Ang^3
#
#
#
# Elastic Constant Matrix: (Units=GPa)
#
#
# Indices 1 2 3 4 5 6 
#
# 1 108.1610 56.9644 28.8241 0.0000 -9.9173 0.0000
# 2 56.9644 102.6645 26.2567 0.0000 -11.5029 0.0000
# 3 28.8241 26.2567 38.5373 0.0000 -6.9446 0.0000
# 4 0.0000 0.0000 0.0000 30.1299 0.0000 -0.3977
# 5 -9.9173 -11.5029 -6.9446 0.0000 18.3913 0.0000
# 6 0.0000 0.0000 0.0000 -0.3977 0.0000 37.2666
#
#
#
# Elastic Compliance Matrix: (Units=1/GPa)
#
#
# Indices 1 2 3 4 5 6 
#
# 1 0.014289 -0.006171 -0.006212 0.000000 0.001499 0.000000
# 2 -0.006171 0.014846 -0.004748 0.000000 0.004164 0.000000
# 3 -0.006212 -0.004748 0.035079 0.000000 0.006926 0.000000
# 4 0.000000 0.000000 0.000000 0.033194 0.000000 0.000354
# 5 0.001499 0.004164 0.006926 0.000000 0.060402 0.000000
# 6 0.000000 0.000000 0.000000 0.000354 0.000000 0.026837
#
#
# Mechanical properties :
#
#
# Convention : Reuss Voigt Hill
#
# Bulk Modulus (GPa) = 33.39031 52.60588 42.99810
# Shear Modulus (GPa) = 21.84412 26.31207 24.07810
#
# Velocity S-wave (km/s) = 3.46570 3.80365 3.63860
# Velocity P-wave (km/s) = 5.86298 6.94377 6.42614
#
# Compressibility (1/GPa) = 0.02994881
#
# Stress axis : x y z
#
# Youngs Moduli (GPa) = 69.98507 67.35917 28.50721
#
# Poissons Ratio (x) = 0.41570 0.17710
# Poissons Ratio (y) = 0.43191 0.13537
# Poissons Ratio (z) = 0.43477 0.31985
#
# Static dielectric constant tensor:
#      x y z
#    x 3.262930 0.000000 -0.457370 
#    y 0.000000 3.506010 0.000000 
#    z -0.457370 0.000000 2.926680 
# 
# 
# High freq. dielectric constant tensor:
#      x y z
#    x 1.700740 0.000000 -0.009620 
#    y 0.000000 1.722850 0.000000 
#    z -0.009620 0.000000 1.683650 
# 
# From -- ./inp_files/45173.got.cif
#   From: 2010.06.25/outbox.cif.g09.slc.cpg/sg11_23_cif.got.tgz:45173.got - 2010.06.27 23:14:04.
