data_PCOD8073987
_publ_section_title
;
Structure prediction by ZEFSAII (Michael W. Deem and Ramdas Pophale) SiO2 
 PCOD8073987
Probable space group: P 21/M
;
_chemical_formula_sum "Si O2"
_cell_formula_units_Z 28
_cell_length_a 15.831196
_cell_length_b 8.940658
_cell_length_c 12.633222
_cell_angle_alpha 90.000000
_cell_angle_beta 125.243073
_cell_angle_gamma 90.000000
_cell_volume 1460.380126
_symmetry_space_group_name_H-M "P 21/M"
_symmetry_group_IT_number 11
_symmetry_cell_setting 'monoclinic'
loop_
_space_group_symop_operation_xyz
x,y,z
-x,1/2+y,-z
-x,-y,-z
x,1/2-y,z
loop_
_atom_site_type_symbol
_atom_site_label
_atom_site_fract_x
_atom_site_fract_y
_atom_site_fract_z
Si Si1 0.482313 0.574853 0.172176
Si Si2 0.284971 0.075789 0.948671
Si Si3 0.463942 0.923981 0.580051
Si Si4 0.771607 0.077434 0.533148
Si Si5 0.895128 0.923475 0.801851
Si Si6 0.285443 0.078813 0.711496
Si Si7 0.865110 0.423592 0.993969
O O1 0.461461 0.750000 0.167112
O O2 0.396183 0.502063 0.035693
O O3 0.472419 0.501894 0.280536
O O4 0.593239 0.537588 0.202070
O O5 0.298124 0.250000 0.983260
O O6 0.204439 0.005370 0.970818
O O7 0.242986 0.050646 0.798946
O O8 0.491729 0.750000 0.598899
O O9 0.342404 0.952304 0.505026
O O10 0.500000 0.000000 0.500000
O O11 0.803128 0.250000 0.560788
O O12 0.851920 0.984081 0.660425
O O13 0.778338 0.023590 0.416234
O O14 0.868148 0.750000 0.794835
O O15 0.842447 0.010290 0.861412
O O16 0.017131 0.952362 0.888476
O O17 0.270318 0.250000 0.665139
O O18 0.835902 0.250000 0.970624
#
# Coordination Sequence:
#
# PCOD8073987 Si02
#       7
#     4   4   4   4   4   4   4
#     4  10  20  35  55  79 111 150 188 230 276 326
#     4  11  22  36  57  84 114 148 188 233 280 330
#     4  10  21  35  51  77 112 147 185 228 272 328
#     4  10  21  36  58  83 110 146 186 228 279 333
#     4  10  21  39  62  84 111 146 183 228 283 337
#     4   9  20  38  57  81 113 150 191 230 273 330
#     4  10  22  39  59  85 113 143 185 232 278 334
#
# _framework density 19.173089999999998
#
# number of rings (size 3 to 8) (size 9 to 14) (size 15 to 20)
#    0.000    2.000    0.000    3.000    2.000    5.143 
#    0.000    0.714    0.000    0.000    0.000    0.000 
#    0.000    0.000    0.000    0.000    0.000    0.000 
#
# Total GULP energy -347328.659741 kJ/mol
# GULP energy per Si atom -12404.594991 kJ/mol
# Density = 1.912945 g / cm^3
# Si number density = 19.173090 Si / 1000 Ang^3
#
#
#
# Elastic Constant Matrix: (Units=GPa)
#
#
# Indices 1 2 3 4 5 6 
#
# 1 56.5503 34.8351 30.2821 0.0000 -17.1224 0.0000
# 2 34.8351 116.0279 57.1111 0.0000 -3.2880 0.0000
# 3 30.2821 57.1111 113.1918 0.0000 -9.5325 0.0000
# 4 0.0000 0.0000 0.0000 38.6789 0.0000 -0.6019
# 5 -17.1224 -3.2880 -9.5325 0.0000 22.9745 0.0000
# 6 0.0000 0.0000 0.0000 -0.6019 0.0000 29.0860
#
#
#
# Elastic Compliance Matrix: (Units=1/GPa)
#
#
# Indices 1 2 3 4 5 6 
#
# 1 0.029394 -0.006937 -0.002697 0.000000 0.019795 0.000000
# 2 -0.006937 0.013117 -0.005222 0.000000 -0.005459 0.000000
# 3 -0.002697 -0.005222 0.012392 0.000000 0.002384 0.000000
# 4 0.000000 0.000000 0.000000 0.025862 0.000000 0.000535
# 5 0.019795 -0.005459 0.002384 0.000000 0.058487 0.000000
# 6 0.000000 0.000000 0.000000 0.000535 0.000000 0.034392
#
#
# Mechanical properties :
#
#
# Convention : Reuss Voigt Hill
#
# Bulk Modulus (GPa) = 39.69598 58.91407 49.30502
# Shear Modulus (GPa) = 23.61244 29.05063 26.33154
#
# Velocity S-wave (km/s) = 3.51314 3.89675 3.70991
# Velocity P-wave (km/s) = 6.09960 7.14426 6.64250
#
# Compressibility (1/GPa) = 0.02519147
#
# Stress axis : x y z
#
# Youngs Moduli (GPa) = 34.02045 76.23731 80.69915
#
# Poissons Ratio (x) = 0.52883 0.21763
# Poissons Ratio (y) = 0.23599 0.42143
# Poissons Ratio (z) = 0.09175 0.39813
#
# Static dielectric constant tensor:
#      x y z
#    x 3.326710 0.000000 -0.074210 
#    y 0.000000 3.678700 0.000000 
#    z -0.074210 0.000000 3.560360 
# 
# 
# High freq. dielectric constant tensor:
#      x y z
#    x 1.730260 0.000000 -0.011030 
#    y 0.000000 1.761480 0.000000 
#    z -0.011030 0.000000 1.752170 
# 
# From -- ./inp_files/38431.got.cif
#   From: 2010.06.25/outbox.cif.g09.slc.cpg/sg11_20_cif.got.tgz:38431.got - 2010.06.27 23:14:04.
