data_PCOD8073772
_publ_section_title
;
Structure prediction by ZEFSAII (Michael W. Deem and Ramdas Pophale) SiO2 
 PCOD8073772
Probable space group: P 21/M
;
_chemical_formula_sum "Si O2"
_cell_formula_units_Z 28
_cell_length_a 10.230834
_cell_length_b 8.777511
_cell_length_c 30.056205
_cell_angle_alpha 90.000000
_cell_angle_beta 33.197849
_cell_angle_gamma 90.000000
_cell_volume 1477.834904
_symmetry_space_group_name_H-M "P 21/M"
_symmetry_group_IT_number 11
_symmetry_cell_setting 'monoclinic'
loop_
_space_group_symop_operation_xyz
x,y,z
-x,1/2+y,-z
-x,-y,-z
x,1/2-y,z
loop_
_atom_site_type_symbol
_atom_site_label
_atom_site_fract_x
_atom_site_fract_y
_atom_site_fract_z
Si Si1 0.612366 0.427612 0.747275
Si Si2 0.631225 0.426291 0.587656
Si Si3 0.151830 0.571967 0.736540
Si Si4 0.639321 0.928060 0.001179
Si Si5 0.121667 0.070395 0.841742
Si Si6 0.291843 0.926432 0.179424
Si Si7 0.109950 0.426707 0.405030
O O1 0.656564 0.250000 0.726112
O O2 0.361282 0.481815 0.798369
O O3 0.612269 0.467487 0.799172
O O4 0.826059 0.521606 0.663028
O O5 0.559290 0.250000 0.610411
O O6 0.397877 0.524164 0.642294
O O7 0.729755 0.473177 0.607719
O O8 0.829885 0.458202 0.493372
O O9 0.150640 0.750000 0.746899
O O10 0.123550 0.482461 0.790472
O O11 0.937376 0.529578 0.764888
O O12 0.657577 0.750000 0.987126
O O13 0.503233 0.966989 0.085375
O O14 0.902889 0.996179 0.930494
O O15 0.500000 0.000000 0.000000
O O16 0.088568 0.250000 0.852093
O O17 0.217290 0.750000 0.196651
O O18 0.170109 0.250000 0.395851
#
# Coordination Sequence:
#
# PCOD8073772 Si02
#       7
#     4   4   4   4   4   4   4
#     4  10  22  40  61  85 118 160 197 234 294 355
#     4  10  20  35  57  86 119 154 193 240 292 343
#     4  12  23  36  59  90 117 151 199 244 289 345
#     4  11  22  37  60  87 117 152 197 246 292 343
#     4  11  22  37  60  87 118 154 193 241 292 349
#     4  10  23  42  61  83 117 159 197 239 294 353
#     4  10  20  34  57  88 119 152 193 242 290 341
#
# _framework density 18.946636000000002
#
# number of rings (size 3 to 8) (size 9 to 14) (size 15 to 20)
#    0.000    1.429    2.857    3.000    0.000    4.000 
#    0.000    0.714    0.000    0.000    0.000    0.000 
#    0.000    0.000    0.000    0.000    0.000    0.000 
#
# Total GULP energy -347352.443792 kJ/mol
# GULP energy per Si atom -12405.444421 kJ/mol
# Density = 1.890351 g / cm^3
# Si number density = 18.946636 Si / 1000 Ang^3
#
#
#
# Elastic Constant Matrix: (Units=GPa)
#
#
# Indices 1 2 3 4 5 6 
#
# 1 90.8467 24.1810 52.4967 0.0000 5.7215 0.0000
# 2 24.1810 65.0948 48.9628 0.0000 -0.6350 0.0000
# 3 52.4967 48.9628 145.1536 0.0000 1.0118 0.0000
# 4 0.0000 0.0000 0.0000 36.7175 0.0000 -3.6529
# 5 5.7215 -0.6350 1.0118 0.0000 32.0327 0.0000
# 6 0.0000 0.0000 0.0000 -3.6529 0.0000 22.7617
#
#
#
# Elastic Compliance Matrix: (Units=1/GPa)
#
#
# Indices 1 2 3 4 5 6 
#
# 1 0.014274 -0.001951 -0.004487 0.000000 -0.002446 0.000000
# 2 -0.001951 0.020864 -0.006339 0.000000 0.000962 0.000000
# 3 -0.004487 -0.006339 0.010648 0.000000 0.000339 0.000000
# 4 0.000000 0.000000 0.000000 0.027677 0.000000 0.004442
# 5 -0.002446 0.000962 0.000339 0.000000 0.031663 0.000000
# 6 0.000000 0.000000 0.000000 0.004442 0.000000 0.044646
#
#
# Mechanical properties :
#
#
# Convention : Reuss Voigt Hill
#
# Bulk Modulus (GPa) = 49.42711 61.37510 55.40110
# Shear Modulus (GPa) = 27.46178 29.99937 28.73057
#
# Velocity S-wave (km/s) = 3.81127 3.98346 3.89832
# Velocity P-wave (km/s) = 6.74625 7.32266 7.04035
#
# Compressibility (1/GPa) = 0.02023181
#
# Stress axis : x y z
#
# Youngs Moduli (GPa) = 70.05783 47.92848 93.91458
#
# Poissons Ratio (x) = 0.09351 0.42141
# Poissons Ratio (y) = 0.13669 0.59532
# Poissons Ratio (z) = 0.31436 0.30382
#
# Static dielectric constant tensor:
#      x y z
#    x 3.273840 0.000000 -0.057730 
#    y 0.000000 3.520640 0.000000 
#    z -0.057730 0.000000 3.853160 
# 
# 
# High freq. dielectric constant tensor:
#      x y z
#    x 1.714160 0.000000 -0.005660 
#    y 0.000000 1.744840 0.000000 
#    z -0.005660 0.000000 1.752580 
# 
# From -- ./inp_files/72711.got.cif
#   From: 2010.06.25/outbox.cif.g09.slc.cpg/sg11_37_cif.got.tgz:72711.got - 2010.06.27 23:14:04.
