data_PCOD8073124
_publ_section_title
;
Structure prediction by ZEFSAII (Michael W. Deem and Ramdas Pophale) SiO2 
 PCOD8073124
Probable space group: P 21/M
;
_chemical_formula_sum "Si O2"
_cell_formula_units_Z 32
_cell_length_a 19.369328
_cell_length_b 8.492065
_cell_length_c 12.447101
_cell_angle_alpha 90.000000
_cell_angle_beta 63.887693
_cell_angle_gamma 90.000000
_cell_volume 1838.400109
_symmetry_space_group_name_H-M "P 21/M"
_symmetry_group_IT_number 11
_symmetry_cell_setting 'monoclinic'
loop_
_space_group_symop_operation_xyz
x,y,z
-x,1/2+y,-z
-x,-y,-z
x,1/2-y,z
loop_
_atom_site_type_symbol
_atom_site_label
_atom_site_fract_x
_atom_site_fract_y
_atom_site_fract_z
Si Si1 0.332178 0.935906 0.225323
Si Si2 0.092964 0.067982 0.274069
Si Si3 0.826996 0.066575 0.577190
Si Si4 0.181741 0.434894 0.996216
Si Si5 0.067863 0.067736 0.668825
Si Si6 0.497247 0.564407 0.120207
Si Si7 0.661915 0.563946 0.016603
Si Si8 0.076305 0.566001 0.893758
O O1 0.329860 0.750000 0.213256
O O2 0.261317 0.991204 0.347493
O O3 0.414098 0.989746 0.225255
O O4 0.322576 0.004696 0.113573
O O5 0.106395 0.250000 0.294328
O O6 0.126196 0.960928 0.345623
O O7 0.134033 0.022302 0.135186
O O8 0.002749 0.036501 0.324342
O O9 0.831580 0.250000 0.544256
O O10 0.859946 0.964241 0.457441
O O11 0.175196 0.250000 0.974688
O O12 0.269957 0.492553 0.951409
O O13 0.148952 0.534556 0.920130
O O14 0.044613 0.250000 0.680821
O O15 0.092107 0.021377 0.771782
O O16 0.499099 0.750000 0.114629
O O17 0.577631 0.507138 0.120982
O O18 0.500000 0.500000 0.000000
O O19 0.665973 0.750000 0.006406
O O20 0.065767 0.750000 0.879459
O O21 0.000000 0.500000 0.000000
#
# Coordination Sequence:
#
# PCOD8073124 Si02
#       8
#     4   4   4   4   4   4   4   4
#     4   9  17  28  45  70 102 136 168 202 244 295
#     4  11  21  35  54  75 104 136 172 210 251 301
#     4  11  22  35  51  74 106 139 174 211 252 301
#     4  10  20  33  52  77 104 136 171 208 250 297
#     4  12  25  40  56  73  97 131 174 216 258 302
#     4   8  14  25  42  67  98 133 166 198 240 290
#     4   9  16  28  47  71 102 134 167 204 243 292
#     4  12  24  39  58  77  99 129 167 211 258 303
#
# _framework density 17.406438999999999
#
# number of rings (size 3 to 8) (size 9 to 14) (size 15 to 20)
#    0.000    1.750    2.500    3.375    0.000    1.500 
#    0.000    0.000    0.000    0.000    0.000    0.875 
#    0.000    0.000    0.000    0.000    0.000    0.000 
#
# Total GULP energy -396602.370750 kJ/mol
# GULP energy per Si atom -12393.824086 kJ/mol
# Density = 1.736682 g / cm^3
# Si number density = 17.406439 Si / 1000 Ang^3
#
#
#
# Elastic Constant Matrix: (Units=GPa)
#
#
# Indices 1 2 3 4 5 6 
#
# 1 140.5749 16.1822 50.3803 0.0000 -27.7159 0.0000
# 2 16.1822 36.5163 11.0141 0.0000 -0.1769 0.0000
# 3 50.3803 11.0141 100.8739 0.0000 -6.5136 0.0000
# 4 0.0000 0.0000 0.0000 22.1842 0.0000 2.5072
# 5 -27.7159 -0.1769 -6.5136 0.0000 23.4262 0.0000
# 6 0.0000 0.0000 0.0000 2.5072 0.0000 15.2225
#
#
#
# Elastic Compliance Matrix: (Units=1/GPa)
#
#
# Indices 1 2 3 4 5 6 
#
# 1 0.011653 -0.003713 -0.004609 0.000000 0.012477 0.000000
# 2 -0.003713 0.029511 -0.001667 0.000000 -0.004634 0.000000
# 3 -0.004609 -0.001667 0.012264 0.000000 -0.002055 0.000000
# 4 0.000000 0.000000 0.000000 0.045932 0.000000 -0.007565
# 5 0.012477 -0.004634 -0.002055 0.000000 0.056843 0.000000
# 6 0.000000 0.000000 0.000000 -0.007565 0.000000 0.066938
#
#
# Mechanical properties :
#
#
# Convention : Reuss Voigt Hill
#
# Bulk Modulus (GPa) = 29.89513 48.12426 39.00969
# Shear Modulus (GPa) = 19.66417 25.52580 22.59499
#
# Velocity S-wave (km/s) = 3.36476 3.83359 3.60680
# Velocity P-wave (km/s) = 5.68397 6.87769 6.30913
#
# Compressibility (1/GPa) = 0.03345027
#
# Stress axis : x y z
#
# Youngs Moduli (GPa) = 85.81595 33.88576 81.53646
#
# Poissons Ratio (x) = 0.12583 0.37578
# Poissons Ratio (y) = 0.31867 0.13591
# Poissons Ratio (z) = 0.39551 0.05648
#
# Static dielectric constant tensor:
#      x y z
#    x 3.901210 0.000000 -0.375280 
#    y 0.000000 3.171060 0.000000 
#    z -0.375280 0.000000 3.171570 
# 
# 
# High freq. dielectric constant tensor:
#      x y z
#    x 1.681410 0.000000 -0.022840 
#    y 0.000000 1.675640 0.000000 
#    z -0.022840 0.000000 1.637930 
# 
# From -- ./inp_files/42492.got.cif
#   From: 2010.06.25/outbox.cif.g09.slc.cpg/sg11_22_cif.got.tgz:42492.got - 2010.06.27 23:14:04.
