data_PCOD8073520
_publ_section_title
;
Structure prediction by ZEFSAII (Michael W. Deem and Ramdas Pophale) SiO2 
 PCOD8073520
Probable space group: P 21/M
;
_chemical_formula_sum "Si O2"
_cell_formula_units_Z 28
_cell_length_a 20.923766
_cell_length_b 9.293956
_cell_length_c 16.080190
_cell_angle_alpha 90.000000
_cell_angle_beta 27.542056
_cell_angle_gamma 90.000000
_cell_volume 1445.935974
_symmetry_space_group_name_H-M "P 21/M"
_symmetry_group_IT_number 11
_symmetry_cell_setting 'monoclinic'
loop_
_space_group_symop_operation_xyz
x,y,z
-x,1/2+y,-z
-x,-y,-z
x,1/2-y,z
loop_
_atom_site_type_symbol
_atom_site_label
_atom_site_fract_x
_atom_site_fract_y
_atom_site_fract_z
Si Si1 0.933174 0.415149 0.652746
Si Si2 0.787035 0.085736 0.427595
Si Si3 0.663278 0.412255 0.874223
Si Si4 0.669810 0.917964 0.228905
Si Si5 0.643760 0.417164 0.424254
Si Si6 0.646393 0.581405 0.735729
Si Si7 0.927013 0.914953 0.825428
O O1 0.985390 0.250000 0.593557
O O2 0.768060 0.423120 0.830225
O O3 0.969499 0.488035 0.698156
O O4 0.000000 0.500000 0.500000
O O5 0.740477 0.250000 0.498163
O O6 0.738926 0.036956 0.391766
O O7 0.952424 0.069857 0.244750
O O8 0.712811 0.982679 0.577542
O O9 0.656624 0.250000 0.846438
O O10 0.715113 0.513500 0.739043
O O11 0.514958 0.460996 0.079510
O O12 0.688361 0.750000 0.224742
O O13 0.516864 0.955370 0.371183
O O14 0.699203 0.996830 0.281388
O O15 0.783247 0.969917 0.030927
O O16 0.659021 0.250000 0.385751
O O17 0.673362 0.750000 0.706165
O O18 0.913534 0.750000 0.810643
#
# Coordination Sequence:
#
# PCOD8073520 Si02
#       7
#     4   4   4   4   4   4   4
#     4  11  23  38  56  79 110 148 188 229 275 324
#     4  10  21  36  54  79 112 147 178 222 276 324
#     4   9  20  37  53  74 106 143 180 227 279 322
#     4   9  19  37  58  82 110 142 182 226 272 326
#     4   9  19  36  58  82 109 144 182 223 274 328
#     4  10  20  34  54  80 107 138 183 229 271 324
#     4  10  22  38  56  81 114 148 184 227 275 326
#
# _framework density 19.364619999999999
#
# number of rings (size 3 to 8) (size 9 to 14) (size 15 to 20)
#    0.000    2.286    0.000    1.714    2.000    7.429 
#    0.000    0.000    0.000    0.000    0.000    0.000 
#    0.000    0.000    0.000    0.000    0.000    0.000 
#
# Total GULP energy -347268.209086 kJ/mol
# GULP energy per Si atom -12402.436039 kJ/mol
# Density = 1.932055 g / cm^3
# Si number density = 19.364620 Si / 1000 Ang^3
#
#
#
# Elastic Constant Matrix: (Units=GPa)
#
#
# Indices 1 2 3 4 5 6 
#
# 1 119.7183 40.3595 38.9538 0.0000 3.5733 0.0000
# 2 40.3595 80.3423 43.7846 0.0000 10.1194 0.0000
# 3 38.9538 43.7846 97.1781 0.0000 13.0302 0.0000
# 4 0.0000 0.0000 0.0000 31.4515 0.0000 6.1404
# 5 3.5733 10.1194 13.0302 0.0000 23.5565 0.0000
# 6 0.0000 0.0000 0.0000 6.1404 0.0000 29.5952
#
#
#
# Elastic Compliance Matrix: (Units=1/GPa)
#
#
# Indices 1 2 3 4 5 6 
#
# 1 0.010523 -0.004071 -0.002597 0.000000 0.001589 0.000000
# 2 -0.004071 0.018301 -0.006095 0.000000 -0.003873 0.000000
# 3 -0.002597 -0.006095 0.014769 0.000000 -0.005157 0.000000
# 4 0.000000 0.000000 0.000000 0.033137 0.000000 -0.006875
# 5 0.001589 -0.003873 -0.005157 0.000000 0.046727 0.000000
# 6 0.000000 0.000000 0.000000 -0.006875 0.000000 0.035216
#
#
# Mechanical properties :
#
#
# Convention : Reuss Voigt Hill
#
# Bulk Modulus (GPa) = 55.34704 60.38160 57.86432
# Shear Modulus (GPa) = 26.28535 28.53002 27.40768
#
# Velocity S-wave (km/s) = 3.68828 3.84253 3.76619
# Velocity P-wave (km/s) = 6.83969 7.13693 6.98989
#
# Compressibility (1/GPa) = 0.01806781
#
# Stress axis : x y z
#
# Youngs Moduli (GPa) = 95.03062 54.64185 67.71011
#
# Poissons Ratio (x) = 0.22245 0.17584
# Poissons Ratio (y) = 0.38687 0.41266
# Poissons Ratio (z) = 0.24679 0.33302
#
# Static dielectric constant tensor:
#      x y z
#    x 3.626600 0.000000 -0.219690 
#    y 0.000000 3.532910 0.000000 
#    z -0.219690 0.000000 3.527370 
# 
# 
# High freq. dielectric constant tensor:
#      x y z
#    x 1.754950 0.000000 -0.013320 
#    y 0.000000 1.753280 0.000000 
#    z -0.013320 0.000000 1.750860 
# 
# From -- ./inp_files/54499.got.cif
#   From: 2010.06.25/outbox.cif.g09.slc.cpg/sg11_28_cif.got.tgz:54499.got - 2010.06.27 23:14:04.
