data_PCOD8073769
_publ_section_title
;
Structure prediction by ZEFSAII (Michael W. Deem and Ramdas Pophale) SiO2 
 PCOD8073769
Probable space group: P 21/M
;
_chemical_formula_sum "Si O2"
_cell_formula_units_Z 32
_cell_length_a 14.975887
_cell_length_b 8.947219
_cell_length_c 12.147346
_cell_angle_alpha 90.000000
_cell_angle_beta 79.159250
_cell_angle_gamma 90.000000
_cell_volume 1598.606209
_symmetry_space_group_name_H-M "P 21/M"
_symmetry_group_IT_number 11
_symmetry_cell_setting 'monoclinic'
loop_
_space_group_symop_operation_xyz
x,y,z
-x,1/2+y,-z
-x,-y,-z
x,1/2-y,z
loop_
_atom_site_type_symbol
_atom_site_label
_atom_site_fract_x
_atom_site_fract_y
_atom_site_fract_z
Si Si1 0.007159 0.925918 0.672081
Si Si2 0.126495 0.077398 0.487158
Si Si3 0.937344 0.573094 0.922333
Si Si4 0.400799 0.575448 0.179007
Si Si5 0.698256 0.085266 0.579592
Si Si6 0.587303 0.428747 0.162801
Si Si7 0.426964 0.916230 0.587590
Si Si8 0.725134 0.571706 0.968171
O O1 0.016618 0.750000 0.674402
O O2 0.933443 0.980609 0.600513
O O3 0.977523 0.987197 0.797559
O O4 0.102556 0.994109 0.607559
O O5 0.112744 0.250000 0.511779
O O6 0.228267 0.043786 0.426333
O O7 0.946378 0.750000 0.929932
O O8 0.831316 0.526211 0.954824
O O9 0.000000 0.500000 0.000000
O O10 0.410987 0.750000 0.144636
O O11 0.381394 0.553617 0.313557
O O12 0.494288 0.489305 0.129268
O O13 0.317641 0.503027 0.130872
O O14 0.739938 0.250000 0.594560
O O15 0.664400 0.081710 0.462205
O O16 0.593018 0.250000 0.148205
O O17 0.592066 0.485192 0.288056
O O18 0.673308 0.505543 0.085472
O O19 0.464628 0.750000 0.597109
O O20 0.500000 0.000000 0.500000
O O21 0.713988 0.750000 0.963755
#
# Coordination Sequence:
#
# PCOD8073769 Si02
#       8
#     4   4   4   4   4   4   4   4
#     4   9  19  38  59  81 115 151 185 235 296 346
#     4  10  20  34  57  88 116 148 192 237 283 344
#     4  10  23  42  64  87 116 155 196 245 299 353
#     4  11  22  38  62  89 121 158 199 247 297 350
#     4  10  21  36  56  85 120 155 190 234 291 345
#     4  11  23  39  61  88 120 160 203 245 294 350
#     4  10  21  38  58  81 113 152 192 234 281 338
#     4  11  24  42  62  87 120 155 198 248 298 353
#
# _framework density 20.017437000000001
#
# number of rings (size 3 to 8) (size 9 to 14) (size 15 to 20)
#    0.000    1.750    1.250    2.625    0.000    6.000 
#    0.000    3.750    0.000    0.000    0.000    0.000 
#    0.000    0.000    0.000    0.000    0.000    0.000 
#
# Total GULP energy -396763.301228 kJ/mol
# GULP energy per Si atom -12398.853163 kJ/mol
# Density = 1.997188 g / cm^3
# Si number density = 20.017437 Si / 1000 Ang^3
#
#
#
# Elastic Constant Matrix: (Units=GPa)
#
#
# Indices 1 2 3 4 5 6 
#
# 1 87.1397 35.5782 49.8172 0.0000 -6.1217 0.0000
# 2 35.5782 62.6534 40.8786 0.0000 -0.7283 0.0000
# 3 49.8172 40.8786 146.2429 0.0000 -5.9448 0.0000
# 4 0.0000 0.0000 0.0000 30.7285 0.0000 -2.2862
# 5 -6.1217 -0.7283 -5.9448 0.0000 31.0776 0.0000
# 6 0.0000 0.0000 0.0000 -2.2862 0.0000 36.2685
#
#
#
# Elastic Compliance Matrix: (Units=1/GPa)
#
#
# Indices 1 2 3 4 5 6 
#
# 1 0.016567 -0.007046 -0.003576 0.000000 0.002414 0.000000
# 2 -0.007046 0.022529 -0.003963 0.000000 -0.001618 0.000000
# 3 -0.003576 -0.003963 0.009203 0.000000 0.000963 0.000000
# 4 0.000000 0.000000 0.000000 0.032696 0.000000 0.002061
# 5 0.002414 -0.001618 0.000963 0.000000 0.032799 0.000000
# 6 0.000000 0.000000 0.000000 0.002061 0.000000 0.027702
#
#
# Mechanical properties :
#
#
# Convention : Reuss Voigt Hill
#
# Bulk Modulus (GPa) = 52.27770 60.95377 56.61573
# Shear Modulus (GPa) = 28.24188 30.93241 29.58714
#
# Velocity S-wave (km/s) = 3.76022 3.93526 3.84874
# Velocity P-wave (km/s) = 6.71008 7.15296 6.93505
#
# Compressibility (1/GPa) = 0.01912862
#
# Stress axis : x y z
#
# Youngs Moduli (GPa) = 60.36261 44.38730 108.66260
#
# Poissons Ratio (x) = 0.31277 0.38853
# Poissons Ratio (y) = 0.42534 0.43061
# Poissons Ratio (z) = 0.21583 0.17590
#
# Static dielectric constant tensor:
#      x y z
#    x 3.609860 0.000000 0.012500 
#    y 0.000000 3.569570 0.000000 
#    z 0.012500 0.000000 3.972030 
# 
# 
# High freq. dielectric constant tensor:
#      x y z
#    x 1.774480 0.000000 -0.006670 
#    y 0.000000 1.780640 0.000000 
#    z -0.006670 0.000000 1.793670 
# 
# From -- ./inp_files/38168.got.cif
#   From: 2010.06.25/outbox.cif.g09.slc.cpg/sg11_20_cif.got.tgz:38168.got - 2010.06.27 23:14:04.
