data_PCOD8073748
_publ_section_title
;
Structure prediction by ZEFSAII (Michael W. Deem and Ramdas Pophale) SiO2 
 PCOD8073748
Probable space group: P 21/M
;
_chemical_formula_sum "Si O2"
_cell_formula_units_Z 32
_cell_length_a 15.400673
_cell_length_b 8.962588
_cell_length_c 22.918546
_cell_angle_alpha 90.000000
_cell_angle_beta 30.156734
_cell_angle_gamma 90.000000
_cell_volume 1589.210536
_symmetry_space_group_name_H-M "P 21/M"
_symmetry_group_IT_number 11
_symmetry_cell_setting 'monoclinic'
loop_
_space_group_symop_operation_xyz
x,y,z
-x,1/2+y,-z
-x,-y,-z
x,1/2-y,z
loop_
_atom_site_type_symbol
_atom_site_label
_atom_site_fract_x
_atom_site_fract_y
_atom_site_fract_z
Si Si1 0.685614 0.427711 0.380518
Si Si2 0.803842 0.077104 0.063001
Si Si3 0.956216 0.928290 0.312196
Si Si4 0.145035 0.924330 0.837588
Si Si5 0.223623 0.581160 0.349113
Si Si6 0.676147 0.573978 0.921099
Si Si7 0.408621 0.416320 0.899926
Si Si8 0.885929 0.574942 0.482340
O O1 0.500000 0.500000 0.500000
O O2 0.677395 0.250000 0.395298
O O3 0.836982 0.496467 0.332421
O O4 0.728871 0.469523 0.288368
O O5 0.840732 0.250000 0.040329
O O6 0.777152 0.022629 0.145314
O O7 0.636235 0.035083 0.123840
O O8 0.959855 0.999642 0.937869
O O9 0.966144 0.750000 0.296659
O O10 0.865320 0.969417 0.426649
O O11 0.150531 0.993695 0.202378
O O12 0.111895 0.750000 0.855708
O O13 0.182487 0.750000 0.389991
O O14 0.386212 0.568522 0.211619
O O15 0.256963 0.497302 0.391764
O O16 0.068203 0.512736 0.401300
O O17 0.676999 0.750000 0.904693
O O18 0.500000 0.500000 0.000000
O O19 0.683262 0.548472 0.986146
O O20 0.358899 0.250000 0.907432
O O21 0.871000 0.750000 0.496776
#
# Coordination Sequence:
#
# PCOD8073748 Si02
#       8
#     4   4   4   4   4   4   4   4
#     4  11  24  42  62  85 116 154 196 242 292 345
#     4  10  20  34  57  85 108 137 180 227 276 336
#     4  11  23  40  61  86 119 156 195 240 290 345
#     4   9  20  39  58  78 109 144 178 225 286 339
#     4   9  18  34  55  78 106 143 185 226 271 330
#     4  11  23  39  60  87 121 159 197 238 287 343
#     4  10  21  36  53  78 114 148 178 222 281 334
#     4   9  19  36  56  78 108 145 183 229 283 329
#
# _framework density 20.135784000000001
#
# number of rings (size 3 to 8) (size 9 to 14) (size 15 to 20)
#    0.000    2.000    0.000    3.000    0.000   10.000 
#    0.000    6.250    0.000    0.000    0.000    0.000 
#    0.000    0.000    0.000    0.000    0.000    0.000 
#
# Total GULP energy -396656.592101 kJ/mol
# GULP energy per Si atom -12395.518503 kJ/mol
# Density = 2.008995 g / cm^3
# Si number density = 20.135784 Si / 1000 Ang^3
#
#
#
# Elastic Constant Matrix: (Units=GPa)
#
#
# Indices 1 2 3 4 5 6 
#
# 1 89.9809 42.6120 34.0582 0.0000 3.0218 0.0000
# 2 42.6120 63.8438 40.6379 0.0000 8.3059 0.0000
# 3 34.0582 40.6379 89.5067 0.0000 10.2302 0.0000
# 4 0.0000 0.0000 0.0000 34.2914 0.0000 -1.5493
# 5 3.0218 8.3059 10.2302 0.0000 34.9894 0.0000
# 6 0.0000 0.0000 0.0000 -1.5493 0.0000 35.0958
#
#
#
# Elastic Compliance Matrix: (Units=1/GPa)
#
#
# Indices 1 2 3 4 5 6 
#
# 1 0.016528 -0.010007 -0.001918 0.000000 0.001509 0.000000
# 2 -0.010007 0.028282 -0.008654 0.000000 -0.003319 0.000000
# 3 -0.001918 -0.008654 0.016116 0.000000 -0.002492 0.000000
# 4 0.000000 0.000000 0.000000 0.029220 0.000000 0.001290
# 5 0.001509 -0.003319 -0.002492 0.000000 0.029966 0.000000
# 6 0.000000 0.000000 0.000000 0.001290 0.000000 0.028550
#
#
# Mechanical properties :
#
#
# Convention : Reuss Voigt Hill
#
# Bulk Modulus (GPa) = 50.58452 53.10528 51.84490
# Shear Modulus (GPa) = 25.45706 29.27687 27.36696
#
# Velocity S-wave (km/s) = 3.55951 3.81724 3.69063
# Velocity P-wave (km/s) = 6.48612 6.77194 6.63057
#
# Compressibility (1/GPa) = 0.01976890
#
# Stress axis : x y z
#
# Youngs Moduli (GPa) = 60.50475 35.35802 62.05006
#
# Poissons Ratio (x) = 0.35381 0.11902
# Poissons Ratio (y) = 0.60544 0.53696
# Poissons Ratio (z) = 0.11606 0.30598
#
# Static dielectric constant tensor:
#      x y z
#    x 4.002660 0.000000 0.131590 
#    y 0.000000 3.705450 0.000000 
#    z 0.131590 0.000000 3.700780 
# 
# 
# High freq. dielectric constant tensor:
#      x y z
#    x 1.788870 0.000000 0.010520 
#    y 0.000000 1.786450 0.000000 
#    z 0.010520 0.000000 1.787670 
# 
# From -- ./inp_files/69028.got.cif
#   From: 2010.06.25/outbox.cif.g09.slc.cpg/sg11_35_cif.got.tgz:69028.got - 2010.06.27 23:14:04.
