data_PCOD8073902
_publ_section_title
;
Structure prediction by ZEFSAII (Michael W. Deem and Ramdas Pophale) SiO2 
 PCOD8073902
Probable space group: P 21/M
;
_chemical_formula_sum "Si O2"
_cell_formula_units_Z 32
_cell_length_a 29.275073
_cell_length_b 9.665580
_cell_length_c 12.128784
_cell_angle_alpha 90.000000
_cell_angle_beta 149.338847
_cell_angle_gamma 90.000000
_cell_volume 1750.165514
_symmetry_space_group_name_H-M "P 21/M"
_symmetry_group_IT_number 11
_symmetry_cell_setting 'monoclinic'
loop_
_space_group_symop_operation_xyz
x,y,z
-x,1/2+y,-z
-x,-y,-z
x,1/2-y,z
loop_
_atom_site_type_symbol
_atom_site_label
_atom_site_fract_x
_atom_site_fract_y
_atom_site_fract_z
Si Si1 0.440877 0.407187 0.099635
Si Si2 0.033672 0.410474 0.906058
Si Si3 0.737636 0.590099 0.859573
Si Si4 0.942991 0.910527 0.297379
Si Si5 0.583955 0.908498 0.706330
Si Si6 0.330634 0.909404 0.706729
Si Si7 0.643833 0.410096 0.492402
Si Si8 0.128588 0.909087 0.276298
O O1 0.432391 0.250000 0.039702
O O2 0.392623 0.428496 0.116567
O O3 0.544953 0.446408 0.330678
O O4 0.396103 0.503723 0.917721
O O5 0.060741 0.250000 0.972970
O O6 0.936152 0.440838 0.755227
O O7 0.033108 0.456415 0.777702
O O8 0.106678 0.498212 0.124582
O O9 0.725294 0.750000 0.801585
O O10 0.672412 0.546050 0.823871
O O11 0.715906 0.500408 0.707195
O O12 0.838947 0.560449 0.106654
O O13 0.967008 0.750000 0.364927
O O14 0.000000 0.000000 0.500000
O O15 0.557938 0.750000 0.627179
O O16 0.500000 0.000000 0.500000
O O17 0.353277 0.750000 0.775047
O O18 0.349680 0.951166 0.621208
O O19 0.228113 0.943642 0.524294
O O20 0.667962 0.250000 0.561292
O O21 0.121114 0.750000 0.222305
#
# Coordination Sequence:
#
# PCOD8073902 Si02
#       8
#     4   4   4   4   4   4   4   4
#     4  10  21  35  51  74 105 138 173 214 260 313
#     4   9  18  34  55  76 103 136 172 215 263 313
#     4  10  21  36  57  82 106 137 179 223 266 315
#     4  10  22  38  54  78 110 142 178 220 266 316
#     4  10  20  36  56  78 105 136 174 221 265 310
#     4  10  21  34  50  76 108 138 173 215 261 312
#     4  10  20  35  54  77 106 138 175 218 262 313
#     4   9  18  33  53  78 104 133 172 217 261 312
#
# _framework density 18.283984
#
# number of rings (size 3 to 8) (size 9 to 14) (size 15 to 20)
#    0.000    2.250    1.250    1.125    0.000    4.000 
#    0.000    0.000    0.000    0.000    0.000    0.000 
#    0.000    0.000    0.000    0.000    0.000    0.000 
#
# Total GULP energy -396900.556454 kJ/mol
# GULP energy per Si atom -12403.142389 kJ/mol
# Density = 1.824237 g / cm^3
# Si number density = 18.283984 Si / 1000 Ang^3
#
#
#
# Elastic Constant Matrix: (Units=GPa)
#
#
# Indices 1 2 3 4 5 6 
#
# 1 111.3705 43.9233 51.9721 0.0000 0.3802 0.0000
# 2 43.9233 71.0712 61.3737 0.0000 -8.2857 0.0000
# 3 51.9721 61.3737 102.9070 0.0000 -7.8578 0.0000
# 4 0.0000 0.0000 0.0000 39.1959 0.0000 -5.2446
# 5 0.3802 -8.2857 -7.8578 0.0000 20.1009 0.0000
# 6 0.0000 0.0000 0.0000 -5.2446 0.0000 23.0618
#
#
#
# Elastic Compliance Matrix: (Units=1/GPa)
#
#
# Indices 1 2 3 4 5 6 
#
# 1 0.012726 -0.005169 -0.003634 0.000000 -0.003792 0.000000
# 2 -0.005169 0.031682 -0.015750 0.000000 0.007000 0.000000
# 3 -0.003634 -0.015750 0.021085 0.000000 0.001819 0.000000
# 4 0.000000 0.000000 0.000000 0.026314 0.000000 0.005984
# 5 -0.003792 0.007000 0.001819 0.000000 0.053417 0.000000
# 6 0.000000 0.000000 0.000000 0.005984 0.000000 0.044723
#
#
# Mechanical properties :
#
#
# Convention : Reuss Voigt Hill
#
# Bulk Modulus (GPa) = 61.02316 66.65409 63.83862
# Shear Modulus (GPa) = 20.44855 25.01036 22.72945
#
# Velocity S-wave (km/s) = 3.34786 3.70250 3.52964
# Velocity P-wave (km/s) = 6.95642 7.40352 7.18345
#
# Compressibility (1/GPa) = 0.01638722
#
# Stress axis : x y z
#
# Youngs Moduli (GPa) = 78.57629 31.56358 47.42680
#
# Poissons Ratio (x) = 0.16315 0.17235
# Poissons Ratio (y) = 0.40616 0.74698
# Poissons Ratio (z) = 0.28556 0.49713
#
# Static dielectric constant tensor:
#      x y z
#    x 3.655050 0.000000 0.164230 
#    y 0.000000 3.341490 0.000000 
#    z 0.164230 0.000000 3.173090 
# 
# 
# High freq. dielectric constant tensor:
#      x y z
#    x 1.725460 0.000000 0.007850 
#    y 0.000000 1.706800 0.000000 
#    z 0.007850 0.000000 1.697220 
# 
# From -- ./inp_files/42809.got.cif
#   From: 2010.06.25/outbox.cif.g09.slc.cpg/sg11_22_cif.got.tgz:42809.got - 2010.06.27 23:14:04.
