data_PCOD8073896
_publ_section_title
;
Structure prediction by ZEFSAII (Michael W. Deem and Ramdas Pophale) SiO2 
 PCOD8073896
Probable space group: P 21/M
;
_chemical_formula_sum "Si O2"
_cell_formula_units_Z 32
_cell_length_a 25.148850
_cell_length_b 8.914250
_cell_length_c 18.370325
_cell_angle_alpha 90.000000
_cell_angle_beta 156.001643
_cell_angle_gamma 90.000000
_cell_volume 1674.962574
_symmetry_space_group_name_H-M "P 21/M"
_symmetry_group_IT_number 11
_symmetry_cell_setting 'monoclinic'
loop_
_space_group_symop_operation_xyz
x,y,z
-x,1/2+y,-z
-x,-y,-z
x,1/2-y,z
loop_
_atom_site_type_symbol
_atom_site_label
_atom_site_fract_x
_atom_site_fract_y
_atom_site_fract_z
Si Si1 0.620724 0.927890 0.446975
Si Si2 0.865728 0.574430 0.174667
Si Si3 0.131646 0.423903 0.504747
Si Si4 0.127070 0.425481 0.983544
Si Si5 0.377628 0.428058 0.386163
Si Si6 0.372917 0.927793 0.046209
Si Si7 0.392484 0.073593 0.915809
Si Si8 0.859135 0.574173 0.650078
O O1 0.628458 0.750000 0.455267
O O2 0.628445 0.988125 0.538899
O O3 0.484465 0.981619 0.241843
O O4 0.742095 0.993875 0.552475
O O5 0.847438 0.750000 0.166635
O O6 0.841500 0.531129 0.060370
O O7 0.010750 0.525148 0.379591
O O8 0.765834 0.482843 0.098742
O O9 0.091124 0.250000 0.459059
O O10 0.250452 0.463447 0.705981
O O11 0.171682 0.465751 0.472294
O O12 0.104874 0.250000 0.963980
O O13 0.995458 0.503811 0.846710
O O14 0.246362 0.482811 0.181931
O O15 0.500000 0.500000 0.500000
O O16 0.392212 0.250000 0.400828
O O17 0.371393 0.750000 0.034596
O O18 0.405613 0.002628 0.010951
O O19 0.417263 0.250000 0.950651
O O20 0.500000 0.000000 0.000000
O O21 0.870670 0.750000 0.676532
#
# Coordination Sequence:
#
# PCOD8073896 Si02
#       8
#     4   4   4   4   4   4   4   4
#     4   9  19  35  55  78 105 141 181 221 265 316
#     4  10  20  35  55  80 110 142 178 221 270 321
#     4   9  19  36  57  79 105 140 179 217 260 317
#     4   9  19  34  52  78 111 141 171 217 272 317
#     4  10  20  35  54  76 106 141 178 220 266 316
#     4  11  22  37  57  80 108 142 182 225 269 318
#     4  11  23  39  59  83 111 142 179 222 269 320
#     4   9  17  33  56  78 102 136 178 216 254 312
#
# _framework density 19.104904000000001
#
# number of rings (size 3 to 8) (size 9 to 14) (size 15 to 20)
#    0.000    2.250    0.000    2.625    0.000    5.000 
#    0.000    5.000    0.000    0.000    0.000    0.000 
#    0.000    0.000    0.000    0.000    0.000    0.000 
#
# Total GULP energy -396908.173930 kJ/mol
# GULP energy per Si atom -12403.380435 kJ/mol
# Density = 1.906142 g / cm^3
# Si number density = 19.104904 Si / 1000 Ang^3
#
#
#
# Elastic Constant Matrix: (Units=GPa)
#
#
# Indices 1 2 3 4 5 6 
#
# 1 114.6093 38.7007 55.1112 0.0000 9.3127 0.0000
# 2 38.7007 55.4815 47.5449 0.0000 1.8703 0.0000
# 3 55.1112 47.5449 113.0835 0.0000 -1.1098 0.0000
# 4 0.0000 0.0000 0.0000 31.8800 0.0000 3.7629
# 5 9.3127 1.8703 -1.1098 0.0000 37.4020 0.0000
# 6 0.0000 0.0000 0.0000 3.7629 0.0000 29.0004
#
#
#
# Elastic Compliance Matrix: (Units=1/GPa)
#
#
# Indices 1 2 3 4 5 6 
#
# 1 0.012680 -0.005350 -0.003960 0.000000 -0.003007 0.000000
# 2 -0.005350 0.030550 -0.010242 0.000000 -0.000499 0.000000
# 3 -0.003960 -0.010242 0.015098 0.000000 0.001946 0.000000
# 4 0.000000 0.000000 0.000000 0.031856 0.000000 -0.004133
# 5 -0.003007 -0.000499 0.001946 0.000000 0.027568 0.000000
# 6 0.000000 0.000000 0.000000 -0.004133 0.000000 0.035019
#
#
# Mechanical properties :
#
#
# Convention : Reuss Voigt Hill
#
# Bulk Modulus (GPa) = 52.01768 62.87642 57.44705
# Shear Modulus (GPa) = 25.21659 29.11098 27.16378
#
# Velocity S-wave (km/s) = 3.63699 3.90775 3.77480
# Velocity P-wave (km/s) = 6.70249 7.30365 7.00952
#
# Compressibility (1/GPa) = 0.01922423
#
# Stress axis : x y z
#
# Youngs Moduli (GPa) = 78.86140 32.73357 66.23417
#
# Poissons Ratio (x) = 0.17514 0.26227
# Poissons Ratio (y) = 0.42194 0.67835
# Poissons Ratio (z) = 0.31227 0.33525
#
# Static dielectric constant tensor:
#      x y z
#    x 3.545100 0.000000 -0.056860 
#    y 0.000000 3.368210 0.000000 
#    z -0.056860 0.000000 3.698920 
# 
# 
# High freq. dielectric constant tensor:
#      x y z
#    x 1.748110 0.000000 0.002890 
#    y 0.000000 1.729490 0.000000 
#    z 0.002890 0.000000 1.755450 
# 
# From -- ./inp_files/67164.got.cif
#   From: 2010.06.25/outbox.cif.g09.slc.cpg/sg11_34_cif.got.tgz:67164.got - 2010.06.27 23:14:04.
