data_PCOD8073669
_publ_section_title
;
Structure prediction by ZEFSAII (Michael W. Deem and Ramdas Pophale) SiO2 
 PCOD8073669
Probable space group: P 21/M
;
_chemical_formula_sum "Si O2"
_cell_formula_units_Z 32
_cell_length_a 9.454151
_cell_length_b 14.242578
_cell_length_c 25.240426
_cell_angle_alpha 90.000000
_cell_angle_beta 151.153674
_cell_angle_gamma 90.000000
_cell_volume 1639.724842
_symmetry_space_group_name_H-M "P 21/M"
_symmetry_group_IT_number 11
_symmetry_cell_setting 'monoclinic'
loop_
_space_group_symop_operation_xyz
x,y,z
-x,1/2+y,-z
-x,-y,-z
x,1/2-y,z
loop_
_atom_site_type_symbol
_atom_site_label
_atom_site_fract_x
_atom_site_fract_y
_atom_site_fract_z
Si Si1 0.361551 0.143921 0.225589
Si Si2 0.833707 0.090891 0.466440
Si Si3 0.417270 0.351389 0.695981
Si Si4 0.685153 0.973339 0.510464
Si Si5 0.716409 0.140248 0.687557
Si Si6 0.745527 0.137659 0.073697
Si Si7 0.347848 0.511280 0.755108
Si Si8 0.707656 0.525588 0.142512
O O1 0.334471 0.250000 0.198340
O O2 0.621114 0.133260 0.353133
O O3 0.059682 0.111079 0.152818
O O4 0.425358 0.087791 0.192681
O O5 0.088277 0.163569 0.565328
O O6 0.652965 0.061030 0.459423
O O7 0.000000 0.000000 0.500000
O O8 0.531789 0.250000 0.752116
O O9 0.630438 0.389671 0.719344
O O10 0.421277 0.416418 0.748109
O O11 0.558496 0.879152 0.441510
O O12 0.500000 0.000000 0.500000
O O13 0.019272 0.953399 0.636169
O O14 0.800308 0.250000 0.711627
O O15 0.973992 0.072757 0.752345
O O16 0.711979 0.250000 0.074213
O O17 0.706901 0.076457 0.114355
O O18 0.501705 0.102784 0.952651
O O19 0.404313 0.493484 0.835070
#
# Coordination Sequence:
#
# PCOD8073669 Si02
#       8
#     4   4   4   4   4   4   4   4
#     4  11  22  39  62  87 119 160 204 246 295 351
#     4  11  18  34  57  80 116 162 198 239 283 359
#     4  10  20  34  55  86 118 155 198 240 290 357
#     4  11  20  34  52  84 124 159 191 239 299 360
#     4  11  21  36  60  87 123 167 204 240 291 356
#     4  10  24  44  65  88 115 157 208 250 301 364
#     4  11  22  37  61  88 122 153 192 248 304 359
#     4  11  23  41  66  88 121 157 198 257 304 355
#
# _framework density 19.515469
#
# number of rings (size 3 to 8) (size 9 to 14) (size 15 to 20)
#    0.000    1.250    5.000    2.250    0.000    3.500 
#    0.000    0.625    0.000    3.000    0.000    0.000 
#    0.000    0.000    0.000    0.000    0.000    0.000 
#
# Total GULP energy -396744.518453 kJ/mol
# GULP energy per Si atom -12398.266202 kJ/mol
# Density = 1.947105 g / cm^3
# Si number density = 19.515469 Si / 1000 Ang^3
#
#
#
# Elastic Constant Matrix: (Units=GPa)
#
#
# Indices 1 2 3 4 5 6 
#
# 1 149.9090 57.0640 19.3582 0.0000 -14.5057 0.0000
# 2 57.0640 97.4287 29.8220 0.0000 -6.3087 0.0000
# 3 19.3582 29.8220 39.2993 0.0000 -6.5847 0.0000
# 4 0.0000 0.0000 0.0000 24.3216 0.0000 6.4282
# 5 -14.5057 -6.3087 -6.5847 0.0000 29.1703 0.0000
# 6 0.0000 0.0000 0.0000 6.4282 0.0000 24.5000
#
#
#
# Elastic Compliance Matrix: (Units=1/GPa)
#
#
# Indices 1 2 3 4 5 6 
#
# 1 0.008895 -0.004981 -0.000043 0.000000 0.003336 0.000000
# 2 -0.004981 0.016169 -0.010025 0.000000 -0.001243 0.000000
# 3 -0.000043 -0.010025 0.033993 0.000000 0.005484 0.000000
# 4 0.000000 0.000000 0.000000 0.044179 0.000000 -0.011592
# 5 0.003336 -0.001243 0.005484 0.000000 0.036910 0.000000
# 6 0.000000 0.000000 0.000000 -0.011592 0.000000 0.043858
#
#
# Mechanical properties :
#
#
# Convention : Reuss Voigt Hill
#
# Bulk Modulus (GPa) = 34.52986 55.45839 44.99413
# Shear Modulus (GPa) = 22.34603 27.62458 24.98531
#
# Velocity S-wave (km/s) = 3.38752 3.76642 3.58198
# Velocity P-wave (km/s) = 5.74738 6.88433 6.34138
#
# Compressibility (1/GPa) = 0.02896044
#
# Stress axis : x y z
#
# Youngs Moduli (GPa) = 112.42253 61.84668 29.41793
#
# Poissons Ratio (x) = 0.30803 0.00127
# Poissons Ratio (y) = 0.55993 0.29490
# Poissons Ratio (z) = 0.00484 0.61999
#
# Static dielectric constant tensor:
#      x y z
#    x 4.472220 0.000000 -1.981270 
#    y 0.000000 3.373970 0.000000 
#    z -1.981270 0.000000 10.242000 
# 
# 
# High freq. dielectric constant tensor:
#      x y z
#    x 1.769520 0.000000 0.009060 
#    y 0.000000 1.760250 0.000000 
#    z 0.009060 0.000000 1.748080 
# 
# From -- ./inp_files/68151.got.cif
#   From: 2010.06.25/outbox.cif.g09.slc.cpg/sg11_35_cif.got.tgz:68151.got - 2010.06.27 23:14:04.
