data_PCOD8073331
_publ_section_title
;
Structure prediction by ZEFSAII (Michael W. Deem and Ramdas Pophale) SiO2 
 PCOD8073331
Probable space group: P 21/M
;
_chemical_formula_sum "Si O2"
_cell_formula_units_Z 32
_cell_length_a 17.543899
_cell_length_b 8.968840
_cell_length_c 23.980555
_cell_angle_alpha 90.000000
_cell_angle_beta 151.761822
_cell_angle_gamma 90.000000
_cell_volume 1785.292429
_symmetry_space_group_name_H-M "P 21/M"
_symmetry_group_IT_number 11
_symmetry_cell_setting 'monoclinic'
loop_
_space_group_symop_operation_xyz
x,y,z
-x,1/2+y,-z
-x,-y,-z
x,1/2-y,z
loop_
_atom_site_type_symbol
_atom_site_label
_atom_site_fract_x
_atom_site_fract_y
_atom_site_fract_z
Si Si1 0.552312 0.425825 0.976607
Si Si2 0.867524 0.577336 0.877302
Si Si3 0.881277 0.579574 0.173573
Si Si4 0.965416 0.577005 0.105051
Si Si5 0.655901 0.923325 0.839362
Si Si6 0.004586 0.923448 0.372142
Si Si7 0.725690 0.075944 0.261517
Si Si8 0.304697 0.576185 0.632459
O O1 0.528945 0.250000 0.965730
O O2 0.442171 0.491990 0.856818
O O3 0.500000 0.500000 0.000000
O O4 0.735629 0.464488 0.081801
O O5 0.906979 0.750000 0.896922
O O6 0.698608 0.551917 0.801122
O O7 0.879987 0.503945 0.823853
O O8 0.000000 0.500000 0.000000
O O9 0.815657 0.750000 0.131820
O O10 0.978644 0.547943 0.179582
O O11 0.998878 0.552183 0.301881
O O12 0.978230 0.750000 0.098162
O O13 0.796222 0.512020 0.970687
O O14 0.642960 0.750000 0.845736
O O15 0.481416 0.999745 0.738418
O O16 0.982944 0.750000 0.374071
O O17 0.175213 0.986983 0.504510
O O18 0.861930 0.013413 0.309066
O O19 0.702977 0.250000 0.234136
O O20 0.768520 0.045975 0.353547
O O21 0.326205 0.750000 0.634853
#
# Coordination Sequence:
#
# PCOD8073331 Si02
#       8
#     4   4   4   4   4   4   4   4
#     4  12  23  35  52  74 101 132 167 207 255 306
#     4   9  16  27  47  74 101 129 160 201 252 306
#     4  10  20  34  52  74 102 135 170 208 253 302
#     4   9  17  30  49  73 101 133 164 200 251 309
#     4   8  14  27  47  70  96 125 161 201 246 300
#     4  10  20  34  52  72  97 132 175 217 252 298
#     4  11  21  34  53  74 100 133 169 212 262 307
#     4   9  18  32  51  74  98 130 172 214 255 302
#
# _framework density 17.924233999999998
#
# number of rings (size 3 to 8) (size 9 to 14) (size 15 to 20)
#    0.000    2.250    1.250    3.750    0.000    2.500 
#    0.000    0.625    0.000    6.750    0.000    0.000 
#    0.000    0.000    0.000    0.000    0.000    0.500 
#
# Total GULP energy -396641.064794 kJ/mol
# GULP energy per Si atom -12395.033275 kJ/mol
# Density = 1.788344 g / cm^3
# Si number density = 17.924234 Si / 1000 Ang^3
#
#
#
# Elastic Constant Matrix: (Units=GPa)
#
#
# Indices 1 2 3 4 5 6 
#
# 1 118.2522 38.1880 39.0263 0.0000 -15.9609 0.0000
# 2 38.1880 72.7425 23.8913 0.0000 -7.4176 0.0000
# 3 39.0263 23.8913 87.3064 0.0000 -18.2048 0.0000
# 4 0.0000 0.0000 0.0000 16.2199 0.0000 0.2111
# 5 -15.9609 -7.4176 -18.2048 0.0000 21.1858 0.0000
# 6 0.0000 0.0000 0.0000 0.2111 0.0000 25.0041
#
#
#
# Elastic Compliance Matrix: (Units=1/GPa)
#
#
# Indices 1 2 3 4 5 6 
#
# 1 0.011535 -0.004626 -0.002943 0.000000 0.004541 0.000000
# 2 -0.004626 0.017038 -0.002531 0.000000 0.000306 0.000000
# 3 -0.002943 -0.002531 0.015612 0.000000 0.010312 0.000000
# 4 0.000000 0.000000 0.000000 0.061659 0.000000 -0.000520
# 5 0.004541 0.000306 0.010312 0.000000 0.059591 0.000000
# 6 0.000000 0.000000 0.000000 -0.000520 0.000000 0.039998
#
#
# Mechanical properties :
#
#
# Convention : Reuss Voigt Hill
#
# Bulk Modulus (GPa) = 41.69260 53.39025 47.54143
# Shear Modulus (GPa) = 21.40158 24.29500 22.84829
#
# Velocity S-wave (km/s) = 3.45918 3.68561 3.57419
# Velocity P-wave (km/s) = 6.26622 6.92552 6.60411
#
# Compressibility (1/GPa) = 0.02398507
#
# Stress axis : x y z
#
# Youngs Moduli (GPa) = 86.69568 58.69274 64.05165
#
# Poissons Ratio (x) = 0.27149 0.18852
# Poissons Ratio (y) = 0.40102 0.16211
# Poissons Ratio (z) = 0.25517 0.14855
#
# Static dielectric constant tensor:
#      x y z
#    x 3.690060 0.000000 0.015900 
#    y 0.000000 3.240360 0.000000 
#    z 0.015900 0.000000 3.480470 
# 
# 
# High freq. dielectric constant tensor:
#      x y z
#    x 1.700850 0.000000 -0.007800 
#    y 0.000000 1.672630 0.000000 
#    z -0.007800 0.000000 1.668800 
# 
# From -- ./inp_files/69470.got.cif
#   From: 2010.06.25/outbox.cif.g09.slc.cpg/sg11_35_cif.got.tgz:69470.got - 2010.06.27 23:14:04.
