data_PCOD8073755
_publ_section_title
;
Structure prediction by ZEFSAII (Michael W. Deem and Ramdas Pophale) SiO2 
 PCOD8073755
Probable space group: P 21/M
;
_chemical_formula_sum "Si O2"
_cell_formula_units_Z 28
_cell_length_a 14.642671
_cell_length_b 8.790560
_cell_length_c 11.967214
_cell_angle_alpha 90.000000
_cell_angle_beta 71.307393
_cell_angle_gamma 90.000000
_cell_volume 1459.134311
_symmetry_space_group_name_H-M "P 21/M"
_symmetry_group_IT_number 11
_symmetry_cell_setting 'monoclinic'
loop_
_space_group_symop_operation_xyz
x,y,z
-x,1/2+y,-z
-x,-y,-z
x,1/2-y,z
loop_
_atom_site_type_symbol
_atom_site_label
_atom_site_fract_x
_atom_site_fract_y
_atom_site_fract_z
Si Si1 0.910670 0.072850 0.392532
Si Si2 0.872334 0.928628 0.638734
Si Si3 0.293857 0.072440 0.136511
Si Si4 0.758883 0.926650 0.313363
Si Si5 0.337190 0.427567 0.877183
Si Si6 0.407038 0.571023 0.480461
Si Si7 0.543052 0.927494 0.761468
O O1 0.888579 0.250000 0.387744
O O2 0.024105 0.038092 0.347128
O O3 0.861681 0.015793 0.526126
O O4 0.865860 0.982048 0.304724
O O5 0.857592 0.750000 0.620480
O O6 0.792398 0.997200 0.754872
O O7 0.273049 0.250000 0.139262
O O8 0.398767 0.037521 0.147695
O O9 0.293659 0.006895 0.010311
O O10 0.744247 0.750000 0.347519
O O11 0.741072 0.957250 0.189005
O O12 0.686702 0.026528 0.414353
O O13 0.362597 0.250000 0.878558
O O14 0.435063 0.513091 0.810016
O O15 0.500000 0.500000 0.500000
O O16 0.419501 0.750000 0.473896
O O17 0.397176 0.509816 0.359024
O O18 0.540080 0.750000 0.735501
#
# Coordination Sequence:
#
# PCOD8073755 Si02
#       7
#     4   4   4   4   4   4   4
#     4  10  20  34  57  86 112 141 178 228 284 335
#     4   9  18  36  60  83 110 141 180 230 282 336
#     4   9  19  36  57  80 105 142 188 231 278 329
#     4  11  22  36  55  79 111 150 185 224 275 328
#     4  10  21  37  55  75 107 149 191 229 270 326
#     4  12  23  36  55  80 112 144 181 226 273 326
#     4  11  21  34  56  83 112 145 183 229 280 329
#
# _framework density 19.189458999999999
#
# number of rings (size 3 to 8) (size 9 to 14) (size 15 to 20)
#    0.000    1.714    1.429    3.857    0.000    2.286 
#    0.000    2.857    0.000    0.000    0.000    0.000 
#    0.000    0.000    0.000    0.000    0.000    0.000 
#
# Total GULP energy -347256.813215 kJ/mol
# GULP energy per Si atom -12402.029043 kJ/mol
# Density = 1.914578 g / cm^3
# Si number density = 19.189459 Si / 1000 Ang^3
#
#
#
# Elastic Constant Matrix: (Units=GPa)
#
#
# Indices 1 2 3 4 5 6 
#
# 1 95.5540 37.0651 38.5526 0.0000 18.5356 0.0000
# 2 37.0651 86.3706 38.4826 0.0000 13.5550 0.0000
# 3 38.5526 38.4826 105.4668 0.0000 18.7338 0.0000
# 4 0.0000 0.0000 0.0000 21.7291 0.0000 2.0565
# 5 18.5356 13.5550 18.7338 0.0000 29.5210 0.0000
# 6 0.0000 0.0000 0.0000 2.0565 0.0000 27.3509
#
#
#
# Elastic Compliance Matrix: (Units=1/GPa)
#
#
# Indices 1 2 3 4 5 6 
#
# 1 0.014168 -0.004013 -0.002775 0.000000 -0.005292 0.000000
# 2 -0.004013 0.015300 -0.003737 0.000000 -0.002134 0.000000
# 3 -0.002775 -0.003737 0.012674 0.000000 -0.004585 0.000000
# 4 0.000000 0.000000 0.000000 0.046351 0.000000 -0.003485
# 5 -0.005292 -0.002134 -0.004585 0.000000 0.041087 0.000000
# 6 0.000000 0.000000 0.000000 -0.003485 0.000000 0.036824
#
#
# Mechanical properties :
#
#
# Convention : Reuss Voigt Hill
#
# Bulk Modulus (GPa) = 47.40928 57.28800 52.34864
# Shear Modulus (GPa) = 25.70917 27.27295 26.49106
#
# Velocity S-wave (km/s) = 3.66424 3.77403 3.71954
# Velocity P-wave (km/s) = 6.53159 6.99355 6.76652
#
# Compressibility (1/GPa) = 0.02109292
#
# Stress axis : x y z
#
# Youngs Moduli (GPa) = 70.58119 65.35929 78.90375
#
# Poissons Ratio (x) = 0.26231 0.21893
# Poissons Ratio (y) = 0.28326 0.29483
# Poissons Ratio (z) = 0.19584 0.24422
#
# Static dielectric constant tensor:
#      x y z
#    x 3.748140 0.000000 0.019250 
#    y 0.000000 3.463950 0.000000 
#    z 0.019250 0.000000 3.748280 
# 
# 
# High freq. dielectric constant tensor:
#      x y z
#    x 1.751120 0.000000 0.011180 
#    y 0.000000 1.738730 0.000000 
#    z 0.011180 0.000000 1.741730 
# 
# From -- ./inp_files/37425.got.cif
#   From: 2010.06.25/outbox.cif.g09.slc.cpg/sg11_19_cif.got.tgz:37425.got - 2010.06.27 23:14:04.
