data_PCOD8073555
_publ_section_title
;
Structure prediction by ZEFSAII (Michael W. Deem and Ramdas Pophale) SiO2 
 PCOD8073555
Probable space group: P 21/M
;
_chemical_formula_sum "Si O2"
_cell_formula_units_Z 32
_cell_length_a 20.653164
_cell_length_b 9.003428
_cell_length_c 26.011846
_cell_angle_alpha 90.000000
_cell_angle_beta 21.407582
_cell_angle_gamma 90.000000
_cell_volume 1765.462570
_symmetry_space_group_name_H-M "P 21/M"
_symmetry_group_IT_number 11
_symmetry_cell_setting 'monoclinic'
loop_
_space_group_symop_operation_xyz
x,y,z
-x,1/2+y,-z
-x,-y,-z
x,1/2-y,z
loop_
_atom_site_type_symbol
_atom_site_label
_atom_site_fract_x
_atom_site_fract_y
_atom_site_fract_z
Si Si1 0.049020 0.925303 0.775958
Si Si2 0.991770 0.576425 0.086535
Si Si3 0.198843 0.919380 0.114118
Si Si4 0.913273 0.579588 0.409373
Si Si5 0.332371 0.924982 0.483017
Si Si6 0.553585 0.575676 0.907641
Si Si7 0.265648 0.423474 0.816029
Si Si8 0.915978 0.073970 0.611159
O O1 0.047439 0.750000 0.784523
O O2 0.215106 0.980022 0.618234
O O3 0.068843 0.001076 0.816180
O O4 0.865641 0.975140 0.884451
O O5 0.018403 0.750000 0.075854
O O6 0.836611 0.540802 0.160875
O O7 0.176866 0.509673 0.929237
O O8 0.168850 0.750000 0.118657
O O9 0.089564 0.954716 0.246505
O O10 0.403292 0.950474 0.975600
O O11 0.857685 0.750000 0.446163
O O12 0.747503 0.485845 0.511157
O O13 0.955475 0.534370 0.436413
O O14 0.325441 0.750000 0.485267
O O15 0.533797 0.981454 0.339840
O O16 0.584609 0.750000 0.894447
O O17 0.725743 0.498103 0.758613
O O18 0.500000 0.500000 0.000000
O O19 0.259317 0.250000 0.834083
O O20 0.894796 0.250000 0.620463
O O21 0.000000 0.000000 0.500000
#
# Coordination Sequence:
#
# PCOD8073555 Si02
#       8
#     4   4   4   4   4   4   4   4
#     4  10  20  34  54  82 112 141 176 223 271 318
#     4  10  20  35  56  80 108 145 181 219 269 321
#     4   9  18  35  56  80 109 142 180 223 271 323
#     4   9  18  35  56  78 109 144 178 221 271 325
#     4   9  19  35  56  82 108 138 179 223 268 320
#     4  11  21  36  60  86 111 145 186 232 278 332
#     4   9  19  37  57  78 108 143 182 224 266 318
#     4  11  23  40  57  81 113 148 188 233 283 333
#
# _framework density 18.125561999999999
#
# number of rings (size 3 to 8) (size 9 to 14) (size 15 to 20)
#    0.000    2.250    1.250    1.500    0.000    4.000 
#    2.250    0.000    0.000    0.000    0.000    0.000 
#    0.000    0.000    0.000    0.000    0.000    0.000 
#
# Total GULP energy -396865.428340 kJ/mol
# GULP energy per Si atom -12402.044636 kJ/mol
# Density = 1.808431 g / cm^3
# Si number density = 18.125562 Si / 1000 Ang^3
#
#
#
# Elastic Constant Matrix: (Units=GPa)
#
#
# Indices 1 2 3 4 5 6 
#
# 1 112.5829 53.0831 74.1226 0.0000 3.8091 0.0000
# 2 53.0831 76.6051 58.7090 0.0000 -0.8535 0.0000
# 3 74.1226 58.7090 137.6300 0.0000 -5.1549 0.0000
# 4 0.0000 0.0000 0.0000 30.7350 0.0000 1.1802
# 5 3.8091 -0.8535 -5.1549 0.0000 25.7985 0.0000
# 6 0.0000 0.0000 0.0000 1.1802 0.0000 36.8243
#
#
#
# Elastic Compliance Matrix: (Units=1/GPa)
#
#
# Indices 1 2 3 4 5 6 
#
# 1 0.016049 -0.006582 -0.005977 0.000000 -0.003782 0.000000
# 2 -0.006582 0.022121 -0.005871 0.000000 0.000531 0.000000
# 3 -0.005977 -0.005871 0.013113 0.000000 0.003309 0.000000
# 4 0.000000 0.000000 0.000000 0.032576 0.000000 -0.001044
# 5 -0.003782 0.000531 0.003309 0.000000 0.039999 0.000000
# 6 0.000000 0.000000 0.000000 -0.001044 0.000000 0.027189
#
#
# Mechanical properties :
#
#
# Convention : Reuss Voigt Hill
#
# Bulk Modulus (GPa) = 69.34052 77.62751 73.48402
# Shear Modulus (GPa) = 25.94477 28.06512 27.00495
#
# Velocity S-wave (km/s) = 3.78748 3.93921 3.86409
# Velocity P-wave (km/s) = 7.58059 7.97561 7.78061
#
# Compressibility (1/GPa) = 0.01442158
#
# Stress axis : x y z
#
# Youngs Moduli (GPa) = 62.30791 45.20652 76.25787
#
# Poissons Ratio (x) = 0.29757 0.45582
# Poissons Ratio (y) = 0.41014 0.44772
# Poissons Ratio (z) = 0.37244 0.26541
#
# Static dielectric constant tensor:
#      x y z
#    x 3.374130 0.000000 -0.101090 
#    y 0.000000 3.402010 0.000000 
#    z -0.101090 0.000000 3.387260 
# 
# 
# High freq. dielectric constant tensor:
#      x y z
#    x 1.703460 0.000000 -0.005580 
#    y 0.000000 1.707870 0.000000 
#    z -0.005580 0.000000 1.697560 
# 
# From -- ./inp_files/72105.got.cif
#   From: 2010.06.25/outbox.cif.g09.slc.cpg/sg11_37_cif.got.tgz:72105.got - 2010.06.27 23:14:04.
