data_PCOD8073635
_publ_section_title
;
Structure prediction by ZEFSAII (Michael W. Deem and Ramdas Pophale) SiO2 
 PCOD8073635
Probable space group: P 21/M
;
_chemical_formula_sum "Si O2"
_cell_formula_units_Z 28
_cell_length_a 20.808123
_cell_length_b 9.068548
_cell_length_c 15.884247
_cell_angle_alpha 90.000000
_cell_angle_beta 27.866933
_cell_angle_gamma 90.000000
_cell_volume 1401.019879
_symmetry_space_group_name_H-M "P 21/M"
_symmetry_group_IT_number 11
_symmetry_cell_setting 'monoclinic'
loop_
_space_group_symop_operation_xyz
x,y,z
-x,1/2+y,-z
-x,-y,-z
x,1/2-y,z
loop_
_atom_site_type_symbol
_atom_site_label
_atom_site_fract_x
_atom_site_fract_y
_atom_site_fract_z
Si Si1 0.917005 0.421334 0.345580
Si Si2 0.202458 0.082094 0.087724
Si Si3 0.660733 0.917374 0.381674
Si Si4 0.619192 0.579794 0.962276
Si Si5 0.342141 0.077174 0.273988
Si Si6 0.068619 0.420229 0.842217
Si Si7 0.645494 0.077111 0.235084
O O1 0.886658 0.250000 0.363848
O O2 0.780257 0.498176 0.536074
O O3 0.970279 0.496291 0.198113
O O4 0.038291 0.443443 0.273698
O O5 0.238169 0.250000 0.022255
O O6 0.255153 0.044433 0.120425
O O7 0.279655 0.977672 0.934089
O O8 0.648738 0.750000 0.363522
O O9 0.766800 0.931029 0.335721
O O10 0.513604 0.974470 0.585075
O O11 0.713986 0.011563 0.240260
O O12 0.573627 0.750000 0.018964
O O13 0.672000 0.538900 0.808215
O O14 0.487583 0.482113 0.140108
O O15 0.333057 0.250000 0.303169
O O16 0.020335 0.250000 0.892916
O O17 0.000000 0.500000 0.000000
O O18 0.662222 0.250000 0.219557
#
# Coordination Sequence:
#
# PCOD8073635 Si02
#       7
#     4   4   4   4   4   4   4
#     4  11  24  40  59  86 121 159 200 243 293 351
#     4  10  22  39  58  83 117 156 193 239 291 347
#     4   9  20  37  54  76 109 149 189 239 294 344
#     4   9  20  40  64  89 118 156 195 239 297 354
#     4  10  21  39  63  91 121 151 194 246 294 351
#     4  11  23  39  58  82 116 156 200 246 294 347
#     4  10  20  34  55  83 112 144 191 242 290 345
#
# _framework density 19.985441000000002
#
# number of rings (size 3 to 8) (size 9 to 14) (size 15 to 20)
#    0.000    2.000    0.000    2.571    2.000    8.000 
#    0.000    0.000    0.000    0.000    0.000    0.000 
#    0.000    0.000    0.000    0.000    0.000    0.000 
#
# Total GULP energy -347295.408171 kJ/mol
# GULP energy per Si atom -12403.407435 kJ/mol
# Density = 1.993995 g / cm^3
# Si number density = 19.985441 Si / 1000 Ang^3
#
#
#
# Elastic Constant Matrix: (Units=GPa)
#
#
# Indices 1 2 3 4 5 6 
#
# 1 112.6463 42.2002 32.8803 0.0000 -6.9931 0.0000
# 2 42.2002 107.5877 48.5225 0.0000 0.8105 0.0000
# 3 32.8803 48.5225 93.7685 0.0000 4.0096 0.0000
# 4 0.0000 0.0000 0.0000 35.3668 0.0000 2.7315
# 5 -6.9931 0.8105 4.0096 0.0000 22.9340 0.0000
# 6 0.0000 0.0000 0.0000 2.7315 0.0000 27.1663
#
#
#
# Elastic Compliance Matrix: (Units=1/GPa)
#
#
# Indices 1 2 3 4 5 6 
#
# 1 0.011037 -0.003311 -0.002323 0.000000 0.003889 0.000000
# 2 -0.003311 0.013128 -0.005611 0.000000 -0.000492 0.000000
# 3 -0.002323 -0.005611 0.014513 0.000000 -0.003048 0.000000
# 4 0.000000 0.000000 0.000000 0.028496 0.000000 -0.002865
# 5 0.003889 -0.000492 -0.003048 0.000000 0.045339 0.000000
# 6 0.000000 0.000000 0.000000 -0.002865 0.000000 0.037098
#
#
# Mechanical properties :
#
#
# Convention : Reuss Voigt Hill
#
# Bulk Modulus (GPa) = 61.77576 62.35652 62.06614
# Shear Modulus (GPa) = 28.16920 29.78671 28.97796
#
# Velocity S-wave (km/s) = 3.75839 3.86478 3.81196
# Velocity P-wave (km/s) = 7.05772 7.15431 7.10618
#
# Compressibility (1/GPa) = 0.01618758
#
# Stress axis : x y z
#
# Youngs Moduli (GPa) = 90.60283 76.17457 68.90263
#
# Poissons Ratio (x) = 0.25219 0.16008
# Poissons Ratio (y) = 0.29996 0.38663
# Poissons Ratio (z) = 0.21050 0.42744
#
# Static dielectric constant tensor:
#      x y z
#    x 3.850390 0.000000 -0.141780 
#    y 0.000000 3.705910 0.000000 
#    z -0.141780 0.000000 3.529690 
# 
# 
# High freq. dielectric constant tensor:
#      x y z
#    x 1.784930 0.000000 -0.009650 
#    y 0.000000 1.786760 0.000000 
#    z -0.009650 0.000000 1.774610 
# 
# From -- ./inp_files/54478.got.cif
#   From: 2010.06.25/outbox.cif.g09.slc.cpg/sg11_28_cif.got.tgz:54478.got - 2010.06.27 23:14:04.
