data_PCOD8073848
_publ_section_title
;
Structure prediction by ZEFSAII (Michael W. Deem and Ramdas Pophale) SiO2 
 PCOD8073848
Probable space group: P 21/M
;
_chemical_formula_sum "Si O2"
_cell_formula_units_Z 32
_cell_length_a 18.024383
_cell_length_b 8.959706
_cell_length_c 11.782809
_cell_angle_alpha 90.000000
_cell_angle_beta 110.436657
_cell_angle_gamma 90.000000
_cell_volume 1783.075946
_symmetry_space_group_name_H-M "P 21/M"
_symmetry_group_IT_number 11
_symmetry_cell_setting 'monoclinic'
loop_
_space_group_symop_operation_xyz
x,y,z
-x,1/2+y,-z
-x,-y,-z
x,1/2-y,z
loop_
_atom_site_type_symbol
_atom_site_label
_atom_site_fract_x
_atom_site_fract_y
_atom_site_fract_z
Si Si1 0.186666 0.426532 0.526322
Si Si2 0.641764 0.926614 0.773430
Si Si3 0.476459 0.080788 0.694452
Si Si4 0.664488 0.572636 0.531987
Si Si5 0.423086 0.419776 0.913706
Si Si6 0.018017 0.422983 0.393739
Si Si7 0.288191 0.925160 0.976681
Si Si8 0.850499 0.076428 0.255968
O O1 0.196466 0.250000 0.543614
O O2 0.261724 0.495137 0.499236
O O3 0.180866 0.489585 0.650381
O O4 0.108056 0.468613 0.407582
O O5 0.646218 0.750000 0.786786
O O6 0.669021 0.982662 0.664063
O O7 0.552063 0.975966 0.749998
O O8 0.701470 0.998637 0.895685
O O9 0.505425 0.250000 0.685642
O O10 0.419644 0.018709 0.564364
O O11 0.422598 0.077357 0.777811
O O12 0.667556 0.750000 0.527305
O O13 0.420211 0.250000 0.958153
O O14 0.347842 0.509494 0.916346
O O15 0.500000 0.500000 0.000000
O O16 0.017991 0.250000 0.418858
O O17 0.942896 0.463581 0.272452
O O18 0.000000 0.500000 0.500000
O O19 0.304049 0.750000 0.998377
O O20 0.200608 0.962402 0.882845
O O21 0.841619 0.250000 0.281460
#
# Coordination Sequence:
#
# PCOD8073848 Si02
#       8
#     4   4   4   4   4   4   4   4
#     4   9  16  30  53  77 101 127 157 195 245 298
#     4  11  22  35  51  68  92 127 169 211 246 284
#     4  10  20  35  53  71  96 125 157 199 248 297
#     4   9  19  34  51  73  96 123 162 206 245 288
#     4  11  21  33  52  75 100 127 157 197 244 294
#     4   8  14  26  47  74 101 128 154 188 238 293
#     4  11  22  35  50  69  99 135 168 202 241 287
#     4   9  18  31  48  75 106 130 158 196 239 290
#
# _framework density 17.946515000000002
#
# number of rings (size 3 to 8) (size 9 to 14) (size 15 to 20)
#    0.000    2.250    1.250    2.250    0.000    2.500 
#    0.000    2.500    0.000    0.750    0.000    0.000 
#    0.000    0.000    0.000    0.000    0.000    0.250 
#
# Total GULP energy -396543.778347 kJ/mol
# GULP energy per Si atom -12391.993073 kJ/mol
# Density = 1.790567 g / cm^3
# Si number density = 17.946515 Si / 1000 Ang^3
#
#
#
# Elastic Constant Matrix: (Units=GPa)
#
#
# Indices 1 2 3 4 5 6 
#
# 1 62.4341 18.7043 53.1857 0.0000 18.6690 0.0000
# 2 18.7043 54.7585 37.5518 0.0000 7.9813 0.0000
# 3 53.1857 37.5518 130.7919 0.0000 17.6309 0.0000
# 4 0.0000 0.0000 0.0000 20.7867 0.0000 0.4712
# 5 18.6690 7.9813 17.6309 0.0000 32.9542 0.0000
# 6 0.0000 0.0000 0.0000 0.4712 0.0000 17.9201
#
#
#
# Elastic Compliance Matrix: (Units=1/GPa)
#
#
# Indices 1 2 3 4 5 6 
#
# 1 0.027505 -0.001470 -0.009387 0.000000 -0.010204 0.000000
# 2 -0.001470 0.022963 -0.005774 0.000000 -0.001639 0.000000
# 3 -0.009387 -0.005774 0.013165 0.000000 -0.000327 0.000000
# 4 0.000000 0.000000 0.000000 0.048136 0.000000 -0.001266
# 5 -0.010204 -0.001639 -0.000327 0.000000 0.036698 0.000000
# 6 0.000000 0.000000 0.000000 -0.001266 0.000000 0.055837
#
#
# Mechanical properties :
#
#
# Convention : Reuss Voigt Hill
#
# Bulk Modulus (GPa) = 32.92761 51.87421 42.40091
# Shear Modulus (GPa) = 20.18655 23.56838 21.87746
#
# Velocity S-wave (km/s) = 3.35747 3.62782 3.49526
# Velocity P-wave (km/s) = 5.78079 6.82025 6.32192
#
# Compressibility (1/GPa) = 0.03036965
#
# Stress axis : x y z
#
# Youngs Moduli (GPa) = 36.35686 43.54864 75.96018
#
# Poissons Ratio (x) = 0.06404 0.71305
# Poissons Ratio (y) = 0.05346 0.43859
# Poissons Ratio (z) = 0.34129 0.25145
#
# Static dielectric constant tensor:
#      x y z
#    x 3.631620 0.000000 0.294060 
#    y 0.000000 3.242980 0.000000 
#    z 0.294060 0.000000 3.506270 
# 
# 
# High freq. dielectric constant tensor:
#      x y z
#    x 1.685280 0.000000 0.022510 
#    y 0.000000 1.687460 0.000000 
#    z 0.022510 0.000000 1.690450 
# 
# From -- ./inp_files/42503.got.cif
#   From: 2010.06.25/outbox.cif.g09.slc.cpg/sg11_22_cif.got.tgz:42503.got - 2010.06.27 23:14:04.
