data_PCOD8073319
_publ_section_title
;
Structure prediction by ZEFSAII (Michael W. Deem and Ramdas Pophale) SiO2 
 PCOD8073319
Probable space group: P 21/M
;
_chemical_formula_sum "Si O2"
_cell_formula_units_Z 32
_cell_length_a 11.386708
_cell_length_b 8.770578
_cell_length_c 20.233195
_cell_angle_alpha 90.000000
_cell_angle_beta 60.804126
_cell_angle_gamma 90.000000
_cell_volume 1763.940050
_symmetry_space_group_name_H-M "P 21/M"
_symmetry_group_IT_number 11
_symmetry_cell_setting 'monoclinic'
loop_
_space_group_symop_operation_xyz
x,y,z
-x,1/2+y,-z
-x,-y,-z
x,1/2-y,z
loop_
_atom_site_type_symbol
_atom_site_label
_atom_site_fract_x
_atom_site_fract_y
_atom_site_fract_z
Si Si1 0.135478 0.070703 0.152521
Si Si2 0.623246 0.076062 0.121694
Si Si3 0.715924 0.422938 0.432505
Si Si4 0.339795 0.077156 0.752230
Si Si5 0.901797 0.426151 0.974721
Si Si6 0.896058 0.574156 0.286563
Si Si7 0.424572 0.929147 0.082907
Si Si8 0.492511 0.575338 0.412301
O O1 0.157855 0.250000 0.143794
O O2 0.075926 0.012425 0.099784
O O3 0.275090 0.991093 0.131035
O O4 0.028012 0.026734 0.238067
O O5 0.574280 0.250000 0.133876
O O6 0.664425 0.034113 0.184586
O O7 0.503306 0.969686 0.128549
O O8 0.748978 0.052857 0.038992
O O9 0.763923 0.250000 0.409071
O O10 0.837663 0.531158 0.375316
O O11 0.583802 0.453285 0.425009
O O12 0.664458 0.450660 0.522836
O O13 0.326569 0.250000 0.781695
O O14 0.216357 0.036702 0.737646
O O15 0.480805 0.053596 0.673530
O O16 0.940318 0.250000 0.954762
O O17 0.000000 0.500000 0.000000
O O18 0.937440 0.750000 0.274789
O O19 0.418656 0.750000 0.074007
O O20 0.500000 0.000000 0.000000
O O21 0.536114 0.750000 0.418905
#
# Coordination Sequence:
#
# PCOD8073319 Si02
#       8
#     4   4   4   4   4   4   4   4
#     4  12  24  38  57  79 104 135 175 219 266 313
#     4  11  23  37  54  77 104 136 175 218 263 309
#     4   9  15  25  44  70 101 138 179 216 256 307
#     4   9  18  32  50  74 107 144 178 215 261 309
#     4  11  23  37  54  76 107 141 176 213 258 313
#     4  10  20  34  51  75 110 144 177 216 264 317
#     4  12  24  41  62  80 100 131 173 220 267 313
#     4   8  15  27  43  67 102 142 178 213 256 309
#
# _framework density 18.141206
#
# number of rings (size 3 to 8) (size 9 to 14) (size 15 to 20)
#    0.000    1.750    1.250    5.250    0.000    6.500 
#    0.000    0.000    0.000    0.000    0.000    0.875 
#    0.000    0.000    0.000    0.000    0.000    0.000 
#
# Total GULP energy -396737.782711 kJ/mol
# GULP energy per Si atom -12398.055710 kJ/mol
# Density = 1.809992 g / cm^3
# Si number density = 18.141206 Si / 1000 Ang^3
#
#
#
# Elastic Constant Matrix: (Units=GPa)
#
#
# Indices 1 2 3 4 5 6 
#
# 1 59.0845 32.7747 10.3139 0.0000 -16.7170 0.0000
# 2 32.7747 114.0410 33.8439 0.0000 -12.0976 0.0000
# 3 10.3139 33.8439 87.5620 0.0000 -26.7782 0.0000
# 4 0.0000 0.0000 0.0000 30.6568 0.0000 -3.2697
# 5 -16.7170 -12.0976 -26.7782 0.0000 19.3031 0.0000
# 6 0.0000 0.0000 0.0000 -3.2697 0.0000 25.9141
#
#
#
# Elastic Compliance Matrix: (Units=1/GPa)
#
#
# Indices 1 2 3 4 5 6 
#
# 1 0.029187 -0.007727 0.010070 0.000000 0.034404 0.000000
# 2 -0.007727 0.011978 -0.006027 0.000000 -0.007546 0.000000
# 3 0.010070 -0.006027 0.024447 0.000000 0.038858 0.000000
# 4 0.000000 0.000000 0.000000 0.033064 0.000000 0.004172
# 5 0.034404 -0.007546 0.038858 0.000000 0.130775 0.000000
# 6 0.000000 0.000000 0.000000 0.004172 0.000000 0.039115
#
#
# Mechanical properties :
#
#
# Convention : Reuss Voigt Hill
#
# Bulk Modulus (GPa) = 17.16925 46.06141 31.61533
# Shear Modulus (GPa) = 16.92902 27.42515 22.17708
#
# Velocity S-wave (km/s) = 3.05811 3.89235 3.50018
# Velocity P-wave (km/s) = 4.68553 6.75619 5.81379
#
# Compressibility (1/GPa) = 0.05824366
#
# Stress axis : x y z
#
# Youngs Moduli (GPa) = 34.26150 83.48878 40.90398
#
# Poissons Ratio (x) = 0.64513 -0.41190
# Poissons Ratio (y) = 0.26474 0.24654
# Poissons Ratio (z) = -0.34501 0.50320
#
# Static dielectric constant tensor:
#      x y z
#    x 3.066990 0.000000 -0.226370 
#    y 0.000000 3.508770 0.000000 
#    z -0.226370 0.000000 3.700080 
# 
# 
# High freq. dielectric constant tensor:
#      x y z
#    x 1.654740 0.000000 -0.020590 
#    y 0.000000 1.716370 0.000000 
#    z -0.020590 0.000000 1.713890 
# 
# From -- ./inp_files/64201.got.cif
#   From: 2010.06.25/outbox.cif.g09.slc.cpg/sg11_33_cif.got.tgz:64201.got - 2010.06.27 23:14:04.
