data_PCOD8073203
_publ_section_title
;
Structure prediction by ZEFSAII (Michael W. Deem and Ramdas Pophale) SiO2 
 PCOD8073203
Probable space group: P 21/M
;
_chemical_formula_sum "Si O2"
_cell_formula_units_Z 32
_cell_length_a 15.094570
_cell_length_b 17.590304
_cell_length_c 12.989831
_cell_angle_alpha 90.000000
_cell_angle_beta 30.617655
_cell_angle_gamma 90.000000
_cell_volume 1756.616314
_symmetry_space_group_name_H-M "P 21/M"
_symmetry_group_IT_number 11
_symmetry_cell_setting 'monoclinic'
loop_
_space_group_symop_operation_xyz
x,y,z
-x,1/2+y,-z
-x,-y,-z
x,1/2-y,z
loop_
_atom_site_type_symbol
_atom_site_label
_atom_site_fract_x
_atom_site_fract_y
_atom_site_fract_z
Si Si1 0.795816 0.837279 0.120024
Si Si2 0.697053 0.957975 0.061297
Si Si3 0.693779 0.611553 0.440545
Si Si4 0.693808 0.111551 0.171890
Si Si5 0.999986 0.666483 0.267479
Si Si6 0.697023 0.042022 0.544648
Si Si7 0.000017 0.010703 0.620501
Si Si8 0.204186 0.837280 0.711632
O O1 0.738604 0.750000 0.169384
O O2 0.731774 0.877417 0.080075
O O3 0.704093 0.876047 0.308693
O O4 0.000002 0.846646 0.928955
O O5 0.500025 0.960824 0.215529
O O6 0.732598 0.023124 0.110543
O O7 0.827851 0.969834 0.835786
O O8 0.499976 0.633467 0.672282
O O9 0.830577 0.663046 0.364525
O O10 0.732583 0.523127 0.424298
O O11 0.704071 0.123960 0.283167
O O12 0.830646 0.163040 0.974292
O O13 0.000003 0.750000 0.320720
O O14 0.000003 0.600725 0.353255
O O15 0.827778 0.030150 0.508618
O O16 0.731801 0.122578 0.456376
O O17 0.000000 0.000000 0.500000
O O18 0.261394 0.750000 0.646558
#
# Coordination Sequence:
#
# PCOD8073203 Si02
#       8
#     4   4   4   4   4   4   4   4
#     4  11  21  32  50  80 116 151 182 212 254 310
#     4  10  21  37  57  79 105 142 183 221 266 321
#     4  10  20  33  53  80 111 147 181 212 253 313
#     4  10  20  33  53  80 111 147 181 212 253 313
#     4  10  20  35  55  81 109 137 174 221 271 318
#     4  10  21  37  57  79 105 142 183 221 266 321
#     4  10  22  41  61  79 103 135 178 231 283 320
#     4  11  21  32  50  80 116 151 182 212 254 310
#
# _framework density 18.216840999999999
#
# number of rings (size 3 to 8) (size 9 to 14) (size 15 to 20)
#    0.000    1.750    2.500    2.250    0.000    7.000 
#    0.000    1.250    0.000    0.000    0.000    0.000 
#    0.000    0.000    0.000    0.000    0.000    0.000 
#
# Total GULP energy -396885.565855 kJ/mol
# GULP energy per Si atom -12402.673933 kJ/mol
# Density = 1.817538 g / cm^3
# Si number density = 18.216841 Si / 1000 Ang^3
#
#
#
# Elastic Constant Matrix: (Units=GPa)
#
#
# Indices 1 2 3 4 5 6 
#
# 1 105.9942 52.2656 71.5586 0.0000 7.2353 0.0000
# 2 52.2656 84.1311 46.0277 0.0000 7.5892 0.0000
# 3 71.5586 46.0277 107.0085 0.0000 -8.6073 0.0000
# 4 0.0000 0.0000 0.0000 8.4150 0.0000 3.5344
# 5 7.2353 7.5892 -8.6073 0.0000 33.6085 0.0000
# 6 0.0000 0.0000 0.0000 3.5344 0.0000 11.3285
#
#
#
# Elastic Compliance Matrix: (Units=1/GPa)
#
#
# Indices 1 2 3 4 5 6 
#
# 1 0.020739 -0.005842 -0.011853 0.000000 -0.006181 0.000000
# 2 -0.005842 0.018185 -0.004232 0.000000 -0.003933 0.000000
# 3 -0.011853 -0.004232 0.019782 0.000000 0.008574 0.000000
# 4 0.000000 0.000000 0.000000 0.136756 0.000000 -0.042667
# 5 -0.006181 -0.003933 0.008574 0.000000 0.034169 0.000000
# 6 0.000000 0.000000 0.000000 -0.042667 0.000000 0.101585
#
#
# Mechanical properties :
#
#
# Convention : Reuss Voigt Hill
#
# Bulk Modulus (GPa) = 67.32963 70.75971 69.04467
# Shear Modulus (GPa) = 13.15717 19.15586 16.15652
#
# Velocity S-wave (km/s) = 2.69039 3.24627 2.98132
# Velocity P-wave (km/s) = 6.83310 7.27863 7.05938
#
# Compressibility (1/GPa) = 0.01485230
#
# Stress axis : x y z
#
# Youngs Moduli (GPa) = 48.21763 54.98945 50.55221
#
# Poissons Ratio (x) = 0.32123 0.59921
# Poissons Ratio (y) = 0.28167 0.21394
# Poissons Ratio (z) = 0.57154 0.23272
#
# Static dielectric constant tensor:
#      x y z
#    x 3.132070 0.000000 -0.365360 
#    y 0.000000 3.452350 0.000000 
#    z -0.365360 0.000000 3.430680 
# 
# 
# High freq. dielectric constant tensor:
#      x y z
#    x 1.680580 0.000000 -0.032770 
#    y 0.000000 1.710190 0.000000 
#    z -0.032770 0.000000 1.707360 
# 
# From -- ./inp_files/39935.got.cif
#   From: 2010.06.25/outbox.cif.g09.slc.cpg/sg11_20_cif.got.tgz:39935.got - 2010.06.27 23:14:04.
