data_PCOD8073645
_publ_section_title
;
Structure prediction by ZEFSAII (Michael W. Deem and Ramdas Pophale) SiO2 
 PCOD8073645
Probable space group: P 21/M
;
_chemical_formula_sum "Si O2"
_cell_formula_units_Z 32
_cell_length_a 14.259668
_cell_length_b 9.029160
_cell_length_c 23.841499
_cell_angle_alpha 90.000000
_cell_angle_beta 148.991333
_cell_angle_gamma 90.000000
_cell_volume 1581.389943
_symmetry_space_group_name_H-M "P 21/M"
_symmetry_group_IT_number 11
_symmetry_cell_setting 'monoclinic'
loop_
_space_group_symop_operation_xyz
x,y,z
-x,1/2+y,-z
-x,-y,-z
x,1/2-y,z
loop_
_atom_site_type_symbol
_atom_site_label
_atom_site_fract_x
_atom_site_fract_y
_atom_site_fract_z
Si Si1 0.316735 0.922393 0.979314
Si Si2 0.655685 0.426465 0.541527
Si Si3 0.303668 0.076907 0.783304
Si Si4 0.742067 0.581423 0.829202
Si Si5 0.933478 0.921542 0.237242
Si Si6 0.423507 0.424187 0.614792
Si Si7 0.808044 0.924813 0.394819
Si Si8 0.840387 0.083021 0.983566
O O1 0.326254 0.750000 0.970212
O O2 0.198085 0.958687 0.972787
O O3 0.214744 0.997185 0.875933
O O4 0.518769 0.989832 0.093863
O O5 0.500000 0.500000 0.500000
O O6 0.626792 0.250000 0.526273
O O7 0.653056 0.487979 0.477400
O O8 0.857578 0.469495 0.667742
O O9 0.341682 0.250000 0.796590
O O10 0.121788 0.043966 0.726338
O O11 0.281287 0.013060 0.708771
O O12 0.672754 0.750000 0.790299
O O13 0.629269 0.477659 0.729551
O O14 0.946739 0.563240 0.914477
O O15 0.725265 0.524512 0.884387
O O16 0.911233 0.750000 0.212817
O O17 0.417923 0.250000 0.599317
O O18 0.313749 0.469026 0.614343
O O19 0.836631 0.750000 0.405941
O O20 0.000000 0.000000 0.500000
O O21 0.776811 0.250000 0.936761
#
# Coordination Sequence:
#
# PCOD8073645 Si02
#       8
#     4   4   4   4   4   4   4   4
#     4  10  20  35  59  85 115 157 200 241 291 355
#     4  11  25  44  64  87 118 158 205 257 309 365
#     4   9  18  36  60  86 120 159 195 237 295 357
#     4  10  20  34  55  83 115 154 197 244 295 351
#     4  10  22  39  59  85 117 153 197 250 304 355
#     4  11  23  39  61  89 120 155 197 245 300 365
#     4  10  21  38  62  89 120 158 200 246 302 362
#     4   9  19  35  53  80 115 153 196 242 296 353
#
# _framework density 20.235363
#
# number of rings (size 3 to 8) (size 9 to 14) (size 15 to 20)
#    0.000    2.000    0.000    3.000    1.750    6.000 
#    0.000    1.250    0.000    0.000    0.000    0.000 
#    0.000    0.000    0.000    0.000    0.000    0.000 
#
# Total GULP energy -396748.006263 kJ/mol
# GULP energy per Si atom -12398.375196 kJ/mol
# Density = 2.018931 g / cm^3
# Si number density = 20.235363 Si / 1000 Ang^3
#
#
#
# Elastic Constant Matrix: (Units=GPa)
#
#
# Indices 1 2 3 4 5 6 
#
# 1 112.8356 43.0843 60.2199 0.0000 -0.5946 0.0000
# 2 43.0843 57.8293 45.3247 0.0000 2.5663 0.0000
# 3 60.2199 45.3247 134.7123 0.0000 -10.4539 0.0000
# 4 0.0000 0.0000 0.0000 38.3912 0.0000 -3.7804
# 5 -0.5946 2.5663 -10.4539 0.0000 22.8747 0.0000
# 6 0.0000 0.0000 0.0000 -3.7804 0.0000 29.2880
#
#
#
# Elastic Compliance Matrix: (Units=1/GPa)
#
#
# Indices 1 2 3 4 5 6 
#
# 1 0.013578 -0.007203 -0.003687 0.000000 -0.000524 0.000000
# 2 -0.007203 0.028270 -0.006793 0.000000 -0.006463 0.000000
# 3 -0.003687 -0.006793 0.011828 0.000000 0.006072 0.000000
# 4 0.000000 0.000000 0.000000 0.026383 0.000000 0.003405
# 5 -0.000524 -0.006463 0.006072 0.000000 0.047203 0.000000
# 6 0.000000 0.000000 0.000000 0.003405 0.000000 0.034583
#
#
# Mechanical properties :
#
#
# Convention : Reuss Voigt Hill
#
# Bulk Modulus (GPa) = 54.61563 66.95942 60.78753
# Shear Modulus (GPa) = 24.59263 28.56068 26.57665
#
# Velocity S-wave (km/s) = 3.48994 3.76097 3.62799
# Velocity P-wave (km/s) = 6.57939 7.21263 6.90327
#
# Compressibility (1/GPa) = 0.01830978
#
# Stress axis : x y z
#
# Youngs Moduli (GPa) = 73.65094 35.37363 84.54457
#
# Poissons Ratio (x) = 0.25479 0.31169
# Poissons Ratio (y) = 0.53049 0.57433
# Poissons Ratio (z) = 0.27153 0.24030
#
# Static dielectric constant tensor:
#      x y z
#    x 3.948300 0.000000 0.115030 
#    y 0.000000 3.584020 0.000000 
#    z 0.115030 0.000000 3.869050 
# 
# 
# High freq. dielectric constant tensor:
#      x y z
#    x 1.800930 0.000000 0.002550 
#    y 0.000000 1.772710 0.000000 
#    z 0.002550 0.000000 1.800910 
# 
# From -- ./inp_files/69141.got.cif
#   From: 2010.06.25/outbox.cif.g09.slc.cpg/sg11_35_cif.got.tgz:69141.got - 2010.06.27 23:14:04.
