data_PCOD8073034
_publ_section_title
;
Structure prediction by ZEFSAII (Michael W. Deem and Ramdas Pophale) SiO2 
 PCOD8073034
Probable space group: P 21/M
;
_chemical_formula_sum "Si O2"
_cell_formula_units_Z 28
_cell_length_a 23.109997
_cell_length_b 8.868831
_cell_length_c 20.177682
_cell_angle_alpha 90.000000
_cell_angle_beta 160.249506
_cell_angle_gamma 90.000000
_cell_volume 1397.518769
_symmetry_space_group_name_H-M "P 21/M"
_symmetry_group_IT_number 11
_symmetry_cell_setting 'monoclinic'
loop_
_space_group_symop_operation_xyz
x,y,z
-x,1/2+y,-z
-x,-y,-z
x,1/2-y,z
loop_
_atom_site_type_symbol
_atom_site_label
_atom_site_fract_x
_atom_site_fract_y
_atom_site_fract_z
Si Si1 0.335117 0.072935 0.627658
Si Si2 0.235041 0.927651 0.084123
Si Si3 0.086911 0.916953 0.653821
Si Si4 0.957392 0.072940 0.249931
Si Si5 0.963305 0.429503 0.889861
Si Si6 0.519994 0.083049 0.953085
Si Si7 0.614085 0.927652 0.463166
O O1 0.364472 0.250000 0.666436
O O2 0.421550 0.998704 0.786210
O O3 0.416689 0.019583 0.646151
O O4 0.136979 0.027778 0.410969
O O5 0.197533 0.750000 0.052897
O O6 0.437686 0.962866 0.313007
O O7 0.116670 0.017995 0.007309
O O8 0.187249 0.980439 0.957791
O O9 0.005772 0.750000 0.568090
O O10 0.056910 0.001294 0.692252
O O11 0.285848 0.908971 0.857536
O O12 0.000000 0.000000 0.500000
O O13 0.937443 0.250000 0.239403
O O14 0.965352 0.250000 0.896014
O O15 0.000000 0.500000 0.000000
O O16 0.774019 0.481990 0.664646
O O17 0.443448 0.250000 0.881133
O O18 0.500000 0.000000 0.000000
O O19 0.657879 0.750000 0.513238
#
# Coordination Sequence:
#
# PCOD8073034 Si02
#       7
#     4   4   4   4   4   4   4
#     4   9  16  30  56  85 113 147 192 244 297 355
#     4  10  20  38  66  96 124 157 203 254 304 362
#     4  10  20  33  50  76 109 148 195 245 297 352
#     4   9  16  30  56  85 113 147 192 244 297 355
#     4  12  26  44  66  92 128 166 202 248 302 366
#     4  10  20  33  50  76 109 148 195 245 297 352
#     4  10  20  38  66  96 124 157 203 254 304 362
#
# _framework density 20.035508
#
# number of rings (size 3 to 8) (size 9 to 14) (size 15 to 20)
#    0.000    2.000    1.429    3.000    0.000    6.286 
#    0.000    1.429    0.000    3.429    0.000    0.000 
#    0.000    0.000    0.000    0.000    0.000    0.000 
#
# Total GULP energy -347014.660093 kJ/mol
# GULP energy per Si atom -12393.380718 kJ/mol
# Density = 1.998991 g / cm^3
# Si number density = 20.035508 Si / 1000 Ang^3
#
#
#
# Elastic Constant Matrix: (Units=GPa)
#
#
# Indices 1 2 3 4 5 6 
#
# 1 147.3164 53.1854 71.7018 0.0000 -11.7816 0.0000
# 2 53.1854 74.9658 46.5634 0.0000 -6.2743 0.0000
# 3 71.7018 46.5634 125.4136 0.0000 -8.9020 0.0000
# 4 0.0000 0.0000 0.0000 25.2560 0.0000 -2.1269
# 5 -11.7816 -6.2743 -8.9020 0.0000 34.2926 0.0000
# 6 0.0000 0.0000 0.0000 -2.1269 0.0000 27.5040
#
#
#
# Elastic Compliance Matrix: (Units=1/GPa)
#
#
# Indices 1 2 3 4 5 6 
#
# 1 0.010725 -0.004852 -0.004209 0.000000 0.001704 0.000000
# 2 -0.004852 0.019612 -0.004453 0.000000 0.000765 0.000000
# 3 -0.004209 -0.004453 0.012096 0.000000 0.000879 0.000000
# 4 0.000000 0.000000 0.000000 0.039854 0.000000 0.003082
# 5 0.001704 0.000765 0.000879 0.000000 0.030115 0.000000
# 6 0.000000 0.000000 0.000000 0.003082 0.000000 0.036597
#
#
# Mechanical properties :
#
#
# Convention : Reuss Voigt Hill
#
# Bulk Modulus (GPa) = 64.91860 76.73301 70.82581
# Shear Modulus (GPa) = 27.59982 29.16019 28.38001
#
# Velocity S-wave (km/s) = 3.71556 3.81914 3.76771
# Velocity P-wave (km/s) = 7.13297 7.60457 7.37254
#
# Compressibility (1/GPa) = 0.01540391
#
# Stress axis : x y z
#
# Youngs Moduli (GPa) = 93.24236 50.99027 82.67225
#
# Poissons Ratio (x) = 0.24739 0.34799
# Poissons Ratio (y) = 0.45238 0.36816
# Poissons Ratio (z) = 0.39248 0.22707
#
# Static dielectric constant tensor:
#      x y z
#    x 4.033070 0.000000 0.162730 
#    y 0.000000 3.242950 0.000000 
#    z 0.162730 0.000000 4.204320 
# 
# 
# High freq. dielectric constant tensor:
#      x y z
#    x 1.797930 0.000000 -0.001230 
#    y 0.000000 1.730320 0.000000 
#    z -0.001230 0.000000 1.796610 
# 
# From -- ./inp_files/66740.got.cif
#   From: 2010.06.25/outbox.cif.g09.slc.cpg/sg11_34_cif.got.tgz:66740.got - 2010.06.27 23:14:04.
