data_PCOD8073311
_publ_section_title
;
Structure prediction by ZEFSAII (Michael W. Deem and Ramdas Pophale) SiO2 
 PCOD8073311
Probable space group: P 21/M
;
_chemical_formula_sum "Si O2"
_cell_formula_units_Z 32
_cell_length_a 26.292269
_cell_length_b 9.212691
_cell_length_c 20.655455
_cell_angle_alpha 90.000000
_cell_angle_beta 19.361665
_cell_angle_gamma 90.000000
_cell_volume 1658.716394
_symmetry_space_group_name_H-M "P 21/M"
_symmetry_group_IT_number 11
_symmetry_cell_setting 'monoclinic'
loop_
_space_group_symop_operation_xyz
x,y,z
-x,1/2+y,-z
-x,-y,-z
x,1/2-y,z
loop_
_atom_site_type_symbol
_atom_site_label
_atom_site_fract_x
_atom_site_fract_y
_atom_site_fract_z
Si Si1 0.327784 0.089768 0.156082
Si Si2 0.195962 0.913620 0.086871
Si Si3 0.314491 0.911579 0.292313
Si Si4 0.116768 0.080349 0.060489
Si Si5 0.414152 0.578534 0.660671
Si Si6 0.767017 0.418927 0.466889
Si Si7 0.132752 0.585558 0.306394
Si Si8 0.464183 0.415972 0.344932
O O1 0.253026 0.250000 0.240315
O O2 0.251544 0.019584 0.312616
O O3 0.289483 0.991685 0.139845
O O4 0.508552 0.102881 0.938362
O O5 0.184901 0.750000 0.070455
O O6 0.108496 0.924915 0.259138
O O7 0.116593 0.029304 0.135271
O O8 0.375200 0.949409 0.883576
O O9 0.239312 0.750000 0.377970
O O10 0.281757 0.977751 0.403139
O O11 0.159095 0.250000 0.005982
O O12 0.946672 0.050884 0.236936
O O13 0.242504 0.987299 0.870566
O O14 0.500000 0.500000 0.500000
O O15 0.401058 0.750000 0.663487
O O16 0.511210 0.545139 0.608980
O O17 0.728599 0.250000 0.510676
O O18 0.670692 0.491453 0.525146
O O19 0.137471 0.750000 0.324943
O O20 0.000000 0.500000 0.500000
O O21 0.414640 0.250000 0.396199
#
# Coordination Sequence:
#
# PCOD8073311 Si02
#       8
#     4   4   4   4   4   4   4   4
#     4  10  20  34  51  74 100 136 187 233 289 349
#     4   9  20  38  56  77 107 145 192 240 286 342
#     4   9  19  35  53  73 104 142 181 232 282 335
#     4  10  21  36  57  87 119 151 188 229 279 335
#     4  10  21  40  65  92 120 152 190 227 270 327
#     4  10  21  35  54  83 115 147 187 232 279 332
#     4  11  23  36  51  72 103 139 184 239 293 344
#     4   9  19  36  59  86 113 144 183 227 276 331
#
# _framework density 19.292026
#
# number of rings (size 3 to 8) (size 9 to 14) (size 15 to 20)
#    0.000    2.250    0.000    3.000    1.750    5.500 
#    0.000    0.625    0.000    0.000    0.000    0.000 
#    0.000    0.000    0.000    0.000    0.000    0.000 
#
# Total GULP energy -396710.468297 kJ/mol
# GULP energy per Si atom -12397.202134 kJ/mol
# Density = 1.924812 g / cm^3
# Si number density = 19.292026 Si / 1000 Ang^3
#
#
#
# Elastic Constant Matrix: (Units=GPa)
#
#
# Indices 1 2 3 4 5 6 
#
# 1 75.8806 47.6011 50.3863 0.0000 4.4807 0.0000
# 2 47.6011 118.1144 51.6473 0.0000 1.9215 0.0000
# 3 50.3863 51.6473 84.8518 0.0000 6.2379 0.0000
# 4 0.0000 0.0000 0.0000 29.0724 0.0000 -2.0993
# 5 4.4807 1.9215 6.2379 0.0000 31.9233 0.0000
# 6 0.0000 0.0000 0.0000 -2.0993 0.0000 36.9747
#
#
#
# Elastic Compliance Matrix: (Units=1/GPa)
#
#
# Indices 1 2 3 4 5 6 
#
# 1 0.023468 -0.004603 -0.011071 0.000000 -0.000854 0.000000
# 2 -0.004603 0.012455 -0.004911 0.000000 0.000856 0.000000
# 3 -0.011071 -0.004911 0.021522 0.000000 -0.002356 0.000000
# 4 0.000000 0.000000 0.000000 0.034538 0.000000 0.001961
# 5 -0.000854 0.000856 -0.002356 0.000000 0.031854 0.000000
# 6 0.000000 0.000000 0.000000 0.001961 0.000000 0.027157
#
#
# Mechanical properties :
#
#
# Convention : Reuss Voigt Hill
#
# Bulk Modulus (GPa) = 61.44387 64.23511 62.83949
# Shear Modulus (GPa) = 25.30526 28.20824 26.75675
#
# Velocity S-wave (km/s) = 3.62566 3.82798 3.72820
# Velocity P-wave (km/s) = 7.03177 7.27368 7.15375
#
# Compressibility (1/GPa) = 0.01627502
#
# Stress axis : x y z
#
# Youngs Moduli (GPa) = 42.61132 80.29149 46.46483
#
# Poissons Ratio (x) = 0.36957 0.51442
# Poissons Ratio (y) = 0.19613 0.22817
# Poissons Ratio (z) = 0.47176 0.39427
#
# Static dielectric constant tensor:
#      x y z
#    x 3.998610 0.000000 -0.018230 
#    y 0.000000 4.034500 0.000000 
#    z -0.018230 0.000000 3.075130 
# 
# 
# High freq. dielectric constant tensor:
#      x y z
#    x 1.738830 0.000000 -0.002990 
#    y 0.000000 1.759600 0.000000 
#    z -0.002990 0.000000 1.744960 
# 
# From -- ./inp_files/66999.got.cif
#   From: 2010.06.25/outbox.cif.g09.slc.cpg/sg11_34_cif.got.tgz:66999.got - 2010.06.27 23:14:04.
