data_PCOD8073680
_publ_section_title
;
Structure prediction by ZEFSAII (Michael W. Deem and Ramdas Pophale) SiO2 
 PCOD8073680
Probable space group: P 21/M
;
_chemical_formula_sum "Si O2"
_cell_formula_units_Z 28
_cell_length_a 13.886068
_cell_length_b 8.962398
_cell_length_c 16.419360
_cell_angle_alpha 90.000000
_cell_angle_beta 47.408299
_cell_angle_gamma 90.000000
_cell_volume 1504.363106
_symmetry_space_group_name_H-M "P 21/M"
_symmetry_group_IT_number 11
_symmetry_cell_setting 'monoclinic'
loop_
_space_group_symop_operation_xyz
x,y,z
-x,1/2+y,-z
-x,-y,-z
x,1/2-y,z
loop_
_atom_site_type_symbol
_atom_site_label
_atom_site_fract_x
_atom_site_fract_y
_atom_site_fract_z
Si Si1 0.958819 0.577070 0.328887
Si Si2 0.835872 0.582637 0.678016
Si Si3 0.018535 0.423971 0.866737
Si Si4 0.725105 0.575592 0.572121
Si Si5 0.792756 0.422899 0.117590
Si Si6 0.473227 0.426897 0.769373
Si Si7 0.546316 0.919855 0.893366
O O1 0.988605 0.750000 0.309690
O O2 0.982527 0.512792 0.224956
O O3 0.809480 0.545350 0.442604
O O4 0.056730 0.513991 0.339119
O O5 0.890283 0.750000 0.642813
O O6 0.809889 0.521700 0.601659
O O7 0.702395 0.574488 0.805082
O O8 0.059894 0.250000 0.847161
O O9 0.123164 0.523017 0.854111
O O10 0.874909 0.447202 0.987421
O O11 0.689675 0.750000 0.604078
O O12 0.590684 0.483409 0.643820
O O13 0.756479 0.250000 0.150110
O O14 0.662824 0.521038 0.190897
O O15 0.477113 0.250000 0.772584
O O16 0.486090 0.495500 0.851239
O O17 0.494959 0.750000 0.920537
O O18 0.500000 0.000000 0.000000
#
# Coordination Sequence:
#
# PCOD8073680 Si02
#       7
#     4   4   4   4   4   4   4
#     4  10  20  34  56  82 109 143 183 227 276 325
#     4   9  19  33  50  76 110 146 182 221 266 318
#     4   9  20  37  56  83 110 137 178 227 275 330
#     4   9  19  37  55  77 111 147 184 227 271 322
#     4  10  20  37  59  81 109 144 178 222 280 333
#     4  11  22  36  57  81 107 145 186 225 274 328
#     4  10  21  36  52  78 113 147 185 228 270 321
#
# _framework density 18.612527
#
# number of rings (size 3 to 8) (size 9 to 14) (size 15 to 20)
#    0.000    2.286    0.000    3.429    2.000    4.571 
#    0.000    0.714    0.000    0.000    0.000    0.000 
#    0.000    0.000    0.000    0.000    0.000    0.000 
#
# Total GULP energy -347231.654726 kJ/mol
# GULP energy per Si atom -12401.130526 kJ/mol
# Density = 1.857016 g / cm^3
# Si number density = 18.612527 Si / 1000 Ang^3
#
#
#
# Elastic Constant Matrix: (Units=GPa)
#
#
# Indices 1 2 3 4 5 6 
#
# 1 70.3435 40.1249 44.9550 0.0000 -12.9622 0.0000
# 2 40.1249 98.1301 42.2491 0.0000 -8.6539 0.0000
# 3 44.9550 42.2491 96.4078 0.0000 4.3491 0.0000
# 4 0.0000 0.0000 0.0000 26.8493 0.0000 -3.9560
# 5 -12.9622 -8.6539 4.3491 0.0000 23.2409 0.0000
# 6 0.0000 0.0000 0.0000 -3.9560 0.0000 34.1111
#
#
#
# Elastic Compliance Matrix: (Units=1/GPa)
#
#
# Indices 1 2 3 4 5 6 
#
# 1 0.026901 -0.004877 -0.011096 0.000000 0.015264 0.000000
# 2 -0.004877 0.014257 -0.004126 0.000000 0.003361 0.000000
# 3 -0.011096 -0.004126 0.017854 0.000000 -0.011066 0.000000
# 4 0.000000 0.000000 0.000000 0.037892 0.000000 0.004395
# 5 0.015264 0.003361 -0.011066 0.000000 0.054863 0.000000
# 6 0.000000 0.000000 0.000000 0.004395 0.000000 0.029826
#
#
# Mechanical properties :
#
#
# Convention : Reuss Voigt Hill
#
# Bulk Modulus (GPa) = 53.14472 57.72658 55.43565
# Shear Modulus (GPa) = 21.92392 26.01043 23.96717
#
# Velocity S-wave (km/s) = 3.43580 3.74233 3.59233
# Velocity P-wave (km/s) = 6.65994 7.05377 6.85968
#
# Compressibility (1/GPa) = 0.01881655
#
# Stress axis : x y z
#
# Youngs Moduli (GPa) = 37.17286 70.13991 56.01081
#
# Poissons Ratio (x) = 0.34204 0.62148
# Poissons Ratio (y) = 0.18128 0.23108
# Poissons Ratio (z) = 0.41246 0.28937
#
# Static dielectric constant tensor:
#      x y z
#    x 3.274580 0.000000 0.030630 
#    y 0.000000 3.402240 0.000000 
#    z 0.030630 0.000000 3.611450 
# 
# 
# High freq. dielectric constant tensor:
#      x y z
#    x 1.708510 0.000000 -0.003720 
#    y 0.000000 1.723610 0.000000 
#    z -0.003720 0.000000 1.729040 
# 
# From -- ./inp_files/60084.got.cif
#   From: 2010.06.25/outbox.cif.g09.slc.cpg/sg11_31_cif.got.tgz:60084.got - 2010.06.27 23:14:04.
