data_PCOD8073723
_publ_section_title
;
Structure prediction by ZEFSAII (Michael W. Deem and Ramdas Pophale) SiO2 
 PCOD8073723
Probable space group: P 21/M
;
_chemical_formula_sum "Si O2"
_cell_formula_units_Z 32
_cell_length_a 14.652043
_cell_length_b 14.072076
_cell_length_c 22.156670
_cell_angle_alpha 90.000000
_cell_angle_beta 158.592828
_cell_angle_gamma 90.000000
_cell_volume 1667.422931
_symmetry_space_group_name_H-M "P 21/M"
_symmetry_group_IT_number 11
_symmetry_cell_setting 'monoclinic'
loop_
_space_group_symop_operation_xyz
x,y,z
-x,1/2+y,-z
-x,-y,-z
x,1/2-y,z
loop_
_atom_site_type_symbol
_atom_site_label
_atom_site_fract_x
_atom_site_fract_y
_atom_site_fract_z
Si Si1 0.069396 0.015496 0.382571
Si Si2 0.057451 0.359582 0.987882
Si Si3 0.788618 0.141428 0.124591
Si Si4 0.781008 0.007982 0.319364
Si Si5 0.726165 0.638645 0.130742
Si Si6 0.351637 0.357015 0.053163
Si Si7 0.575204 0.140803 0.869356
Si Si8 0.374362 0.970481 0.224151
O O1 0.353300 0.018637 0.579256
O O2 0.021142 0.082705 0.295068
O O3 0.886603 0.052219 0.322900
O O4 0.977636 0.908538 0.312309
O O5 0.073471 0.250000 0.020912
O O6 0.114214 0.363942 0.951344
O O7 0.254150 0.424362 0.146442
O O8 0.781625 0.402309 0.827292
O O9 0.824760 0.250000 0.166492
O O10 0.526096 0.103231 0.990996
O O11 0.793956 0.131882 0.054706
O O12 0.570616 0.078602 0.215949
O O13 0.668314 0.901223 0.246343
O O14 0.000000 0.000000 0.500000
O O15 0.762923 0.750000 0.160617
O O16 0.717977 0.605149 0.055905
O O17 0.453401 0.250000 0.111590
O O18 0.526781 0.250000 0.821627
O O19 0.633506 0.079676 0.846071
#
# Coordination Sequence:
#
# PCOD8073723 Si02
#       8
#     4   4   4   4   4   4   4   4
#     4  12  22  35  60  90 127 155 187 250 296 353
#     4  10  22  43  66  84 112 156 208 252 295 353
#     4  10  21  35  55  86 124 165 198 230 288 359
#     4  12  21  34  52  88 125 152 192 242 296 356
#     4  10  20  34  56  86 119 160 198 231 289 355
#     4  10  20  37  60  82 111 157 202 242 287 349
#     4  11  22  37  57  84 121 163 198 235 290 355
#     4  11  24  41  63  91 117 155 202 249 304 352
#
# _framework density 19.191292000000001
#
# number of rings (size 3 to 8) (size 9 to 14) (size 15 to 20)
#    0.000    1.250    5.000    1.500    0.000    2.000 
#    0.000    0.625    0.000    0.000    0.000    0.000 
#    0.000    0.000    0.000    0.000    0.000    0.000 
#
# Total GULP energy -396661.952022 kJ/mol
# GULP energy per Si atom -12395.686001 kJ/mol
# Density = 1.914761 g / cm^3
# Si number density = 19.191292 Si / 1000 Ang^3
#
#
#
# Elastic Constant Matrix: (Units=GPa)
#
#
# Indices 1 2 3 4 5 6 
#
# 1 83.6334 31.4737 52.0464 0.0000 0.5094 0.0000
# 2 31.4737 104.1546 54.3491 0.0000 1.1391 0.0000
# 3 52.0464 54.3491 108.1097 0.0000 -0.8702 0.0000
# 4 0.0000 0.0000 0.0000 16.9591 0.0000 -2.9672
# 5 0.5094 1.1391 -0.8702 0.0000 28.1517 0.0000
# 6 0.0000 0.0000 0.0000 -2.9672 0.0000 28.5182
#
#
#
# Elastic Compliance Matrix: (Units=1/GPa)
#
#
# Indices 1 2 3 4 5 6 
#
# 1 0.017186 -0.001177 -0.007686 0.000000 -0.000501 0.000000
# 2 -0.001177 0.013111 -0.006030 0.000000 -0.000696 0.000000
# 3 -0.007686 -0.006030 0.015989 0.000000 0.000877 0.000000
# 4 0.000000 0.000000 0.000000 0.060059 0.000000 0.006249
# 5 -0.000501 -0.000696 0.000877 0.000000 0.035586 0.000000
# 6 0.000000 0.000000 0.000000 0.006249 0.000000 0.035716
#
#
# Mechanical properties :
#
#
# Convention : Reuss Voigt Hill
#
# Bulk Modulus (GPa) = 60.60909 63.51511 62.06210
# Shear Modulus (GPa) = 23.48164 25.26103 24.37133
#
# Velocity S-wave (km/s) = 3.50173 3.63199 3.56745
# Velocity P-wave (km/s) = 6.92818 7.12433 7.02694
#
# Compressibility (1/GPa) = 0.01649918
#
# Stress axis : x y z
#
# Youngs Moduli (GPa) = 58.18637 76.27177 62.54462
#
# Poissons Ratio (x) = 0.08979 0.48072
# Poissons Ratio (y) = 0.06850 0.37715
# Poissons Ratio (z) = 0.44722 0.45992
#
# Static dielectric constant tensor:
#      x y z
#    x 4.006710 0.000000 -0.168610 
#    y 0.000000 3.600800 0.000000 
#    z -0.168610 0.000000 3.291790 
# 
# 
# High freq. dielectric constant tensor:
#      x y z
#    x 1.745060 0.000000 -0.016560 
#    y 0.000000 1.762170 0.000000 
#    z -0.016560 0.000000 1.720750 
# 
# From -- ./inp_files/65810.got.cif
#   From: 2010.06.25/outbox.cif.g09.slc.cpg/sg11_33_cif.got.tgz:65810.got - 2010.06.27 23:14:04.
