data_PCOD8073527
_publ_section_title
;
Structure prediction by ZEFSAII (Michael W. Deem and Ramdas Pophale) SiO2 
 PCOD8073527
Probable space group: P 21/M
;
_chemical_formula_sum "Si O2"
_cell_formula_units_Z 32
_cell_length_a 12.347082
_cell_length_b 8.810491
_cell_length_c 15.312051
_cell_angle_alpha 90.000000
_cell_angle_beta 93.314313
_cell_angle_gamma 90.000000
_cell_volume 1662.917886
_symmetry_space_group_name_H-M "P 21/M"
_symmetry_group_IT_number 11
_symmetry_cell_setting 'monoclinic'
loop_
_space_group_symop_operation_xyz
x,y,z
-x,1/2+y,-z
-x,-y,-z
x,1/2-y,z
loop_
_atom_site_type_symbol
_atom_site_label
_atom_site_fract_x
_atom_site_fract_y
_atom_site_fract_z
Si Si1 0.405392 0.930213 0.738407
Si Si2 0.553816 0.570432 0.588024
Si Si3 0.592194 0.069201 0.064962
Si Si4 0.170984 0.570906 0.980977
Si Si5 0.044500 0.426059 0.122582
Si Si6 0.960546 0.927393 0.676529
Si Si7 0.226315 0.928633 0.438558
Si Si8 0.195726 0.569996 0.633851
O O1 0.401344 0.750000 0.738794
O O2 0.494720 0.987487 0.673317
O O3 0.430576 0.988510 0.837193
O O4 0.288533 0.994233 0.702208
O O5 0.500000 0.500000 0.500000
O O6 0.545183 0.750000 0.579097
O O7 0.677001 0.517692 0.603973
O O8 0.587001 0.250000 0.058428
O O9 0.711178 0.007532 0.041883
O O10 0.500000 0.000000 0.000000
O O11 0.178001 0.750000 0.982540
O O12 0.076312 0.516161 0.909742
O O13 0.139602 0.512531 0.075611
O O14 0.054137 0.250000 0.099728
O O15 0.065893 0.458131 0.224312
O O16 0.947156 0.750000 0.651946
O O17 0.080650 0.988752 0.662447
O O18 0.883734 0.030731 0.615023
O O19 0.248386 0.750000 0.435158
O O20 0.218284 0.987779 0.537237
O O21 0.196528 0.750000 0.635226
#
# Coordination Sequence:
#
# PCOD8073527 Si02
#       8
#     4   4   4   4   4   4   4   4
#     4   9  18  35  60  83 104 141 186 226 271 326
#     4  11  21  37  60  84 111 143 186 231 274 325
#     4  10  21  37  57  80 109 143 182 226 273 325
#     4   9  18  34  56  80 105 138 179 224 274 324
#     4   9  18  33  55  81 106 138 180 224 270 327
#     4  10  20  34  54  80 109 142 182 225 272 329
#     4  11  22  36  54  79 112 147 182 225 275 324
#     4   9  17  33  57  80 104 138 184 228 268 321
#
# _framework density 19.243283999999999
#
# number of rings (size 3 to 8) (size 9 to 14) (size 15 to 20)
#    0.000    2.250    1.250    1.875    0.000    5.000 
#    0.000    5.625    0.000    1.500    0.000    0.000 
#    0.000    0.000    0.000    0.000    0.000    0.000 
#
# Total GULP energy -396792.591964 kJ/mol
# GULP energy per Si atom -12399.768499 kJ/mol
# Density = 1.919949 g / cm^3
# Si number density = 19.243284 Si / 1000 Ang^3
#
#
#
# Elastic Constant Matrix: (Units=GPa)
#
#
# Indices 1 2 3 4 5 6 
#
# 1 116.3945 21.9017 78.6067 0.0000 -11.1230 0.0000
# 2 21.9017 27.0895 25.7722 0.0000 -3.1403 0.0000
# 3 78.6067 25.7722 145.8444 0.0000 -1.0071 0.0000
# 4 0.0000 0.0000 0.0000 28.2625 0.0000 2.7788
# 5 -11.1230 -3.1403 -1.0071 0.0000 35.6081 0.0000
# 6 0.0000 0.0000 0.0000 2.7788 0.0000 29.7234
#
#
#
# Elastic Compliance Matrix: (Units=1/GPa)
#
#
# Indices 1 2 3 4 5 6 
#
# 1 0.014577 -0.004664 -0.007005 0.000000 0.003944 0.000000
# 2 -0.004664 0.046358 -0.005661 0.000000 0.002471 0.000000
# 3 -0.007005 -0.005661 0.011616 0.000000 -0.002359 0.000000
# 4 0.000000 0.000000 0.000000 0.035711 0.000000 -0.003339
# 5 0.003944 0.002471 -0.002359 0.000000 0.029467 0.000000
# 6 0.000000 0.000000 0.000000 -0.003339 0.000000 0.033956
#
#
# Mechanical properties :
#
#
# Convention : Reuss Voigt Hill
#
# Bulk Modulus (GPa) = 26.39163 60.20993 43.30078
# Shear Modulus (GPa) = 22.83370 29.58864 26.21117
#
# Velocity S-wave (km/s) = 3.44841 3.92549 3.69466
# Velocity P-wave (km/s) = 5.44058 7.20435 6.38367
#
# Compressibility (1/GPa) = 0.03789080
#
# Stress axis : x y z
#
# Youngs Moduli (GPa) = 68.60171 21.57143 86.08510
#
# Poissons Ratio (x) = 0.10060 0.60305
# Poissons Ratio (y) = 0.31993 0.48735
# Poissons Ratio (z) = 0.48057 0.12212
#
# Static dielectric constant tensor:
#      x y z
#    x 3.753190 0.000000 -0.122480 
#    y 0.000000 3.194950 0.000000 
#    z -0.122480 0.000000 3.672070 
# 
# 
# High freq. dielectric constant tensor:
#      x y z
#    x 1.759780 0.000000 -0.005630 
#    y 0.000000 1.715520 0.000000 
#    z -0.005630 0.000000 1.756840 
# 
# From -- ./inp_files/42832.got.cif
#   From: 2010.06.25/outbox.cif.g09.slc.cpg/sg11_22_cif.got.tgz:42832.got - 2010.06.27 23:14:04.
