data_PCOD8073530
_publ_section_title
;
Structure prediction by ZEFSAII (Michael W. Deem and Ramdas Pophale) SiO2 
 PCOD8073530
Probable space group: P 21/M
;
_chemical_formula_sum "Si O2"
_cell_formula_units_Z 32
_cell_length_a 22.459464
_cell_length_b 9.260625
_cell_length_c 15.018324
_cell_angle_alpha 90.000000
_cell_angle_beta 148.548602
_cell_angle_gamma 90.000000
_cell_volume 1629.838285
_symmetry_space_group_name_H-M "P 21/M"
_symmetry_group_IT_number 11
_symmetry_cell_setting 'monoclinic'
loop_
_space_group_symop_operation_xyz
x,y,z
-x,1/2+y,-z
-x,-y,-z
x,1/2-y,z
loop_
_atom_site_type_symbol
_atom_site_label
_atom_site_fract_x
_atom_site_fract_y
_atom_site_fract_z
Si Si1 0.448726 0.585465 0.353849
Si Si2 0.756312 0.582464 0.522965
Si Si3 0.283758 0.417783 0.885175
Si Si4 0.811458 0.086887 0.945467
Si Si5 0.498497 0.581730 0.222602
Si Si6 0.088620 0.079361 0.773134
Si Si7 0.881253 0.419345 0.839102
Si Si8 0.863631 0.582854 0.471154
O O1 0.500000 0.500000 0.500000
O O2 0.484054 0.750000 0.414206
O O3 0.314107 0.564141 0.177495
O O4 0.498989 0.526200 0.325304
O O5 0.775399 0.750000 0.572758
O O6 0.622308 0.549267 0.339608
O O7 0.808027 0.483728 0.665703
O O8 0.817178 0.541702 0.508890
O O9 0.309834 0.250000 0.931131
O O10 0.193543 0.469642 0.844720
O O11 0.234338 0.452366 0.724938
O O12 0.403074 0.500470 0.044074
O O13 0.855196 0.250000 0.017809
O O14 0.812032 0.051950 0.841595
O O15 0.894389 0.980315 0.105090
O O16 0.467374 0.750000 0.180536
O O17 0.075360 0.250000 0.759374
O O18 0.973172 0.012532 0.586371
O O19 0.901876 0.250000 0.848367
O O20 0.000000 0.500000 0.000000
O O21 0.899252 0.750000 0.510757
#
# Coordination Sequence:
#
# PCOD8073530 Si02
#       8
#     4   4   4   4   4   4   4   4
#     4  10  20  34  54  80 109 143 183 226 275 331
#     4  10  22  40  60  85 117 154 196 238 285 342
#     4  10  22  39  59  86 117 151 192 239 292 344
#     4  10  21  37  56  80 112 151 187 224 285 349
#     4  10  21  38  60  85 116 152 191 237 286 341
#     4  11  22  36  58  89 117 145 192 246 289 339
#     4  11  23  38  58  84 116 154 195 238 285 341
#     4  10  22  40  60  82 115 156 192 235 293 349
#
# _framework density 19.633851
#
# number of rings (size 3 to 8) (size 9 to 14) (size 15 to 20)
#    0.000    1.750    1.250    2.625    0.000    7.500 
#    0.000    0.000    0.000    0.000    0.000    0.000 
#    0.000    0.000    0.000    0.000    0.000    0.000 
#
# Total GULP energy -396939.352933 kJ/mol
# GULP energy per Si atom -12404.354779 kJ/mol
# Density = 1.958916 g / cm^3
# Si number density = 19.633851 Si / 1000 Ang^3
#
#
#
# Elastic Constant Matrix: (Units=GPa)
#
#
# Indices 1 2 3 4 5 6 
#
# 1 75.5961 37.9407 34.8257 0.0000 -1.4921 0.0000
# 2 37.9407 77.5694 56.6731 0.0000 -1.3335 0.0000
# 3 34.8257 56.6731 113.2399 0.0000 -5.4753 0.0000
# 4 0.0000 0.0000 0.0000 42.8953 0.0000 -0.0294
# 5 -1.4921 -1.3335 -5.4753 0.0000 32.7603 0.0000
# 6 0.0000 0.0000 0.0000 -0.0294 0.0000 24.8905
#
#
#
# Elastic Compliance Matrix: (Units=1/GPa)
#
#
# Indices 1 2 3 4 5 6 
#
# 1 0.017752 -0.007406 -0.001743 0.000000 0.000216 0.000000
# 2 -0.007406 0.023438 -0.009499 0.000000 -0.000971 0.000000
# 3 -0.001743 -0.009499 0.014213 0.000000 0.001909 0.000000
# 4 0.000000 0.000000 0.000000 0.023313 0.000000 0.000028
# 5 0.000216 -0.000971 0.001909 0.000000 0.030814 0.000000
# 6 0.000000 0.000000 0.000000 0.000028 0.000000 0.040176
#
#
# Mechanical properties :
#
#
# Convention : Reuss Voigt Hill
#
# Bulk Modulus (GPa) = 55.22607 58.36495 56.79551
# Shear Modulus (GPa) = 25.90177 29.24027 27.57102
#
# Velocity S-wave (km/s) = 3.63608 3.86330 3.75141
# Velocity P-wave (km/s) = 6.76883 7.04921 6.91044
#
# Compressibility (1/GPa) = 0.01810739
#
# Stress axis : x y z
#
# Youngs Moduli (GPa) = 56.33087 42.66649 70.35804
#
# Poissons Ratio (x) = 0.31599 0.12260
# Poissons Ratio (y) = 0.41719 0.66834
# Poissons Ratio (z) = 0.09816 0.40529
#
# Static dielectric constant tensor:
#      x y z
#    x 3.749000 0.000000 -0.047150 
#    y 0.000000 3.602800 0.000000 
#    z -0.047150 0.000000 3.440430 
# 
# 
# High freq. dielectric constant tensor:
#      x y z
#    x 1.773210 0.000000 -0.000350 
#    y 0.000000 1.759600 0.000000 
#    z -0.000350 0.000000 1.771400 
# 
# From -- ./inp_files/55701.got.cif
#   From: 2010.06.25/outbox.cif.g09.slc.cpg/sg11_28_cif.got.tgz:55701.got - 2010.06.27 23:14:04.
