data_PCOD8073831
_publ_section_title
;
Structure prediction by ZEFSAII (Michael W. Deem and Ramdas Pophale) SiO2 
 PCOD8073831
Probable space group: P 21/M
;
_chemical_formula_sum "Si O2"
_cell_formula_units_Z 32
_cell_length_a 21.515849
_cell_length_b 8.680912
_cell_length_c 27.524747
_cell_angle_alpha 90.000000
_cell_angle_beta 18.364203
_cell_angle_gamma 90.000000
_cell_volume 1619.702029
_symmetry_space_group_name_H-M "P 21/M"
_symmetry_group_IT_number 11
_symmetry_cell_setting 'monoclinic'
loop_
_space_group_symop_operation_xyz
x,y,z
-x,1/2+y,-z
-x,-y,-z
x,1/2-y,z
loop_
_atom_site_type_symbol
_atom_site_label
_atom_site_fract_x
_atom_site_fract_y
_atom_site_fract_z
Si Si1 0.467717 0.932778 0.761366
Si Si2 0.210325 0.418836 0.302928
Si Si3 0.082455 0.066080 0.096839
Si Si4 0.438515 0.427233 0.996218
Si Si5 0.363095 0.567891 0.459758
Si Si6 0.663439 0.933820 0.413971
Si Si7 0.923493 0.930565 0.790181
Si Si8 0.152300 0.078889 0.459765
O O1 0.447842 0.750000 0.777281
O O2 0.648934 0.987503 0.662124
O O3 0.498863 0.989910 0.683058
O O4 0.262162 0.005614 0.931026
O O5 0.277918 0.250000 0.234465
O O6 0.386673 0.541512 0.171221
O O7 0.157046 0.409494 0.398380
O O8 0.036243 0.467416 0.393831
O O9 0.070275 0.250000 0.101804
O O10 0.113734 0.004180 0.128334
O O11 0.871409 0.995371 0.238180
O O12 0.402426 0.250000 0.030440
O O13 0.500000 0.500000 0.000000
O O14 0.237417 0.506213 0.126027
O O15 0.405154 0.750000 0.431328
O O16 0.392510 0.495380 0.490924
O O17 0.139058 0.531242 0.609579
O O18 0.663613 0.750000 0.414277
O O19 0.500000 0.000000 0.500000
O O20 0.889469 0.750000 0.819335
O O21 0.112214 0.250000 0.510871
#
# Coordination Sequence:
#
# PCOD8073831 Si02
#       8
#     4   4   4   4   4   4   4   4
#     4  11  22  36  56  87 122 155 194 245 301 351
#     4  10  20  35  52  73 101 140 190 241 296 355
#     4  10  20  38  63  91 118 155 199 241 287 347
#     4  11  22  35  50  73 104 141 187 243 297 351
#     4  10  21  39  61  89 121 158 200 243 291 352
#     4  11  22  41  68  97 127 161 195 235 281 340
#     4   8  18  36  57  78 107 146 196 245 293 352
#     4   9  20  36  54  76 106 144 187 238 293 351
#
# _framework density 19.756720999999999
#
# number of rings (size 3 to 8) (size 9 to 14) (size 15 to 20)
#    0.000    2.000    0.000    4.500    1.750    1.500 
#    0.000    6.875    0.000    0.000    0.000    0.000 
#    0.000    0.000    0.000    0.000    0.000    0.000 
#
# Total GULP energy -396588.354127 kJ/mol
# GULP energy per Si atom -12393.386066 kJ/mol
# Density = 1.971175 g / cm^3
# Si number density = 19.756721 Si / 1000 Ang^3
#
#
#
# Elastic Constant Matrix: (Units=GPa)
#
#
# Indices 1 2 3 4 5 6 
#
# 1 100.8383 43.7392 65.2186 0.0000 -24.9207 0.0000
# 2 43.7392 96.2187 41.4780 0.0000 -7.2169 0.0000
# 3 65.2186 41.4780 119.9985 0.0000 -8.9113 0.0000
# 4 0.0000 0.0000 0.0000 31.2152 0.0000 1.8839
# 5 -24.9207 -7.2169 -8.9113 0.0000 35.7900 0.0000
# 6 0.0000 0.0000 0.0000 1.8839 0.0000 28.8157
#
#
#
# Elastic Compliance Matrix: (Units=1/GPa)
#
#
# Indices 1 2 3 4 5 6 
#
# 1 0.020178 -0.004668 -0.008537 0.000000 0.010983 0.000000
# 2 -0.004668 0.013366 -0.002164 0.000000 -0.001094 0.000000
# 3 -0.008537 -0.002164 0.013497 0.000000 -0.003020 0.000000
# 4 0.000000 0.000000 0.000000 0.032163 0.000000 -0.002103
# 5 0.010983 -0.001094 -0.003020 0.000000 0.034615 0.000000
# 6 0.000000 0.000000 0.000000 -0.002103 0.000000 0.034841
#
#
# Mechanical properties :
#
#
# Convention : Reuss Voigt Hill
#
# Bulk Modulus (GPa) = 61.34425 68.65856 65.00141
# Shear Modulus (GPa) = 27.05158 30.27217 28.66188
#
# Velocity S-wave (km/s) = 3.70433 3.91864 3.81299
# Velocity P-wave (km/s) = 7.02946 7.43651 7.23585
#
# Compressibility (1/GPa) = 0.01630145
#
# Stress axis : x y z
#
# Youngs Moduli (GPa) = 49.56008 74.81709 74.09024
#
# Poissons Ratio (x) = 0.34927 0.63252
# Poissons Ratio (y) = 0.23136 0.16033
# Poissons Ratio (z) = 0.42310 0.16191
#
# Static dielectric constant tensor:
#      x y z
#    x 3.421130 0.000000 0.005620 
#    y 0.000000 3.133220 0.000000 
#    z 0.005620 0.000000 2.983320 
# 
# 
# High freq. dielectric constant tensor:
#      x y z
#    x 1.763420 0.000000 -0.001410 
#    y 0.000000 1.771040 0.000000 
#    z -0.001410 0.000000 1.771740 
# 
# From -- ./inp_files/72003.got.cif
#   From: 2010.06.25/outbox.cif.g09.slc.cpg/sg11_37_cif.got.tgz:72003.got - 2010.06.27 23:14:04.
