data_PCOD8073439
_publ_section_title
;
Structure prediction by ZEFSAII (Michael W. Deem and Ramdas Pophale) SiO2 
 PCOD8073439
Probable space group: P 21/M
;
_chemical_formula_sum "Si O2"
_cell_formula_units_Z 32
_cell_length_a 21.990620
_cell_length_b 8.945538
_cell_length_c 27.545612
_cell_angle_alpha 90.000000
_cell_angle_beta 18.070877
_cell_angle_gamma 90.000000
_cell_volume 1680.849028
_symmetry_space_group_name_H-M "P 21/M"
_symmetry_group_IT_number 11
_symmetry_cell_setting 'monoclinic'
loop_
_space_group_symop_operation_xyz
x,y,z
-x,1/2+y,-z
-x,-y,-z
x,1/2-y,z
loop_
_atom_site_type_symbol
_atom_site_label
_atom_site_fract_x
_atom_site_fract_y
_atom_site_fract_z
Si Si1 0.913173 0.074887 0.390184
Si Si2 0.085139 0.922173 0.117038
Si Si3 0.299537 0.075731 0.037584
Si Si4 0.073106 0.576289 0.014872
Si Si5 0.957033 0.924968 0.457927
Si Si6 0.694214 0.923493 0.243149
Si Si7 0.706240 0.575246 0.741504
Si Si8 0.301151 0.423025 0.531809
O O1 0.880590 0.250000 0.421131
O O2 0.127528 0.038009 0.206094
O O3 0.883601 0.995931 0.463916
O O4 0.746806 0.011494 0.481020
O O5 0.146136 0.750000 0.077835
O O6 0.865149 0.950302 0.302027
O O7 0.094040 0.971306 0.054618
O O8 0.238230 0.022328 0.030500
O O9 0.347933 0.250000 0.998776
O O10 0.488765 0.987378 0.911796
O O11 0.123395 0.750000 0.968367
O O12 0.852344 0.542206 0.164957
O O13 0.226220 0.476855 0.869243
O O14 0.990000 0.750000 0.426044
O O15 0.791229 0.960289 0.623730
O O16 0.162589 0.997320 0.317143
O O17 0.642339 0.750000 0.279314
O O18 0.499999 0.014559 0.404233
O O19 0.705148 0.750000 0.753443
O O20 0.324413 0.250000 0.500892
#
# Coordination Sequence:
#
# PCOD8073439 Si02
#       8
#     4   4   4   4   4   4   4   4
#     4  10  21  37  56  79 107 139 176 217 261 310
#     4   9  19  36  56  77 103 137 176 217 262 312
#     4  10  21  36  55  80 108 138 174 217 263 311
#     4   9  19  36  55  76 105 139 176 218 262 311
#     4  10  21  37  57  81 108 139 176 217 261 309
#     4  10  20  34  53  78 107 139 175 216 262 312
#     4  10  21  37  57  80 107 140 176 215 260 310
#     4  10  20  35  55  78 105 138 175 216 263 313
#
# _framework density 19.037998000000002
#
# number of rings (size 3 to 8) (size 9 to 14) (size 15 to 20)
#    0.000    2.250    0.000    2.250    0.000    6.500 
#    0.000    1.250    0.000    0.000    0.000    0.000 
#    0.000    0.000    0.000    0.000    0.000    0.000 
#
# Total GULP energy -396963.739311 kJ/mol
# GULP energy per Si atom -12405.116853 kJ/mol
# Density = 1.899467 g / cm^3
# Si number density = 19.037998 Si / 1000 Ang^3
#
#
#
# Elastic Constant Matrix: (Units=GPa)
#
#
# Indices 1 2 3 4 5 6 
#
# 1 44.3853 8.2122 -17.8475 0.0000 9.9737 0.0000
# 2 8.2122 69.4616 14.8250 0.0000 -2.6860 0.0000
# 3 -17.8475 14.8250 41.1097 0.0000 -14.8206 0.0000
# 4 0.0000 0.0000 0.0000 36.2119 0.0000 -4.6084
# 5 9.9737 -2.6860 -14.8206 0.0000 22.1368 0.0000
# 6 0.0000 0.0000 0.0000 -4.6084 0.0000 34.7485
#
#
#
# Elastic Compliance Matrix: (Units=1/GPa)
#
#
# Indices 1 2 3 4 5 6 
#
# 1 0.030511 -0.006748 0.013747 0.000000 -0.005362 0.000000
# 2 -0.006748 0.017193 -0.009598 0.000000 -0.001299 0.000000
# 3 0.013747 -0.009598 0.040997 0.000000 0.020089 0.000000
# 4 0.000000 0.000000 0.000000 0.028089 0.000000 0.003725
# 5 -0.005362 -0.001299 0.020089 0.000000 0.060881 0.000000
# 6 0.000000 0.000000 0.000000 0.003725 0.000000 0.029272
#
#
# Mechanical properties :
#
#
# Convention : Reuss Voigt Hill
#
# Bulk Modulus (GPa) = 11.97597 18.37066 15.17331
# Shear Modulus (GPa) = 20.83532 28.60392 24.71962
#
# Velocity S-wave (km/s) = 3.31177 3.88037 3.60729
# Velocity P-wave (km/s) = 4.57471 5.45406 5.03363
#
# Compressibility (1/GPa) = 0.08350057
#
# Stress axis : x y z
#
# Youngs Moduli (GPa) = 32.77494 58.16467 24.39209
#
# Poissons Ratio (x) = 0.39252 -0.33531
# Poissons Ratio (y) = 0.22118 0.23412
# Poissons Ratio (z) = -0.45055 0.55828
#
# Static dielectric constant tensor:
#      x y z
#    x 3.463690 0.000000 -0.048320 
#    y 0.000000 3.564570 0.000000 
#    z -0.048320 0.000000 3.420510 
# 
# 
# High freq. dielectric constant tensor:
#      x y z
#    x 1.739420 0.000000 -0.005400 
#    y 0.000000 1.751100 0.000000 
#    z -0.005400 0.000000 1.737560 
# 
# From -- ./inp_files/67211.got.cif
#   From: 2010.06.25/outbox.cif.g09.slc.cpg/sg11_34_cif.got.tgz:67211.got - 2010.06.27 23:14:04.
