data_PCOD8073476
_publ_section_title
;
Structure prediction by ZEFSAII (Michael W. Deem and Ramdas Pophale) SiO2 
 PCOD8073476
Probable space group: P 21/M
;
_chemical_formula_sum "Si O2"
_cell_formula_units_Z 28
_cell_length_a 13.444807
_cell_length_b 8.850534
_cell_length_c 14.348696
_cell_angle_alpha 90.000000
_cell_angle_beta 57.754654
_cell_angle_gamma 90.000000
_cell_volume 1444.073689
_symmetry_space_group_name_H-M "P 21/M"
_symmetry_group_IT_number 11
_symmetry_cell_setting 'monoclinic'
loop_
_space_group_symop_operation_xyz
x,y,z
-x,1/2+y,-z
-x,-y,-z
x,1/2-y,z
loop_
_atom_site_type_symbol
_atom_site_label
_atom_site_fract_x
_atom_site_fract_y
_atom_site_fract_z
Si Si1 0.565400 0.429738 0.318739
Si Si2 0.698317 0.572682 0.546533
Si Si3 0.299141 0.072018 0.242314
Si Si4 0.438049 0.571268 0.885070
Si Si5 0.780970 0.071311 0.329411
Si Si6 0.785572 0.428661 0.890529
Si Si7 0.004972 0.070549 0.099405
O O1 0.568916 0.250000 0.317778
O O2 0.434124 0.485475 0.409939
O O3 0.597852 0.489726 0.199245
O O4 0.662229 0.494911 0.341301
O O5 0.707016 0.750000 0.527114
O O6 0.733536 0.531022 0.634814
O O7 0.788409 0.492621 0.430694
O O8 0.286295 0.250000 0.231088
O O9 0.431589 0.013349 0.153720
O O10 0.209734 0.983128 0.219139
O O11 0.444245 0.750000 0.876645
O O12 0.341181 0.517363 0.007112
O O13 0.779030 0.250000 0.335479
O O14 0.891671 0.015637 0.214174
O O15 0.804782 0.250000 0.888288
O O16 0.882175 0.512156 0.902729
O O17 0.009077 0.250000 0.088048
O O18 0.000000 0.000000 0.000000
#
# Coordination Sequence:
#
# PCOD8073476 Si02
#       7
#     4   4   4   4   4   4   4
#     4   8  14  28  50  77 107 138 169 207 259 317
#     4   9  18  32  53  79 107 138 173 214 262 313
#     4   9  18  34  54  78 109 143 177 218 265 316
#     4   8  15  29  51  78 109 142 175 212 262 319
#     4  10  20  34  54  77 105 140 176 215 262 312
#     4  11  21  34  55  81 108 142 180 220 265 314
#     4  11  24  41  59  80 106 139 177 218 262 311
#
# _framework density 19.389590999999999
#
# number of rings (size 3 to 8) (size 9 to 14) (size 15 to 20)
#    0.000    2.571    0.000    4.286    0.000    4.000 
#    0.000    1.429    0.000    4.286    0.000    0.000 
#    0.000    0.000    0.000    0.000    0.000    0.000 
#
# Total GULP energy -347108.772232 kJ/mol
# GULP energy per Si atom -12396.741865 kJ/mol
# Density = 1.934546 g / cm^3
# Si number density = 19.389591 Si / 1000 Ang^3
#
#
#
# Elastic Constant Matrix: (Units=GPa)
#
#
# Indices 1 2 3 4 5 6 
#
# 1 111.5220 30.5007 60.1223 0.0000 21.2749 0.0000
# 2 30.5007 38.7635 40.5097 0.0000 2.9432 0.0000
# 3 60.1223 40.5097 143.8269 0.0000 13.4142 0.0000
# 4 0.0000 0.0000 0.0000 29.5280 0.0000 4.8799
# 5 21.2749 2.9432 13.4142 0.0000 23.2227 0.0000
# 6 0.0000 0.0000 0.0000 4.8799 0.0000 28.4588
#
#
#
# Elastic Compliance Matrix: (Units=1/GPa)
#
#
# Indices 1 2 3 4 5 6 
#
# 1 0.014733 -0.007637 -0.003001 0.000000 -0.010796 0.000000
# 2 -0.007637 0.040559 -0.008883 0.000000 0.006987 0.000000
# 3 -0.003001 -0.008883 0.010937 0.000000 -0.002443 0.000000
# 4 0.000000 0.000000 0.000000 0.034854 0.000000 -0.005976
# 5 -0.010796 0.006987 -0.002443 0.000000 0.053477 0.000000
# 6 0.000000 0.000000 0.000000 -0.005976 0.000000 0.036163
#
#
# Mechanical properties :
#
#
# Convention : Reuss Voigt Hill
#
# Bulk Modulus (GPa) = 36.78128 61.81975 49.30052
# Shear Modulus (GPa) = 20.93570 27.10720 24.02145
#
# Velocity S-wave (km/s) = 3.28950 3.74308 3.52360
# Velocity P-wave (km/s) = 5.78261 7.11569 6.48350
#
# Compressibility (1/GPa) = 0.02718774
#
# Stress axis : x y z
#
# Youngs Moduli (GPa) = 67.87656 24.65537 91.43300
#
# Poissons Ratio (x) = 0.18828 0.27437
# Poissons Ratio (y) = 0.51835 0.81221
# Poissons Ratio (z) = 0.20368 0.21902
#
# Static dielectric constant tensor:
#      x y z
#    x 3.610950 0.000000 0.047580 
#    y 0.000000 3.133810 0.000000 
#    z 0.047580 0.000000 3.752530 
# 
# 
# High freq. dielectric constant tensor:
#      x y z
#    x 1.750920 0.000000 0.014960 
#    y 0.000000 1.723430 0.000000 
#    z 0.014960 0.000000 1.760510 
# 
# From -- ./inp_files/49103.got.cif
#   From: 2010.06.25/outbox.cif.g09.slc.cpg/sg11_25_cif.got.tgz:49103.got - 2010.06.27 23:14:04.
