data_PCOD8073358
_publ_section_title
;
Structure prediction by ZEFSAII (Michael W. Deem and Ramdas Pophale) SiO2 
 PCOD8073358
Probable space group: P 21/M
;
_chemical_formula_sum "Si O2"
_cell_formula_units_Z 28
_cell_length_a 25.513138
_cell_length_b 9.410172
_cell_length_c 31.104095
_cell_angle_alpha 90.000000
_cell_angle_beta 168.466146
_cell_angle_gamma 90.000000
_cell_volume 1493.116477
_symmetry_space_group_name_H-M "P 21/M"
_symmetry_group_IT_number 11
_symmetry_cell_setting 'monoclinic'
loop_
_space_group_symop_operation_xyz
x,y,z
-x,1/2+y,-z
-x,-y,-z
x,1/2-y,z
loop_
_atom_site_type_symbol
_atom_site_label
_atom_site_fract_x
_atom_site_fract_y
_atom_site_fract_z
Si Si1 0.086801 0.086094 0.289488
Si Si2 0.697008 0.413908 0.899706
Si Si3 0.985561 0.590608 0.924189
Si Si4 0.382677 0.590611 0.321314
Si Si5 0.208703 0.419710 0.639128
Si Si6 0.159366 0.418491 0.501647
Si Si7 0.786926 0.081506 0.129197
O O1 0.156679 0.250000 0.353559
O O2 0.352843 0.015923 0.484690
O O3 0.988052 0.018191 0.255097
O O4 0.850394 0.065440 0.066924
O O5 0.661968 0.250000 0.858861
O O6 0.409611 0.481811 0.676669
O O7 0.855989 0.484074 0.987847
O O8 0.895029 0.750000 0.838792
O O9 0.725071 0.500006 0.725066
O O10 0.169501 0.594678 0.113006
O O11 0.442385 0.750000 0.386162
O O12 0.177040 0.250000 0.618022
O O13 0.157973 0.473151 0.549516
O O14 0.000000 0.500000 0.500000
O O15 0.492752 0.473144 0.884279
O O16 0.190447 0.250000 0.528110
O O17 0.894475 0.463507 0.262973
O O18 0.783568 0.250000 0.121222
#
# Coordination Sequence:
#
# PCOD8073358 Si02
#       7
#     4   4   4   4   4   4   4
#     4   9  15  25  43  67  92 117 153 201 240 270
#     4   9  15  25  43  67  92 117 153 201 240 270
#     4   9  17  28  42  62  89 120 153 191 235 279
#     4   9  17  28  42  62  89 120 153 191 235 279
#     4  10  20  34  52  76 103 128 156 192 235 284
#     4   9  16  28  48  73  99 126 159 199 239 277
#     4   9  16  28  48  73  99 126 159 199 239 277
#
# _framework density 18.752723
#
# number of rings (size 3 to 8) (size 9 to 14) (size 15 to 20)
#    0.000    2.857    1.429    0.857    0.000    4.571 
#    0.000    0.000    0.000    1.714    0.000    0.000 
#    0.000    0.000    0.000    0.000    0.000    0.000 
#
# Total GULP energy -346968.426027 kJ/mol
# GULP energy per Si atom -12391.729501 kJ/mol
# Density = 1.871004 g / cm^3
# Si number density = 18.752723 Si / 1000 Ang^3
#
#
#
# Elastic Constant Matrix: (Units=GPa)
#
#
# Indices 1 2 3 4 5 6 
#
# 1 140.2590 23.6334 74.8282 0.0000 20.7862 0.0000
# 2 23.6334 23.2990 22.5191 0.0000 8.4766 0.0000
# 3 74.8282 22.5191 134.7518 0.0000 20.6829 0.0000
# 4 0.0000 0.0000 0.0000 16.5350 0.0000 9.1796
# 5 20.7862 8.4766 20.6829 0.0000 32.0360 0.0000
# 6 0.0000 0.0000 0.0000 9.1796 0.0000 17.7486
#
#
#
# Elastic Compliance Matrix: (Units=1/GPa)
#
#
# Indices 1 2 3 4 5 6 
#
# 1 0.011006 -0.005609 -0.004780 0.000000 -0.002571 0.000000
# 2 -0.005609 0.056442 -0.005088 0.000000 -0.008010 0.000000
# 3 -0.004780 -0.005088 0.011370 0.000000 -0.002893 0.000000
# 4 0.000000 0.000000 0.000000 0.084837 0.000000 -0.043878
# 5 -0.002571 -0.008010 -0.002893 0.000000 0.036870 0.000000
# 6 0.000000 0.000000 0.000000 -0.043878 0.000000 0.079036
#
#
# Mechanical properties :
#
#
# Convention : Reuss Voigt Hill
#
# Bulk Modulus (GPa) = 20.89261 60.03012 40.46137
# Shear Modulus (GPa) = 15.31545 25.08586 20.20066
#
# Velocity S-wave (km/s) = 2.86091 3.66145 3.28565
# Velocity P-wave (km/s) = 4.69876 7.06795 6.00143
#
# Compressibility (1/GPa) = 0.04786381
#
# Stress axis : x y z
#
# Youngs Moduli (GPa) = 90.86255 17.71739 87.95461
#
# Poissons Ratio (x) = 0.09937 0.42038
# Poissons Ratio (y) = 0.50962 0.44754
# Poissons Ratio (z) = 0.43428 0.09015
#
# Static dielectric constant tensor:
#      x y z
#    x 3.592220 0.000000 0.107230 
#    y 0.000000 2.829630 0.000000 
#    z 0.107230 0.000000 3.578080 
# 
# 
# High freq. dielectric constant tensor:
#      x y z
#    x 1.740000 0.000000 0.003520 
#    y 0.000000 1.642040 0.000000 
#    z 0.003520 0.000000 1.739540 
# 
# From -- ./inp_files/24264.got.cif
#   From: 2010.06.25/outbox.cif.g09.slc.cpg/sg11_13_cif.got.tgz:24264.got - 2010.06.27 23:14:04.
