data_PCOD8073825
_publ_section_title
;
Structure prediction by ZEFSAII (Michael W. Deem and Ramdas Pophale) SiO2 
 PCOD8073825
Probable space group: P 21/M
;
_chemical_formula_sum "Si O2"
_cell_formula_units_Z 32
_cell_length_a 26.459575
_cell_length_b 8.775624
_cell_length_c 18.378749
_cell_angle_alpha 90.000000
_cell_angle_beta 155.821095
_cell_angle_gamma 90.000000
_cell_volume 1747.926543
_symmetry_space_group_name_H-M "P 21/M"
_symmetry_group_IT_number 11
_symmetry_cell_setting 'monoclinic'
loop_
_space_group_symop_operation_xyz
x,y,z
-x,1/2+y,-z
-x,-y,-z
x,1/2-y,z
loop_
_atom_site_type_symbol
_atom_site_label
_atom_site_fract_x
_atom_site_fract_y
_atom_site_fract_z
Si Si1 0.832291 0.423582 0.835477
Si Si2 0.445782 0.924858 0.499462
Si Si3 0.272105 0.075491 0.928319
Si Si4 0.903182 0.925910 0.425889
Si Si5 0.014146 0.068376 0.195006
Si Si6 0.515487 0.571317 0.297779
Si Si7 0.767677 0.431963 0.593591
Si Si8 0.039996 0.428489 0.725065
O O1 0.870686 0.250000 0.875634
O O2 0.700426 0.439080 0.700361
O O3 0.825657 0.496418 0.745941
O O4 0.932702 0.499290 0.020865
O O5 0.488066 0.750000 0.561731
O O6 0.500000 0.000000 0.500000
O O7 0.496627 0.013242 0.635929
O O8 0.310925 0.250000 0.994011
O O9 0.388125 0.965690 0.090079
O O10 0.229160 0.055587 0.787572
O O11 0.162674 0.029816 0.840495
O O12 0.935850 0.750000 0.480584
O O13 0.916867 0.011230 0.521299
O O14 0.000000 0.000000 0.500000
O O15 0.017583 0.250000 0.200764
O O16 0.151781 0.000557 0.366437
O O17 0.951900 0.010552 0.186952
O O18 0.539767 0.750000 0.328952
O O19 0.627445 0.489312 0.402464
O O20 0.766051 0.250000 0.589158
O O21 0.026029 0.250000 0.718665
#
# Coordination Sequence:
#
# PCOD8073825 Si02
#       8
#     4   4   4   4   4   4   4   4
#     4   8  18  34  52  74 101 136 178 222 266 312
#     4  10  20  35  51  73 106 143 178 218 268 316
#     4   9  19  35  55  80 110 141 176 217 261 318
#     4   9  17  32  54  79 108 141 174 213 263 317
#     4  11  21  34  54  80 108 138 178 227 269 317
#     4  11  22  35  54  79 104 139 182 221 264 316
#     4  10  20  38  57  74 103 141 181 227 272 316
#     4  10  21  35  52  80 113 144 177 214 267 321
#
# _framework density 18.307404999999999
#
# number of rings (size 3 to 8) (size 9 to 14) (size 15 to 20)
#    0.000    2.250    0.000    4.875    1.750    3.000 
#    0.000    6.250    0.000    0.750    0.000    0.000 
#    0.000    0.000    0.000    0.000    0.000    0.000 
#
# Total GULP energy -396710.548228 kJ/mol
# GULP energy per Si atom -12397.204632 kJ/mol
# Density = 1.826574 g / cm^3
# Si number density = 18.307405 Si / 1000 Ang^3
#
#
#
# Elastic Constant Matrix: (Units=GPa)
#
#
# Indices 1 2 3 4 5 6 
#
# 1 53.0632 26.4524 32.6735 0.0000 2.8910 0.0000
# 2 26.4524 101.2135 41.9769 0.0000 -0.0741 0.0000
# 3 32.6735 41.9769 96.3603 0.0000 -5.9251 0.0000
# 4 0.0000 0.0000 0.0000 27.6964 0.0000 -0.4565
# 5 2.8910 -0.0741 -5.9251 0.0000 16.7828 0.0000
# 6 0.0000 0.0000 0.0000 -0.4565 0.0000 32.3246
#
#
#
# Elastic Compliance Matrix: (Units=1/GPa)
#
#
# Indices 1 2 3 4 5 6 
#
# 1 0.025688 -0.003570 -0.007593 0.000000 -0.007122 0.000000
# 2 -0.003570 0.012611 -0.004336 0.000000 -0.000860 0.000000
# 3 -0.007593 -0.004336 0.015252 0.000000 0.006673 0.000000
# 4 0.000000 0.000000 0.000000 0.036114 0.000000 0.000510
# 5 -0.007122 -0.000860 0.006673 0.000000 0.063164 0.000000
# 6 0.000000 0.000000 0.000000 0.000510 0.000000 0.030943
#
#
# Mechanical properties :
#
#
# Convention : Reuss Voigt Hill
#
# Bulk Modulus (GPa) = 44.34024 50.31585 47.32805
# Shear Modulus (GPa) = 22.49337 25.32971 23.91154
#
# Velocity S-wave (km/s) = 3.50901 3.72368 3.61794
# Velocity P-wave (km/s) = 6.37887 6.78464 6.58488
#
# Compressibility (1/GPa) = 0.02255288
#
# Stress axis : x y z
#
# Youngs Moduli (GPa) = 38.92793 79.29738 65.56697
#
# Poissons Ratio (x) = 0.28308 0.49786
# Poissons Ratio (y) = 0.13897 0.28430
# Poissons Ratio (z) = 0.29559 0.34383
#
# Static dielectric constant tensor:
#      x y z
#    x 3.342450 0.000000 -0.223900 
#    y 0.000000 3.442950 0.000000 
#    z -0.223900 0.000000 3.578920 
# 
# 
# High freq. dielectric constant tensor:
#      x y z
#    x 1.691660 0.000000 -0.005870 
#    y 0.000000 1.713360 0.000000 
#    z -0.005870 0.000000 1.705620 
# 
# From -- ./inp_files/67426.got.cif
#   From: 2010.06.25/outbox.cif.g09.slc.cpg/sg11_34_cif.got.tgz:67426.got - 2010.06.27 23:14:04.
