data_PCOD8073747
_publ_section_title
;
Structure prediction by ZEFSAII (Michael W. Deem and Ramdas Pophale) SiO2 
 PCOD8073747
Probable space group: P 21/M
;
_chemical_formula_sum "Si O2"
_cell_formula_units_Z 28
_cell_length_a 9.570372
_cell_length_b 14.098010
_cell_length_c 13.306093
_cell_angle_alpha 90.000000
_cell_angle_beta 129.184143
_cell_angle_gamma 90.000000
_cell_volume 1391.572322
_symmetry_space_group_name_H-M "P 21/M"
_symmetry_group_IT_number 11
_symmetry_cell_setting 'monoclinic'
loop_
_space_group_symop_operation_xyz
x,y,z
-x,1/2+y,-z
-x,-y,-z
x,1/2-y,z
loop_
_atom_site_type_symbol
_atom_site_label
_atom_site_fract_x
_atom_site_fract_y
_atom_site_fract_z
Si Si1 0.731620 0.643671 0.672711
Si Si2 0.474533 0.992105 0.820641
Si Si3 0.326148 0.639164 0.221170
Si Si4 0.350315 0.858576 0.600278
Si Si5 0.161968 0.946356 0.338322
Si Si6 0.231867 0.475782 0.895354
Si Si7 0.083652 0.645659 0.935086
O O1 0.748390 0.750000 0.631219
O O2 0.533535 0.625681 0.622386
O O3 0.791037 0.558678 0.624964
O O4 0.867271 0.634769 0.829825
O O5 0.361487 0.912900 0.710529
O O6 0.521346 0.078013 0.765955
O O7 0.346832 0.036847 0.847224
O O8 0.649142 0.942269 0.953763
O O9 0.383006 0.750000 0.251822
O O10 0.300580 0.599918 0.321715
O O11 0.139750 0.622481 0.075115
O O12 0.312115 0.750000 0.608079
O O13 0.187584 0.898041 0.458091
O O14 0.959699 0.923193 0.207160
O O15 0.187124 0.585195 0.898199
O O16 0.149277 0.750000 0.936743
#
# Coordination Sequence:
#
# PCOD8073747 Si02
#       7
#     4   4   4   4   4   4   4
#     4   9  18  32  54  84 113 145 187 235 284 338
#     4  10  21  40  59  86 115 152 193 235 289 342
#     4  10  20  34  57  84 115 150 188 238 294 344
#     4  11  23  37  56  85 120 151 190 239 289 343
#     4  11  21  37  58  85 117 152 187 239 286 342
#     4   9  21  37  61  84 114 151 193 238 284 342
#     4   8  16  31  54  84 114 143 186 237 289 346
#
# _framework density 20.121124999999999
#
# number of rings (size 3 to 8) (size 9 to 14) (size 15 to 20)
#    0.000    2.286    1.429    0.857    2.000    2.857 
#    0.000    4.286    0.000    0.000    0.000    0.000 
#    0.000    0.000    0.000    0.000    0.000    0.000 
#
# Total GULP energy -346980.425146 kJ/mol
# GULP energy per Si atom -12392.158041 kJ/mol
# Density = 2.007533 g / cm^3
# Si number density = 20.121125 Si / 1000 Ang^3
#
#
#
# Elastic Constant Matrix: (Units=GPa)
#
#
# Indices 1 2 3 4 5 6 
#
# 1 53.2346 14.0909 23.3647 0.0000 -7.4412 0.0000
# 2 14.0909 102.1219 48.5177 0.0000 -9.2692 0.0000
# 3 23.3647 48.5177 98.8476 0.0000 -15.8947 0.0000
# 4 0.0000 0.0000 0.0000 30.0213 0.0000 2.7981
# 5 -7.4412 -9.2692 -15.8947 0.0000 19.2750 0.0000
# 6 0.0000 0.0000 0.0000 2.7981 0.0000 13.5940
#
#
#
# Elastic Compliance Matrix: (Units=1/GPa)
#
#
# Indices 1 2 3 4 5 6 
#
# 1 0.021353 -0.000628 -0.003991 0.000000 0.004650 0.000000
# 2 -0.000628 0.012810 -0.005980 0.000000 0.000986 0.000000
# 3 -0.003991 -0.005980 0.015316 0.000000 0.008213 0.000000
# 4 0.000000 0.000000 0.000000 0.033961 0.000000 -0.006990
# 5 0.004650 0.000986 0.008213 0.000000 0.060923 0.000000
# 6 0.000000 0.000000 0.000000 -0.006990 0.000000 0.075001
#
#
# Mechanical properties :
#
#
# Convention : Reuss Voigt Hill
#
# Bulk Modulus (GPa) = 35.36164 47.35008 41.35586
# Shear Modulus (GPa) = 20.00092 23.79346 21.89719
#
# Velocity S-wave (km/s) = 3.15624 3.44250 3.30247
# Velocity P-wave (km/s) = 5.55833 6.27572 5.92789
#
# Compressibility (1/GPa) = 0.02827923
#
# Stress axis : x y z
#
# Youngs Moduli (GPa) = 46.83243 78.06627 65.29088
#
# Poissons Ratio (x) = 0.04903 0.26059
# Poissons Ratio (y) = 0.02941 0.39047
# Poissons Ratio (z) = 0.18692 0.46687
#
# Static dielectric constant tensor:
#      x y z
#    x 3.267530 0.000000 0.232450 
#    y 0.000000 3.752100 0.000000 
#    z 0.232450 0.000000 3.865260 
# 
# 
# High freq. dielectric constant tensor:
#      x y z
#    x 1.748520 0.000000 0.015400 
#    y 0.000000 1.780680 0.000000 
#    z 0.015400 0.000000 1.794590 
# 
# From -- ./inp_files/31968.got.cif
#   From: 2010.06.25/outbox.cif.g09.slc.cpg/sg11_16_cif.got.tgz:31968.got - 2010.06.27 23:14:04.
