data_PCOD8073280
_publ_section_title
;
Structure prediction by ZEFSAII (Michael W. Deem and Ramdas Pophale) SiO2 
 PCOD8073280
Probable space group: P 21/M
;
_chemical_formula_sum "Si O2"
_cell_formula_units_Z 32
_cell_length_a 25.177412
_cell_length_b 13.725458
_cell_length_c 18.306481
_cell_angle_alpha 90.000000
_cell_angle_beta 17.412752
_cell_angle_gamma 90.000000
_cell_volume 1893.134862
_symmetry_space_group_name_H-M "P 21/M"
_symmetry_group_IT_number 11
_symmetry_cell_setting 'monoclinic'
loop_
_space_group_symop_operation_xyz
x,y,z
-x,1/2+y,-z
-x,-y,-z
x,1/2-y,z
loop_
_atom_site_type_symbol
_atom_site_label
_atom_site_fract_x
_atom_site_fract_y
_atom_site_fract_z
Si Si1 0.950225 0.995951 0.480871
Si Si2 0.254021 0.635304 0.344887
Si Si3 0.491628 0.639146 0.245698
Si Si4 0.706642 0.997880 0.065170
Si Si5 0.415392 0.863241 0.661940
Si Si6 0.757644 0.547190 0.155112
Si Si7 0.112327 0.862228 0.686159
Si Si8 0.373560 0.137355 0.092078
O O1 0.809596 0.912699 0.645205
O O2 0.853166 0.095729 0.584303
O O3 0.000000 0.000000 0.500000
O O4 0.126482 0.976383 0.203825
O O5 0.246633 0.750000 0.349995
O O6 0.162105 0.599509 0.540146
O O7 0.460950 0.601527 0.074801
O O8 0.538866 0.750000 0.206997
O O9 0.559619 0.562305 0.214823
O O10 0.280244 0.626270 0.518749
O O11 0.583308 0.615008 0.048609
O O12 0.623608 0.100216 0.203783
O O13 0.759699 0.930941 0.065060
O O14 0.363974 0.750000 0.719763
O O15 0.621980 0.880359 0.373424
O O16 0.299030 0.932747 0.759185
O O17 0.954461 0.570932 0.926181
O O18 0.050660 0.750000 0.763799
O O19 0.342336 0.250000 0.146242
#
# Coordination Sequence:
#
# PCOD8073280 Si02
#       8
#     4   4   4   4   4   4   4   4
#     4  12  21  31  49  76 107 138 174 211 252 305
#     4   9  18  33  50  71  99 132 175 219 257 297
#     4   9  18  32  50  75 108 135 168 214 261 300
#     4  10  20  34  49  79 104 137 169 209 260 306
#     4   9  19  35  55  78 104 133 167 212 264 309
#     4   9  18  34  56  79  96 130 175 215 251 310
#     4   9  16  30  54  79 101 131 168 216 261 298
#     4   9  19  34  50  69  98 139 179 215 253 299
#
# _framework density 16.903179999999999
#
# number of rings (size 3 to 8) (size 9 to 14) (size 15 to 20)
#    0.750    1.750    2.500    2.250    0.000    2.500 
#    0.000    0.625    0.000    0.750    0.000    0.000 
#    0.000    0.000    0.000    0.000    0.000    0.000 
#
# Total GULP energy -396514.376399 kJ/mol
# GULP energy per Si atom -12391.074262 kJ/mol
# Density = 1.686471 g / cm^3
# Si number density = 16.903180 Si / 1000 Ang^3
#
#
#
# Elastic Constant Matrix: (Units=GPa)
#
#
# Indices 1 2 3 4 5 6 
#
# 1 49.8630 22.9690 40.1920 0.0000 -5.4625 0.0000
# 2 22.9690 81.1521 46.2773 0.0000 -8.1140 0.0000
# 3 40.1920 46.2773 133.1036 0.0000 -5.0836 0.0000
# 4 0.0000 0.0000 0.0000 22.8695 0.0000 -3.8115
# 5 -5.4625 -8.1140 -5.0836 0.0000 23.8404 0.0000
# 6 0.0000 0.0000 0.0000 -3.8115 0.0000 27.6569
#
#
#
# Elastic Compliance Matrix: (Units=1/GPa)
#
#
# Indices 1 2 3 4 5 6 
#
# 1 0.027717 -0.003474 -0.007021 0.000000 0.003671 0.000000
# 2 -0.003474 0.016218 -0.004446 0.000000 0.003776 0.000000
# 3 -0.007021 -0.004446 0.011150 0.000000 -0.000744 0.000000
# 4 0.000000 0.000000 0.000000 0.044754 0.000000 0.006168
# 5 0.003671 0.003776 -0.000744 0.000000 0.043913 0.000000
# 6 0.000000 0.000000 0.000000 0.006168 0.000000 0.037007
#
#
# Mechanical properties :
#
#
# Convention : Reuss Voigt Hill
#
# Bulk Modulus (GPa) = 39.67635 53.66616 46.67125
# Shear Modulus (GPa) = 22.82649 25.18538 24.00594
#
# Velocity S-wave (km/s) = 3.67880 3.86421 3.77265
# Velocity P-wave (km/s) = 6.44736 7.19219 6.82994
#
# Compressibility (1/GPa) = 0.02520393
#
# Stress axis : x y z
#
# Youngs Moduli (GPa) = 36.07905 61.65819 89.68321
#
# Poissons Ratio (x) = 0.21419 0.62970
# Poissons Ratio (y) = 0.12533 0.39870
# Poissons Ratio (z) = 0.25333 0.27411
#
# Static dielectric constant tensor:
#      x y z
#    x 3.024320 0.000000 -0.067990 
#    y 0.000000 2.983600 0.000000 
#    z -0.067990 0.000000 3.235740 
# 
# 
# High freq. dielectric constant tensor:
#      x y z
#    x 1.627290 0.000000 -0.008690 
#    y 0.000000 1.636220 0.000000 
#    z -0.008690 0.000000 1.662400 
# 
# From -- ./inp_files/55002.got.cif
#   From: 2010.06.25/outbox.cif.g09.slc.cpg/sg11_28_cif.got.tgz:55002.got - 2010.06.27 23:14:04.
