data_PCOD8073381
_publ_section_title
;
Structure prediction by ZEFSAII (Michael W. Deem and Ramdas Pophale) SiO2 
 PCOD8073381
Probable space group: P 21/M
;
_chemical_formula_sum "Si O2"
_cell_formula_units_Z 24
_cell_length_a 13.049276
_cell_length_b 10.836835
_cell_length_c 10.941449
_cell_angle_alpha 90.000000
_cell_angle_beta 128.252596
_cell_angle_gamma 90.000000
_cell_volume 1215.047247
_symmetry_space_group_name_H-M "P 21/M"
_symmetry_group_IT_number 11
_symmetry_cell_setting 'monoclinic'
loop_
_space_group_symop_operation_xyz
x,y,z
-x,1/2+y,-z
-x,-y,-z
x,1/2-y,z
loop_
_atom_site_type_symbol
_atom_site_label
_atom_site_fract_x
_atom_site_fract_y
_atom_site_fract_z
Si Si1 0.336904 0.111984 0.571097
Si Si2 0.618472 0.387007 0.708867
Si Si3 0.390229 0.607659 0.788641
Si Si4 0.086888 0.114226 0.920711
Si Si5 0.332265 0.994510 0.000830
Si Si6 0.165140 0.045635 0.241019
O O1 0.354472 0.250000 0.645904
O O2 0.465203 0.081283 0.584427
O O3 0.209136 0.125721 0.390464
O O4 0.321252 0.998815 0.655186
O O5 0.646165 0.250000 0.686989
O O6 0.707570 0.462492 0.683062
O O7 0.663315 0.402513 0.881913
O O8 0.361508 0.750000 0.724712
O O9 0.332205 0.589595 0.880654
O O10 0.546106 0.588931 0.905935
O O11 0.042022 0.250000 0.848717
O O12 0.199186 0.072134 0.910428
O O13 0.138850 0.122092 0.098735
O O14 0.964113 0.026120 0.816558
#
# Coordination Sequence:
#
# PCOD8073381 Si02
#       6
#     4   4   4   4   4   4
#     4  10  21  36  54  79 112 146 178 219 272 321
#     4   9  17  31  53  80 109 141 177 219 265 314
#     4  10  20  35  58  84 109 140 180 226 270 317
#     4  10  20  34  54  78 106 142 181 222 267 320
#     4   9  19  34  54  81 110 140 176 221 271 319
#     4  10  20  34  52  78 108 143 181 219 264 320
#
# _framework density 19.752319
#
# number of rings (size 3 to 8) (size 9 to 14) (size 15 to 20)
#    0.000    2.333    0.000    2.500    0.000    6.000 
#    0.000    7.500    0.000    0.000    0.000    0.000 
#    0.000    0.000    0.000    0.000    0.000    0.000 
#
# Total GULP energy -297413.340852 kJ/mol
# GULP energy per Si atom -12392.222536 kJ/mol
# Density = 1.970736 g / cm^3
# Si number density = 19.752319 Si / 1000 Ang^3
#
#
#
# Elastic Constant Matrix: (Units=GPa)
#
#
# Indices 1 2 3 4 5 6 
#
# 1 86.2148 25.6706 23.5741 0.0000 6.1259 0.0000
# 2 25.6706 96.9798 25.0339 0.0000 3.4309 0.0000
# 3 23.5741 25.0339 70.1342 0.0000 5.1992 0.0000
# 4 0.0000 0.0000 0.0000 16.2079 0.0000 -3.9552
# 5 6.1259 3.4309 5.1992 0.0000 16.2852 0.0000
# 6 0.0000 0.0000 0.0000 -3.9552 0.0000 -5.2334
#
#
#
# Elastic Compliance Matrix: (Units=1/GPa)
#
#
# Indices 1 2 3 4 5 6 
#
# 1 0.013538 -0.002591 -0.003368 0.000000 -0.003471 0.000000
# 2 -0.002591 0.011874 -0.003333 0.000000 -0.000463 0.000000
# 3 -0.003368 -0.003333 0.016833 0.000000 -0.003405 0.000000
# 4 0.000000 0.000000 0.000000 0.052091 0.000000 -0.039369
# 5 -0.003471 -0.000463 -0.003405 0.000000 0.063895 0.000000
# 6 0.000000 0.000000 0.000000 -0.039369 0.000000 -0.161327
#
#
# Mechanical properties :
#
#
# Convention : Reuss Voigt Hill
#
# Bulk Modulus (GPa) = 42.26608 44.65402 43.46005
# Shear Modulus (GPa) = 213.89269 17.38862 115.64066
#
# Velocity S-wave (km/s) = 10.41741 2.97026 7.65979
# Velocity P-wave (km/s) = 12.88957 5.86680 10.01400
#
# Compressibility (1/GPa) = 0.02365963
#
# Stress axis : x y z
#
# Youngs Moduli (GPa) = 73.86535 84.21701 59.40828
#
# Poissons Ratio (x) = 0.21823 0.20010
# Poissons Ratio (y) = 0.19141 0.19801
# Poissons Ratio (z) = 0.24880 0.28070
#
# Static dielectric constant tensor:
#      x y z
#    x 3.518280 0.000000 0.076450 
#    y 0.000000 3.525620 0.000000 
#    z 0.076450 0.000000 3.415720 
# 
# 
# High freq. dielectric constant tensor:
#      x y z
#    x 1.758000 0.000000 0.005530 
#    y 0.000000 1.773020 0.000000 
#    z 0.005530 0.000000 1.751520 
# 
# From -- ./inp_files/34228.got.cif
#   From: 2010.06.25/outbox.cif.g09.slc.cpg/sg11_18_cif.got.tgz:34228.got - 2010.06.27 23:14:04.
