data_PCOD8073883
_publ_section_title
;
Structure prediction by ZEFSAII (Michael W. Deem and Ramdas Pophale) SiO2 
 PCOD8073883
Probable space group: P 21/M
;
_chemical_formula_sum "Si O2"
_cell_formula_units_Z 32
_cell_length_a 20.966592
_cell_length_b 9.349591
_cell_length_c 11.748950
_cell_angle_alpha 90.000000
_cell_angle_beta 46.733562
_cell_angle_gamma 90.000000
_cell_volume 1677.084315
_symmetry_space_group_name_H-M "P 21/M"
_symmetry_group_IT_number 11
_symmetry_cell_setting 'monoclinic'
loop_
_space_group_symop_operation_xyz
x,y,z
-x,1/2+y,-z
-x,-y,-z
x,1/2-y,z
loop_
_atom_site_type_symbol
_atom_site_label
_atom_site_fract_x
_atom_site_fract_y
_atom_site_fract_z
Si Si1 0.729507 0.417562 0.868871
Si Si2 0.972849 0.416562 0.859621
Si Si3 0.429066 0.087106 0.016589
Si Si4 0.505858 0.088931 0.672832
Si Si5 0.880759 0.419028 0.205362
Si Si6 0.072883 0.917842 0.339415
Si Si7 0.647303 0.088658 0.204903
Si Si8 0.693344 0.086117 0.397398
O O1 0.713812 0.250000 0.863178
O O2 0.831395 0.458751 0.727414
O O3 0.666100 0.509002 0.862981
O O4 0.707037 0.458824 0.026320
O O5 0.995835 0.250000 0.833734
O O6 0.931358 0.460620 0.789011
O O7 0.062521 0.503388 0.767988
O O8 0.908734 0.457836 0.041886
O O9 0.419283 0.250000 0.074191
O O10 0.465450 0.086868 0.845974
O O11 0.500000 0.000000 0.000000
O O12 0.513456 0.250000 0.614866
O O13 0.602792 0.015802 0.553382
O O14 0.440803 0.002896 0.670830
O O15 0.887343 0.250000 0.217042
O O16 0.781607 0.479159 0.343758
O O17 0.055937 0.750000 0.374190
O O18 0.000000 0.000000 0.500000
O O19 0.615617 0.250000 0.225158
O O20 0.704362 0.070622 0.248090
O O21 0.690763 0.250000 0.437923
#
# Coordination Sequence:
#
# PCOD8073883 Si02
#       8
#     4   4   4   4   4   4   4   4
#     4   9  18  34  55  78 100 130 173 213 254 307
#     4   9  18  34  53  74 103 133 167 215 263 305
#     4  10  20  35  54  74 100 136 174 214 254 299
#     4   9  18  31  46  69 101 130 159 201 249 293
#     4   9  17  31  53  76  99 135 175 206 248 311
#     4  10  21  37  56  78 107 139 174 222 275 320
#     4   9  16  28  50  74  98 129 165 201 241 296
#     4   9  16  28  47  73 101 129 162 197 240 298
#
# _framework density 19.080735000000001
#
# number of rings (size 3 to 8) (size 9 to 14) (size 15 to 20)
#    0.000    2.750    0.000    1.500    0.000    4.500 
#    2.250    1.250    0.000    6.000    0.000    0.000 
#    0.000    0.000    0.000    0.000    0.000    0.000 
#
# Total GULP energy -396598.121220 kJ/mol
# GULP energy per Si atom -12393.691288 kJ/mol
# Density = 1.903731 g / cm^3
# Si number density = 19.080735 Si / 1000 Ang^3
#
#
#
# Elastic Constant Matrix: (Units=GPa)
#
#
# Indices 1 2 3 4 5 6 
#
# 1 123.4632 49.5379 34.9528 0.0000 -35.2394 0.0000
# 2 49.5379 60.3437 27.4385 0.0000 -16.3677 0.0000
# 3 34.9528 27.4385 61.0389 0.0000 -27.9084 0.0000
# 4 0.0000 0.0000 0.0000 21.0888 0.0000 -3.4803
# 5 -35.2394 -16.3677 -27.9084 0.0000 36.9677 0.0000
# 6 0.0000 0.0000 0.0000 -3.4803 0.0000 31.6439
#
#
#
# Elastic Compliance Matrix: (Units=1/GPa)
#
#
# Indices 1 2 3 4 5 6 
#
# 1 0.014677 -0.009531 0.000531 0.000000 0.010171 0.000000
# 2 -0.009531 0.027284 -0.008304 0.000000 -0.003274 0.000000
# 3 0.000531 -0.008304 0.028042 0.000000 0.017999 0.000000
# 4 0.000000 0.000000 0.000000 0.048295 0.000000 0.005312
# 5 0.010171 -0.003274 0.017999 0.000000 0.048884 0.000000
# 6 0.000000 0.000000 0.000000 0.005312 0.000000 0.032186
#
#
# Mechanical properties :
#
#
# Convention : Reuss Voigt Hill
#
# Bulk Modulus (GPa) = 28.25425 52.07823 40.16624
# Shear Modulus (GPa) = 20.34391 26.80118 23.57254
#
# Velocity S-wave (km/s) = 3.26882 3.75189 3.51865
# Velocity P-wave (km/s) = 5.39321 6.79130 6.13223
#
# Compressibility (1/GPa) = 0.03539291
#
# Stress axis : x y z
#
# Youngs Moduli (GPa) = 68.13578 36.65197 35.66143
#
# Poissons Ratio (x) = 0.34932 -0.01892
# Poissons Ratio (y) = 0.64939 0.29614
# Poissons Ratio (z) = -0.03615 0.30436
#
# Static dielectric constant tensor:
#      x y z
#    x 3.728350 0.000000 -0.151290 
#    y 0.000000 3.573540 0.000000 
#    z -0.151290 0.000000 3.531810 
# 
# 
# High freq. dielectric constant tensor:
#      x y z
#    x 1.746240 0.000000 -0.015080 
#    y 0.000000 1.718270 0.000000 
#    z -0.015080 0.000000 1.732730 
# 
# From -- ./inp_files/42760.got.cif
#   From: 2010.06.25/outbox.cif.g09.slc.cpg/sg11_22_cif.got.tgz:42760.got - 2010.06.27 23:14:04.
