data_PCOD8073180
_publ_section_title
;
Structure prediction by ZEFSAII (Michael W. Deem and Ramdas Pophale) SiO2 
 PCOD8073180
Probable space group: P 21/M
;
_chemical_formula_sum "Si O2"
_cell_formula_units_Z 24
_cell_length_a 23.578198
_cell_length_b 9.645470
_cell_length_c 5.269808
_cell_angle_alpha 90.000000
_cell_angle_beta 83.217285
_cell_angle_gamma 90.000000
_cell_volume 1190.086595
_symmetry_space_group_name_H-M "P 21/M"
_symmetry_group_IT_number 11
_symmetry_cell_setting 'monoclinic'
loop_
_space_group_symop_operation_xyz
x,y,z
-x,1/2+y,-z
-x,-y,-z
x,1/2-y,z
loop_
_atom_site_type_symbol
_atom_site_label
_atom_site_fract_x
_atom_site_fract_y
_atom_site_fract_z
Si Si1 0.627682 0.410388 0.417254
Si Si2 0.258980 0.084184 0.650337
Si Si3 0.086324 0.099380 0.970479
Si Si4 0.803848 0.588699 0.813258
Si Si5 0.027869 0.901237 0.685071
Si Si6 0.443856 0.590410 0.042585
O O1 0.647581 0.250000 0.406955
O O2 0.680748 0.511806 0.417513
O O3 0.587145 0.441630 0.676651
O O4 0.596384 0.448783 0.172205
O O5 0.267031 0.250000 0.641732
O O6 0.218128 0.028831 0.442715
O O7 0.231115 0.029874 0.926849
O O8 0.108107 0.250000 0.846927
O O9 0.084904 0.976193 0.764126
O O10 0.128625 0.055430 0.177897
O O11 0.020972 0.122413 0.081148
O O12 0.792618 0.750000 0.808794
O O13 0.045721 0.750000 0.565364
O O14 0.000000 0.000000 0.500000
O O15 0.462372 0.750000 0.015504
O O16 0.500000 0.500000 0.000000
#
# Coordination Sequence:
#
# PCOD8073180 Si02
#       6
#     4   4   4   4   4   4
#     4  10  21  37  55  78 112 148 178 216 270 323
#     4  10  20  35  56  82 106 139 185 228 264 315
#     4   9  19  35  54  75 102 140 177 223 278 330
#     4   9  19  34  56  81 106 136 182 230 272 317
#     4  10  20  33  53  78 105 138 177 219 276 339
#     4  10  21  36  56  82 111 144 181 220 265 316
#
# _framework density 20.166599999999999
#
# number of rings (size 3 to 8) (size 9 to 14) (size 15 to 20)
#    0.000    2.333    0.000    2.000    2.333    2.000 
#    0.000    1.667    0.000    0.000    0.000    0.000 
#    0.000    0.000    0.000    0.000    0.000    0.000 
#
# Total GULP energy -297410.613251 kJ/mol
# GULP energy per Si atom -12392.108885 kJ/mol
# Density = 2.012070 g / cm^3
# Si number density = 20.166600 Si / 1000 Ang^3
#
#
#
# Elastic Constant Matrix: (Units=GPa)
#
#
# Indices 1 2 3 4 5 6 
#
# 1 78.0974 27.0801 5.5529 0.0000 20.5946 0.0000
# 2 27.0801 86.6400 17.7450 0.0000 19.2694 0.0000
# 3 5.5529 17.7450 90.4940 0.0000 18.6484 0.0000
# 4 0.0000 0.0000 0.0000 16.9929 0.0000 8.7258
# 5 20.5946 19.2694 18.6484 0.0000 32.9783 0.0000
# 6 0.0000 0.0000 0.0000 8.7258 0.0000 30.2193
#
#
#
# Elastic Compliance Matrix: (Units=1/GPa)
#
#
# Indices 1 2 3 4 5 6 
#
# 1 0.016252 -0.003383 0.001528 0.000000 -0.009037 0.000000
# 2 -0.003383 0.014074 -0.001463 0.000000 -0.005284 0.000000
# 3 0.001528 -0.001463 0.012750 0.000000 -0.007309 0.000000
# 4 0.000000 0.000000 0.000000 0.069093 0.000000 -0.019950
# 5 -0.009037 -0.005284 -0.007309 0.000000 0.043187 0.000000
# 6 0.000000 0.000000 0.000000 -0.019950 0.000000 0.038852
#
#
# Mechanical properties :
#
#
# Convention : Reuss Voigt Hill
#
# Bulk Modulus (GPa) = 27.44241 39.55416 33.49829
# Shear Modulus (GPa) = 23.47531 29.69498 26.58515
#
# Velocity S-wave (km/s) = 3.41555 3.84146 3.63475
# Velocity P-wave (km/s) = 5.40296 6.27152 5.85338
#
# Compressibility (1/GPa) = 0.03643995
#
# Stress axis : x y z
#
# Youngs Moduli (GPa) = 61.53138 71.05207 78.43232
#
# Poissons Ratio (x) = 0.24036 -0.11987
# Poissons Ratio (y) = 0.20815 0.11478
# Poissons Ratio (z) = -0.09404 0.10398
#
# Static dielectric constant tensor:
#      x y z
#    x 3.893970 0.000000 0.012690 
#    y 0.000000 3.366600 0.000000 
#    z 0.012690 0.000000 4.206910 
# 
# 
# High freq. dielectric constant tensor:
#      x y z
#    x 1.780730 0.000000 0.013440 
#    y 0.000000 1.772050 0.000000 
#    z 0.013440 0.000000 1.795040 
# 
# From -- ./inp_files/9246.got.cif
#   From: 2010.06.25/outbox.cif.g09.slc.cpg/sg11_5_cif.got.tgz:9246.got - 2010.06.27 23:14:04.
