data_PCOD8073719
_publ_section_title
;
Structure prediction by ZEFSAII (Michael W. Deem and Ramdas Pophale) SiO2 
 PCOD8073719
Probable space group: P 21/M
;
_chemical_formula_sum "Si O2"
_cell_formula_units_Z 28
_cell_length_a 15.523725
_cell_length_b 8.791907
_cell_length_c 20.037205
_cell_angle_alpha 90.000000
_cell_angle_beta 148.550045
_cell_angle_gamma 90.000000
_cell_volume 1426.860923
_symmetry_space_group_name_H-M "P 21/M"
_symmetry_group_IT_number 11
_symmetry_cell_setting 'monoclinic'
loop_
_space_group_symop_operation_xyz
x,y,z
-x,1/2+y,-z
-x,-y,-z
x,1/2-y,z
loop_
_atom_site_type_symbol
_atom_site_label
_atom_site_fract_x
_atom_site_fract_y
_atom_site_fract_z
Si Si1 0.213876 0.570086 0.949499
Si Si2 0.090351 0.069829 0.623188
Si Si3 0.039434 0.430249 0.329553
Si Si4 0.320460 0.917662 0.317653
Si Si5 0.370343 0.581468 0.504081
Si Si6 0.542798 0.570140 0.099521
Si Si7 0.996887 0.071830 0.070043
O O1 0.197976 0.750000 0.937710
O O2 0.154398 0.511289 0.983198
O O3 0.092601 0.507211 0.811570
O O4 0.401386 0.517710 0.058726
O O5 0.082779 0.250000 0.612471
O O6 0.281321 0.013904 0.755456
O O7 0.000000 0.000000 0.500000
O O8 0.992619 0.014451 0.622753
O O9 0.027163 0.250000 0.331538
O O10 0.221427 0.474348 0.427068
O O11 0.278854 0.750000 0.259947
O O12 0.381617 0.896449 0.432745
O O13 0.460404 0.995601 0.363453
O O14 0.163561 0.026834 0.217340
O O15 0.358960 0.750000 0.529896
O O16 0.541909 0.750000 0.089381
O O17 0.500000 0.500000 0.000000
O O18 0.986005 0.250000 0.054473
O O19 0.000000 0.000000 0.000000
#
# Coordination Sequence:
#
# PCOD8073719 Si02
#       7
#     4   4   4   4   4   4   4
#     4   9  19  36  61  88 116 152 200 250 305 370
#     4  11  24  41  62  89 126 165 204 254 312 373
#     4  11  20  36  63  89 117 156 198 246 307 371
#     4  10  20  35  56  82 113 151 193 239 296 356
#     4  10  20  34  56  86 117 146 190 245 292 348
#     4  10  20  38  64  94 121 156 204 255 309 371
#     4  11  22  39  59  82 117 159 203 255 310 368
#
# _framework density 19.623494999999998
#
# number of rings (size 3 to 8) (size 9 to 14) (size 15 to 20)
#    0.000    1.714    2.857    2.143    0.000    1.714 
#    2.571    1.429    0.000    0.000    0.000    0.000 
#    0.000    0.000    0.000    0.000    0.000    0.000 
#
# Total GULP energy -347112.104875 kJ/mol
# GULP energy per Si atom -12396.860888 kJ/mol
# Density = 1.957883 g / cm^3
# Si number density = 19.623495 Si / 1000 Ang^3
#
#
#
# Elastic Constant Matrix: (Units=GPa)
#
#
# Indices 1 2 3 4 5 6 
#
# 1 122.5940 33.6896 67.3158 0.0000 7.2386 0.0000
# 2 33.6896 65.1071 36.0150 0.0000 -1.5654 0.0000
# 3 67.3158 36.0150 109.8257 0.0000 18.5292 0.0000
# 4 0.0000 0.0000 0.0000 29.8358 0.0000 0.2054
# 5 7.2386 -1.5654 18.5292 0.0000 37.9070 0.0000
# 6 0.0000 0.0000 0.0000 0.2054 0.0000 30.9216
#
#
#
# Elastic Compliance Matrix: (Units=1/GPa)
#
#
# Indices 1 2 3 4 5 6 
#
# 1 0.012719 -0.002639 -0.007087 0.000000 0.000926 0.000000
# 2 -0.002639 0.019921 -0.005601 0.000000 0.004064 0.000000
# 3 -0.007087 -0.005601 0.016453 0.000000 -0.006921 0.000000
# 4 0.000000 0.000000 0.000000 0.033518 0.000000 -0.000223
# 5 0.000926 0.004064 -0.006921 0.000000 0.029754 0.000000
# 6 0.000000 0.000000 0.000000 -0.000223 0.000000 0.032341
#
#
# Mechanical properties :
#
#
# Convention : Reuss Voigt Hill
#
# Bulk Modulus (GPa) = 54.23008 63.50752 58.86880
# Shear Modulus (GPa) = 27.54733 30.43331 28.99032
#
# Velocity S-wave (km/s) = 3.75079 3.94237 3.84777
# Velocity P-wave (km/s) = 6.81565 7.29084 7.05725
#
# Compressibility (1/GPa) = 0.01843995
#
# Stress axis : x y z
#
# Youngs Moduli (GPa) = 78.62410 50.19899 60.77844
#
# Poissons Ratio (x) = 0.13247 0.43071
# Poissons Ratio (y) = 0.20749 0.34041
# Poissons Ratio (z) = 0.55718 0.28115
#
# Static dielectric constant tensor:
#      x y z
#    x 4.120000 0.000000 0.475560 
#    y 0.000000 3.717660 0.000000 
#    z 0.475560 0.000000 3.860650 
# 
# 
# High freq. dielectric constant tensor:
#      x y z
#    x 1.763750 0.000000 0.020330 
#    y 0.000000 1.762660 0.000000 
#    z 0.020330 0.000000 1.758450 
# 
# From -- ./inp_files/65450.got.cif
#   From: 2010.06.25/outbox.cif.g09.slc.cpg/sg11_33_cif.got.tgz:65450.got - 2010.06.27 23:14:04.
