data_PCOD8073278
_publ_section_title
;
Structure prediction by ZEFSAII (Michael W. Deem and Ramdas Pophale) SiO2 
 PCOD8073278
Probable space group: P 21/M
;
_chemical_formula_sum "Si O2"
_cell_formula_units_Z 28
_cell_length_a 19.454510
_cell_length_b 9.010619
_cell_length_c 15.403085
_cell_angle_alpha 90.000000
_cell_angle_beta 36.794057
_cell_angle_gamma 90.000000
_cell_volume 1617.209727
_symmetry_space_group_name_H-M "P 21/M"
_symmetry_group_IT_number 11
_symmetry_cell_setting 'monoclinic'
loop_
_space_group_symop_operation_xyz
x,y,z
-x,1/2+y,-z
-x,-y,-z
x,1/2-y,z
loop_
_atom_site_type_symbol
_atom_site_label
_atom_site_fract_x
_atom_site_fract_y
_atom_site_fract_z
Si Si1 0.119675 0.079640 0.387523
Si Si2 0.879094 0.076051 0.118903
Si Si3 0.135641 0.924728 0.538481
Si Si4 0.733436 0.425014 0.425892
Si Si5 0.490092 0.425936 0.604008
Si Si6 0.131930 0.080418 0.182632
Si Si7 0.732356 0.076115 0.101156
O O1 0.099398 0.250000 0.432090
O O2 0.180597 0.064643 0.232000
O O3 0.186393 0.001726 0.399854
O O4 0.000000 0.000000 0.500000
O O5 0.896616 0.250000 0.111820
O O6 0.802023 0.009648 0.274336
O O7 0.819718 0.035094 0.088903
O O8 0.000000 0.000000 0.000000
O O9 0.149685 0.750000 0.512285
O O10 0.211717 0.988293 0.540905
O O11 0.001996 0.966558 0.688787
O O12 0.748594 0.250000 0.410694
O O13 0.600711 0.469179 0.549989
O O14 0.500000 0.500000 0.500000
O O15 0.480874 0.250000 0.599715
O O16 0.383875 0.486186 0.766122
O O17 0.145318 0.250000 0.136814
O O18 0.209622 0.972289 0.047140
O O19 0.703700 0.250000 0.127962
#
# Coordination Sequence:
#
# PCOD8073278 Si02
#       7
#     4   4   4   4   4   4   4
#     4   9  17  30  49  74 106 138 170 207 252 307
#     4  10  20  34  49  71 103 134 165 202 252 306
#     4   9  17  31  53  78 105 136 170 207 256 312
#     4   9  18  34  53  72 101 136 168 208 255 306
#     4  11  21  37  57  74  99 136 179 219 257 303
#     4   9  18  32  51  76 105 138 169 202 254 314
#     4  11  22  35  52  75 103 134 173 219 257 299
#
# _framework density 17.313770999999999
#
# number of rings (size 3 to 8) (size 9 to 14) (size 15 to 20)
#    0.000    2.286    1.429    3.000    0.000    5.143 
#    0.000    2.143    0.000    0.857    0.000    0.000 
#    0.000    0.000    0.000    0.000    0.000    0.000 
#
# Total GULP energy -347124.213137 kJ/mol
# GULP energy per Si atom -12397.293326 kJ/mol
# Density = 1.727436 g / cm^3
# Si number density = 17.313771 Si / 1000 Ang^3
#
#
#
# Elastic Constant Matrix: (Units=GPa)
#
#
# Indices 1 2 3 4 5 6 
#
# 1 107.2143 46.6967 74.8756 0.0000 13.2508 0.0000
# 2 46.6967 64.0930 47.1778 0.0000 3.9168 0.0000
# 3 74.8756 47.1778 101.6409 0.0000 0.1413 0.0000
# 4 0.0000 0.0000 0.0000 30.5434 0.0000 4.0017
# 5 13.2508 3.9168 0.1413 0.0000 31.0306 0.0000
# 6 0.0000 0.0000 0.0000 4.0017 0.0000 25.9270
#
#
#
# Elastic Compliance Matrix: (Units=1/GPa)
#
#
# Indices 1 2 3 4 5 6 
#
# 1 0.022760 -0.005625 -0.014143 0.000000 -0.008944 0.000000
# 2 -0.005625 0.025361 -0.007627 0.000000 -0.000764 0.000000
# 3 -0.014143 -0.007627 0.023788 0.000000 0.006894 0.000000
# 4 0.000000 0.000000 0.000000 0.033416 0.000000 -0.005158
# 5 -0.008944 -0.000764 0.006894 0.000000 0.036111 0.000000
# 6 0.000000 0.000000 0.000000 -0.005158 0.000000 0.039366
#
#
# Mechanical properties :
#
#
# Convention : Reuss Voigt Hill
#
# Bulk Modulus (GPa) = 58.41487 67.82759 63.12123
# Shear Modulus (GPa) = 20.72133 24.44674 22.58404
#
# Velocity S-wave (km/s) = 3.46325 3.76171 3.61556
# Velocity P-wave (km/s) = 7.05722 7.62416 7.34616
#
# Compressibility (1/GPa) = 0.01711893
#
# Stress axis : x y z
#
# Youngs Moduli (GPa) = 43.93759 39.42995 42.03872
#
# Poissons Ratio (x) = 0.22180 0.59455
# Poissons Ratio (y) = 0.24716 0.32062
# Poissons Ratio (z) = 0.62140 0.30073
#
# Static dielectric constant tensor:
#      x y z
#    x 3.548800 0.000000 0.190100 
#    y 0.000000 3.187690 0.000000 
#    z 0.190100 0.000000 3.174250 
# 
# 
# High freq. dielectric constant tensor:
#      x y z
#    x 1.670140 0.000000 0.015710 
#    y 0.000000 1.662880 0.000000 
#    z 0.015710 0.000000 1.654010 
# 
# From -- ./inp_files/37157.got.cif
#   From: 2010.06.25/outbox.cif.g09.slc.cpg/sg11_19_cif.got.tgz:37157.got - 2010.06.27 23:14:04.
