data_PCOD8073632
_publ_section_title
;
Structure prediction by ZEFSAII (Michael W. Deem and Ramdas Pophale) SiO2 
 PCOD8073632
Probable space group: P 21/M
;
_chemical_formula_sum "Si O2"
_cell_formula_units_Z 28
_cell_length_a 14.584144
_cell_length_b 8.910009
_cell_length_c 20.406256
_cell_angle_alpha 90.000000
_cell_angle_beta 32.697108
_cell_angle_gamma 90.000000
_cell_volume 1432.436122
_symmetry_space_group_name_H-M "P 21/M"
_symmetry_group_IT_number 11
_symmetry_cell_setting 'monoclinic'
loop_
_space_group_symop_operation_xyz
x,y,z
-x,1/2+y,-z
-x,-y,-z
x,1/2-y,z
loop_
_atom_site_type_symbol
_atom_site_label
_atom_site_fract_x
_atom_site_fract_y
_atom_site_fract_z
Si Si1 0.155413 0.572649 0.369295
Si Si2 0.726657 0.925060 0.434727
Si Si3 0.586322 0.422798 0.289774
Si Si4 0.090159 0.924727 0.266043
Si Si5 0.474762 0.426128 0.808427
Si Si6 0.799755 0.428612 0.939197
Si Si7 0.138501 0.576993 0.770680
O O1 0.126521 0.750000 0.385670
O O2 0.160078 0.507039 0.292030
O O3 0.328933 0.528198 0.301151
O O4 0.000000 0.500000 0.500000
O O5 0.714700 0.750000 0.423561
O O6 0.563519 0.980490 0.572830
O O7 0.890144 0.959117 0.381254
O O8 0.737982 0.017285 0.360733
O O9 0.553822 0.250000 0.289697
O O10 0.591966 0.522436 0.221701
O O11 0.765584 0.442802 0.218106
O O12 0.126010 0.750000 0.244865
O O13 0.186460 0.989787 0.144055
O O14 0.447238 0.250000 0.832418
O O15 0.371280 0.506984 0.927887
O O16 0.798786 0.250000 0.943431
O O17 0.964021 0.485002 0.880441
O O18 0.096717 0.750000 0.781778
#
# Coordination Sequence:
#
# PCOD8073632 Si02
#       7
#     4   4   4   4   4   4   4
#     4  10  21  38  59  85 115 144 177 218 268 324
#     4   9  17  32  55  82 111 145 183 220 266 328
#     4  10  21  36  55  79 110 151 189 222 272 333
#     4   8  16  33  57  80 106 142 179 217 262 318
#     4  11  24  38  55  82 113 143 181 233 278 315
#     4  10  21  39  60  79 104 145 189 225 272 331
#     4  10  20  34  55  83 112 142 181 231 279 323
#
# _framework density 19.547118999999999
#
# number of rings (size 3 to 8) (size 9 to 14) (size 15 to 20)
#    0.000    2.286    0.000    3.429    0.000    5.143 
#    0.000    5.000    0.000    0.000    0.000    0.000 
#    0.000    0.000    0.000    0.000    0.000    0.000 
#
# Total GULP energy -347229.497852 kJ/mol
# GULP energy per Si atom -12401.053495 kJ/mol
# Density = 1.950263 g / cm^3
# Si number density = 19.547119 Si / 1000 Ang^3
#
#
#
# Elastic Constant Matrix: (Units=GPa)
#
#
# Indices 1 2 3 4 5 6 
#
# 1 119.6828 41.3493 46.6028 0.0000 11.0994 0.0000
# 2 41.3493 70.1880 44.8156 0.0000 1.8963 0.0000
# 3 46.6028 44.8156 127.8866 0.0000 5.0063 0.0000
# 4 0.0000 0.0000 0.0000 34.4854 0.0000 -0.4396
# 5 11.0994 1.8963 5.0063 0.0000 18.4653 0.0000
# 6 0.0000 0.0000 0.0000 -0.4396 0.0000 21.6195
#
#
#
# Elastic Compliance Matrix: (Units=1/GPa)
#
#
# Indices 1 2 3 4 5 6 
#
# 1 0.011551 -0.005289 -0.002128 0.000000 -0.005823 0.000000
# 2 -0.005289 0.020776 -0.005452 0.000000 0.002524 0.000000
# 3 -0.002128 -0.005452 0.010545 0.000000 -0.001020 0.000000
# 4 0.000000 0.000000 0.000000 0.029005 0.000000 0.000590
# 5 -0.005823 0.002524 -0.001020 0.000000 0.057674 0.000000
# 6 0.000000 0.000000 0.000000 0.000590 0.000000 0.046267
#
#
# Mechanical properties :
#
#
# Convention : Reuss Voigt Hill
#
# Bulk Modulus (GPa) = 58.36080 64.81031 61.58555
# Shear Modulus (GPa) = 24.12326 27.24666 25.68496
#
# Velocity S-wave (km/s) = 3.51680 3.73754 3.62885
# Velocity P-wave (km/s) = 6.81262 7.20094 7.00947
#
# Compressibility (1/GPa) = 0.01713479
#
# Stress axis : x y z
#
# Youngs Moduli (GPa) = 86.56932 48.13144 94.82794
#
# Poissons Ratio (x) = 0.25457 0.20179
# Poissons Ratio (y) = 0.45788 0.51701
# Poissons Ratio (z) = 0.18422 0.26242
#
# Static dielectric constant tensor:
#      x y z
#    x 3.758690 0.000000 0.092650 
#    y 0.000000 3.411710 0.000000 
#    z 0.092650 0.000000 3.595550 
# 
# 
# High freq. dielectric constant tensor:
#      x y z
#    x 1.766710 0.000000 0.001440 
#    y 0.000000 1.747300 0.000000 
#    z 0.001440 0.000000 1.762780 
# 
# From -- ./inp_files/49454.got.cif
#   From: 2010.06.25/outbox.cif.g09.slc.cpg/sg11_25_cif.got.tgz:49454.got - 2010.06.27 23:14:04.
