data_PCOD8073956
_publ_section_title
;
Structure prediction by ZEFSAII (Michael W. Deem and Ramdas Pophale) SiO2 
 PCOD8073956
Probable space group: P 21/M
;
_chemical_formula_sum "Si O2"
_cell_formula_units_Z 32
_cell_length_a 27.368083
_cell_length_b 8.838291
_cell_length_c 15.513710
_cell_angle_alpha 90.000000
_cell_angle_beta 28.007098
_cell_angle_gamma 90.000000
_cell_volume 1762.133494
_symmetry_space_group_name_H-M "P 21/M"
_symmetry_group_IT_number 11
_symmetry_cell_setting 'monoclinic'
loop_
_space_group_symop_operation_xyz
x,y,z
-x,1/2+y,-z
-x,-y,-z
x,1/2-y,z
loop_
_atom_site_type_symbol
_atom_site_label
_atom_site_fract_x
_atom_site_fract_y
_atom_site_fract_z
Si Si1 0.469262 0.927447 0.676044
Si Si2 0.198950 0.426977 0.671466
Si Si3 0.856103 0.573824 0.050148
Si Si4 0.932181 0.576969 0.288433
Si Si5 0.411370 0.929099 0.956223
Si Si6 0.654477 0.072284 0.298804
Si Si7 0.383506 0.928794 0.293871
Si Si8 0.722068 0.925887 0.703987
O O1 0.490683 0.750000 0.641357
O O2 0.388764 0.977444 0.727271
O O3 0.580816 0.005796 0.488318
O O4 0.421928 0.980136 0.840564
O O5 0.227171 0.250000 0.619670
O O6 0.154336 0.471986 0.833574
O O7 0.113565 0.471953 0.733147
O O8 0.303916 0.521310 0.492840
O O9 0.840569 0.750000 0.060258
O O10 0.770480 0.490185 0.126255
O O11 0.969834 0.526269 0.840405
O O12 0.969492 0.750000 0.227225
O O13 0.845298 0.551967 0.497362
O O14 0.401635 0.750000 0.979967
O O15 0.307748 0.008629 0.155755
O O16 0.508062 0.987796 0.860720
O O17 0.656678 0.250000 0.305873
O O18 0.400039 0.750000 0.270698
O O19 0.341375 0.978721 0.267106
O O20 0.691985 0.750000 0.741931
#
# Coordination Sequence:
#
# PCOD8073956 Si02
#       8
#     4   4   4   4   4   4   4   4
#     4   9  20  37  55  77 105 134 164 204 253 300
#     4   9  19  34  49  71 105 139 169 206 252 296
#     4  11  21  32  51  77 104 134 169 209 251 299
#     4   9  19  35  52  70  98 135 171 209 250 294
#     4  11  21  34  53  75 101 133 169 209 253 300
#     4  10  20  35  55  78 105 135 166 202 248 303
#     4  11  21  32  49  75 105 137 172 207 246 296
#     4  10  21  37  53  72 101 135 171 211 253 295
#
# _framework density 18.159804000000001
#
# number of rings (size 3 to 8) (size 9 to 14) (size 15 to 20)
#    0.000    2.000    0.000    4.875    0.000    8.000 
#    0.000    0.000    0.000    0.750    0.000    0.000 
#    0.000    0.000    0.000    0.000    0.000    0.000 
#
# Total GULP energy -396925.051253 kJ/mol
# GULP energy per Si atom -12403.907852 kJ/mol
# Density = 1.811847 g / cm^3
# Si number density = 18.159804 Si / 1000 Ang^3
#
#
#
# Elastic Constant Matrix: (Units=GPa)
#
#
# Indices 1 2 3 4 5 6 
#
# 1 58.7041 17.8536 44.2060 0.0000 3.9230 0.0000
# 2 17.8536 36.6029 27.6550 0.0000 4.8336 0.0000
# 3 44.2060 27.6550 109.2628 0.0000 5.0754 0.0000
# 4 0.0000 0.0000 0.0000 36.2219 0.0000 -0.4563
# 5 3.9230 4.8336 5.0754 0.0000 28.4270 0.0000
# 6 0.0000 0.0000 0.0000 -0.4563 0.0000 24.2915
#
#
#
# Elastic Compliance Matrix: (Units=1/GPa)
#
#
# Indices 1 2 3 4 5 6 
#
# 1 0.025460 -0.005614 -0.008834 0.000000 -0.000982 0.000000
# 2 -0.005614 0.035536 -0.006532 0.000000 -0.004101 0.000000
# 3 -0.008834 -0.006532 0.014391 0.000000 -0.000239 0.000000
# 4 0.000000 0.000000 0.000000 0.027614 0.000000 0.000519
# 5 -0.000982 -0.004101 -0.000239 0.000000 0.036053 0.000000
# 6 0.000000 0.000000 0.000000 0.000519 0.000000 0.041176
#
#
# Mechanical properties :
#
#
# Convention : Reuss Voigt Hill
#
# Bulk Modulus (GPa) = 29.91759 42.66657 36.29208
# Shear Modulus (GPa) = 21.42852 25.44510 23.43681
#
# Velocity S-wave (km/s) = 3.43884 3.74729 3.59637
# Velocity P-wave (km/s) = 5.68136 6.50146 6.10520
#
# Compressibility (1/GPa) = 0.03342515
#
# Stress axis : x y z
#
# Youngs Moduli (GPa) = 39.27726 28.14063 69.48850
#
# Poissons Ratio (x) = 0.15799 0.61387
# Poissons Ratio (y) = 0.22052 0.45392
# Poissons Ratio (z) = 0.34698 0.18382
#
# Static dielectric constant tensor:
#      x y z
#    x 3.266180 0.000000 0.113230 
#    y 0.000000 3.339420 0.000000 
#    z 0.113230 0.000000 3.463700 
# 
# 
# High freq. dielectric constant tensor:
#      x y z
#    x 1.680260 0.000000 0.004320 
#    y 0.000000 1.710700 0.000000 
#    z 0.004320 0.000000 1.705180 
# 
# From -- ./inp_files/55619.got.cif
#   From: 2010.06.25/outbox.cif.g09.slc.cpg/sg11_28_cif.got.tgz:55619.got - 2010.06.27 23:14:04.
