data_PCOD8073361
_publ_section_title
;
Structure prediction by ZEFSAII (Michael W. Deem and Ramdas Pophale) SiO2 
 PCOD8073361
Probable space group: P 21/M
;
_chemical_formula_sum "Si O2"
_cell_formula_units_Z 24
_cell_length_a 15.696923
_cell_length_b 9.076773
_cell_length_c 15.630407
_cell_angle_alpha 90.000000
_cell_angle_beta 37.444634
_cell_angle_gamma 90.000000
_cell_volume 1353.991533
_symmetry_space_group_name_H-M "P 21/M"
_symmetry_group_IT_number 11
_symmetry_cell_setting 'monoclinic'
loop_
_space_group_symop_operation_xyz
x,y,z
-x,1/2+y,-z
-x,-y,-z
x,1/2-y,z
loop_
_atom_site_type_symbol
_atom_site_label
_atom_site_fract_x
_atom_site_fract_y
_atom_site_fract_z
Si Si1 0.369088 0.424771 0.560176
Si Si2 0.069024 0.080645 0.866363
Si Si3 0.420557 0.578588 0.182267
Si Si4 0.314248 0.577163 0.083660
Si Si5 0.984294 0.423122 0.746450
Si Si6 0.738646 0.075995 0.519049
O O1 0.500000 0.500000 0.500000
O O2 0.390968 0.250000 0.534528
O O3 0.231837 0.463050 0.725585
O O4 0.352559 0.492855 0.479396
O O5 0.055205 0.250000 0.899195
O O6 0.985671 0.041179 0.846263
O O7 0.000000 0.000000 0.000000
O O8 0.454683 0.750000 0.152649
O O9 0.335932 0.529717 0.164899
O O10 0.327829 0.535376 0.337076
O O11 0.568896 0.496285 0.069499
O O12 0.327162 0.750000 0.060285
O O13 0.162263 0.522229 0.175089
O O14 0.012759 0.250000 0.707983
O O15 0.103439 0.516267 0.603967
O O16 0.737707 0.250000 0.501514
#
# Coordination Sequence:
#
# PCOD8073361 Si02
#       6
#     4   4   4   4   4   4
#     4  10  21  37  55  77 104 134 170 210 252 300
#     4   9  19  34  51  73 100 129 164 206 249 297
#     4   9  19  34  51  75 105 133 168 214 257 301
#     4   9  18  34  54  74 100 135 172 212 258 305
#     4   9  19  35  52  73 101 132 170 212 252 301
#     4  10  20  34  52  76 105 135 168 208 254 303
#
# _framework density 17.725368
#
# number of rings (size 3 to 8) (size 9 to 14) (size 15 to 20)
#    0.000    2.667    0.000    2.000    0.000    7.333 
#    0.000    3.333    0.000    0.000    0.000    0.000 
#    0.000    0.000    0.000    0.000    0.000    0.000 
#
# Total GULP energy -297625.409395 kJ/mol
# GULP energy per Si atom -12401.058725 kJ/mol
# Density = 1.768502 g / cm^3
# Si number density = 17.725368 Si / 1000 Ang^3
#
#
#
# Elastic Constant Matrix: (Units=GPa)
#
#
# Indices 1 2 3 4 5 6 
#
# 1 136.7382 53.2478 89.4111 0.0000 -23.3587 0.0000
# 2 53.2478 64.0938 60.8173 0.0000 -1.7194 0.0000
# 3 89.4111 60.8173 139.6907 0.0000 3.7509 0.0000
# 4 0.0000 0.0000 0.0000 37.1693 0.0000 -2.2913
# 5 -23.3587 -1.7194 3.7509 0.0000 30.4628 0.0000
# 6 0.0000 0.0000 0.0000 -2.2913 0.0000 28.7883
#
#
#
# Elastic Compliance Matrix: (Units=1/GPa)
#
#
# Indices 1 2 3 4 5 6 
#
# 1 0.018478 -0.005694 -0.009752 0.000000 0.015048 0.000000
# 2 -0.005694 0.028603 -0.008764 0.000000 -0.001672 0.000000
# 3 -0.009752 -0.008764 0.017488 0.000000 -0.010126 0.000000
# 4 0.000000 0.000000 0.000000 0.027037 0.000000 0.002152
# 5 0.015048 -0.001672 -0.010126 0.000000 0.045518 0.000000
# 6 0.000000 0.000000 0.000000 0.002152 0.000000 0.034908
#
#
# Mechanical properties :
#
#
# Convention : Reuss Voigt Hill
#
# Bulk Modulus (GPa) = 61.92012 83.05279 72.48645
# Shear Modulus (GPa) = 22.14010 28.42053 25.28032
#
# Velocity S-wave (km/s) = 3.53804 4.00857 3.78063
# Velocity P-wave (km/s) = 7.19022 8.26933 7.74858
#
# Compressibility (1/GPa) = 0.01614984
#
# Stress axis : x y z
#
# Youngs Moduli (GPa) = 54.11846 34.96109 57.18143
#
# Poissons Ratio (x) = 0.19906 0.55765
# Poissons Ratio (y) = 0.30813 0.50113
# Poissons Ratio (z) = 0.52778 0.30639
#
# Static dielectric constant tensor:
#      x y z
#    x 3.485680 0.000000 -0.069260 
#    y 0.000000 3.289100 0.000000 
#    z -0.069260 0.000000 3.307700 
# 
# 
# High freq. dielectric constant tensor:
#      x y z
#    x 1.689160 0.000000 -0.002510 
#    y 0.000000 1.687690 0.000000 
#    z -0.002510 0.000000 1.687210 
# 
# From -- ./inp_files/25716.got.cif
#   From: 2010.06.25/outbox.cif.g09.slc.cpg/sg11_13_cif.got.tgz:25716.got - 2010.06.27 23:14:04.
