data_PCOD8073651
_publ_section_title
;
Structure prediction by ZEFSAII (Michael W. Deem and Ramdas Pophale) SiO2 
 PCOD8073651
Probable space group: P 21/M
;
_chemical_formula_sum "Si O2"
_cell_formula_units_Z 20
_cell_length_a 22.414822
_cell_length_b 8.680820
_cell_length_c 15.688151
_cell_angle_alpha 90.000000
_cell_angle_beta 160.725404
_cell_angle_gamma 90.000000
_cell_volume 1007.645870
_symmetry_space_group_name_H-M "P 21/M"
_symmetry_group_IT_number 11
_symmetry_cell_setting 'monoclinic'
loop_
_space_group_symop_operation_xyz
x,y,z
-x,1/2+y,-z
-x,-y,-z
x,1/2-y,z
loop_
_atom_site_type_symbol
_atom_site_label
_atom_site_fract_x
_atom_site_fract_y
_atom_site_fract_z
Si Si1 0.263375 0.930154 0.391289
Si Si2 0.059431 0.928403 0.947023
Si Si3 0.039231 0.068659 0.744183
Si Si4 0.673501 0.932213 0.188572
Si Si5 0.343065 0.067357 0.026167
O O1 0.241385 0.750000 0.383519
O O2 0.466573 0.990172 0.679014
O O3 0.208813 0.964475 0.220346
O O4 0.138224 0.024642 0.286772
O O5 0.056629 0.750000 0.918231
O O6 0.114248 0.028082 0.938844
O O7 0.011521 0.250000 0.697610
O O8 0.849522 0.984426 0.476541
O O9 0.181034 0.003371 0.866091
O O10 0.658258 0.750000 0.168940
O O11 0.683067 0.995640 0.104724
O O12 0.500000 0.000000 0.000000
O O13 0.339272 0.250000 0.022470
#
# Coordination Sequence:
#
# PCOD8073651 Si02
#       5
#     4   4   4   4   4
#     4   9  18  36  59  81 109 145 185 229 277 328
#     4  10  20  34  55  84 113 143 184 231 275 324
#     4  11  22  37  56  79 111 149 185 223 273 328
#     4  11  22  38  60  85 111 141 182 228 275 328
#     4   9  20  37  57  80 108 144 183 226 277 330
#
# _framework density 19.848241999999999
#
# number of rings (size 3 to 8) (size 9 to 14) (size 15 to 20)
#    0.000    2.000    0.000    3.600    0.000    3.200 
#    0.000    6.000    0.000    0.000    0.000    0.000 
#    0.000    0.000    0.000    0.000    0.000    0.000 
#
# Total GULP energy -248085.317766 kJ/mol
# GULP energy per Si atom -12404.265888 kJ/mol
# Density = 1.980307 g / cm^3
# Si number density = 19.848242 Si / 1000 Ang^3
#
#
#
# Elastic Constant Matrix: (Units=GPa)
#
#
# Indices 1 2 3 4 5 6 
#
# 1 144.7649 34.3399 36.7617 0.0000 -2.7214 0.0000
# 2 34.3399 51.5004 23.8119 0.0000 1.5037 0.0000
# 3 36.7617 23.8119 81.3790 0.0000 -1.7082 0.0000
# 4 0.0000 0.0000 0.0000 26.0171 0.0000 -0.6053
# 5 -2.7214 1.5037 -1.7082 0.0000 29.9579 0.0000
# 6 0.0000 0.0000 0.0000 -0.6053 0.0000 30.1927
#
#
#
# Elastic Compliance Matrix: (Units=1/GPa)
#
#
# Indices 1 2 3 4 5 6 
#
# 1 0.008668 -0.004630 -0.002543 0.000000 0.000875 0.000000
# 2 -0.004630 0.024996 -0.005264 0.000000 -0.001975 0.000000
# 3 -0.002543 -0.005264 0.014996 0.000000 0.000888 0.000000
# 4 0.000000 0.000000 0.000000 0.038454 0.000000 0.000771
# 5 0.000875 -0.001975 0.000888 0.000000 0.033609 0.000000
# 6 0.000000 0.000000 0.000000 0.000771 0.000000 0.033136
#
#
# Mechanical properties :
#
#
# Convention : Reuss Voigt Hill
#
# Bulk Modulus (GPa) = 42.03970 51.94123 46.99047
# Shear Modulus (GPa) = 26.78652 29.41560 28.10106
#
# Velocity S-wave (km/s) = 3.67763 3.85388 3.76679
# Velocity P-wave (km/s) = 6.26577 6.78448 6.53028
#
# Compressibility (1/GPa) = 0.02378704
#
# Stress axis : x y z
#
# Youngs Moduli (GPa) = 115.36553 40.00653 66.68580
#
# Poissons Ratio (x) = 0.18522 0.16956
# Poissons Ratio (y) = 0.53411 0.35103
# Poissons Ratio (z) = 0.29333 0.21059
#
# Static dielectric constant tensor:
#      x y z
#    x 3.898520 0.000000 -0.145540 
#    y 0.000000 3.419810 0.000000 
#    z -0.145540 0.000000 3.796570 
# 
# 
# High freq. dielectric constant tensor:
#      x y z
#    x 1.785380 0.000000 -0.006810 
#    y 0.000000 1.759100 0.000000 
#    z -0.006810 0.000000 1.780530 
# 
# From -- ./inp_files/15962.got.cif
#   From: 2010.06.25/outbox.cif.g09.slc.cpg/sg11_8_cif.got.tgz:15962.got - 2010.06.27 23:14:04.
