data_PCOD8073516
_publ_section_title
;
Structure prediction by ZEFSAII (Michael W. Deem and Ramdas Pophale) SiO2 
 PCOD8073516
Probable space group: P 21/M
;
_chemical_formula_sum "Si O2"
_cell_formula_units_Z 32
_cell_length_a 21.843254
_cell_length_b 8.965860
_cell_length_c 26.817179
_cell_angle_alpha 90.000000
_cell_angle_beta 162.009151
_cell_angle_gamma 90.000000
_cell_volume 1622.150734
_symmetry_space_group_name_H-M "P 21/M"
_symmetry_group_IT_number 11
_symmetry_cell_setting 'monoclinic'
loop_
_space_group_symop_operation_xyz
x,y,z
-x,1/2+y,-z
-x,-y,-z
x,1/2-y,z
loop_
_atom_site_type_symbol
_atom_site_label
_atom_site_fract_x
_atom_site_fract_y
_atom_site_fract_z
Si Si1 0.867355 0.423672 0.356034
Si Si2 0.865781 0.925117 0.135308
Si Si3 0.108066 0.926255 0.130021
Si Si4 0.529180 0.924163 0.141287
Si Si5 0.777487 0.918967 0.432966
Si Si6 0.451220 0.423339 0.555126
Si Si7 0.269309 0.922122 0.502832
Si Si8 0.058805 0.073083 0.194688
O O1 0.838959 0.250000 0.346874
O O2 0.654735 0.506791 0.192113
O O3 0.000000 0.500000 0.500000
O O4 0.987954 0.443437 0.397585
O O5 0.840416 0.750000 0.105511
O O6 0.050486 0.960596 0.313983
O O7 0.893608 0.010008 0.104402
O O8 0.678017 0.991062 0.018277
O O9 0.071032 0.750000 0.101093
O O10 0.340588 0.966466 0.308189
O O11 0.018571 0.997543 0.110511
O O12 0.000000 0.000000 0.000000
O O13 0.495400 0.750000 0.105242
O O14 0.644738 0.955379 0.282068
O O15 0.742285 0.750000 0.423077
O O16 0.707058 0.025276 0.422343
O O17 0.433457 0.250000 0.552118
O O18 0.432680 0.501524 0.594328
O O19 0.276890 0.475548 0.382813
O O20 0.317082 0.750000 0.537993
O O21 0.035226 0.250000 0.171772
#
# Coordination Sequence:
#
# PCOD8073516 Si02
#       8
#     4   4   4   4   4   4   4   4
#     4   9  17  31  51  76 105 139 178 221 266 318
#     4  10  21  37  55  79 109 140 176 220 264 314
#     4  11  23  38  56  82 113 143 175 218 266 312
#     4  10  20  34  54  80 106 139 180 222 268 319
#     4   9  19  34  53  77 106 138 175 217 264 316
#     4   9  20  38  59  79 104 140 179 216 261 316
#     4  10  21  35  55  81 107 137 177 220 264 313
#     4  10  20  37  60  82 104 138 179 218 263 318
#
# _framework density 19.726896
#
# number of rings (size 3 to 8) (size 9 to 14) (size 15 to 20)
#    0.000    2.250    0.000    3.375    0.000    7.000 
#    0.000    1.875    0.000    0.000    0.000    0.000 
#    0.000    0.000    0.000    0.000    0.000    0.000 
#
# Total GULP energy -396833.947131 kJ/mol
# GULP energy per Si atom -12401.060848 kJ/mol
# Density = 1.968200 g / cm^3
# Si number density = 19.726896 Si / 1000 Ang^3
#
#
#
# Elastic Constant Matrix: (Units=GPa)
#
#
# Indices 1 2 3 4 5 6 
#
# 1 40.8193 14.6171 -15.0613 0.0000 -4.8879 0.0000
# 2 14.6171 74.9277 15.6302 0.0000 2.9266 0.0000
# 3 -15.0613 15.6302 28.9278 0.0000 8.1941 0.0000
# 4 0.0000 0.0000 0.0000 31.5570 0.0000 3.6765
# 5 -4.8879 2.9266 8.1941 0.0000 25.6529 0.0000
# 6 0.0000 0.0000 0.0000 3.6765 0.0000 36.2410
#
#
#
# Elastic Compliance Matrix: (Units=1/GPa)
#
#
# Indices 1 2 3 4 5 6 
#
# 1 0.039700 -0.013584 0.027958 0.000000 0.000184 0.000000
# 2 -0.013584 0.019711 -0.017980 0.000000 0.000906 0.000000
# 3 0.027958 -0.017980 0.062395 0.000000 -0.012552 0.000000
# 4 0.000000 0.000000 0.000000 0.032068 0.000000 -0.003253
# 5 0.000184 0.000906 -0.012552 0.000000 0.042923 0.000000
# 6 0.000000 0.000000 0.000000 -0.003253 0.000000 0.027923
#
#
# Mechanical properties :
#
#
# Convention : Reuss Voigt Hill
#
# Bulk Modulus (GPa) = 8.72639 19.44965 14.08802
# Shear Modulus (GPa) = 18.50950 27.32276 22.91613
#
# Velocity S-wave (km/s) = 3.06647 3.72566 3.41202
# Velocity P-wave (km/s) = 4.11957 5.32807 4.76231
#
# Compressibility (1/GPa) = 0.11459496
#
# Stress axis : x y z
#
# Youngs Moduli (GPa) = 25.18868 50.73182 16.02683
#
# Poissons Ratio (x) = 0.68915 -0.44807
# Poissons Ratio (y) = 0.34217 0.28816
# Poissons Ratio (z) = -0.70422 0.91214
#
# Static dielectric constant tensor:
#      x y z
#    x 3.599990 0.000000 0.254460 
#    y 0.000000 3.665010 0.000000 
#    z 0.254460 0.000000 3.626040 
# 
# 
# High freq. dielectric constant tensor:
#      x y z
#    x 1.766830 0.000000 0.018250 
#    y 0.000000 1.779780 0.000000 
#    z 0.018250 0.000000 1.756050 
# 
# From -- ./inp_files/72233.got.cif
#   From: 2010.06.25/outbox.cif.g09.slc.cpg/sg11_37_cif.got.tgz:72233.got - 2010.06.27 23:14:04.
