data_PCOD8073125
_publ_section_title
;
Structure prediction by ZEFSAII (Michael W. Deem and Ramdas Pophale) SiO2 
 PCOD8073125
Probable space group: P 21/M
;
_chemical_formula_sum "Si O2"
_cell_formula_units_Z 20
_cell_length_a 9.261975
_cell_length_b 17.192043
_cell_length_c 12.847399
_cell_angle_alpha 90.000000
_cell_angle_beta 148.118549
_cell_angle_gamma 90.000000
_cell_volume 1080.474838
_symmetry_space_group_name_H-M "P 21/M"
_symmetry_group_IT_number 11
_symmetry_cell_setting 'monoclinic'
loop_
_space_group_symop_operation_xyz
x,y,z
-x,1/2+y,-z
-x,-y,-z
x,1/2-y,z
loop_
_atom_site_type_symbol
_atom_site_label
_atom_site_fract_x
_atom_site_fract_y
_atom_site_fract_z
Si Si1 0.928972 0.339538 0.639486
Si Si2 0.966393 0.410063 0.875599
Si Si3 0.428163 0.660066 0.967730
Si Si4 0.429360 0.913019 0.754871
Si Si5 0.263099 0.939281 0.054695
O O1 0.847027 0.250000 0.575461
O O2 0.780244 0.390436 0.462292
O O3 0.831536 0.368693 0.693406
O O4 0.249944 0.353254 0.822189
O O5 0.000519 0.503490 0.876340
O O6 0.270895 0.374324 0.082753
O O7 0.771493 0.395556 0.855590
O O8 0.350714 0.750000 0.911745
O O9 0.317481 0.616622 0.797416
O O10 0.272382 0.625003 0.971263
O O11 0.461959 0.007242 0.777545
#
# Coordination Sequence:
#
# PCOD8073125 Si02
#       5
#     4   4   4   4   4
#     4  10  20  33  52  77 104 137 172 207 254 302
#     4   8  19  36  53  76 102 132 172 214 247 305
#     4  10  20  34  51  74 107 134 167 215 256 301
#     4   9  18  34  55  75 100 135 172 208 247 306
#     4   9  18  37  53  77 103 132 173 210 257 300
#
# _framework density 18.510380999999999
#
# number of rings (size 3 to 8) (size 9 to 14) (size 15 to 20)
#    1.200    1.600    0.000    1.200    0.000    3.200 
#    0.000    0.000    0.000    0.000    0.000    0.000 
#    0.000    0.000    0.000    0.000    0.000    0.000 
#
# Total GULP energy -247885.012154 kJ/mol
# GULP energy per Si atom -12394.250608 kJ/mol
# Density = 1.846825 g / cm^3
# Si number density = 18.510381 Si / 1000 Ang^3
#
#
#
# Elastic Constant Matrix: (Units=GPa)
#
#
# Indices 1 2 3 4 5 6 
#
# 1 134.0174 34.3340 19.3397 0.0000 -33.0057 0.0000
# 2 34.3340 30.4078 1.1780 0.0000 -4.9120 0.0000
# 3 19.3397 1.1780 61.4766 0.0000 -19.7478 0.0000
# 4 0.0000 0.0000 0.0000 17.8447 0.0000 -5.0381
# 5 -33.0057 -4.9120 -19.7478 0.0000 20.1682 0.0000
# 6 0.0000 0.0000 0.0000 -5.0381 0.0000 14.8204
#
#
#
# Elastic Compliance Matrix: (Units=1/GPa)
#
#
# Indices 1 2 3 4 5 6 
#
# 1 0.018494 -0.016112 0.004307 0.000000 0.030559 0.000000
# 2 -0.016112 0.048641 -0.000770 0.000000 -0.015276 0.000000
# 3 0.004307 -0.000770 0.024990 0.000000 0.031330 0.000000
# 4 0.000000 0.000000 0.000000 0.061989 0.000000 0.021072
# 5 0.030559 -0.015276 0.031330 0.000000 0.126550 0.000000
# 6 0.000000 0.000000 0.000000 0.021072 0.000000 0.074638
#
#
# Mechanical properties :
#
#
# Convention : Reuss Voigt Hill
#
# Bulk Modulus (GPa) = 14.93104 37.28945 26.11025
# Shear Modulus (GPa) = 12.41378 21.96999 17.19189
#
# Velocity S-wave (km/s) = 2.59248 3.44888 3.05088
# Velocity P-wave (km/s) = 4.12857 6.00405 5.15236
#
# Compressibility (1/GPa) = 0.06697456
#
# Stress axis : x y z
#
# Youngs Moduli (GPa) = 54.07154 20.55865 40.01564
#
# Poissons Ratio (x) = 0.33125 -0.17235
# Poissons Ratio (y) = 0.87122 0.03082
# Poissons Ratio (z) = -0.23289 0.01583
#
# Static dielectric constant tensor:
#      x y z
#    x 3.313820 0.000000 -0.163360 
#    y 0.000000 3.268800 0.000000 
#    z -0.163360 0.000000 3.040350 
# 
# 
# High freq. dielectric constant tensor:
#      x y z
#    x 1.716130 0.000000 -0.023360 
#    y 0.000000 1.706330 0.000000 
#    z -0.023360 0.000000 1.688550 
# 
# From -- ./inp_files/12920.got.cif
#   From: 2010.06.25/outbox.cif.g09.slc.cpg/sg11_7_cif.got.tgz:12920.got - 2010.06.27 23:14:04.
