data_PCOD8073580
_publ_section_title
;
Structure prediction by ZEFSAII (Michael W. Deem and Ramdas Pophale) SiO2 
 PCOD8073580
Probable space group: P 21/M
;
_chemical_formula_sum "Si O2"
_cell_formula_units_Z 28
_cell_length_a 10.558432
_cell_length_b 9.292379
_cell_length_c 14.085116
_cell_angle_alpha 90.000000
_cell_angle_beta 73.364210
_cell_angle_gamma 90.000000
_cell_volume 1324.090054
_symmetry_space_group_name_H-M "P 21/M"
_symmetry_group_IT_number 11
_symmetry_cell_setting 'monoclinic'
loop_
_space_group_symop_operation_xyz
x,y,z
-x,1/2+y,-z
-x,-y,-z
x,1/2-y,z
loop_
_atom_site_type_symbol
_atom_site_label
_atom_site_fract_x
_atom_site_fract_y
_atom_site_fract_z
Si Si1 0.755236 0.910699 0.282938
Si Si2 0.129360 0.421228 0.934270
Si Si3 0.361817 0.415660 0.021731
Si Si4 0.674533 0.092096 0.474997
Si Si5 0.462564 0.586791 0.321262
Si Si6 0.740035 0.915598 0.750645
Si Si7 0.898178 0.090455 0.581071
O O1 0.791717 0.750000 0.306869
O O2 0.857358 0.964806 0.180400
O O3 0.614947 0.917351 0.260305
O O4 0.751024 0.999283 0.381133
O O5 0.112069 0.250000 0.950311
O O6 0.263140 0.471509 0.960265
O O7 0.000000 0.500000 0.000000
O O8 0.401101 0.250000 0.996862
O O9 0.273857 0.435274 0.134611
O O10 0.500000 0.500000 0.000000
O O11 0.651746 0.250000 0.434728
O O12 0.543175 0.040291 0.563002
O O13 0.765663 0.101061 0.549031
O O14 0.407655 0.750000 0.318412
O O15 0.394140 0.472110 0.268255
O O16 0.761532 0.750000 0.717066
O O17 0.865581 0.007841 0.686606
O O18 0.954095 0.250000 0.591972
O O19 0.000000 0.000000 0.500000
#
# Coordination Sequence:
#
# PCOD8073580 Si02
#       7
#     4   4   4   4   4   4   4
#     4  10  20  34  55  79 106 144 187 227 273 329
#     4  10  23  42  59  81 115 154 195 241 290 343
#     4  10  22  40  63  89 117 150 194 246 298 350
#     4   9  19  33  51  78 109 139 174 215 269 332
#     4   9  18  34  54  80 114 147 177 219 277 338
#     4  10  20  34  55  84 112 142 183 232 283 337
#     4  10  21  37  55  77 107 144 181 222 274 333
#
# _framework density 21.146598000000001
#
# number of rings (size 3 to 8) (size 9 to 14) (size 15 to 20)
#    0.000    2.286    0.000    3.000    0.000    8.000 
#    0.000    4.286    0.000    0.000    0.000    0.000 
#    0.000    0.000    0.000    0.000    0.000    0.000 
#
# Total GULP energy -346945.506581 kJ/mol
# GULP energy per Si atom -12390.910949 kJ/mol
# Density = 2.109847 g / cm^3
# Si number density = 21.146598 Si / 1000 Ang^3
#
#
#
# Elastic Constant Matrix: (Units=GPa)
#
#
# Indices 1 2 3 4 5 6 
#
# 1 39.5989 9.6621 20.0936 0.0000 -8.1822 0.0000
# 2 9.6621 99.3350 54.4899 0.0000 -5.8310 0.0000
# 3 20.0936 54.4899 129.1222 0.0000 -11.4137 0.0000
# 4 0.0000 0.0000 0.0000 38.8343 0.0000 -5.5530
# 5 -8.1822 -5.8310 -11.4137 0.0000 36.4887 0.0000
# 6 0.0000 0.0000 0.0000 -5.5530 0.0000 30.2675
#
#
#
# Elastic Compliance Matrix: (Units=1/GPa)
#
#
# Indices 1 2 3 4 5 6 
#
# 1 0.028327 -0.000371 -0.003800 0.000000 0.005104 0.000000
# 2 -0.000371 0.013109 -0.005447 0.000000 0.000308 0.000000
# 3 -0.003800 -0.005447 0.010781 0.000000 0.001649 0.000000
# 4 0.000000 0.000000 0.000000 0.026444 0.000000 0.004852
# 5 0.005104 0.000308 0.001649 0.000000 0.029115 0.000000
# 6 0.000000 0.000000 0.000000 0.004852 0.000000 0.033929
#
#
# Mechanical properties :
#
#
# Convention : Reuss Voigt Hill
#
# Bulk Modulus (GPa) = 30.32198 48.50525 39.41362
# Shear Modulus (GPa) = 29.08076 33.37214 31.22645
#
# Velocity S-wave (km/s) = 3.71239 3.97688 3.84691
# Velocity P-wave (km/s) = 5.72240 6.63889 6.19761
#
# Compressibility (1/GPa) = 0.03297937
#
# Stress axis : x y z
#
# Youngs Moduli (GPa) = 35.30228 76.28284 92.75987
#
# Poissons Ratio (x) = 0.02830 0.35253
# Poissons Ratio (y) = 0.01310 0.50528
# Poissons Ratio (z) = 0.13416 0.41552
#
# Static dielectric constant tensor:
#      x y z
#    x 3.863630 0.000000 -0.202280 
#    y 0.000000 3.930910 0.000000 
#    z -0.202280 0.000000 4.032210 
# 
# 
# High freq. dielectric constant tensor:
#      x y z
#    x 1.814360 0.000000 -0.011180 
#    y 0.000000 1.821140 0.000000 
#    z -0.011180 0.000000 1.848410 
# 
# From -- ./inp_files/49172.got.cif
#   From: 2010.06.25/outbox.cif.g09.slc.cpg/sg11_25_cif.got.tgz:49172.got - 2010.06.27 23:14:04.
