data_PCOD8073873
_publ_section_title
;
Structure prediction by ZEFSAII (Michael W. Deem and Ramdas Pophale) SiO2 
 PCOD8073873
Probable space group: P 21/M
;
_chemical_formula_sum "Si O2"
_cell_formula_units_Z 32
_cell_length_a 30.909949
_cell_length_b 8.787519
_cell_length_c 12.360415
_cell_angle_alpha 90.000000
_cell_angle_beta 150.771761
_cell_angle_gamma 90.000000
_cell_volume 1639.363639
_symmetry_space_group_name_H-M "P 21/M"
_symmetry_group_IT_number 11
_symmetry_cell_setting 'monoclinic'
loop_
_space_group_symop_operation_xyz
x,y,z
-x,1/2+y,-z
-x,-y,-z
x,1/2-y,z
loop_
_atom_site_type_symbol
_atom_site_label
_atom_site_fract_x
_atom_site_fract_y
_atom_site_fract_z
Si Si1 0.238371 0.927838 0.342785
Si Si2 0.537973 0.927612 0.410904
Si Si3 0.056250 0.927579 0.029473
Si Si4 0.436459 0.932102 0.769867
Si Si5 0.368992 0.926752 0.186602
Si Si6 0.166689 0.082131 0.986455
Si Si7 0.018920 0.576034 0.338917
Si Si8 0.807049 0.576987 0.201212
O O1 0.237578 0.750000 0.356339
O O2 0.157729 0.994705 0.241522
O O3 0.336837 0.987732 0.585547
O O4 0.216933 0.962423 0.171149
O O5 0.560135 0.750000 0.444623
O O6 0.442168 0.953726 0.254605
O O7 0.539632 0.007007 0.297309
O O8 0.608011 0.999260 0.647170
O O9 0.060672 0.750000 0.059357
O O10 0.000000 0.000000 0.000000
O O11 0.002370 0.962874 0.804414
O O12 0.444120 0.750000 0.785389
O O13 0.500000 0.000000 0.000000
O O14 0.351558 0.750000 0.169562
O O15 0.282456 0.005805 0.945476
O O16 0.185246 0.250000 0.075660
O O17 0.207059 0.067848 0.957166
O O18 0.060421 0.056499 0.747626
O O19 0.026468 0.750000 0.314617
O O20 0.110945 0.527615 0.590376
O O21 0.820759 0.750000 0.271657
#
# Coordination Sequence:
#
# PCOD8073873 Si02
#       8
#     4   4   4   4   4   4   4   4
#     4   9  20  37  58  83 110 143 185 229 279 336
#     4  10  21  39  61  84 113 149 190 240 290 343
#     4  10  20  38  60  82 108 144 186 232 279 332
#     4  11  23  40  61  87 117 152 193 243 297 349
#     4  10  21  37  58  84 114 153 193 233 285 347
#     4   9  19  33  53  80 111 146 184 227 274 328
#     4  10  20  35  53  77 110 147 184 226 277 333
#     4  11  21  33  51  81 116 148 185 229 276 330
#
# _framework density 19.519770000000001
#
# number of rings (size 3 to 8) (size 9 to 14) (size 15 to 20)
#    0.000    2.000    0.000    3.375    0.000    6.500 
#    2.250    0.000    0.000    0.000    0.000    0.000 
#    0.000    0.000    0.000    0.000    0.000    0.000 
#
# Total GULP energy -396651.468486 kJ/mol
# GULP energy per Si atom -12395.358390 kJ/mol
# Density = 1.947534 g / cm^3
# Si number density = 19.519770 Si / 1000 Ang^3
#
#
#
# Elastic Constant Matrix: (Units=GPa)
#
#
# Indices 1 2 3 4 5 6 
#
# 1 97.3302 41.3837 45.0487 0.0000 6.9983 0.0000
# 2 41.3837 72.9157 40.4237 0.0000 7.6392 0.0000
# 3 45.0487 40.4237 126.0881 0.0000 22.1011 0.0000
# 4 0.0000 0.0000 0.0000 35.5780 0.0000 -2.1900
# 5 6.9983 7.6392 22.1011 0.0000 24.9143 0.0000
# 6 0.0000 0.0000 0.0000 -2.1900 0.0000 31.6365
#
#
#
# Elastic Compliance Matrix: (Units=1/GPa)
#
#
# Indices 1 2 3 4 5 6 
#
# 1 0.014479 -0.006513 -0.003223 0.000000 0.000789 0.000000
# 2 -0.006513 0.019613 -0.003822 0.000000 -0.000794 0.000000
# 3 -0.003223 -0.003822 0.011774 0.000000 -0.008368 0.000000
# 4 0.000000 0.000000 0.000000 0.028228 0.000000 0.001954
# 5 0.000789 -0.000794 -0.008368 0.000000 0.047582 0.000000
# 6 0.000000 0.000000 0.000000 0.001954 0.000000 0.031744
#
#
# Mechanical properties :
#
#
# Convention : Reuss Voigt Hill
#
# Bulk Modulus (GPa) = 53.33335 61.11626 57.22481
# Shear Modulus (GPa) = 26.76852 29.72430 28.24641
#
# Velocity S-wave (km/s) = 3.70720 3.90651 3.80816
# Velocity P-wave (km/s) = 6.76066 7.19206 6.97969
#
# Compressibility (1/GPa) = 0.01874999
#
# Stress axis : x y z
#
# Youngs Moduli (GPa) = 69.06667 50.98659 84.92943
#
# Poissons Ratio (x) = 0.33209 0.27374
# Poissons Ratio (y) = 0.44985 0.32457
# Poissons Ratio (z) = 0.22261 0.19485
#
# Static dielectric constant tensor:
#      x y z
#    x 3.653900 0.000000 0.401910 
#    y 0.000000 3.675210 0.000000 
#    z 0.401910 0.000000 3.585660 
# 
# 
# High freq. dielectric constant tensor:
#      x y z
#    x 1.755920 0.000000 0.024570 
#    y 0.000000 1.767660 0.000000 
#    z 0.024570 0.000000 1.759020 
# 
# From -- ./inp_files/45278.got.cif
#   From: 2010.06.25/outbox.cif.g09.slc.cpg/sg11_23_cif.got.tgz:45278.got - 2010.06.27 23:14:04.
