data_PCOD8073916
_publ_section_title
;
Structure prediction by ZEFSAII (Michael W. Deem and Ramdas Pophale) SiO2 
 PCOD8073916
Probable space group: P 21/M
;
_chemical_formula_sum "Si O2"
_cell_formula_units_Z 32
_cell_length_a 12.963548
_cell_length_b 8.870583
_cell_length_c 31.935637
_cell_angle_alpha 90.000000
_cell_angle_beta 152.774746
_cell_angle_gamma 90.000000
_cell_volume 1680.092310
_symmetry_space_group_name_H-M "P 21/M"
_symmetry_group_IT_number 11
_symmetry_cell_setting 'monoclinic'
loop_
_space_group_symop_operation_xyz
x,y,z
-x,1/2+y,-z
-x,-y,-z
x,1/2-y,z
loop_
_atom_site_type_symbol
_atom_site_label
_atom_site_fract_x
_atom_site_fract_y
_atom_site_fract_z
Si Si1 0.564566 0.571610 0.286045
Si Si2 0.136436 0.427763 0.282301
Si Si3 0.543027 0.427220 0.368071
Si Si4 0.083321 0.574548 0.349002
Si Si5 0.428427 0.075509 0.850832
Si Si6 0.335790 0.070806 0.907478
Si Si7 0.762461 0.071194 0.904808
Si Si8 0.047019 0.571070 0.427927
O O1 0.585195 0.750000 0.296877
O O2 0.514941 0.507276 0.313738
O O3 0.351164 0.524148 0.180342
O O4 0.799153 0.507330 0.350851
O O5 0.097941 0.250000 0.269814
O O6 0.341362 0.473793 0.326218
O O7 0.195426 0.483214 0.350968
O O8 0.916272 0.505315 0.182858
O O9 0.543990 0.250000 0.360663
O O10 0.777776 0.481414 0.473411
O O11 0.140878 0.750000 0.362526
O O12 0.819992 0.540880 0.254064
O O13 0.147775 0.516370 0.419000
O O14 0.479309 0.250000 0.866007
O O15 0.458154 0.020847 0.908906
O O16 0.605572 0.997156 0.884141
O O17 0.316860 0.250000 0.905679
O O18 0.500000 0.000000 0.000000
O O19 0.784244 0.250000 0.914945
O O20 0.000000 0.000000 0.000000
O O21 0.030701 0.750000 0.418580
#
# Coordination Sequence:
#
# PCOD8073916 Si02
#       8
#     4   4   4   4   4   4   4   4
#     4  10  20  36  59  81 107 143 189 236 276 328
#     4  10  21  36  51  76 115 150 181 225 279 330
#     4  10  22  37  54  79 116 154 185 224 280 337
#     4   9  16  32  59  81 100 137 185 229 274 327
#     4   8  15  31  53  73  97 133 173 211 261 323
#     4  10  20  35  58  82 104 140 185 228 275 331
#     4  10  20  35  54  79 106 136 176 222 273 327
#     4   9  17  34  60  84 106 143 190 232 280 338
#
# _framework density 19.046572000000001
#
# number of rings (size 3 to 8) (size 9 to 14) (size 15 to 20)
#    0.000    2.500    1.250    1.875    0.000    3.000 
#    0.000    8.125    0.000    0.000    0.000    0.000 
#    0.000    0.000    0.000    0.000    0.000    0.000 
#
# Total GULP energy -396547.402571 kJ/mol
# GULP energy per Si atom -12392.106330 kJ/mol
# Density = 1.900322 g / cm^3
# Si number density = 19.046572 Si / 1000 Ang^3
#
#
#
# Elastic Constant Matrix: (Units=GPa)
#
#
# Indices 1 2 3 4 5 6 
#
# 1 156.2707 43.3297 80.4875 0.0000 -9.4309 0.0000
# 2 43.3297 48.4999 37.9032 0.0000 -2.1748 0.0000
# 3 80.4875 37.9032 132.6008 0.0000 -16.2301 0.0000
# 4 0.0000 0.0000 0.0000 24.3551 0.0000 -1.1668
# 5 -9.4309 -2.1748 -16.2301 0.0000 31.1779 0.0000
# 6 0.0000 0.0000 0.0000 -1.1668 0.0000 27.2162
#
#
#
# Elastic Compliance Matrix: (Units=1/GPa)
#
#
# Indices 1 2 3 4 5 6 
#
# 1 0.010371 -0.005617 -0.004650 0.000000 0.000325 0.000000
# 2 -0.005617 0.029739 -0.005389 0.000000 -0.002430 0.000000
# 3 -0.004650 -0.005389 0.012481 0.000000 0.004715 0.000000
# 4 0.000000 0.000000 0.000000 0.041144 0.000000 0.001764
# 5 0.000325 -0.002430 0.004715 0.000000 0.034457 0.000000
# 6 0.000000 0.000000 0.000000 0.001764 0.000000 0.036819
#
#
# Mechanical properties :
#
#
# Convention : Reuss Voigt Hill
#
# Bulk Modulus (GPa) = 46.99149 73.42358 60.20754
# Shear Modulus (GPa) = 24.58023 28.25991 26.42007
#
# Velocity S-wave (km/s) = 3.59630 3.85610 3.72846
# Velocity P-wave (km/s) = 6.47842 7.64586 7.08622
#
# Compressibility (1/GPa) = 0.02128045
#
# Stress axis : x y z
#
# Youngs Moduli (GPa) = 96.42165 33.62562 80.12015
#
# Poissons Ratio (x) = 0.18888 0.37254
# Poissons Ratio (y) = 0.54161 0.43174
# Poissons Ratio (z) = 0.44834 0.18120
#
# Static dielectric constant tensor:
#      x y z
#    x 3.903110 0.000000 -0.040100 
#    y 0.000000 3.215700 0.000000 
#    z -0.040100 0.000000 3.524370 
# 
# 
# High freq. dielectric constant tensor:
#      x y z
#    x 1.755870 0.000000 -0.007980 
#    y 0.000000 1.709040 0.000000 
#    z -0.007980 0.000000 1.742930 
# 
# From -- ./inp_files/73159.got.cif
#   From: 2010.06.25/outbox.cif.g09.slc.cpg/sg11_37_cif.got.tgz:73159.got - 2010.06.27 23:14:04.
