data_PCOD8073318
_publ_section_title
;
Structure prediction by ZEFSAII (Michael W. Deem and Ramdas Pophale) SiO2 
 PCOD8073318
Probable space group: P 21/M
;
_chemical_formula_sum "Si O2"
_cell_formula_units_Z 32
_cell_length_a 23.269332
_cell_length_b 8.393724
_cell_length_c 15.491390
_cell_angle_alpha 90.000000
_cell_angle_beta 31.797953
_cell_angle_gamma 90.000000
_cell_volume 1594.329742
_symmetry_space_group_name_H-M "P 21/M"
_symmetry_group_IT_number 11
_symmetry_cell_setting 'monoclinic'
loop_
_space_group_symop_operation_xyz
x,y,z
-x,1/2+y,-z
-x,-y,-z
x,1/2-y,z
loop_
_atom_site_type_symbol
_atom_site_label
_atom_site_fract_x
_atom_site_fract_y
_atom_site_fract_z
Si Si1 0.805007 0.568478 0.689660
Si Si2 0.479037 0.064500 0.791486
Si Si3 0.144969 0.563797 0.554616
Si Si4 0.581096 0.431137 0.962450
Si Si5 0.708386 0.561815 0.484649
Si Si6 0.763790 0.937713 0.931677
Si Si7 0.906334 0.939152 0.904955
Si Si8 0.882930 0.937923 0.124769
O O1 0.845911 0.750000 0.633159
O O2 0.862131 0.471315 0.539449
O O3 0.677529 0.557798 0.834241
O O4 0.814987 0.495562 0.775055
O O5 0.478960 0.250000 0.818350
O O6 0.365279 0.024889 0.886526
O O7 0.480179 0.942154 0.869024
O O8 0.594580 0.021652 0.600034
O O9 0.159531 0.750000 0.549629
O O10 0.245619 0.482238 0.478057
O O11 0.030877 0.499599 0.738977
O O12 0.618783 0.250000 0.894702
O O13 0.500000 0.500000 0.000000
O O14 0.693793 0.750000 0.497593
O O15 0.793098 0.494595 0.305307
O O16 0.779882 0.750000 0.906068
O O17 0.831645 0.013647 0.924116
O O18 0.905642 0.750000 0.896587
O O19 0.856546 0.993538 0.060350
O O20 0.885144 0.750000 0.127393
O O21 0.000000 0.000000 0.000000
#
# Coordination Sequence:
#
# PCOD8073318 Si02
#       8
#     4   4   4   4   4   4   4   4
#     4  10  20  34  51  75 109 146 183 223 267 319
#     4  10  20  35  55  78 106 143 183 223 269 321
#     4  11  21  33  54  82 111 144 185 229 274 325
#     4  11  20  32  50  73 104 140 182 227 272 322
#     4  11  22  35  54  82 115 145 178 225 278 327
#     4   8  17  35  57  78 105 145 187 223 266 321
#     4   9  18  35  58  82 107 141 183 226 274 328
#     4  10  20  36  59  84 111 142 177 222 275 329
#
# _framework density 20.071128999999999
#
# number of rings (size 3 to 8) (size 9 to 14) (size 15 to 20)
#    0.000    2.000    1.250    4.125    0.000    1.000 
#    0.000    0.625    0.000   12.750    0.000    0.000 
#    0.000    0.000    0.000    0.000    0.000    0.000 
#
# Total GULP energy -396418.012010 kJ/mol
# GULP energy per Si atom -12388.062875 kJ/mol
# Density = 2.002545 g / cm^3
# Si number density = 20.071129 Si / 1000 Ang^3
#
#
#
# Elastic Constant Matrix: (Units=GPa)
#
#
# Indices 1 2 3 4 5 6 
#
# 1 113.2868 12.3508 32.1290 0.0000 10.8236 0.0000
# 2 12.3508 45.1663 11.5270 0.0000 -0.5301 0.0000
# 3 32.1290 11.5270 105.6671 0.0000 6.2771 0.0000
# 4 0.0000 0.0000 0.0000 24.6113 0.0000 -0.4923
# 5 10.8236 -0.5301 6.2771 0.0000 22.7885 0.0000
# 6 0.0000 0.0000 0.0000 -0.4923 0.0000 16.4989
#
#
#
# Elastic Compliance Matrix: (Units=1/GPa)
#
#
# Indices 1 2 3 4 5 6 
#
# 1 0.010205 -0.002172 -0.002618 0.000000 -0.004177 0.000000
# 2 -0.002172 0.023271 -0.002004 0.000000 0.002125 0.000000
# 3 -0.002618 -0.002004 0.010580 0.000000 -0.001718 0.000000
# 4 0.000000 0.000000 0.000000 0.040656 0.000000 0.001213
# 5 -0.004177 0.002125 -0.001718 0.000000 0.046388 0.000000
# 6 0.000000 0.000000 0.000000 0.001213 0.000000 0.060646
#
#
# Mechanical properties :
#
#
# Convention : Reuss Voigt Hill
#
# Bulk Modulus (GPa) = 32.82091 41.79264 37.30677
# Shear Modulus (GPa) = 23.20279 26.65396 24.92838
#
# Velocity S-wave (km/s) = 3.40373 3.64809 3.52803
# Velocity P-wave (km/s) = 5.64225 6.21388 5.93495
#
# Compressibility (1/GPa) = 0.03046838
#
# Stress axis : x y z
#
# Youngs Moduli (GPa) = 97.98710 42.97242 94.51421
#
# Poissons Ratio (x) = 0.09332 0.24744
# Poissons Ratio (y) = 0.21278 0.18945
# Poissons Ratio (z) = 0.25654 0.08614
#
# Static dielectric constant tensor:
#      x y z
#    x 3.822170 0.000000 0.125520 
#    y 0.000000 3.726440 0.000000 
#    z 0.125520 0.000000 3.927560 
# 
# 
# High freq. dielectric constant tensor:
#      x y z
#    x 1.776030 0.000000 -0.001390 
#    y 0.000000 1.761510 0.000000 
#    z -0.001390 0.000000 1.784960 
# 
# From -- ./inp_files/55521.got.cif
#   From: 2010.06.25/outbox.cif.g09.slc.cpg/sg11_28_cif.got.tgz:55521.got - 2010.06.27 23:14:04.
