data_PCOD8073088
_publ_section_title
;
Structure prediction by ZEFSAII (Michael W. Deem and Ramdas Pophale) SiO2 
 PCOD8073088
Probable space group: P 21/M
;
_chemical_formula_sum "Si O2"
_cell_formula_units_Z 28
_cell_length_a 13.293811
_cell_length_b 13.551508
_cell_length_c 14.270600
_cell_angle_alpha 90.000000
_cell_angle_beta 32.459941
_cell_angle_gamma 90.000000
_cell_volume 1379.808744
_symmetry_space_group_name_H-M "P 21/M"
_symmetry_group_IT_number 11
_symmetry_cell_setting 'monoclinic'
loop_
_space_group_symop_operation_xyz
x,y,z
-x,1/2+y,-z
-x,-y,-z
x,1/2-y,z
loop_
_atom_site_type_symbol
_atom_site_label
_atom_site_fract_x
_atom_site_fract_y
_atom_site_fract_z
Si Si1 0.448159 0.553924 0.182179
Si Si2 0.353863 0.137368 0.152476
Si Si3 0.929076 0.364338 0.438037
Si Si4 0.853143 0.640797 0.209899
Si Si5 0.814131 0.448093 0.341888
Si Si6 0.227844 0.641048 0.815221
Si Si7 0.414059 0.048689 0.723457
O O1 0.439701 0.438632 0.159968
O O2 0.579964 0.563081 0.169675
O O3 0.236518 0.592076 0.366940
O O4 0.548613 0.619196 0.024417
O O5 0.398303 0.250000 0.148023
O O6 0.130134 0.120370 0.327748
O O7 0.885980 0.250000 0.453089
O O8 0.945169 0.421054 0.326095
O O9 0.787848 0.750000 0.291924
O O10 0.814283 0.566087 0.325477
O O11 0.752270 0.610959 0.191926
O O12 0.074129 0.639327 0.017388
O O13 0.876057 0.391915 0.199237
O O14 0.605276 0.411917 0.529014
O O15 0.314771 0.750000 0.735477
O O16 0.393155 0.566654 0.713052
#
# Coordination Sequence:
#
# PCOD8073088 Si02
#       7
#     4   4   4   4   4   4   4
#     4  10  22  39  59  87 116 145 187 240 284 334
#     4  10  22  39  62  85 112 150 187 232 291 341
#     4  10  21  37  61  88 114 148 190 232 280 339
#     4  10  21  34  52  78 111 148 186 224 269 327
#     4  10  20  34  53  80 111 143 183 228 274 321
#     4  10  20  33  51  77 109 147 183 224 271 326
#     4  10  21  34  54  78 106 146 180 229 275 325
#
# _framework density 20.292667000000002
#
# number of rings (size 3 to 8) (size 9 to 14) (size 15 to 20)
#    0.000    2.000    0.000    4.714    4.000    5.714 
#    0.000    2.143    0.000    0.857    0.000    0.000 
#    0.000    0.000    0.000    0.000    0.000    0.000 
#
# Total GULP energy -347173.709063 kJ/mol
# GULP energy per Si atom -12399.061038 kJ/mol
# Density = 2.024648 g / cm^3
# Si number density = 20.292667 Si / 1000 Ang^3
#
#
#
# Elastic Constant Matrix: (Units=GPa)
#
#
# Indices 1 2 3 4 5 6 
#
# 1 44.3724 23.7014 0.0835 0.0000 8.6657 0.0000
# 2 23.7014 120.6714 14.5956 0.0000 5.3059 0.0000
# 3 0.0835 14.5956 58.2293 0.0000 9.8333 0.0000
# 4 0.0000 0.0000 0.0000 30.4138 0.0000 -0.9283
# 5 8.6657 5.3059 9.8333 0.0000 25.3479 0.0000
# 6 0.0000 0.0000 0.0000 -0.9283 0.0000 18.9587
#
#
#
# Elastic Compliance Matrix: (Units=1/GPa)
#
#
# Indices 1 2 3 4 5 6 
#
# 1 0.027161 -0.005271 0.002851 0.000000 -0.009288 0.000000
# 2 -0.005271 0.009594 -0.002528 0.000000 0.000775 0.000000
# 3 0.002851 -0.002528 0.019132 0.000000 -0.007867 0.000000
# 4 0.000000 0.000000 0.000000 0.032929 0.000000 0.001612
# 5 -0.009288 0.000775 -0.007867 0.000000 0.045516 0.000000
# 6 0.000000 0.000000 0.000000 0.001612 0.000000 0.052825
#
#
# Mechanical properties :
#
#
# Convention : Reuss Voigt Hill
#
# Bulk Modulus (GPa) = 21.74407 33.33711 27.54059
# Shear Modulus (GPa) = 23.54233 27.27024 25.40629
#
# Velocity S-wave (km/s) = 3.40978 3.66983 3.54219
# Velocity P-wave (km/s) = 5.12256 5.86691 5.50733
#
# Compressibility (1/GPa) = 0.04598956
#
# Stress axis : x y z
#
# Youngs Moduli (GPa) = 36.81796 104.23181 52.26943
#
# Poissons Ratio (x) = 0.54942 -0.14901
# Poissons Ratio (y) = 0.19407 0.13214
# Poissons Ratio (z) = -0.10496 0.26350
#
# Static dielectric constant tensor:
#      x y z
#    x 3.440890 0.000000 0.027120 
#    y 0.000000 3.862500 0.000000 
#    z 0.027120 0.000000 3.624910 
# 
# 
# High freq. dielectric constant tensor:
#      x y z
#    x 1.768080 0.000000 -0.001840 
#    y 0.000000 1.800670 0.000000 
#    z -0.001840 0.000000 1.799370 
# 
# From -- ./inp_files/52428.got.cif
#   From: 2010.06.25/outbox.cif.g09.slc.cpg/sg11_27_cif.got.tgz:52428.got - 2010.06.27 23:14:04.
