data_PCOD8073193
_publ_section_title
;
Structure prediction by ZEFSAII (Michael W. Deem and Ramdas Pophale) SiO2 
 PCOD8073193
Probable space group: P 21/M
;
_chemical_formula_sum "Si O2"
_cell_formula_units_Z 28
_cell_length_a 18.290316
_cell_length_b 8.899404
_cell_length_c 18.304090
_cell_angle_alpha 90.000000
_cell_angle_beta 149.068948
_cell_angle_gamma 90.000000
_cell_volume 1531.435261
_symmetry_space_group_name_H-M "P 21/M"
_symmetry_group_IT_number 11
_symmetry_cell_setting 'monoclinic'
loop_
_space_group_symop_operation_xyz
x,y,z
-x,1/2+y,-z
-x,-y,-z
x,1/2-y,z
loop_
_atom_site_type_symbol
_atom_site_label
_atom_site_fract_x
_atom_site_fract_y
_atom_site_fract_z
Si Si1 0.516002 0.574149 0.298212
Si Si2 0.863535 0.424105 0.917145
Si Si3 0.084206 0.424770 0.737305
Si Si4 0.858457 0.422770 0.352197
Si Si5 0.237949 0.577509 0.576717
Si Si6 0.430774 0.428643 0.370089
Si Si7 0.790951 0.420305 0.018653
O O1 0.516371 0.750000 0.318332
O O2 0.651595 0.533303 0.366245
O O3 0.521383 0.480736 0.377619
O O4 0.373773 0.532989 0.131497
O O5 0.852441 0.250000 0.884341
O O6 0.729182 0.512483 0.771255
O O7 0.872553 0.439195 0.012157
O O8 0.000000 0.500000 0.000000
O O9 0.105529 0.250000 0.745006
O O10 0.185450 0.503217 0.762799
O O11 0.919433 0.469790 0.584904
O O12 0.134031 0.470602 0.860088
O O13 0.890689 0.250000 0.365503
O O14 0.744574 0.442875 0.320259
O O15 0.000000 0.500000 0.500000
O O16 0.269454 0.750000 0.581825
O O17 0.500000 0.500000 0.500000
O O18 0.432003 0.250000 0.376505
O O19 0.803097 0.250000 0.057645
#
# Coordination Sequence:
#
# PCOD8073193 Si02
#       7
#     4   4   4   4   4   4   4
#     4  10  21  37  56  79 107 140 177 217 265 320
#     4  10  21  38  58  82 111 143 180 221 267 320
#     4  10  20  33  53  80 106 136 178 220 261 311
#     4   9  17  31  51  75 106 138 172 216 264 311
#     4   9  19  34  52  78 107 137 175 218 262 312
#     4  11  22  38  59  81 108 142 179 222 270 320
#     4   9  20  37  54  75 106 140 174 214 261 312
#
# _framework density 18.283501999999999
#
# number of rings (size 3 to 8) (size 9 to 14) (size 15 to 20)
#    0.000    2.286    0.000    4.714    0.000    8.000 
#    0.000    3.571    0.000    0.000    0.000    0.000 
#    0.000    0.000    0.000    0.000    0.000    0.000 
#
# Total GULP energy -347177.744338 kJ/mol
# GULP energy per Si atom -12399.205155 kJ/mol
# Density = 1.824189 g / cm^3
# Si number density = 18.283502 Si / 1000 Ang^3
#
#
#
# Elastic Constant Matrix: (Units=GPa)
#
#
# Indices 1 2 3 4 5 6 
#
# 1 119.5930 67.0086 61.9999 0.0000 -0.0627 0.0000
# 2 67.0086 126.3258 49.2000 0.0000 -2.5632 0.0000
# 3 61.9999 49.2000 75.2457 0.0000 -10.2653 0.0000
# 4 0.0000 0.0000 0.0000 32.5485 0.0000 -2.4941
# 5 -0.0627 -2.5632 -10.2653 0.0000 23.7951 0.0000
# 6 0.0000 0.0000 0.0000 -2.4941 0.0000 37.5690
#
#
#
# Elastic Compliance Matrix: (Units=1/GPa)
#
#
# Indices 1 2 3 4 5 6 
#
# 1 0.017032 -0.004544 -0.011819 0.000000 -0.005543 0.000000
# 2 -0.004544 0.011920 -0.004119 0.000000 -0.000505 0.000000
# 3 -0.011819 -0.004119 0.027261 0.000000 0.011286 0.000000
# 4 0.000000 0.000000 0.000000 0.030881 0.000000 0.002050
# 5 -0.005543 -0.000505 0.011286 0.000000 0.046825 0.000000
# 6 0.000000 0.000000 0.000000 0.002050 0.000000 0.026754
#
#
# Mechanical properties :
#
#
# Convention : Reuss Voigt Hill
#
# Bulk Modulus (GPa) = 65.57542 75.28684 70.43113
# Shear Modulus (GPa) = 24.18733 28.31293 26.25013
#
# Velocity S-wave (km/s) = 3.64112 3.93943 3.79321
# Velocity P-wave (km/s) = 7.32262 7.87141 7.60197
#
# Compressibility (1/GPa) = 0.01524962
#
# Stress axis : x y z
#
# Youngs Moduli (GPa) = 58.71323 83.89057 36.68221
#
# Poissons Ratio (x) = 0.38118 0.43355
# Poissons Ratio (y) = 0.26678 0.15110
# Poissons Ratio (z) = 0.69393 0.34556
#
# Static dielectric constant tensor:
#      x y z
#    x 3.595110 0.000000 -0.122600 
#    y 0.000000 3.432990 0.000000 
#    z -0.122600 0.000000 3.212640 
# 
# 
# High freq. dielectric constant tensor:
#      x y z
#    x 1.716820 0.000000 -0.009730 
#    y 0.000000 1.723210 0.000000 
#    z -0.009730 0.000000 1.688740 
# 
# From -- ./inp_files/29106.got.cif
#   From: 2010.06.25/outbox.cif.g09.slc.cpg/sg11_15_cif.got.tgz:29106.got - 2010.06.27 23:14:04.
