data_PCOD8073758
_publ_section_title
;
Structure prediction by ZEFSAII (Michael W. Deem and Ramdas Pophale) SiO2 
 PCOD8073758
Probable space group: P 21/M
;
_chemical_formula_sum "Si O2"
_cell_formula_units_Z 28
_cell_length_a 16.327972
_cell_length_b 8.820638
_cell_length_c 11.071836
_cell_angle_alpha 90.000000
_cell_angle_beta 120.263604
_cell_angle_gamma 90.000000
_cell_volume 1377.281736
_symmetry_space_group_name_H-M "P 21/M"
_symmetry_group_IT_number 11
_symmetry_cell_setting 'monoclinic'
loop_
_space_group_symop_operation_xyz
x,y,z
-x,1/2+y,-z
-x,-y,-z
x,1/2-y,z
loop_
_atom_site_type_symbol
_atom_site_label
_atom_site_fract_x
_atom_site_fract_y
_atom_site_fract_z
Si Si1 0.686841 0.574030 0.624110
Si Si2 0.029864 0.571052 0.896168
Si Si3 0.202538 0.074679 0.901981
Si Si4 0.763579 0.426855 0.320033
Si Si5 0.411654 0.425268 0.697133
Si Si6 0.606351 0.924889 0.818944
Si Si7 0.862321 0.426666 0.642799
O O1 0.716002 0.750000 0.654449
O O2 0.614047 0.542873 0.461358
O O3 0.637634 0.517941 0.709937
O O4 0.782365 0.478506 0.678066
O O5 0.027568 0.750000 0.906025
O O6 0.135097 0.517677 0.941406
O O7 0.958733 0.517317 0.738059
O O8 0.000000 0.500000 0.000000
O O9 0.173420 0.250000 0.885963
O O10 0.191065 0.015524 0.757716
O O11 0.309948 0.048922 0.023990
O O12 0.761649 0.250000 0.288925
O O13 0.656779 0.481227 0.265746
O O14 0.829555 0.465152 0.483198
O O15 0.400248 0.250000 0.722336
O O16 0.518667 0.476555 0.800253
O O17 0.575265 0.750000 0.789368
O O18 0.881226 0.250000 0.675940
#
# Coordination Sequence:
#
# PCOD8073758 Si02
#       7
#     4   4   4   4   4   4   4
#     4   9  18  34  56  85 119 152 190 238 294 351
#     4  12  25  42  65  92 122 154 189 233 287 346
#     4  11  24  41  61  86 117 154 198 245 291 344
#     4  10  22  41  62  85 116 154 197 243 291 345
#     4  10  20  34  57  86 115 151 194 241 291 348
#     4  10  21  36  55  81 115 154 192 237 293 348
#     4  10  21  38  62  89 117 153 195 240 292 347
#
# _framework density 20.329901
#
# number of rings (size 3 to 8) (size 9 to 14) (size 15 to 20)
#    0.000    1.714    0.000    4.286    0.000    6.286 
#    0.000    0.000    0.000    0.000    0.000    0.000 
#    0.000    0.000    0.000    0.000    0.000    0.000 
#
# Total GULP energy -347400.685973 kJ/mol
# GULP energy per Si atom -12407.167356 kJ/mol
# Density = 2.028363 g / cm^3
# Si number density = 20.329901 Si / 1000 Ang^3
#
#
#
# Elastic Constant Matrix: (Units=GPa)
#
#
# Indices 1 2 3 4 5 6 
#
# 1 80.9303 40.8284 41.0241 0.0000 -8.4616 0.0000
# 2 40.8284 109.5894 45.1405 0.0000 2.4222 0.0000
# 3 41.0241 45.1405 74.7201 0.0000 -2.5267 0.0000
# 4 0.0000 0.0000 0.0000 32.5120 0.0000 2.7520
# 5 -8.4616 2.4222 -2.5267 0.0000 34.4751 0.0000
# 6 0.0000 0.0000 0.0000 2.7520 0.0000 40.1158
#
#
#
# Elastic Compliance Matrix: (Units=1/GPa)
#
#
# Indices 1 2 3 4 5 6 
#
# 1 0.018699 -0.003850 -0.007795 0.000000 0.004289 0.000000
# 2 -0.003850 0.013008 -0.005822 0.000000 -0.002286 0.000000
# 3 -0.007795 -0.005822 0.021182 0.000000 0.000048 0.000000
# 4 0.000000 0.000000 0.000000 0.030938 0.000000 -0.002122
# 5 0.004289 -0.002286 0.000048 0.000000 0.030223 0.000000
# 6 0.000000 0.000000 0.000000 -0.002122 0.000000 0.025073
#
#
# Mechanical properties :
#
#
# Convention : Reuss Voigt Hill
#
# Bulk Modulus (GPa) = 55.69805 57.69174 56.69489
# Shear Modulus (GPa) = 27.77137 30.63703 29.20420
#
# Velocity S-wave (km/s) = 3.70000 3.88621 3.79425
# Velocity P-wave (km/s) = 6.76091 6.96967 6.86608
#
# Compressibility (1/GPa) = 0.01795395
#
# Stress axis : x y z
#
# Youngs Moduli (GPa) = 53.48022 76.87592 47.21019
#
# Poissons Ratio (x) = 0.29599 0.36801
# Poissons Ratio (y) = 0.20591 0.27485
# Poissons Ratio (z) = 0.41688 0.44756
#
# Static dielectric constant tensor:
#      x y z
#    x 3.632080 0.000000 -0.001170 
#    y 0.000000 3.722910 0.000000 
#    z -0.001170 0.000000 3.750340 
# 
# 
# High freq. dielectric constant tensor:
#      x y z
#    x 1.795040 0.000000 0.000930 
#    y 0.000000 1.800290 0.000000 
#    z 0.000930 0.000000 1.797650 
# 
# From -- ./inp_files/38457.got.cif
#   From: 2010.06.25/outbox.cif.g09.slc.cpg/sg11_20_cif.got.tgz:38457.got - 2010.06.27 23:14:04.
