data_PCOD8073711
_publ_section_title
;
Structure prediction by ZEFSAII (Michael W. Deem and Ramdas Pophale) SiO2 
 PCOD8073711
Probable space group: P 21/M
;
_chemical_formula_sum "Si O2"
_cell_formula_units_Z 28
_cell_length_a 14.212623
_cell_length_b 8.588850
_cell_length_c 13.394561
_cell_angle_alpha 90.000000
_cell_angle_beta 122.086659
_cell_angle_gamma 90.000000
_cell_volume 1385.310344
_symmetry_space_group_name_H-M "P 21/M"
_symmetry_group_IT_number 11
_symmetry_cell_setting 'monoclinic'
loop_
_space_group_symop_operation_xyz
x,y,z
-x,1/2+y,-z
-x,-y,-z
x,1/2-y,z
loop_
_atom_site_type_symbol
_atom_site_label
_atom_site_fract_x
_atom_site_fract_y
_atom_site_fract_z
Si Si1 0.049071 0.567385 0.314513
Si Si2 0.393081 0.428307 0.573677
Si Si3 0.395478 0.066907 0.998747
Si Si4 0.172714 0.430045 0.568798
Si Si5 0.266076 0.930696 0.323167
Si Si6 0.388983 0.431689 0.220390
Si Si7 0.175735 0.568481 0.783551
O O1 0.035470 0.750000 0.324804
O O2 0.085928 0.488055 0.438113
O O3 0.138335 0.530657 0.278041
O O4 0.931639 0.492874 0.215738
O O5 0.433341 0.250000 0.594078
O O6 0.297509 0.454695 0.600967
O O7 0.349688 0.473062 0.440022
O O8 0.494505 0.537659 0.660151
O O9 0.409266 0.250000 0.007915
O O10 0.283301 0.022781 0.879958
O O11 0.392635 0.001407 0.110078
O O12 0.500000 0.000000 0.000000
O O13 0.148851 0.250000 0.580018
O O14 0.155999 0.534423 0.656347
O O15 0.290887 0.750000 0.353972
O O16 0.289410 0.980929 0.222612
O O17 0.362447 0.250000 0.205912
O O18 0.192843 0.750000 0.812259
#
# Coordination Sequence:
#
# PCOD8073711 Si02
#       7
#     4   4   4   4   4   4   4
#     4  10  21  38  59  85 117 151 190 237 285 338
#     4  10  20  34  56  85 118 153 189 231 281 337
#     4  11  25  44  64  87 115 149 189 235 283 335
#     4  10  20  35  57  86 119 154 191 235 286 341
#     4  10  21  37  59  85 115 150 189 234 283 335
#     4  11  23  38  58  83 114 150 189 234 284 337
#     4  12  24  38  59  85 115 153 193 236 285 339
#
# _framework density 20.212078000000002
#
# number of rings (size 3 to 8) (size 9 to 14) (size 15 to 20)
#    0.000    1.429    0.000    5.571    0.000    8.000 
#    0.000    0.714    0.000    0.000    0.000    0.000 
#    0.000    0.000    0.000    0.000    0.000    0.000 
#
# Total GULP energy -347351.757158 kJ/mol
# GULP energy per Si atom -12405.419899 kJ/mol
# Density = 2.016607 g / cm^3
# Si number density = 20.212078 Si / 1000 Ang^3
#
#
#
# Elastic Constant Matrix: (Units=GPa)
#
#
# Indices 1 2 3 4 5 6 
#
# 1 139.7848 28.6249 70.3075 0.0000 -3.9428 0.0000
# 2 28.6249 62.7254 19.1011 0.0000 -7.8390 0.0000
# 3 70.3075 19.1011 62.1145 0.0000 -6.8457 0.0000
# 4 0.0000 0.0000 0.0000 29.9146 0.0000 -0.3319
# 5 -3.9428 -7.8390 -6.8457 0.0000 35.4542 0.0000
# 6 0.0000 0.0000 0.0000 -0.3319 0.0000 35.6281
#
#
#
# Elastic Compliance Matrix: (Units=1/GPa)
#
#
# Indices 1 2 3 4 5 6 
#
# 1 0.017023 -0.002324 -0.018802 0.000000 -0.002251 0.000000
# 2 -0.002324 0.018205 -0.002608 0.000000 0.003263 0.000000
# 3 -0.018802 -0.002608 0.038713 0.000000 0.004807 0.000000
# 4 0.000000 0.000000 0.000000 0.033432 0.000000 0.000311
# 5 -0.002251 0.003263 0.004807 0.000000 0.029605 0.000000
# 6 0.000000 0.000000 0.000000 0.000311 0.000000 0.028071
#
#
# Mechanical properties :
#
#
# Convention : Reuss Voigt Hill
#
# Bulk Modulus (GPa) = 37.77400 55.63243 46.70322
# Shear Modulus (GPa) = 22.58964 29.97213 26.28088
#
# Velocity S-wave (km/s) = 3.34673 3.85500 3.60982
# Velocity P-wave (km/s) = 5.80202 6.88468 6.36641
#
# Compressibility (1/GPa) = 0.02647324
#
# Stress axis : x y z
#
# Youngs Moduli (GPa) = 58.74399 54.92942 25.83129
#
# Poissons Ratio (x) = 0.12767 0.48567
# Poissons Ratio (y) = 0.13654 0.06736
# Poissons Ratio (z) = 1.10449 0.14324
#
# Static dielectric constant tensor:
#      x y z
#    x 4.061290 0.000000 -0.166390 
#    y 0.000000 3.709330 0.000000 
#    z -0.166390 0.000000 3.628440 
# 
# 
# High freq. dielectric constant tensor:
#      x y z
#    x 1.810440 0.000000 -0.002970 
#    y 0.000000 1.800480 0.000000 
#    z -0.002970 0.000000 1.765500 
# 
# From -- ./inp_files/38405.got.cif
#   From: 2010.06.25/outbox.cif.g09.slc.cpg/sg11_20_cif.got.tgz:38405.got - 2010.06.27 23:14:04.
