data_PCOD8073736
_publ_section_title
;
Structure prediction by ZEFSAII (Michael W. Deem and Ramdas Pophale) SiO2 
 PCOD8073736
Probable space group: P 21/M
;
_chemical_formula_sum "Si O2"
_cell_formula_units_Z 32
_cell_length_a 12.387393
_cell_length_b 16.897175
_cell_length_c 16.169584
_cell_angle_alpha 90.000000
_cell_angle_beta 151.477237
_cell_angle_gamma 90.000000
_cell_volume 1616.119224
_symmetry_space_group_name_H-M "P 21/M"
_symmetry_group_IT_number 11
_symmetry_cell_setting 'monoclinic'
loop_
_space_group_symop_operation_xyz
x,y,z
-x,1/2+y,-z
-x,-y,-z
x,1/2-y,z
loop_
_atom_site_type_symbol
_atom_site_label
_atom_site_fract_x
_atom_site_fract_y
_atom_site_fract_z
Si Si1 0.750755 0.340986 0.983126
Si Si2 0.842784 0.610668 0.639971
Si Si3 0.479687 0.158714 0.962179
Si Si4 0.021106 0.409794 0.604494
Si Si5 0.228190 0.547671 0.156032
Si Si6 0.622102 0.160507 0.616533
Si Si7 0.871129 0.090629 0.325284
Si Si8 0.344346 0.947141 0.513076
O O1 0.717837 0.250000 0.932462
O O2 0.577671 0.365435 0.938753
O O3 0.708378 0.400713 0.880650
O O4 0.004789 0.353173 0.185692
O O5 0.609089 0.658294 0.486242
O O6 0.801897 0.516921 0.629022
O O7 0.953655 0.624239 0.624654
O O8 0.521836 0.250000 0.008729
O O9 0.212302 0.141292 0.780263
O O10 0.614503 0.113393 0.126295
O O11 0.949094 0.374000 0.466518
O O12 0.795539 0.407913 0.507180
O O13 0.125127 0.496557 0.665203
O O14 0.197728 0.607794 0.212399
O O15 0.427441 0.484583 0.298676
O O16 0.000000 0.500000 0.000000
O O17 0.709310 0.250000 0.665882
O O18 0.587821 0.121973 0.503915
#
# Coordination Sequence:
#
# PCOD8073736 Si02
#       8
#     4   4   4   4   4   4   4   4
#     4  10  20  34  56  89 121 148 186 241 303 352
#     4   9  18  36  60  85 116 151 188 244 296 345
#     4  10  22  37  57  88 124 158 192 246 306 354
#     4  10  21  38  62  86 117 161 203 247 291 353
#     4  11  22  38  59  86 118 151 196 248 296 352
#     4  11  22  37  59  84 114 152 194 240 295 356
#     4   9  20  37  60  92 117 150 204 247 293 358
#     4  10  22  39  58  85 114 156 202 238 290 353
#
# _framework density 19.800521
#
# number of rings (size 3 to 8) (size 9 to 14) (size 15 to 20)
#    0.000    2.000    0.000    4.125    7.000    1.500 
#    2.250    0.625    0.000    0.000    0.000    0.000 
#    0.000    0.000    0.000    0.000    0.000    0.000 
#
# Total GULP energy -396813.344160 kJ/mol
# GULP energy per Si atom -12400.417005 kJ/mol
# Density = 1.975545 g / cm^3
# Si number density = 19.800521 Si / 1000 Ang^3
#
#
#
# Elastic Constant Matrix: (Units=GPa)
#
#
# Indices 1 2 3 4 5 6 
#
# 1 92.4335 53.0670 61.6710 0.0000 -6.2759 0.0000
# 2 53.0670 90.6602 57.7823 0.0000 -6.3876 0.0000
# 3 61.6710 57.7823 134.2992 0.0000 -8.4211 0.0000
# 4 0.0000 0.0000 0.0000 16.7753 0.0000 -3.1330
# 5 -6.2759 -6.3876 -8.4211 0.0000 30.5086 0.0000
# 6 0.0000 0.0000 0.0000 -3.1330 0.0000 25.7338
#
#
#
# Elastic Compliance Matrix: (Units=1/GPa)
#
#
# Indices 1 2 3 4 5 6 
#
# 1 0.018741 -0.007523 -0.005318 0.000000 0.000812 0.000000
# 2 -0.007523 0.018277 -0.004341 0.000000 0.001081 0.000000
# 3 -0.005318 -0.004341 0.011835 0.000000 0.001264 0.000000
# 4 0.000000 0.000000 0.000000 0.060999 0.000000 0.007426
# 5 0.000812 0.001081 0.001264 0.000000 0.033520 0.000000
# 6 0.000000 0.000000 0.000000 0.007426 0.000000 0.039763
#
#
# Mechanical properties :
#
#
# Convention : Reuss Voigt Hill
#
# Bulk Modulus (GPa) = 69.02229 73.60371 71.31300
# Shear Modulus (GPa) = 22.48915 24.26173 23.37544
#
# Velocity S-wave (km/s) = 3.37380 3.50424 3.43964
# Velocity P-wave (km/s) = 7.07893 7.32299 7.20199
#
# Compressibility (1/GPa) = 0.01448807
#
# Stress axis : x y z
#
# Youngs Moduli (GPa) = 53.35859 54.71433 84.49304
#
# Poissons Ratio (x) = 0.41162 0.44936
# Poissons Ratio (y) = 0.40142 0.36680
# Poissons Ratio (z) = 0.28378 0.23752
#
# Static dielectric constant tensor:
#      x y z
#    x 3.647970 0.000000 -0.094910 
#    y 0.000000 3.509590 0.000000 
#    z -0.094910 0.000000 3.674000 
# 
# 
# High freq. dielectric constant tensor:
#      x y z
#    x 1.764600 0.000000 -0.003180 
#    y 0.000000 1.764360 0.000000 
#    z -0.003180 0.000000 1.774630 
# 
# From -- ./inp_files/50732.got.cif
#   From: 2010.06.25/outbox.cif.g09.slc.cpg/sg11_26_cif.got.tgz:50732.got - 2010.06.27 23:14:04.
