data_PCOD8073624
_publ_section_title
;
Structure prediction by ZEFSAII (Michael W. Deem and Ramdas Pophale) SiO2 
 PCOD8073624
Probable space group: P 21/M
;
_chemical_formula_sum "Si O2"
_cell_formula_units_Z 28
_cell_length_a 9.570943
_cell_length_b 9.031019
_cell_length_c 25.103418
_cell_angle_alpha 90.000000
_cell_angle_beta 139.701404
_cell_angle_gamma 90.000000
_cell_volume 1403.378901
_symmetry_space_group_name_H-M "P 21/M"
_symmetry_group_IT_number 11
_symmetry_cell_setting 'monoclinic'
loop_
_space_group_symop_operation_xyz
x,y,z
-x,1/2+y,-z
-x,-y,-z
x,1/2-y,z
loop_
_atom_site_type_symbol
_atom_site_label
_atom_site_fract_x
_atom_site_fract_y
_atom_site_fract_z
Si Si1 0.673265 0.074027 0.010879
Si Si2 0.658707 0.917985 0.692853
Si Si3 0.811538 0.414940 0.417631
Si Si4 0.560357 0.423316 0.857578
Si Si5 0.132758 0.574696 0.149547
Si Si6 0.701389 0.923400 0.586699
Si Si7 0.173393 0.576628 0.694603
O O1 0.668893 0.250000 0.018619
O O2 0.627502 0.030977 0.936446
O O3 0.500000 0.000000 0.000000
O O4 0.909119 0.011219 0.091479
O O5 0.731976 0.750000 0.729252
O O6 0.401539 0.923410 0.609099
O O7 0.744192 0.969369 0.660453
O O8 0.729676 0.032874 0.758480
O O9 0.900897 0.250000 0.436318
O O10 0.748323 0.474834 0.340873
O O11 0.000000 0.500000 0.500000
O O12 0.532213 0.250000 0.842956
O O13 0.740243 0.478624 0.866978
O O14 0.326236 0.495052 0.780943
O O15 0.090833 0.750000 0.136124
O O16 0.657191 0.750000 0.569515
O O17 0.923838 0.972819 0.623990
O O18 0.500000 0.000000 0.500000
O O19 0.199202 0.750000 0.713562
#
# Coordination Sequence:
#
# PCOD8073624 Si02
#       7
#     4   4   4   4   4   4   4
#     4  11  25  44  66  95 128 161 200 247 299 361
#     4  10  21  38  58  85 121 160 202 248 302 360
#     4  10  20  34  55  82 115 154 199 250 300 352
#     4  10  23  42  64  92 124 159 203 249 300 360
#     4  11  23  41  65  94 124 160 204 249 303 362
#     4  10  22  38  57  84 118 159 204 250 306 363
#     4  10  21  37  58  86 119 157 202 247 298 360
#
# _framework density 19.951846
#
# number of rings (size 3 to 8) (size 9 to 14) (size 15 to 20)
#    0.000    1.714    1.429    2.143    2.000    4.000 
#    0.000    0.000    0.000    0.000    0.000    0.000 
#    0.000    0.000    0.000    0.000    0.000    0.000 
#
# Total GULP energy -347180.113289 kJ/mol
# GULP energy per Si atom -12399.289760 kJ/mol
# Density = 1.990643 g / cm^3
# Si number density = 19.951846 Si / 1000 Ang^3
#
#
#
# Elastic Constant Matrix: (Units=GPa)
#
#
# Indices 1 2 3 4 5 6 
#
# 1 102.7894 38.9488 37.1906 0.0000 6.1060 0.0000
# 2 38.9488 58.1363 45.2284 0.0000 -4.1012 0.0000
# 3 37.1906 45.2284 112.3878 0.0000 5.4866 0.0000
# 4 0.0000 0.0000 0.0000 43.5308 0.0000 0.8131
# 5 6.1060 -4.1012 5.4866 0.0000 31.0673 0.0000
# 6 0.0000 0.0000 0.0000 0.8131 0.0000 28.4366
#
#
#
# Elastic Compliance Matrix: (Units=1/GPa)
#
#
# Indices 1 2 3 4 5 6 
#
# 1 0.013534 -0.008707 -0.000795 0.000000 -0.003669 0.000000
# 2 -0.008707 0.031480 -0.010161 0.000000 0.007661 0.000000
# 3 -0.000795 -0.010161 0.013424 0.000000 -0.003556 0.000000
# 4 0.000000 0.000000 0.000000 0.022985 0.000000 -0.000657
# 5 -0.003669 0.007661 -0.003556 0.000000 0.034549 0.000000
# 6 0.000000 0.000000 0.000000 -0.000657 0.000000 0.035185
#
#
# Mechanical properties :
#
#
# Convention : Reuss Voigt Hill
#
# Bulk Modulus (GPa) = 52.32851 57.33878 54.83364
# Shear Modulus (GPa) = 25.39977 30.73666 28.06822
#
# Velocity S-wave (km/s) = 3.57186 3.92923 3.75480
# Velocity P-wave (km/s) = 6.57991 7.02753 6.80740
#
# Compressibility (1/GPa) = 0.01911004
#
# Stress axis : x y z
#
# Youngs Moduli (GPa) = 73.89043 31.76634 74.49479
#
# Poissons Ratio (x) = 0.27659 0.05925
# Poissons Ratio (y) = 0.64336 0.75696
# Poissons Ratio (z) = 0.05877 0.32279
#
# Static dielectric constant tensor:
#      x y z
#    x 4.030550 0.000000 -0.077650 
#    y 0.000000 3.497610 0.000000 
#    z -0.077650 0.000000 3.485000 
# 
# 
# High freq. dielectric constant tensor:
#      x y z
#    x 1.794200 0.000000 0.000570 
#    y 0.000000 1.768650 0.000000 
#    z 0.000570 0.000000 1.784800 
# 
# From -- ./inp_files/70736.got.cif
#   From: 2010.06.25/outbox.cif.g09.slc.cpg/sg11_36_cif.got.tgz:70736.got - 2010.06.27 23:14:04.
