data_PCOD8073550
_publ_section_title
;
Structure prediction by ZEFSAII (Michael W. Deem and Ramdas Pophale) SiO2 
 PCOD8073550
Probable space group: P 21/M
;
_chemical_formula_sum "Si O2"
_cell_formula_units_Z 32
_cell_length_a 27.782410
_cell_length_b 8.604579
_cell_length_c 10.904229
_cell_angle_alpha 90.000000
_cell_angle_beta 36.128602
_cell_angle_gamma 90.000000
_cell_volume 1536.921583
_symmetry_space_group_name_H-M "P 21/M"
_symmetry_group_IT_number 11
_symmetry_cell_setting 'monoclinic'
loop_
_space_group_symop_operation_xyz
x,y,z
-x,1/2+y,-z
-x,-y,-z
x,1/2-y,z
loop_
_atom_site_type_symbol
_atom_site_label
_atom_site_fract_x
_atom_site_fract_y
_atom_site_fract_z
Si Si1 0.460607 0.935462 0.706823
Si Si2 0.042349 0.927749 0.188078
Si Si3 0.119900 0.570007 0.523120
Si Si4 0.208691 0.570564 0.951416
Si Si5 0.141270 0.568114 0.751799
Si Si6 0.463360 0.931546 0.200147
Si Si7 0.709185 0.928954 0.444277
Si Si8 0.277195 0.932663 0.071917
O O1 0.463709 0.750000 0.692582
O O2 0.500000 0.000000 0.500000
O O3 0.505527 0.989035 0.738232
O O4 0.367575 0.000923 0.908428
O O5 0.018924 0.750000 0.220129
O O6 0.110177 0.954198 0.154583
O O7 0.957765 0.012432 0.395302
O O8 0.079725 0.991997 0.983015
O O9 0.127813 0.750000 0.477944
O O10 0.101735 0.532038 0.701990
O O11 0.207457 0.495184 0.304800
O O12 0.227701 0.750000 0.877548
O O13 0.247045 0.522222 0.999745
O O14 0.249016 0.455217 0.772356
O O15 0.160303 0.750000 0.731237
O O16 0.226731 0.476117 0.582296
O O17 0.483536 0.750000 0.166006
O O18 0.367517 0.958521 0.387112
O O19 0.500000 0.000000 0.000000
O O20 0.682689 0.750000 0.513343
O O21 0.283543 0.750000 0.077440
#
# Coordination Sequence:
#
# PCOD8073550 Si02
#       8
#     4   4   4   4   4   4   4   4
#     4  11  23  42  68  97 127 167 215 265 321 385
#     4   9  18  32  51  79 113 154 198 244 293 346
#     4  10  20  34  54  81 112 152 196 240 293 357
#     4   9  18  37  60  82 114 156 198 241 294 353
#     4   9  19  35  56  80 113 156 197 237 294 358
#     4  12  26  44  65  93 129 166 207 261 322 384
#     4  11  22  37  60  90 117 148 195 246 299 363
#     4   9  20  37  59  85 114 151 196 243 296 357
#
# _framework density 20.820841000000001
#
# number of rings (size 3 to 8) (size 9 to 14) (size 15 to 20)
#    0.000    2.000    0.000    4.500    1.750    4.000 
#    0.000    2.500    0.000    0.000    0.000    0.000 
#    0.000    0.000    0.000    0.000    0.000    0.000 
#
# Total GULP energy -396654.924877 kJ/mol
# GULP energy per Si atom -12395.466402 kJ/mol
# Density = 2.077345 g / cm^3
# Si number density = 20.820841 Si / 1000 Ang^3
#
#
#
# Elastic Constant Matrix: (Units=GPa)
#
#
# Indices 1 2 3 4 5 6 
#
# 1 79.6691 27.7947 39.1703 0.0000 -12.7036 0.0000
# 2 27.7947 63.8046 25.3845 0.0000 -1.4623 0.0000
# 3 39.1703 25.3845 115.9829 0.0000 -24.3273 0.0000
# 4 0.0000 0.0000 0.0000 30.6250 0.0000 -4.6863
# 5 -12.7036 -1.4623 -24.3273 0.0000 35.9230 0.0000
# 6 0.0000 0.0000 0.0000 -4.6863 0.0000 29.7513
#
#
#
# Elastic Compliance Matrix: (Units=1/GPa)
#
#
# Indices 1 2 3 4 5 6 
#
# 1 0.016946 -0.005804 -0.003783 0.000000 0.003195 0.000000
# 2 -0.005804 0.019299 -0.002948 0.000000 -0.003263 0.000000
# 3 -0.003783 -0.002948 0.011934 0.000000 0.006624 0.000000
# 4 0.000000 0.000000 0.000000 0.033460 0.000000 0.005270
# 5 0.003195 -0.003263 0.006624 0.000000 0.033320 0.000000
# 6 0.000000 0.000000 0.000000 0.005270 0.000000 0.034442
#
#
# Mechanical properties :
#
#
# Convention : Reuss Voigt Hill
#
# Bulk Modulus (GPa) = 43.27196 49.35061 46.31129
# Shear Modulus (GPa) = 27.44620 30.40032 28.92326
#
# Velocity S-wave (km/s) = 3.63465 3.82526 3.73117
# Velocity P-wave (km/s) = 6.20019 6.57755 6.39165
#
# Compressibility (1/GPa) = 0.02310965
#
# Stress axis : x y z
#
# Youngs Moduli (GPa) = 59.01106 51.81521 83.79280
#
# Poissons Ratio (x) = 0.30073 0.31697
# Poissons Ratio (y) = 0.34249 0.24705
# Poissons Ratio (z) = 0.22322 0.15277
#
# Static dielectric constant tensor:
#      x y z
#    x 3.860700 0.000000 -0.163150 
#    y 0.000000 3.537990 0.000000 
#    z -0.163150 0.000000 4.006880 
# 
# 
# High freq. dielectric constant tensor:
#      x y z
#    x 1.824020 0.000000 -0.011460 
#    y 0.000000 1.791400 0.000000 
#    z -0.011460 0.000000 1.820520 
# 
# From -- ./inp_files/45115.got.cif
#   From: 2010.06.25/outbox.cif.g09.slc.cpg/sg11_23_cif.got.tgz:45115.got - 2010.06.27 23:14:04.
