data_PCOD8073414
_publ_section_title
;
Structure prediction by ZEFSAII (Michael W. Deem and Ramdas Pophale) SiO2 
 PCOD8073414
Probable space group: P 21/M
;
_chemical_formula_sum "Si O2"
_cell_formula_units_Z 32
_cell_length_a 23.612923
_cell_length_b 9.642168
_cell_length_c 22.845449
_cell_angle_alpha 90.000000
_cell_angle_beta 160.660213
_cell_angle_gamma 90.000000
_cell_volume 1722.561514
_symmetry_space_group_name_H-M "P 21/M"
_symmetry_group_IT_number 11
_symmetry_cell_setting 'monoclinic'
loop_
_space_group_symop_operation_xyz
x,y,z
-x,1/2+y,-z
-x,-y,-z
x,1/2-y,z
loop_
_atom_site_type_symbol
_atom_site_label
_atom_site_fract_x
_atom_site_fract_y
_atom_site_fract_z
Si Si1 0.619440 0.103150 0.584693
Si Si2 0.204308 0.090177 0.647207
Si Si3 0.259177 0.587657 0.420530
Si Si4 0.470779 0.588579 0.112856
Si Si5 0.120216 0.410812 0.962885
Si Si6 0.095672 0.599676 0.049562
Si Si7 0.547138 0.588179 0.788538
Si Si8 0.183162 0.909897 0.739398
O O1 0.528943 0.250000 0.477671
O O2 0.704584 0.031916 0.610134
O O3 0.745170 0.145518 0.758003
O O4 0.500000 0.000000 0.500000
O O5 0.222977 0.250000 0.684125
O O6 0.348900 0.050247 0.741415
O O7 0.014907 0.060914 0.435820
O O8 0.236687 0.999834 0.736074
O O9 0.288348 0.750000 0.448305
O O10 0.394761 0.526068 0.599126
O O11 0.062947 0.551568 0.245728
O O12 0.465498 0.750000 0.124911
O O13 0.454971 0.496407 0.154338
O O14 0.308918 0.549269 0.914642
O O15 0.118771 0.250000 0.983062
O O16 0.151033 0.513700 0.046598
O O17 0.269604 0.436799 0.062407
O O18 0.005621 0.750000 0.945490
O O19 0.000000 0.500000 0.000000
O O20 0.518361 0.750000 0.774338
O O21 0.208916 0.750000 0.747031
#
# Coordination Sequence:
#
# PCOD8073414 Si02
#       8
#     4   4   4   4   4   4   4   4
#     4  10  20  34  53  77 104 134 167 212 268 326
#     4   9  18  33  54  81 110 142 176 214 264 316
#     4   9  18  36  55  73 101 135 172 215 265 317
#     4  10  21  36  53  75 110 146 176 218 268 313
#     4  10  20  38  59  76 105 142 175 223 278 322
#     4  11  21  34  55  82 108 135 171 216 271 336
#     4  10  22  37  56  78 101 140 188 226 264 313
#     4   9  18  33  54  81 111 143 176 216 265 312
#
# _framework density 18.576985000000001
#
# number of rings (size 3 to 8) (size 9 to 14) (size 15 to 20)
#    0.000    2.250    1.250    1.500    0.000    4.500 
#    0.000    1.250    0.000    0.000    0.000    0.000 
#    0.000    0.000    0.000    0.000    0.000    0.000 
#
# Total GULP energy -396474.901417 kJ/mol
# GULP energy per Si atom -12389.840669 kJ/mol
# Density = 1.853470 g / cm^3
# Si number density = 18.576985 Si / 1000 Ang^3
#
#
#
# Elastic Constant Matrix: (Units=GPa)
#
#
# Indices 1 2 3 4 5 6 
#
# 1 141.2947 72.6721 83.1306 0.0000 1.3061 0.0000
# 2 72.6721 90.6048 47.6249 0.0000 3.5147 0.0000
# 3 83.1306 47.6249 132.8016 0.0000 -0.8588 0.0000
# 4 0.0000 0.0000 0.0000 19.0033 0.0000 -0.1214
# 5 1.3061 3.5147 -0.8588 0.0000 26.2671 0.0000
# 6 0.0000 0.0000 0.0000 -0.1214 0.0000 27.9803
#
#
#
# Elastic Compliance Matrix: (Units=1/GPa)
#
#
# Indices 1 2 3 4 5 6 
#
# 1 0.015560 -0.009082 -0.006482 0.000000 0.000230 0.000000
# 2 -0.009082 0.019006 -0.001144 0.000000 -0.002129 0.000000
# 3 -0.006482 -0.001144 0.012003 0.000000 0.000868 0.000000
# 4 0.000000 0.000000 0.000000 0.052624 0.000000 0.000228
# 5 0.000230 -0.002129 0.000868 0.000000 0.038372 0.000000
# 6 0.000000 0.000000 0.000000 0.000228 0.000000 0.035740
#
#
# Mechanical properties :
#
#
# Convention : Reuss Voigt Hill
#
# Bulk Modulus (GPa) = 76.03004 85.72849 80.87927
# Shear Modulus (GPa) = 23.68474 25.40171 24.54323
#
# Velocity S-wave (km/s) = 3.57452 3.70182 3.63872
# Velocity P-wave (km/s) = 7.61919 8.03238 7.82851
#
# Compressibility (1/GPa) = 0.01315270
#
# Stress axis : x y z
#
# Youngs Moduli (GPa) = 64.26692 52.61581 83.31008
#
# Poissons Ratio (x) = 0.47787 0.53999
# Poissons Ratio (y) = 0.58369 0.09532
# Poissons Ratio (z) = 0.41656 0.06020
#
# Static dielectric constant tensor:
#      x y z
#    x 3.297310 0.000000 0.080480 
#    y 0.000000 0.829790 0.000000 
#    z 0.080480 0.000000 3.680860 
# 
# 
# High freq. dielectric constant tensor:
#      x y z
#    x 1.705950 0.000000 0.005490 
#    y 0.000000 1.717800 0.000000 
#    z 0.005490 0.000000 1.730670 
# 
# From -- ./inp_files/70035.got.cif
#   From: 2010.06.25/outbox.cif.g09.slc.cpg/sg11_36_cif.got.tgz:70035.got - 2010.06.27 23:14:04.
