data_PCOD8073529
_publ_section_title
;
Structure prediction by ZEFSAII (Michael W. Deem and Ramdas Pophale) SiO2 
 PCOD8073529
Probable space group: P 21/M
;
_chemical_formula_sum "Si O2"
_cell_formula_units_Z 32
_cell_length_a 26.380616
_cell_length_b 9.087429
_cell_length_c 21.065491
_cell_angle_alpha 90.000000
_cell_angle_beta 19.824762
_cell_angle_gamma 90.000000
_cell_volume 1712.704147
_symmetry_space_group_name_H-M "P 21/M"
_symmetry_group_IT_number 11
_symmetry_cell_setting 'monoclinic'
loop_
_space_group_symop_operation_xyz
x,y,z
-x,1/2+y,-z
-x,-y,-z
x,1/2-y,z
loop_
_atom_site_type_symbol
_atom_site_label
_atom_site_fract_x
_atom_site_fract_y
_atom_site_fract_z
Si Si1 0.933780 0.923783 0.876302
Si Si2 0.048415 0.080501 0.505722
Si Si3 0.137685 0.915930 0.915425
Si Si4 0.615964 0.919810 0.907274
Si Si5 0.173212 0.575160 0.124294
Si Si6 0.263433 0.918817 0.526546
Si Si7 0.206826 0.414965 0.715491
Si Si8 0.425858 0.078963 0.900768
O O1 0.907767 0.750000 0.903102
O O2 0.109782 0.964653 0.672633
O O3 0.862536 0.001208 0.900008
O O4 0.846755 0.986829 0.039751
O O5 0.014534 0.250000 0.533464
O O6 0.222474 0.051304 0.313642
O O7 0.955363 0.022951 0.675401
O O8 0.000000 0.000000 0.500000
O O9 0.195639 0.750000 0.859515
O O10 0.237912 0.990937 0.742439
O O11 0.967827 0.912551 0.093149
O O12 0.572005 0.750000 0.960053
O O13 0.609552 0.979924 0.986865
O O14 0.500000 0.000000 0.000000
O O15 0.178306 0.750000 0.110173
O O16 0.332250 0.517233 0.961450
O O17 0.252878 0.750000 0.560926
O O18 0.398640 0.946082 0.318741
O O19 0.293377 0.013150 0.554431
O O20 0.267910 0.250000 0.653654
O O21 0.380934 0.250000 0.946140
#
# Coordination Sequence:
#
# PCOD8073529 Si02
#       8
#     4   4   4   4   4   4   4   4
#     4  10  20  34  54  80 109 143 181 223 269 319
#     4  10  21  38  58  80 106 139 181 225 268 320
#     4   9  16  28  48  75 109 142 177 223 266 311
#     4  10  22  38  57  82 110 140 177 223 273 323
#     4  11  23  37  55  80 108 142 182 224 271 323
#     4   9  19  34  53  79 108 141 182 224 268 319
#     4   9  16  27  47  76 108 143 178 217 267 319
#     4  10  21  39  58  77 107 145 183 222 268 324
#
# _framework density 18.683903999999998
#
# number of rings (size 3 to 8) (size 9 to 14) (size 15 to 20)
#    0.000    2.250    1.250    1.500    1.750    5.500 
#    0.000    0.000    0.000    0.750    0.000    0.000 
#    0.000    0.000    0.000    0.000    0.000    0.000 
#
# Total GULP energy -396863.621570 kJ/mol
# GULP energy per Si atom -12401.988174 kJ/mol
# Density = 1.864138 g / cm^3
# Si number density = 18.683904 Si / 1000 Ang^3
#
#
#
# Elastic Constant Matrix: (Units=GPa)
#
#
# Indices 1 2 3 4 5 6 
#
# 1 128.5628 52.9529 28.8994 0.0000 4.4995 0.0000
# 2 52.9529 87.1202 20.8386 0.0000 0.1783 0.0000
# 3 28.8994 20.8386 39.9934 0.0000 0.8297 0.0000
# 4 0.0000 0.0000 0.0000 24.5480 0.0000 2.5694
# 5 4.4995 0.1783 0.8297 0.0000 23.7743 0.0000
# 6 0.0000 0.0000 0.0000 2.5694 0.0000 37.8331
#
#
#
# Elastic Compliance Matrix: (Units=1/GPa)
#
#
# Indices 1 2 3 4 5 6 
#
# 1 0.011342 -0.005642 -0.005216 0.000000 -0.001922 0.000000
# 2 -0.005642 0.015920 -0.004241 0.000000 0.001096 0.000000
# 3 -0.005216 -0.004241 0.030984 0.000000 -0.000062 0.000000
# 4 0.000000 0.000000 0.000000 0.041028 0.000000 -0.002786
# 5 -0.001922 0.001096 -0.000062 0.000000 0.042420 0.000000
# 6 0.000000 0.000000 0.000000 -0.002786 0.000000 0.026621
#
#
# Mechanical properties :
#
#
# Convention : Reuss Voigt Hill
#
# Bulk Modulus (GPa) = 35.65299 51.22871 43.44085
# Shear Modulus (GPa) = 24.05431 27.43010 25.74220
#
# Velocity S-wave (km/s) = 3.59198 3.83575 3.71587
# Velocity P-wave (km/s) = 6.02716 6.86262 6.45841
#
# Compressibility (1/GPa) = 0.02804814
#
# Stress axis : x y z
#
# Youngs Moduli (GPa) = 88.16758 62.81424 32.27452
#
# Poissons Ratio (x) = 0.35442 0.16834
# Poissons Ratio (y) = 0.49747 0.13687
# Poissons Ratio (z) = 0.45988 0.26638
#
# Static dielectric constant tensor:
#      x y z
#    x 3.327240 0.000000 0.271810 
#    y 0.000000 3.523360 0.000000 
#    z 0.271810 0.000000 3.488570 
# 
# 
# High freq. dielectric constant tensor:
#      x y z
#    x 1.719190 0.000000 0.019340 
#    y 0.000000 1.731320 0.000000 
#    z 0.019340 0.000000 1.711250 
# 
# From -- ./inp_files/67040.got.cif
#   From: 2010.06.25/outbox.cif.g09.slc.cpg/sg11_34_cif.got.tgz:67040.got - 2010.06.27 23:14:04.
