data_PCOD8073523
_publ_section_title
;
Structure prediction by ZEFSAII (Michael W. Deem and Ramdas Pophale) SiO2 
 PCOD8073523
Probable space group: P 21/M
;
_chemical_formula_sum "Si O2"
_cell_formula_units_Z 32
_cell_length_a 15.921991
_cell_length_b 8.921883
_cell_length_c 25.554162
_cell_angle_alpha 90.000000
_cell_angle_beta 151.329462
_cell_angle_gamma 90.000000
_cell_volume 1741.609560
_symmetry_space_group_name_H-M "P 21/M"
_symmetry_group_IT_number 11
_symmetry_cell_setting 'monoclinic'
loop_
_space_group_symop_operation_xyz
x,y,z
-x,1/2+y,-z
-x,-y,-z
x,1/2-y,z
loop_
_atom_site_type_symbol
_atom_site_label
_atom_site_fract_x
_atom_site_fract_y
_atom_site_fract_z
Si Si1 0.922688 0.424622 0.814653
Si Si2 0.465691 0.423778 0.220854
Si Si3 0.209328 0.423674 0.471434
Si Si4 0.037746 0.920546 0.282110
Si Si5 0.134323 0.923390 0.534829
Si Si6 0.719296 0.427166 0.975845
Si Si7 0.357972 0.076342 0.958474
Si Si8 0.601138 0.423993 0.711181
O O1 0.971189 0.250000 0.847215
O O2 0.892647 0.463344 0.737435
O O3 0.748363 0.469652 0.750079
O O4 0.082531 0.519003 0.925569
O O5 0.421865 0.250000 0.187372
O O6 0.671737 0.453739 0.338010
O O7 0.399020 0.523455 0.137047
O O8 0.369715 0.477204 0.221234
O O9 0.174543 0.250000 0.461980
O O10 0.130664 0.469402 0.372999
O O11 0.111360 0.511023 0.464193
O O12 0.415241 0.461427 0.583222
O O13 0.087321 0.750000 0.323233
O O14 0.829800 0.944630 0.171322
O O15 0.088752 0.750000 0.506986
O O16 0.000000 0.000000 0.500000
O O17 0.715262 0.250000 0.979395
O O18 0.637231 0.499485 0.982589
O O19 0.403752 0.250000 0.991206
O O20 0.500000 0.000000 0.000000
O O21 0.614115 0.250000 0.734018
#
# Coordination Sequence:
#
# PCOD8073523 Si02
#       8
#     4   4   4   4   4   4   4   4
#     4   9  19  37  57  77 107 143 178 220 266 313
#     4  10  21  37  56  79 107 140 177 218 266 318
#     4  10  20  34  54  80 109 140 176 218 262 312
#     4   9  19  35  54  77 107 142 176 214 263 313
#     4  10  21  37  57  79 105 138 176 218 263 313
#     4  11  22  36  56  81 108 140 178 220 266 316
#     4  10  21  38  58  80 108 141 178 221 266 314
#     4   9  19  36  56  79 107 140 178 220 266 313
#
# _framework density 18.373808
#
# number of rings (size 3 to 8) (size 9 to 14) (size 15 to 20)
#    0.000    2.250    0.000    3.375    0.000    7.000 
#    0.000    0.000    0.000    0.000    0.000    0.000 
#    0.000    0.000    0.000    0.000    0.000    0.000 
#
# Total GULP energy -396935.317370 kJ/mol
# GULP energy per Si atom -12404.228668 kJ/mol
# Density = 1.833199 g / cm^3
# Si number density = 18.373808 Si / 1000 Ang^3
#
#
#
# Elastic Constant Matrix: (Units=GPa)
#
#
# Indices 1 2 3 4 5 6 
#
# 1 146.4246 68.8769 62.9635 0.0000 12.9992 0.0000
# 2 68.8769 117.8223 56.0756 0.0000 -2.8971 0.0000
# 3 62.9635 56.0756 81.6186 0.0000 -13.5727 0.0000
# 4 0.0000 0.0000 0.0000 33.9337 0.0000 -3.7152
# 5 12.9992 -2.8971 -13.5727 0.0000 29.4406 0.0000
# 6 0.0000 0.0000 0.0000 -3.7152 0.0000 36.0265
#
#
#
# Elastic Compliance Matrix: (Units=1/GPa)
#
#
# Indices 1 2 3 4 5 6 
#
# 1 0.013810 -0.003563 -0.010048 0.000000 -0.011081 0.000000
# 2 -0.003563 0.013777 -0.006747 0.000000 -0.000181 0.000000
# 3 -0.010048 -0.006747 0.027364 0.000000 0.016388 0.000000
# 4 0.000000 0.000000 0.000000 0.029806 0.000000 0.003074
# 5 -0.011081 -0.000181 0.016388 0.000000 0.046397 0.000000
# 6 0.000000 0.000000 0.000000 0.003074 0.000000 0.028074
#
#
# Mechanical properties :
#
#
# Convention : Reuss Voigt Hill
#
# Bulk Modulus (GPa) = 70.24956 80.18862 75.21909
# Shear Modulus (GPa) = 24.42735 30.41013 27.41874
#
# Velocity S-wave (km/s) = 3.65014 4.07268 3.86719
# Velocity P-wave (km/s) = 7.48874 8.11500 7.80815
#
# Compressibility (1/GPa) = 0.01423496
#
# Stress axis : x y z
#
# Youngs Moduli (GPa) = 72.41087 72.58517 36.54442
#
# Poissons Ratio (x) = 0.25865 0.36720
# Poissons Ratio (y) = 0.25803 0.24655
# Poissons Ratio (z) = 0.72759 0.48970
#
# Static dielectric constant tensor:
#      x y z
#    x 3.404210 0.000000 0.000870 
#    y 0.000000 3.536910 0.000000 
#    z 0.000870 0.000000 3.311610 
# 
# 
# High freq. dielectric constant tensor:
#      x y z
#    x 1.719420 0.000000 -0.001550 
#    y 0.000000 1.721580 0.000000 
#    z -0.001550 0.000000 1.708680 
# 
# From -- ./inp_files/55591.got.cif
#   From: 2010.06.25/outbox.cif.g09.slc.cpg/sg11_28_cif.got.tgz:55591.got - 2010.06.27 23:14:04.
