data_PCOD8073951
_publ_section_title
;
Structure prediction by ZEFSAII (Michael W. Deem and Ramdas Pophale) SiO2 
 PCOD8073951
Probable space group: P 21/M
;
_chemical_formula_sum "Si O2"
_cell_formula_units_Z 32
_cell_length_a 14.668048
_cell_length_b 8.473141
_cell_length_c 28.474493
_cell_angle_alpha 90.000000
_cell_angle_beta 28.622255
_cell_angle_gamma 90.000000
_cell_volume 1695.266785
_symmetry_space_group_name_H-M "P 21/M"
_symmetry_group_IT_number 11
_symmetry_cell_setting 'monoclinic'
loop_
_space_group_symop_operation_xyz
x,y,z
-x,1/2+y,-z
-x,-y,-z
x,1/2-y,z
loop_
_atom_site_type_symbol
_atom_site_label
_atom_site_fract_x
_atom_site_fract_y
_atom_site_fract_z
Si Si1 0.941160 0.566903 0.809848
Si Si2 0.717720 0.936303 0.293354
Si Si3 0.973174 0.062958 0.695638
Si Si4 0.267533 0.062406 0.909214
Si Si5 0.394025 0.933100 0.185102
Si Si6 0.592455 0.936696 0.506083
Si Si7 0.585735 0.066418 0.008691
Si Si8 0.110110 0.436862 0.882361
O O1 0.901323 0.750000 0.836383
O O2 0.896305 0.525356 0.776386
O O3 0.156944 0.520923 0.723503
O O4 0.812167 0.463575 0.903574
O O5 0.739485 0.750000 0.287697
O O6 0.778145 0.997433 0.214358
O O7 0.505024 0.989180 0.403349
O O8 0.959870 0.250000 0.710519
O O9 0.826986 0.009082 0.719673
O O10 0.187865 0.010449 0.587768
O O11 0.264558 0.250000 0.912174
O O12 0.474484 0.993636 0.832478
O O13 0.227157 0.000384 0.874823
O O14 0.104361 0.002541 0.018784
O O15 0.387540 0.750000 0.198018
O O16 0.501233 0.964625 0.088456
O O17 0.572075 0.750000 0.515585
O O18 0.500000 0.000000 0.500000
O O19 0.540222 0.250000 0.036543
O O20 0.500000 0.000000 0.000000
O O21 0.098751 0.250000 0.887509
#
# Coordination Sequence:
#
# PCOD8073951 Si02
#       8
#     4   4   4   4   4   4   4   4
#     4  12  23  34  51  75 104 141 180 220 265 319
#     4  11  22  36  55  78 108 143 179 225 275 325
#     4  10  21  36  53  73 103 140 177 220 268 320
#     4   9  18  34  57  83 109 138 177 221 267 325
#     4  10  20  35  55  77 104 140 180 221 269 323
#     4  11  22  36  55  78 106 140 183 228 276 327
#     4  12  23  34  48  71 106 143 179 216 257 314
#     4   9  19  35  55  81 110 141 176 219 272 323
#
# _framework density 18.876083999999999
#
# number of rings (size 3 to 8) (size 9 to 14) (size 15 to 20)
#    0.000    1.500    2.500    3.750    0.000    4.000 
#    0.000    0.000    0.000    0.750    0.000    0.000 
#    0.000    0.000    0.000    0.000    0.000    0.250 
#
# Total GULP energy -396673.003136 kJ/mol
# GULP energy per Si atom -12396.031348 kJ/mol
# Density = 1.883312 g / cm^3
# Si number density = 18.876084 Si / 1000 Ang^3
#
#
#
# Elastic Constant Matrix: (Units=GPa)
#
#
# Indices 1 2 3 4 5 6 
#
# 1 123.5239 17.7181 55.5537 0.0000 -23.2695 0.0000
# 2 17.7181 30.4702 14.9441 0.0000 -2.6191 0.0000
# 3 55.5537 14.9441 110.6868 0.0000 -14.4449 0.0000
# 4 0.0000 0.0000 0.0000 27.7914 0.0000 -1.1505
# 5 -23.2695 -2.6191 -14.4449 0.0000 32.8933 0.0000
# 6 0.0000 0.0000 0.0000 -1.1505 0.0000 17.6235
#
#
#
# Elastic Compliance Matrix: (Units=1/GPa)
#
#
# Indices 1 2 3 4 5 6 
#
# 1 0.011914 -0.004136 -0.004629 0.000000 0.006066 0.000000
# 2 -0.004136 0.036600 -0.003042 0.000000 -0.001347 0.000000
# 3 -0.004629 -0.003042 0.011997 0.000000 0.001751 0.000000
# 4 0.000000 0.000000 0.000000 0.036080 0.000000 0.002355
# 5 0.006066 -0.001347 0.001751 0.000000 0.035354 0.000000
# 6 0.000000 0.000000 0.000000 0.002355 0.000000 0.056896
#
#
# Mechanical properties :
#
#
# Convention : Reuss Voigt Hill
#
# Bulk Modulus (GPa) = 27.10241 49.01255 38.05748
# Shear Modulus (GPa) = 22.24663 27.42596 24.83629
#
# Velocity S-wave (km/s) = 3.43674 3.81589 3.63127
# Velocity P-wave (km/s) = 5.48976 6.74066 6.14711
#
# Compressibility (1/GPa) = 0.03689709
#
# Stress axis : x y z
#
# Youngs Moduli (GPa) = 83.93828 27.32260 83.35258
#
# Poissons Ratio (x) = 0.11300 0.38588
# Poissons Ratio (y) = 0.34714 0.25352
# Poissons Ratio (z) = 0.38859 0.08310
#
# Static dielectric constant tensor:
#      x y z
#    x 3.829370 0.000000 -0.200760 
#    y 0.000000 3.352170 0.000000 
#    z -0.200760 0.000000 3.658800 
# 
# 
# High freq. dielectric constant tensor:
#      x y z
#    x 1.728800 0.000000 -0.019410 
#    y 0.000000 1.727820 0.000000 
#    z -0.019410 0.000000 1.721580 
# 
# From -- ./inp_files/71618.got.cif
#   From: 2010.06.25/outbox.cif.g09.slc.cpg/sg11_36_cif.got.tgz:71618.got - 2010.06.27 23:14:04.
