data_PCOD8073940
_publ_section_title
;
Structure prediction by ZEFSAII (Michael W. Deem and Ramdas Pophale) SiO2 
 PCOD8073940
Probable space group: P 21/M
;
_chemical_formula_sum "Si O2"
_cell_formula_units_Z 28
_cell_length_a 12.038793
_cell_length_b 15.026789
_cell_length_c 7.969909
_cell_angle_alpha 90.000000
_cell_angle_beta 89.787022
_cell_angle_gamma 90.000000
_cell_volume 1441.781663
_symmetry_space_group_name_H-M "P 21/M"
_symmetry_group_IT_number 11
_symmetry_cell_setting 'monoclinic'
loop_
_space_group_symop_operation_xyz
x,y,z
-x,1/2+y,-z
-x,-y,-z
x,1/2-y,z
loop_
_atom_site_type_symbol
_atom_site_label
_atom_site_fract_x
_atom_site_fract_y
_atom_site_fract_z
Si Si1 0.933620 0.647013 0.537757
Si Si2 0.373646 0.854466 0.109330
Si Si3 0.281310 0.409743 0.301904
Si Si4 0.528574 0.351482 0.230947
Si Si5 0.174457 0.970878 0.054684
Si Si6 0.396189 0.940850 0.458310
Si Si7 0.954801 0.993391 0.259301
O O1 0.976092 0.750000 0.514561
O O2 0.812492 0.655432 0.625582
O O3 0.919204 0.592927 0.365925
O O4 0.019344 0.586023 0.643721
O O5 0.380957 0.750000 0.120048
O O6 0.443619 0.895548 0.950658
O O7 0.245498 0.881776 0.083305
O O8 0.422948 0.889770 0.284744
O O9 0.289103 0.495987 0.427122
O O10 0.244404 0.443841 0.118727
O O11 0.553526 0.250000 0.202755
O O12 0.616117 0.379572 0.377028
O O13 0.400862 0.364191 0.285407
O O14 0.148759 0.985174 0.859666
O O15 0.061643 0.960236 0.158179
O O16 0.500000 0.000000 0.500000
#
# Coordination Sequence:
#
# PCOD8073940 Si02
#       7
#     4   4   4   4   4   4   4
#     4  10  20  36  58  83 112 145 183 231 284 340
#     4  10  21  35  55  84 115 148 190 234 281 341
#     4   9  19  35  55  80 108 145 185 229 276 336
#     4  10  20  35  54  81 117 150 185 234 281 330
#     4   9  19  37  58  78 107 145 183 232 280 334
#     4   9  19  34  54  77 106 153 190 227 278 331
#     4   9  20  38  58  82 110 143 187 233 284 337
#
# _framework density 19.420415999999999
#
# number of rings (size 3 to 8) (size 9 to 14) (size 15 to 20)
#    0.000    2.571    0.000    0.857    2.000    6.286 
#    2.571    6.429    0.000    0.000    0.000    0.000 
#    0.000    0.000    0.000    0.000    0.000    0.000 
#
# Total GULP energy -346898.877424 kJ/mol
# GULP energy per Si atom -12389.245622 kJ/mol
# Density = 1.937621 g / cm^3
# Si number density = 19.420416 Si / 1000 Ang^3
#
#
#
# Elastic Constant Matrix: (Units=GPa)
#
#
# Indices 1 2 3 4 5 6 
#
# 1 57.7376 27.8603 29.7338 0.0000 20.2502 0.0000
# 2 27.8603 106.6168 55.8503 0.0000 8.1033 0.0000
# 3 29.7338 55.8503 137.3512 0.0000 29.0664 0.0000
# 4 0.0000 0.0000 0.0000 23.9138 0.0000 -1.8912
# 5 20.2502 8.1033 29.0664 0.0000 31.8883 0.0000
# 6 0.0000 0.0000 0.0000 -1.8912 0.0000 20.2972
#
#
#
# Elastic Compliance Matrix: (Units=1/GPa)
#
#
# Indices 1 2 3 4 5 6 
#
# 1 0.025039 -0.005342 -0.000212 0.000000 -0.014351 0.000000
# 2 -0.005342 0.013134 -0.005199 0.000000 0.004793 0.000000
# 3 -0.000212 -0.005199 0.011315 0.000000 -0.008858 0.000000
# 4 0.000000 0.000000 0.000000 0.042127 0.000000 0.003925
# 5 -0.014351 0.004793 -0.008858 0.000000 0.047329 0.000000
# 6 0.000000 0.000000 0.000000 0.003925 0.000000 0.049633
#
#
# Mechanical properties :
#
#
# Convention : Reuss Voigt Hill
#
# Bulk Modulus (GPa) = 35.73363 58.73270 47.23316
# Shear Modulus (GPa) = 22.78837 27.77061 25.27949
#
# Velocity S-wave (km/s) = 3.42924 3.78560 3.61182
# Velocity P-wave (km/s) = 5.84120 7.02966 6.46280
#
# Compressibility (1/GPa) = 0.02798484
#
# Stress axis : x y z
#
# Youngs Moduli (GPa) = 39.93704 76.13726 88.37914
#
# Poissons Ratio (x) = 0.40669 0.01870
# Poissons Ratio (y) = 0.21333 0.45945
# Poissons Ratio (z) = 0.00845 0.39581
#
# Static dielectric constant tensor:
#      x y z
#    x 3.738920 0.000000 1.679200 
#    y 0.000000 3.508670 0.000000 
#    z 1.679200 0.000000 13.673510 
# 
# 
# High freq. dielectric constant tensor:
#      x y z
#    x 1.748140 0.000000 0.009740 
#    y 0.000000 1.746110 0.000000 
#    z 0.009740 0.000000 1.766410 
# 
# From -- ./inp_files/21722.got.cif
#   From: 2010.06.25/outbox.cif.g09.slc.cpg/sg11_11_cif.got.tgz:21722.got - 2010.06.27 23:14:04.
