data_PCOD8073289
_publ_section_title
;
Structure prediction by ZEFSAII (Michael W. Deem and Ramdas Pophale) SiO2 
 PCOD8073289
Probable space group: P 21/M
;
_chemical_formula_sum "Si O2"
_cell_formula_units_Z 32
_cell_length_a 15.561377
_cell_length_b 8.827136
_cell_length_c 14.479722
_cell_angle_alpha 90.000000
_cell_angle_beta 62.469405
_cell_angle_gamma 90.000000
_cell_volume 1763.746596
_symmetry_space_group_name_H-M "P 21/M"
_symmetry_group_IT_number 11
_symmetry_cell_setting 'monoclinic'
loop_
_space_group_symop_operation_xyz
x,y,z
-x,1/2+y,-z
-x,-y,-z
x,1/2-y,z
loop_
_atom_site_type_symbol
_atom_site_label
_atom_site_fract_x
_atom_site_fract_y
_atom_site_fract_z
Si Si1 0.734804 0.074829 0.848481
Si Si2 0.351119 0.573794 0.915548
Si Si3 0.353054 0.071503 0.726725
Si Si4 0.570943 0.577751 0.816174
Si Si5 0.893251 0.572167 0.652497
Si Si6 0.112768 0.572081 0.534964
Si Si7 0.277935 0.928457 0.591469
Si Si8 0.439713 0.075533 0.390570
O O1 0.754893 0.250000 0.821501
O O2 0.638919 0.031862 0.840173
O O3 0.828825 0.983492 0.769658
O O4 0.719503 0.039418 0.964132
O O5 0.350932 0.750000 0.886816
O O6 0.314514 0.475416 0.847097
O O7 0.460408 0.526864 0.888939
O O8 0.369394 0.250000 0.714213
O O9 0.274455 0.017805 0.690201
O O10 0.451685 0.984442 0.654173
O O11 0.588004 0.750000 0.840606
O O12 0.597358 0.560486 0.695592
O O13 0.884036 0.750000 0.650111
O O14 0.852766 0.504897 0.577039
O O15 0.003899 0.520196 0.614777
O O16 0.119174 0.750000 0.515464
O O17 0.182896 0.519654 0.582322
O O18 0.278060 0.750000 0.609861
O O19 0.373354 0.973047 0.487791
O O20 0.436623 0.250000 0.425173
#
# Coordination Sequence:
#
# PCOD8073289 Si02
#       8
#     4   4   4   4   4   4   4   4
#     4  11  21  32  51  77 104 135 170 207 250 302
#     4   9  20  37  52  70 100 137 174 211 251 293
#     4  11  22  35  52  74 100 133 172 212 254 297
#     4   9  18  32  50  73 103 137 171 209 249 291
#     4  10  20  35  55  79 107 134 163 204 250 298
#     4   9  20  37  56  78 103 134 168 202 248 302
#     4  11  21  34  53  75 101 133 170 210 251 299
#     4  10  20  34  50  73 106 139 171 206 247 296
#
# _framework density 18.143194999999999
#
# number of rings (size 3 to 8) (size 9 to 14) (size 15 to 20)
#    0.000    2.000    0.000    4.875    0.000    7.000 
#    0.000    0.000    0.000    0.750    0.000    0.000 
#    0.000    0.000    0.000    0.000    0.000    0.000 
#
# Total GULP energy -396919.551339 kJ/mol
# GULP energy per Si atom -12403.735979 kJ/mol
# Density = 1.810190 g / cm^3
# Si number density = 18.143195 Si / 1000 Ang^3
#
#
#
# Elastic Constant Matrix: (Units=GPa)
#
#
# Indices 1 2 3 4 5 6 
#
# 1 92.0724 31.8655 47.0538 0.0000 15.3780 0.0000
# 2 31.8655 48.1960 25.4658 0.0000 9.4046 0.0000
# 3 47.0538 25.4658 97.6782 0.0000 2.6848 0.0000
# 4 0.0000 0.0000 0.0000 31.1722 0.0000 2.3304
# 5 15.3780 9.4046 2.6848 0.0000 20.8542 0.0000
# 6 0.0000 0.0000 0.0000 2.3304 0.0000 26.5475
#
#
#
# Elastic Compliance Matrix: (Units=1/GPa)
#
#
# Indices 1 2 3 4 5 6 
#
# 1 0.018212 -0.006580 -0.006794 0.000000 -0.009587 0.000000
# 2 -0.006580 0.028756 -0.004118 0.000000 -0.007585 0.000000
# 3 -0.006794 -0.004118 0.014447 0.000000 0.005007 0.000000
# 4 0.000000 0.000000 0.000000 0.032292 0.000000 -0.002835
# 5 -0.009587 -0.007585 0.005007 0.000000 0.057798 0.000000
# 6 0.000000 0.000000 0.000000 -0.002835 0.000000 0.037917
#
#
# Mechanical properties :
#
#
# Convention : Reuss Voigt Hill
#
# Bulk Modulus (GPa) = 37.83823 49.63520 43.73672
# Shear Modulus (GPa) = 21.43941 24.61890 23.02916
#
# Velocity S-wave (km/s) = 3.44128 3.68764 3.56659
# Velocity P-wave (km/s) = 6.05727 6.74896 6.41245
#
# Compressibility (1/GPa) = 0.02642829
#
# Stress axis : x y z
#
# Youngs Moduli (GPa) = 54.90964 34.77587 69.22055
#
# Poissons Ratio (x) = 0.22884 0.47028
# Poissons Ratio (y) = 0.36133 0.28508
# Poissons Ratio (z) = 0.37305 0.14322
#
# Static dielectric constant tensor:
#      x y z
#    x 3.356780 0.000000 0.097340 
#    y 0.000000 3.344770 0.000000 
#    z 0.097340 0.000000 3.412150 
# 
# 
# High freq. dielectric constant tensor:
#      x y z
#    x 1.686860 0.000000 0.010490 
#    y 0.000000 1.710550 0.000000 
#    z 0.010490 0.000000 1.697790 
# 
# From -- ./inp_files/51697.got.cif
#   From: 2010.06.25/outbox.cif.g09.slc.cpg/sg11_26_cif.got.tgz:51697.got - 2010.06.27 23:14:04.
