data_PCOD8073336
_publ_section_title
;
Structure prediction by ZEFSAII (Michael W. Deem and Ramdas Pophale) SiO2 
 PCOD8073336
Probable space group: P 21/M
;
_chemical_formula_sum "Si O2"
_cell_formula_units_Z 28
_cell_length_a 14.799920
_cell_length_b 9.201572
_cell_length_c 11.902981
_cell_angle_alpha 90.000000
_cell_angle_beta 108.000981
_cell_angle_gamma 90.000000
_cell_volume 1541.633171
_symmetry_space_group_name_H-M "P 21/M"
_symmetry_group_IT_number 11
_symmetry_cell_setting 'monoclinic'
loop_
_space_group_symop_operation_xyz
x,y,z
-x,1/2+y,-z
-x,-y,-z
x,1/2-y,z
loop_
_atom_site_type_symbol
_atom_site_label
_atom_site_fract_x
_atom_site_fract_y
_atom_site_fract_z
Si Si1 0.740708 0.583624 0.674081
Si Si2 0.329824 0.078762 0.109930
Si Si3 0.543612 0.078776 0.212633
Si Si4 0.286351 0.922609 0.874024
Si Si5 0.412163 0.921808 0.521941
Si Si6 0.877760 0.420496 0.355382
Si Si7 0.909284 0.915816 0.587328
O O1 0.705930 0.750000 0.643302
O O2 0.726237 0.539004 0.797709
O O3 0.683307 0.477285 0.571426
O O4 0.850964 0.564896 0.681047
O O5 0.329116 0.250000 0.086700
O O6 0.437380 0.015064 0.158064
O O7 0.274296 0.998176 0.989415
O O8 0.534964 0.250000 0.205193
O O9 0.613845 0.023674 0.141753
O O10 0.589457 0.032337 0.348395
O O11 0.283821 0.750000 0.888133
O O12 0.199942 0.977292 0.762878
O O13 0.422018 0.750000 0.509678
O O14 0.500000 0.000000 0.500000
O O15 0.865220 0.250000 0.367853
O O16 0.860539 0.491791 0.469940
O O17 0.982055 0.464142 0.348808
O O18 0.907174 0.750000 0.545349
#
# Coordination Sequence:
#
# PCOD8073336 Si02
#       7
#     4   4   4   4   4   4   4
#     4  10  20  35  52  74 105 138 171 208 255 306
#     4  10  20  35  50  67 100 138 172 211 253 297
#     4   9  18  33  51  71  99 134 167 206 253 298
#     4  10  20  34  52  73  98 131 173 213 252 298
#     4  11  20  33  53  77 106 136 168 207 255 305
#     4   9  18  34  54  78 106 131 162 213 265 303
#     4   9  18  33  56  80 102 132 168 206 255 315
#
# _framework density 18.162557
#
# number of rings (size 3 to 8) (size 9 to 14) (size 15 to 20)
#    0.000    2.286    1.429    1.714    0.000    2.857 
#    0.000    2.143    0.000    0.000    0.000    0.000 
#    0.000    0.000    0.000    0.000    0.000    0.000 
#
# Total GULP energy -347190.017324 kJ/mol
# GULP energy per Si atom -12399.643476 kJ/mol
# Density = 1.812122 g / cm^3
# Si number density = 18.162557 Si / 1000 Ang^3
#
#
#
# Elastic Constant Matrix: (Units=GPa)
#
#
# Indices 1 2 3 4 5 6 
#
# 1 115.6843 25.5240 64.8942 0.0000 -7.7240 0.0000
# 2 25.5240 38.7970 36.7410 0.0000 -1.2812 0.0000
# 3 64.8942 36.7410 134.3206 0.0000 -5.2081 0.0000
# 4 0.0000 0.0000 0.0000 32.1979 0.0000 0.3437
# 5 -7.7240 -1.2812 -5.2081 0.0000 26.0402 0.0000
# 6 0.0000 0.0000 0.0000 0.3437 0.0000 19.6856
#
#
#
# Elastic Compliance Matrix: (Units=1/GPa)
#
#
# Indices 1 2 3 4 5 6 
#
# 1 0.012321 -0.003344 -0.004941 0.000000 0.002502 0.000000
# 2 -0.003344 0.035695 -0.008182 0.000000 -0.000872 0.000000
# 3 -0.004941 -0.008182 0.012091 0.000000 0.000550 0.000000
# 4 0.000000 0.000000 0.000000 0.031064 0.000000 -0.000542
# 5 0.002502 -0.000872 0.000550 0.000000 0.039211 0.000000
# 6 0.000000 0.000000 0.000000 -0.000542 0.000000 0.050808
#
#
# Mechanical properties :
#
#
# Convention : Reuss Voigt Hill
#
# Bulk Modulus (GPa) = 36.80094 60.34669 48.57381
# Shear Modulus (GPa) = 22.40340 26.36094 24.38217
#
# Velocity S-wave (km/s) = 3.51592 3.81384 3.66791
# Velocity P-wave (km/s) = 6.06533 7.25892 6.68880
#
# Compressibility (1/GPa) = 0.02717322
#
# Stress axis : x y z
#
# Youngs Moduli (GPa) = 81.16468 28.01546 82.70464
#
# Poissons Ratio (x) = 0.09368 0.40862
# Poissons Ratio (y) = 0.27142 0.67668
# Poissons Ratio (z) = 0.40101 0.22922
#
# Static dielectric constant tensor:
#      x y z
#    x 3.630010 0.000000 0.008140 
#    y 0.000000 3.297080 0.000000 
#    z 0.008140 0.000000 2.986320 
# 
# 
# High freq. dielectric constant tensor:
#      x y z
#    x 1.710390 0.000000 -0.005850 
#    y 0.000000 1.686280 0.000000 
#    z -0.005850 0.000000 1.696320 
# 
# From -- ./inp_files/37382.got.cif
#   From: 2010.06.25/outbox.cif.g09.slc.cpg/sg11_19_cif.got.tgz:37382.got - 2010.06.27 23:14:04.
