data_PCOD8073466
_publ_section_title
;
Structure prediction by ZEFSAII (Michael W. Deem and Ramdas Pophale) SiO2 
 PCOD8073466
Probable space group: P 21/M
;
_chemical_formula_sum "Si O2"
_cell_formula_units_Z 28
_cell_length_a 23.436016
_cell_length_b 8.875250
_cell_length_c 15.919921
_cell_angle_alpha 90.000000
_cell_angle_beta 155.173101
_cell_angle_gamma 90.000000
_cell_volume 1390.364379
_symmetry_space_group_name_H-M "P 21/M"
_symmetry_group_IT_number 11
_symmetry_cell_setting 'monoclinic'
loop_
_space_group_symop_operation_xyz
x,y,z
-x,1/2+y,-z
-x,-y,-z
x,1/2-y,z
loop_
_atom_site_type_symbol
_atom_site_label
_atom_site_fract_x
_atom_site_fract_y
_atom_site_fract_z
Si Si1 0.862872 0.073169 0.486173
Si Si2 0.399755 0.071536 0.933241
Si Si3 0.585543 0.073835 0.872134
Si Si4 0.843051 0.074127 0.932867
Si Si5 0.120839 0.925710 0.299894
Si Si6 0.344837 0.572443 0.466084
Si Si7 0.141122 0.574813 0.856121
O O1 0.844381 0.250000 0.445408
O O2 0.841358 0.028274 0.554531
O O3 0.753256 0.984275 0.285157
O O4 0.011971 0.022868 0.654738
O O5 0.409252 0.250000 0.939170
O O6 0.500000 0.000000 0.000000
O O7 0.447785 0.020410 0.089239
O O8 0.566018 0.250000 0.863706
O O9 0.483428 0.019848 0.662875
O O10 0.737868 0.038117 0.045660
O O11 0.864200 0.250000 0.950755
O O12 0.717483 0.022673 0.706852
O O13 0.812620 0.027135 0.988142
O O14 0.981754 0.001938 0.084597
O O15 0.095575 0.750000 0.258960
O O16 0.242054 0.978678 0.402158
O O17 0.375035 0.750000 0.510470
O O18 0.100620 0.750000 0.800205
#
# Coordination Sequence:
#
# PCOD8073466 Si02
#       7
#     4   4   4   4   4   4   4
#     4  10  20  36  60  87 115 150 191 234 283 338
#     4  12  25  42  64  89 117 147 182 227 281 341
#     4  11  24  40  58  81 112 151 194 239 285 337
#     4   9  18  33  55  81 111 149 190 234 283 337
#     4   9  18  32  52  81 114 145 181 229 281 338
#     4  10  20  34  53  80 115 152 189 235 291 340
#     4   9  20  39  58  81 114 151 195 241 284 334
#
# _framework density 20.138607
#
# number of rings (size 3 to 8) (size 9 to 14) (size 15 to 20)
#    0.000    2.000    0.000    3.429    0.000    5.143 
#    0.000    0.000    0.000    0.000    0.000    0.000 
#    0.000    0.000    0.000    0.000    0.000    0.000 
#
# Total GULP energy -347321.397363 kJ/mol
# GULP energy per Si atom -12404.335620 kJ/mol
# Density = 2.009277 g / cm^3
# Si number density = 20.138607 Si / 1000 Ang^3
#
#
#
# Elastic Constant Matrix: (Units=GPa)
#
#
# Indices 1 2 3 4 5 6 
#
# 1 63.2920 29.4385 24.8275 0.0000 5.1455 0.0000
# 2 29.4385 84.7032 49.2534 0.0000 4.1649 0.0000
# 3 24.8275 49.2534 118.2422 0.0000 -4.1551 0.0000
# 4 0.0000 0.0000 0.0000 40.5558 0.0000 1.8502
# 5 5.1455 4.1649 -4.1551 0.0000 25.2923 0.0000
# 6 0.0000 0.0000 0.0000 1.8502 0.0000 26.1136
#
#
#
# Elastic Compliance Matrix: (Units=1/GPa)
#
#
# Indices 1 2 3 4 5 6 
#
# 1 0.019358 -0.005451 -0.001912 0.000000 -0.003355 0.000000
# 2 -0.005451 0.017457 -0.006225 0.000000 -0.002788 0.000000
# 3 -0.001912 -0.006225 0.011568 0.000000 0.003315 0.000000
# 4 0.000000 0.000000 0.000000 0.024737 0.000000 -0.001753
# 5 -0.003355 -0.002788 0.003315 0.000000 0.041224 0.000000
# 6 0.000000 0.000000 0.000000 -0.001753 0.000000 0.038418
#
#
# Mechanical properties :
#
#
# Convention : Reuss Voigt Hill
#
# Bulk Modulus (GPa) = 47.15399 52.58623 49.87011
# Shear Modulus (GPa) = 26.73672 29.24021 27.98846
#
# Velocity S-wave (km/s) = 3.64763 3.81458 3.73203
# Velocity P-wave (km/s) = 6.41917 6.75057 6.58696
#
# Compressibility (1/GPa) = 0.02120711
#
# Stress axis : x y z
#
# Youngs Moduli (GPa) = 51.65848 57.28216 86.44369
#
# Poissons Ratio (x) = 0.31225 0.16526
# Poissons Ratio (y) = 0.28160 0.53813
# Poissons Ratio (z) = 0.09876 0.35660
#
# Static dielectric constant tensor:
#      x y z
#    x 3.721070 0.000000 -0.112970 
#    y 0.000000 3.572620 0.000000 
#    z -0.112970 0.000000 3.775090 
# 
# 
# High freq. dielectric constant tensor:
#      x y z
#    x 1.782850 0.000000 -0.004010 
#    y 0.000000 1.782290 0.000000 
#    z -0.004010 0.000000 1.794860 
# 
# From -- ./inp_files/54604.got.cif
#   From: 2010.06.25/outbox.cif.g09.slc.cpg/sg11_28_cif.got.tgz:54604.got - 2010.06.27 23:14:04.
