data_PCOD8073545
_publ_section_title
;
Structure prediction by ZEFSAII (Michael W. Deem and Ramdas Pophale) SiO2 
 PCOD8073545
Probable space group: P 21/M
;
_chemical_formula_sum "Si O2"
_cell_formula_units_Z 32
_cell_length_a 15.888769
_cell_length_b 8.819117
_cell_length_c 25.645402
_cell_angle_alpha 90.000000
_cell_angle_beta 28.951276
_cell_angle_gamma 90.000000
_cell_volume 1739.518906
_symmetry_space_group_name_H-M "P 21/M"
_symmetry_group_IT_number 11
_symmetry_cell_setting 'monoclinic'
loop_
_space_group_symop_operation_xyz
x,y,z
-x,1/2+y,-z
-x,-y,-z
x,1/2-y,z
loop_
_atom_site_type_symbol
_atom_site_label
_atom_site_fract_x
_atom_site_fract_y
_atom_site_fract_z
Si Si1 0.775808 0.425789 0.582855
Si Si2 0.332677 0.925650 0.152854
Si Si3 0.906412 0.428911 0.099641
Si Si4 0.163956 0.425843 0.343421
Si Si5 0.394144 0.075372 0.602817
Si Si6 0.984621 0.929164 0.164017
Si Si7 0.454074 0.426115 0.686489
Si Si8 0.731369 0.925278 0.918672
O O1 0.763590 0.250000 0.605507
O O2 0.751145 0.525643 0.647857
O O3 0.626838 0.473839 0.623356
O O4 0.958610 0.460250 0.455862
O O5 0.292947 0.750000 0.163647
O O6 0.247756 0.974979 0.252787
O O7 0.249384 0.023310 0.151556
O O8 0.538208 0.955475 0.044487
O O9 0.924469 0.250000 0.088245
O O10 0.003817 0.490369 0.098013
O O11 0.704597 0.474418 0.206779
O O12 0.000000 0.500000 0.000000
O O13 0.203975 0.250000 0.311622
O O14 0.393711 0.250000 0.589789
O O15 0.195624 0.015661 0.711863
O O16 0.487052 0.041082 0.607597
O O17 0.500000 0.000000 0.500000
O O18 0.982175 0.750000 0.155819
O O19 0.143309 0.974010 0.114332
O O20 0.406470 0.250000 0.720830
O O21 0.784493 0.750000 0.893985
#
# Coordination Sequence:
#
# PCOD8073545 Si02
#       8
#     4   4   4   4   4   4   4   4
#     4   9  19  36  56  77 105 142 180 221 269 318
#     4  10  21  37  56  79 109 143 178 220 268 316
#     4  11  22  37  57  81 108 140 178 220 268 320
#     4  10  20  34  54  81 110 141 179 221 265 317
#     4   9  19  34  53  78 107 139 175 218 266 315
#     4  10  21  38  57  80 110 142 178 221 267 314
#     4   9  19  37  56  76 106 141 178 222 269 316
#     4  10  21  37  57  81 108 141 181 222 266 316
#
# _framework density 18.395890999999999
#
# number of rings (size 3 to 8) (size 9 to 14) (size 15 to 20)
#    0.000    2.250    0.000    3.375    0.000    7.000 
#    0.000    2.500    0.000    0.000    0.000    0.000 
#    0.000    0.000    0.000    0.000    0.000    0.000 
#
# Total GULP energy -396898.482149 kJ/mol
# GULP energy per Si atom -12403.077567 kJ/mol
# Density = 1.835402 g / cm^3
# Si number density = 18.395891 Si / 1000 Ang^3
#
#
#
# Elastic Constant Matrix: (Units=GPa)
#
#
# Indices 1 2 3 4 5 6 
#
# 1 123.2339 40.7922 60.6987 0.0000 -6.7525 0.0000
# 2 40.7922 79.6735 41.0009 0.0000 4.6619 0.0000
# 3 60.6987 41.0009 93.2775 0.0000 20.3477 0.0000
# 4 0.0000 0.0000 0.0000 33.4674 0.0000 3.1769
# 5 -6.7525 4.6619 20.3477 0.0000 30.3168 0.0000
# 6 0.0000 0.0000 0.0000 3.1769 0.0000 35.7099
#
#
#
# Elastic Compliance Matrix: (Units=1/GPa)
#
#
# Indices 1 2 3 4 5 6 
#
# 1 0.015066 -0.002671 -0.011073 0.000000 0.011198 0.000000
# 2 -0.002671 0.016882 -0.005842 0.000000 0.000730 0.000000
# 3 -0.011073 -0.005842 0.024410 0.000000 -0.017951 0.000000
# 4 0.000000 0.000000 0.000000 0.030134 0.000000 -0.002681
# 5 0.011198 0.000730 -0.017951 0.000000 0.047415 0.000000
# 6 0.000000 0.000000 0.000000 -0.002681 0.000000 0.028242
#
#
# Mechanical properties :
#
#
# Convention : Reuss Voigt Hill
#
# Bulk Modulus (GPa) = 58.18332 64.57428 61.37880
# Shear Modulus (GPa) = 24.14869 30.14503 27.14686
#
# Velocity S-wave (km/s) = 3.62708 4.05246 3.84565
# Velocity P-wave (km/s) = 7.01698 7.55482 7.29086
#
# Compressibility (1/GPa) = 0.01718706
#
# Stress axis : x y z
#
# Youngs Moduli (GPa) = 66.37348 59.23355 40.96677
#
# Poissons Ratio (x) = 0.15820 0.45362
# Poissons Ratio (y) = 0.17727 0.23933
# Poissons Ratio (z) = 0.73495 0.34605
#
# Static dielectric constant tensor:
#      x y z
#    x 3.539140 0.000000 -0.117140 
#    y 0.000000 3.297820 0.000000 
#    z -0.117140 0.000000 3.317370 
# 
# 
# High freq. dielectric constant tensor:
#      x y z
#    x 1.719010 0.000000 0.002190 
#    y 0.000000 1.720890 0.000000 
#    z 0.002190 0.000000 1.712360 
# 
# From -- ./inp_files/69058.got.cif
#   From: 2010.06.25/outbox.cif.g09.slc.cpg/sg11_35_cif.got.tgz:69058.got - 2010.06.27 23:14:04.
