data_PCOD8073178
_publ_section_title
;
Structure prediction by ZEFSAII (Michael W. Deem and Ramdas Pophale) SiO2 
 PCOD8073178
Probable space group: P 21/M
;
_chemical_formula_sum "Si O2"
_cell_formula_units_Z 32
_cell_length_a 19.728501
_cell_length_b 8.826709
_cell_length_c 14.151554
_cell_angle_alpha 90.000000
_cell_angle_beta 45.780675
_cell_angle_gamma 90.000000
_cell_volume 1766.117288
_symmetry_space_group_name_H-M "P 21/M"
_symmetry_group_IT_number 11
_symmetry_cell_setting 'monoclinic'
loop_
_space_group_symop_operation_xyz
x,y,z
-x,1/2+y,-z
-x,-y,-z
x,1/2-y,z
loop_
_atom_site_type_symbol
_atom_site_label
_atom_site_fract_x
_atom_site_fract_y
_atom_site_fract_z
Si Si1 0.992850 0.570760 0.109128
Si Si2 0.510354 0.927508 0.888339
Si Si3 0.005295 0.069482 0.597370
Si Si4 0.490010 0.427839 0.611386
Si Si5 0.859633 0.071037 0.387486
Si Si6 0.643150 0.429306 0.115080
Si Si7 0.357858 0.926097 0.382747
Si Si8 0.146928 0.927760 0.107804
O O1 0.977689 0.750000 0.118459
O O2 0.904210 0.498395 0.249484
O O3 0.089663 0.528412 0.069129
O O4 0.000000 0.500000 0.000000
O O5 0.517643 0.750000 0.894217
O O6 0.419405 0.974699 0.914597
O O7 0.605318 0.984694 0.744826
O O8 0.500000 0.000000 0.000000
O O9 0.013207 0.250000 0.585755
O O10 0.911268 0.014855 0.744440
O O11 0.000000 0.000000 0.500000
O O12 0.096732 0.004455 0.561571
O O13 0.500000 0.500000 0.500000
O O14 0.478218 0.250000 0.611697
O O15 0.396894 0.493943 0.751731
O O16 0.582119 0.471517 0.583220
O O17 0.877236 0.250000 0.372678
O O18 0.749590 0.028982 0.492732
O O19 0.643712 0.250000 0.130884
O O20 0.748103 0.497951 0.996543
O O21 0.369122 0.750000 0.348517
O O22 0.157807 0.750000 0.105258
#
# Coordination Sequence:
#
# PCOD8073178 Si02
#       8
#     4   4   4   4   4   4   4   4
#     4  10  20  35  54  77 105 137 171 213 260 312
#     4  10  20  33  53  78 105 135 170 213 259 306
#     4  10  20  35  54  79 108 140 175 214 259 310
#     4  10  20  35  53  76 104 134 168 210 256 307
#     4  10  20  36  56  77 102 137 177 219 263 309
#     4   9  18  35  55  74  97 132 173 210 248 298
#     4   9  20  37  55  74 102 139 177 214 259 313
#     4   8  17  34  54  73  99 134 171 207 250 303
#
# _framework density 18.118842000000001
#
# number of rings (size 3 to 8) (size 9 to 14) (size 15 to 20)
#    0.000    2.500    0.000    2.625    0.000    4.000 
#    0.000   11.250    0.000    0.000    0.000    0.000 
#    0.000    0.000    0.000    0.000    0.000    0.000 
#
# Total GULP energy -396830.093295 kJ/mol
# GULP energy per Si atom -12400.940415 kJ/mol
# Density = 1.807760 g / cm^3
# Si number density = 18.118842 Si / 1000 Ang^3
#
#
#
# Elastic Constant Matrix: (Units=GPa)
#
#
# Indices 1 2 3 4 5 6 
#
# 1 112.8878 49.2426 103.7129 0.0000 7.2856 0.0000
# 2 49.2426 74.0788 62.5496 0.0000 5.4845 0.0000
# 3 103.7129 62.5496 155.6219 0.0000 3.3723 0.0000
# 4 0.0000 0.0000 0.0000 35.4626 0.0000 5.5913
# 5 7.2856 5.4845 3.3723 0.0000 44.3509 0.0000
# 6 0.0000 0.0000 0.0000 5.5913 0.0000 30.6685
#
#
#
# Elastic Compliance Matrix: (Units=1/GPa)
#
#
# Indices 1 2 3 4 5 6 
#
# 1 0.023718 -0.003462 -0.014364 0.000000 -0.002376 0.000000
# 2 -0.003462 0.021101 -0.006140 0.000000 -0.001574 0.000000
# 3 -0.014364 -0.006140 0.018429 0.000000 0.001718 0.000000
# 4 0.000000 0.000000 0.000000 0.029033 0.000000 -0.005293
# 5 -0.002376 -0.001574 0.001718 0.000000 0.023002 0.000000
# 6 0.000000 0.000000 0.000000 -0.005293 0.000000 0.033572
#
#
# Mechanical properties :
#
#
# Convention : Reuss Voigt Hill
#
# Bulk Modulus (GPa) = 65.28687 85.95541 75.62114
# Shear Modulus (GPa) = 24.76559 30.56864 27.66712
#
# Velocity S-wave (km/s) = 3.70109 4.11191 3.91190
# Velocity P-wave (km/s) = 7.37394 8.37177 7.88865
#
# Compressibility (1/GPa) = 0.01531702
#
# Stress axis : x y z
#
# Youngs Moduli (GPa) = 42.16151 47.39025 54.26198
#
# Poissons Ratio (x) = 0.16407 0.77941
# Poissons Ratio (y) = 0.14597 0.33317
# Poissons Ratio (z) = 0.60560 0.29097
#
# Static dielectric constant tensor:
#      x y z
#    x 3.425250 0.000000 -0.139590 
#    y 0.000000 3.379280 0.000000 
#    z -0.139590 0.000000 3.536640 
# 
# 
# High freq. dielectric constant tensor:
#      x y z
#    x 1.702250 0.000000 0.000710 
#    y 0.000000 1.701870 0.000000 
#    z 0.000710 0.000000 1.709990 
# 
# From -- ./inp_files/54275.got.cif
#   From: 2010.06.25/outbox.cif.g09.slc.cpg/sg11_28_cif.got.tgz:54275.got - 2010.06.27 23:14:04.
