data_PCOD8073507
_publ_section_title
;
Structure prediction by ZEFSAII (Michael W. Deem and Ramdas Pophale) SiO2 
 PCOD8073507
Probable space group: P 21/M
;
_chemical_formula_sum "Si O2"
_cell_formula_units_Z 32
_cell_length_a 33.259104
_cell_length_b 8.890028
_cell_length_c 12.219469
_cell_angle_alpha 90.000000
_cell_angle_beta 25.696743
_cell_angle_gamma 90.000000
_cell_volume 1566.618157
_symmetry_space_group_name_H-M "P 21/M"
_symmetry_group_IT_number 11
_symmetry_cell_setting 'monoclinic'
loop_
_space_group_symop_operation_xyz
x,y,z
-x,1/2+y,-z
-x,-y,-z
x,1/2-y,z
loop_
_atom_site_type_symbol
_atom_site_label
_atom_site_fract_x
_atom_site_fract_y
_atom_site_fract_z
Si Si1 0.423488 0.419212 0.826928
Si Si2 0.061084 0.929251 0.254425
Si Si3 0.366644 0.920726 0.760310
Si Si4 0.996058 0.573869 0.831446
Si Si5 0.404631 0.578740 0.265495
Si Si6 0.131816 0.075584 0.652753
Si Si7 0.270310 0.928658 0.780183
Si Si8 0.684795 0.080300 0.741870
O O1 0.394453 0.250000 0.927396
O O2 0.530800 0.430930 0.538631
O O3 0.358795 0.472726 0.884641
O O4 0.408231 0.528821 0.967412
O O5 0.055669 0.750000 0.275902
O O6 0.022304 0.982275 0.233447
O O7 0.167269 0.987452 0.005553
O O8 0.000000 0.000000 0.500000
O O9 0.343390 0.750000 0.852294
O O10 0.295445 0.978260 0.842135
O O11 0.000501 0.750000 0.792988
O O12 0.092846 0.520926 0.646953
O O13 0.917109 0.533068 0.112994
O O14 0.431488 0.750000 0.225985
O O15 0.348798 0.505168 0.504765
O O16 0.331498 0.567532 0.346614
O O17 0.500000 0.500000 0.000000
O O18 0.118435 0.250000 0.657828
O O19 0.238374 0.035682 0.405903
O O20 0.273626 0.750000 0.760542
O O21 0.712327 0.250000 0.706175
#
# Coordination Sequence:
#
# PCOD8073507 Si02
#       8
#     4   4   4   4   4   4   4   4
#     4  10  20  34  54  79 110 145 184 235 285 335
#     4  11  23  40  61  84 115 155 200 248 295 347
#     4   9  18  35  57  78 104 143 190 235 284 340
#     4  10  21  39  61  85 114 146 184 232 291 353
#     4  10  21  37  58  86 118 153 191 231 282 342
#     4  10  21  37  60  87 113 145 186 234 286 342
#     4   9  19  37  60  82 109 150 193 233 283 343
#     4  11  22  35  54  82 116 150 186 228 279 341
#
# _framework density 20.426165999999998
#
# number of rings (size 3 to 8) (size 9 to 14) (size 15 to 20)
#    0.000    2.000    0.000    3.375    0.000    6.000 
#    0.000    6.875    0.000    0.000    0.000    0.000 
#    0.000    0.000    0.000    0.000    0.000    0.000 
#
# Total GULP energy -396820.017210 kJ/mol
# GULP energy per Si atom -12400.625538 kJ/mol
# Density = 2.037968 g / cm^3
# Si number density = 20.426166 Si / 1000 Ang^3
#
#
#
# Elastic Constant Matrix: (Units=GPa)
#
#
# Indices 1 2 3 4 5 6 
#
# 1 99.3004 33.3755 25.4789 0.0000 -2.0512 0.0000
# 2 33.3755 67.3842 26.8719 0.0000 -0.2599 0.0000
# 3 25.4789 26.8719 77.3198 0.0000 -4.5573 0.0000
# 4 0.0000 0.0000 0.0000 31.1858 0.0000 2.6674
# 5 -2.0512 -0.2599 -4.5573 0.0000 29.0731 0.0000
# 6 0.0000 0.0000 0.0000 2.6674 0.0000 30.4838
#
#
#
# Elastic Compliance Matrix: (Units=1/GPa)
#
#
# Indices 1 2 3 4 5 6 
#
# 1 0.012422 -0.005258 -0.002238 0.000000 0.000479 0.000000
# 2 -0.005258 0.019472 -0.005093 0.000000 -0.000995 0.000000
# 3 -0.002238 -0.005093 0.015573 0.000000 0.002238 0.000000
# 4 0.000000 0.000000 0.000000 0.032308 0.000000 -0.002827
# 5 0.000479 -0.000995 0.002238 0.000000 0.034772 0.000000
# 6 0.000000 0.000000 0.000000 -0.002827 0.000000 0.033052
#
#
# Mechanical properties :
#
#
# Convention : Reuss Voigt Hill
#
# Bulk Modulus (GPa) = 44.86706 46.16190 45.51448
# Shear Modulus (GPa) = 27.74611 28.70040 28.22326
#
# Velocity S-wave (km/s) = 3.68959 3.75251 3.72118
# Velocity P-wave (km/s) = 6.33750 6.43611 6.38700
#
# Compressibility (1/GPa) = 0.02228807
#
# Stress axis : x y z
#
# Youngs Moduli (GPa) = 80.50326 51.35571 64.21516
#
# Poissons Ratio (x) = 0.27005 0.14369
# Poissons Ratio (y) = 0.42332 0.32706
# Poissons Ratio (z) = 0.18013 0.26157
#
# Static dielectric constant tensor:
#      x y z
#    x 3.873920 0.000000 0.068730 
#    y 0.000000 3.636030 0.000000 
#    z 0.068730 0.000000 3.683430 
# 
# 
# High freq. dielectric constant tensor:
#      x y z
#    x 1.809980 0.000000 0.002000 
#    y 0.000000 1.786560 0.000000 
#    z 0.002000 0.000000 1.795650 
# 
# From -- ./inp_files/45161.got.cif
#   From: 2010.06.25/outbox.cif.g09.slc.cpg/sg11_23_cif.got.tgz:45161.got - 2010.06.27 23:14:04.
