data_PCOD8073764
_publ_section_title
;
Structure prediction by ZEFSAII (Michael W. Deem and Ramdas Pophale) SiO2 
 PCOD8073764
Probable space group: P 21/M
;
_chemical_formula_sum "Si O2"
_cell_formula_units_Z 32
_cell_length_a 21.495454
_cell_length_b 14.536776
_cell_length_c 14.851255
_cell_angle_alpha 90.000000
_cell_angle_beta 20.469151
_cell_angle_gamma 90.000000
_cell_volume 1622.845766
_symmetry_space_group_name_H-M "P 21/M"
_symmetry_group_IT_number 11
_symmetry_cell_setting 'monoclinic'
loop_
_space_group_symop_operation_xyz
x,y,z
-x,1/2+y,-z
-x,-y,-z
x,1/2-y,z
loop_
_atom_site_type_symbol
_atom_site_label
_atom_site_fract_x
_atom_site_fract_y
_atom_site_fract_z
Si Si1 0.094923 0.029289 0.460519
Si Si2 0.417957 0.147019 0.953000
Si Si3 0.183355 0.964258 0.026454
Si Si4 0.914479 0.523733 0.243747
Si Si5 0.515896 0.853086 0.527993
Si Si6 0.668683 0.043157 0.723809
Si Si7 0.355240 0.144972 0.836922
Si Si8 0.897918 0.858604 0.095186
O O1 0.256828 0.093823 0.216548
O O2 0.178282 0.943612 0.407032
O O3 0.000000 0.000000 0.500000
O O4 0.946640 0.081117 0.722447
O O5 0.356708 0.250000 0.043960
O O6 0.600453 0.132897 0.762351
O O7 0.448249 0.121110 0.806535
O O8 0.379354 0.920522 0.763008
O O9 0.196042 0.072712 0.035825
O O10 0.098590 0.949293 0.043483
O O11 0.751461 0.523558 0.535083
O O12 0.867746 0.603837 0.236848
O O13 0.944075 0.421302 0.161156
O O14 0.462465 0.750000 0.628115
O O15 0.503552 0.866283 0.436370
O O16 0.716474 0.874978 0.286199
O O17 0.500000 0.000000 0.000000
O O18 0.279163 0.250000 0.939214
O O19 0.950978 0.750000 0.023669
#
# Coordination Sequence:
#
# PCOD8073764 Si02
#       8
#     4   4   4   4   4   4   4   4
#     4  10  20  38  61  86 113 148 194 243 290 347
#     4  10  21  38  60  85 117 154 193 241 296 350
#     4  11  21  36  61  85 116 156 190 242 294 349
#     4  10  22  36  60  88 113 155 198 238 302 352
#     4  10  22  37  57  85 118 156 198 239 289 349
#     4   9  21  39  58  84 115 150 192 236 291 355
#     4  10  20  34  57  87 115 150 192 238 287 341
#     4  10  22  39  57  82 119 155 194 247 293 347
#
# _framework density 19.718449
#
# number of rings (size 3 to 8) (size 9 to 14) (size 15 to 20)
#    0.000    2.000    2.500    0.375    1.750    2.500 
#    0.000    8.750    0.000    0.000    0.000    0.000 
#    0.000    0.000    0.000    0.000    0.000    0.000 
#
# Total GULP energy -396426.356700 kJ/mol
# GULP energy per Si atom -12388.323647 kJ/mol
# Density = 1.967357 g / cm^3
# Si number density = 19.718449 Si / 1000 Ang^3
#
#
#
# Elastic Constant Matrix: (Units=GPa)
#
#
# Indices 1 2 3 4 5 6 
#
# 1 147.1279 46.5570 46.3132 0.0000 3.5679 0.0000
# 2 46.5570 80.5689 36.8491 0.0000 -0.2244 0.0000
# 3 46.3132 36.8491 96.2038 0.0000 8.5898 0.0000
# 4 0.0000 0.0000 0.0000 17.2447 0.0000 -0.9271
# 5 3.5679 -0.2244 8.5898 0.0000 26.6896 0.0000
# 6 0.0000 0.0000 0.0000 -0.9271 0.0000 28.0808
#
#
#
# Elastic Compliance Matrix: (Units=1/GPa)
#
#
# Indices 1 2 3 4 5 6 
#
# 1 0.008905 -0.003879 -0.002771 0.000000 -0.000331 0.000000
# 2 -0.003879 0.016846 -0.004782 0.000000 0.002199 0.000000
# 3 -0.002771 -0.004782 0.013931 0.000000 -0.004153 0.000000
# 4 0.000000 0.000000 0.000000 0.058092 0.000000 0.001918
# 5 -0.000331 0.002199 -0.004153 0.000000 0.038867 0.000000
# 6 0.000000 0.000000 0.000000 0.001918 0.000000 0.035675
#
#
# Mechanical properties :
#
#
# Convention : Reuss Voigt Hill
#
# Bulk Modulus (GPa) = 59.46016 64.81546 62.13781
# Shear Modulus (GPa) = 24.90208 27.34842 26.12525
#
# Velocity S-wave (km/s) = 3.55756 3.72821 3.64389
# Velocity P-wave (km/s) = 6.86258 7.17458 7.02031
#
# Compressibility (1/GPa) = 0.01681798
#
# Stress axis : x y z
#
# Youngs Moduli (GPa) = 112.30027 59.36023 71.78148
#
# Poissons Ratio (x) = 0.23026 0.19894
# Poissons Ratio (y) = 0.43561 0.34323
# Poissons Ratio (z) = 0.31124 0.28384
#
# Static dielectric constant tensor:
#      x y z
#    x 4.066140 0.000000 0.084000 
#    y 0.000000 3.458780 0.000000 
#    z 0.084000 0.000000 3.434740 
# 
# 
# High freq. dielectric constant tensor:
#      x y z
#    x 1.788600 0.000000 0.007470 
#    y 0.000000 1.739120 0.000000 
#    z 0.007470 0.000000 1.767560 
# 
# From -- ./inp_files/54991.got.cif
#   From: 2010.06.25/outbox.cif.g09.slc.cpg/sg11_28_cif.got.tgz:54991.got - 2010.06.27 23:14:04.
