data_PCOD8073743
_publ_section_title
;
Structure prediction by ZEFSAII (Michael W. Deem and Ramdas Pophale) SiO2 
 PCOD8073743
Probable space group: P 21/M
;
_chemical_formula_sum "Si O2"
_cell_formula_units_Z 32
_cell_length_a 8.705064
_cell_length_b 14.369116
_cell_length_c 11.220662
_cell_angle_alpha 90.000000
_cell_angle_beta 92.487106
_cell_angle_gamma 90.000000
_cell_volume 1402.204016
_symmetry_space_group_name_H-M "P 21/M"
_symmetry_group_IT_number 11
_symmetry_cell_setting 'monoclinic'
loop_
_space_group_symop_operation_xyz
x,y,z
-x,1/2+y,-z
-x,-y,-z
x,1/2-y,z
loop_
_atom_site_type_symbol
_atom_site_label
_atom_site_fract_x
_atom_site_fract_y
_atom_site_fract_z
Si Si1 0.732391 0.144557 0.491393
Si Si2 0.533881 0.013746 0.354447
Si Si3 0.374328 0.142138 0.007606
Si Si4 0.077880 0.853894 0.262150
Si Si5 0.049258 0.855311 0.722915
Si Si6 0.721214 0.642140 0.257083
Si Si7 0.342490 0.644260 0.845759
Si Si8 0.229975 0.473740 0.215190
O O1 0.667484 0.250000 0.477862
O O2 0.586595 0.069066 0.479579
O O3 0.830517 0.135129 0.612748
O O4 0.846580 0.119625 0.387470
O O5 0.586599 0.080613 0.251491
O O6 0.353172 0.004752 0.323199
O O7 0.621568 0.914860 0.349057
O O8 0.326347 0.250000 0.023475
O O9 0.329155 0.106908 0.875878
O O10 0.559939 0.127586 0.028998
O O11 0.284038 0.080748 0.100711
O O12 0.092522 0.750000 0.208632
O O13 0.900528 0.878091 0.281065
O O14 0.154407 0.927041 0.172657
O O15 0.990064 0.750000 0.714410
O O16 0.901109 0.918415 0.719461
O O17 0.157652 0.872464 0.845065
O O18 0.679993 0.750000 0.273600
O O19 0.370027 0.750000 0.803550
#
# Coordination Sequence:
#
# PCOD8073743 Si02
#       8
#     4   4   4   4   4   4   4   4
#     4   9  19  38  62  82 107 147 188 225 269 327
#     4  10  20  34  57  84 110 141 185 229 275 328
#     4   9  19  37  58  81 111 147 186 228 275 324
#     4  10  22  40  58  79 110 148 188 229 275 327
#     4   9  17  31  54  86 114 139 181 232 277 324
#     4  10  22  40  59  77 105 150 196 230 265 323
#     4   8  15  30  53  78 106 141 181 223 264 315
#     4  11  22  33  55  87 119 145 175 229 286 329
#
# _framework density 22.821214000000001
#
# number of rings (size 3 to 8) (size 9 to 14) (size 15 to 20)
#    0.000    2.500    0.000    3.000    0.000    7.000 
#    0.000    1.250    0.000    9.750    0.000    0.000 
#    0.000    0.000    0.000    0.000    0.000    0.000 
#
# Total GULP energy -396558.361153 kJ/mol
# GULP energy per Si atom -12392.448786 kJ/mol
# Density = 2.276927 g / cm^3
# Si number density = 22.821214 Si / 1000 Ang^3
#
#
#
# Elastic Constant Matrix: (Units=GPa)
#
#
# Indices 1 2 3 4 5 6 
#
# 1 102.2639 42.2211 -4.8297 0.0000 6.6684 0.0000
# 2 42.2211 81.6167 4.8044 0.0000 -4.9683 0.0000
# 3 -4.8297 4.8044 38.8365 0.0000 5.6297 0.0000
# 4 0.0000 0.0000 0.0000 21.5097 0.0000 7.8567
# 5 6.6684 -4.9683 5.6297 0.0000 22.5118 0.0000
# 6 0.0000 0.0000 0.0000 7.8567 0.0000 52.1037
#
#
#
# Elastic Compliance Matrix: (Units=1/GPa)
#
#
# Indices 1 2 3 4 5 6 
#
# 1 0.013515 -0.007602 0.003574 0.000000 -0.006575 0.000000
# 2 -0.007602 0.016848 -0.004042 0.000000 0.006981 0.000000
# 3 0.003574 -0.004042 0.027991 0.000000 -0.008951 0.000000
# 4 0.000000 0.000000 0.000000 0.049200 0.000000 -0.007419
# 5 -0.006575 0.006981 -0.008951 0.000000 0.050148 0.000000
# 6 0.000000 0.000000 0.000000 -0.007419 0.000000 0.020311
#
#
# Mechanical properties :
#
#
# Convention : Reuss Voigt Hill
#
# Bulk Modulus (GPa) = 23.68830 34.12318 28.90574
# Shear Modulus (GPa) = 24.01273 31.25980 27.63626
#
# Velocity S-wave (km/s) = 3.24730 3.70505 3.48370
# Velocity P-wave (km/s) = 4.94595 5.76958 5.37357
#
# Compressibility (1/GPa) = 0.04221494
#
# Stress axis : x y z
#
# Youngs Moduli (GPa) = 73.99336 59.35494 35.72590
#
# Poissons Ratio (x) = 0.45121 -0.12769
# Poissons Ratio (y) = 0.56249 0.14439
# Poissons Ratio (z) = -0.26447 0.23988
#
# Static dielectric constant tensor:
#      x y z
#    x 4.518110 0.000000 0.576050 
#    y 0.000000 4.567000 0.000000 
#    z 0.576050 0.000000 4.086850 
# 
# 
# High freq. dielectric constant tensor:
#      x y z
#    x 1.906350 0.000000 0.027740 
#    y 0.000000 1.925270 0.000000 
#    z 0.027740 0.000000 1.876120 
# 
# From -- ./inp_files/31904.got.cif
#   From: 2010.06.25/outbox.cif.g09.slc.cpg/sg11_16_cif.got.tgz:31904.got - 2010.06.27 23:14:04.
