data_PCOD8073998
_publ_section_title
;
Structure prediction by ZEFSAII (Michael W. Deem and Ramdas Pophale) SiO2 
 PCOD8073998
Probable space group: P 21/M
;
_chemical_formula_sum "Si O2"
_cell_formula_units_Z 24
_cell_length_a 15.846467
_cell_length_b 8.883923
_cell_length_c 15.735421
_cell_angle_alpha 90.000000
_cell_angle_beta 36.413069
_cell_angle_gamma 90.000000
_cell_volume 1314.956236
_symmetry_space_group_name_H-M "P 21/M"
_symmetry_group_IT_number 11
_symmetry_cell_setting 'monoclinic'
loop_
_space_group_symop_operation_xyz
x,y,z
-x,1/2+y,-z
-x,-y,-z
x,1/2-y,z
loop_
_atom_site_type_symbol
_atom_site_label
_atom_site_fract_x
_atom_site_fract_y
_atom_site_fract_z
Si Si1 0.105728 0.423543 0.794696
Si Si2 0.128798 0.425050 0.444013
Si Si3 0.485623 0.927621 0.745894
Si Si4 0.437158 0.422462 0.132564
Si Si5 0.768827 0.072192 0.469408
Si Si6 0.801512 0.076670 0.114954
O O1 0.140327 0.250000 0.746523
O O2 0.148761 0.528387 0.682298
O O3 0.194351 0.472159 0.805737
O O4 0.938724 0.449795 0.945301
O O5 0.097711 0.250000 0.484125
O O6 0.268528 0.449832 0.273640
O O7 0.146431 0.501233 0.520916
O O8 0.000000 0.500000 0.500000
O O9 0.517171 0.750000 0.716492
O O10 0.490165 0.984481 0.839893
O O11 0.334459 0.971667 0.829634
O O12 0.608296 0.010309 0.593277
O O13 0.476037 0.250000 0.091223
O O14 0.500000 0.500000 0.000000
O O15 0.766055 0.250000 0.482076
O O16 0.791939 0.250000 0.152100
#
# Coordination Sequence:
#
# PCOD8073998 Si02
#       6
#     4   4   4   4   4   4
#     4  10  20  35  55  80 110 142 175 218 270 319
#     4  10  21  38  57  80 109 141 178 220 265 313
#     4   9  19  37  56  76 105 139 177 222 268 314
#     4   9  19  34  53  78 107 138 174 217 264 314
#     4  11  22  36  55  80 108 141 180 219 262 315
#     4   9  19  36  57  79 104 138 180 223 268 319
#
# _framework density 18.251557999999999
#
# number of rings (size 3 to 8) (size 9 to 14) (size 15 to 20)
#    0.000    2.333    0.000    3.500    0.000    6.667 
#    0.000    1.667    0.000    0.000    0.000    0.000 
#    0.000    0.000    0.000    0.000    0.000    0.000 
#
# Total GULP energy -297660.409999 kJ/mol
# GULP energy per Si atom -12402.517083 kJ/mol
# Density = 1.821002 g / cm^3
# Si number density = 18.251558 Si / 1000 Ang^3
#
#
#
# Elastic Constant Matrix: (Units=GPa)
#
#
# Indices 1 2 3 4 5 6 
#
# 1 134.4195 57.2820 66.2073 0.0000 -20.2737 0.0000
# 2 57.2820 96.9238 52.6969 0.0000 -2.2728 0.0000
# 3 66.2073 52.6969 98.2135 0.0000 7.7934 0.0000
# 4 0.0000 0.0000 0.0000 34.7120 0.0000 4.1108
# 5 -20.2737 -2.2728 7.7934 0.0000 28.6174 0.0000
# 6 0.0000 0.0000 0.0000 4.1108 0.0000 33.7967
#
#
#
# Elastic Compliance Matrix: (Units=1/GPa)
#
#
# Indices 1 2 3 4 5 6 
#
# 1 0.015933 -0.003766 -0.009804 0.000000 0.013659 0.000000
# 2 -0.003766 0.015780 -0.005944 0.000000 0.000204 0.000000
# 3 -0.009804 -0.005944 0.021023 0.000000 -0.013143 0.000000
# 4 0.000000 0.000000 0.000000 0.029230 0.000000 -0.003555
# 5 0.013659 0.000204 -0.013143 0.000000 0.048215 0.000000
# 6 0.000000 0.000000 0.000000 -0.003555 0.000000 0.030021
#
#
# Mechanical properties :
#
#
# Convention : Reuss Voigt Hill
#
# Bulk Modulus (GPa) = 72.95086 75.76992 74.36039
# Shear Modulus (GPa) = 24.53391 29.64992 27.09191
#
# Velocity S-wave (km/s) = 3.67032 4.03490 3.85692
# Velocity P-wave (km/s) = 7.61696 7.95686 7.78876
#
# Compressibility (1/GPa) = 0.01370786
#
# Stress axis : x y z
#
# Youngs Moduli (GPa) = 62.76247 63.37287 47.56630
#
# Poissons Ratio (x) = 0.23865 0.46634
# Poissons Ratio (y) = 0.23635 0.28275
# Poissons Ratio (z) = 0.61532 0.37670
#
# Static dielectric constant tensor:
#      x y z
#    x 3.524130 0.000000 -0.015580 
#    y 0.000000 3.363960 0.000000 
#    z -0.015580 0.000000 3.349410 
# 
# 
# High freq. dielectric constant tensor:
#      x y z
#    x 1.711950 0.000000 -0.000240 
#    y 0.000000 1.711540 0.000000 
#    z -0.000240 0.000000 1.707800 
# 
# From -- ./inp_files/25751.got.cif
#   From: 2010.06.25/outbox.cif.g09.slc.cpg/sg11_13_cif.got.tgz:25751.got - 2010.06.27 23:14:04.
