data_PCOD8073787
_publ_section_title
;
Structure prediction by ZEFSAII (Michael W. Deem and Ramdas Pophale) SiO2 
 PCOD8073787
Probable space group: P 21/M
;
_chemical_formula_sum "Si O2"
_cell_formula_units_Z 28
_cell_length_a 15.712152
_cell_length_b 9.053236
_cell_length_c 21.166712
_cell_angle_alpha 90.000000
_cell_angle_beta 151.495945
_cell_angle_gamma 90.000000
_cell_volume 1436.853269
_symmetry_space_group_name_H-M "P 21/M"
_symmetry_group_IT_number 11
_symmetry_cell_setting 'monoclinic'
loop_
_space_group_symop_operation_xyz
x,y,z
-x,1/2+y,-z
-x,-y,-z
x,1/2-y,z
loop_
_atom_site_type_symbol
_atom_site_label
_atom_site_fract_x
_atom_site_fract_y
_atom_site_fract_z
Si Si1 0.429984 0.924002 0.545271
Si Si2 0.074176 0.083889 0.607808
Si Si3 0.252939 0.919513 0.303739
Si Si4 0.302407 0.581673 0.593948
Si Si5 0.914311 0.922572 0.005686
Si Si6 0.446383 0.423248 0.900194
Si Si7 0.419616 0.923314 0.146637
O O1 0.441692 0.750000 0.555656
O O2 0.292778 0.975234 0.400879
O O3 0.363551 0.987900 0.567800
O O4 0.627768 0.986000 0.665880
O O5 0.121584 0.250000 0.617757
O O6 0.250826 0.013311 0.753934
O O7 0.911394 0.077972 0.550743
O O8 0.000000 0.000000 0.500000
O O9 0.310750 0.750000 0.333923
O O10 0.047690 0.942978 0.151871
O O11 0.368744 0.750000 0.647975
O O12 0.386318 0.479862 0.703629
O O13 0.883096 0.750000 0.969547
O O14 0.730623 0.993598 0.910233
O O15 0.000000 0.000000 0.000000
O O16 0.436462 0.250000 0.907527
O O17 0.583880 0.455787 0.931520
O O18 0.500000 0.500000 0.000000
O O19 0.399494 0.750000 0.146449
#
# Coordination Sequence:
#
# PCOD8073787 Si02
#       7
#     4   4   4   4   4   4   4
#     4   9  18  33  53  79 108 139 180 230 280 336
#     4  10  20  37  60  86 115 149 192 242 296 352
#     4   9  19  35  53  75 106 144 184 227 279 334
#     4  10  20  34  58  86 110 144 191 237 289 349
#     4  11  23  38  58  84 115 155 197 239 291 349
#     4  10  23  41  61  88 122 161 202 250 306 362
#     4  11  23  39  58  84 119 154 194 245 296 354
#
# _framework density 19.487030000000001
#
# number of rings (size 3 to 8) (size 9 to 14) (size 15 to 20)
#    0.000    2.000    1.429    1.714    0.000    6.857 
#    0.000    2.857    0.000    0.000    0.000    0.000 
#    0.000    0.000    0.000    0.000    0.000    0.000 
#
# Total GULP energy -347078.489778 kJ/mol
# GULP energy per Si atom -12395.660349 kJ/mol
# Density = 1.944268 g / cm^3
# Si number density = 19.487030 Si / 1000 Ang^3
#
#
#
# Elastic Constant Matrix: (Units=GPa)
#
#
# Indices 1 2 3 4 5 6 
#
# 1 121.9094 46.6743 45.2766 0.0000 -8.2407 0.0000
# 2 46.6743 66.3892 38.0255 0.0000 -3.9870 0.0000
# 3 45.2766 38.0255 112.2485 0.0000 -1.9472 0.0000
# 4 0.0000 0.0000 0.0000 29.6239 0.0000 -1.5874
# 5 -8.2407 -3.9870 -1.9472 0.0000 27.0611 0.0000
# 6 0.0000 0.0000 0.0000 -1.5874 0.0000 30.2995
#
#
#
# Elastic Compliance Matrix: (Units=1/GPa)
#
#
# Indices 1 2 3 4 5 6 
#
# 1 0.011882 -0.006807 -0.002444 0.000000 0.002439 0.000000
# 2 -0.006807 0.022732 -0.004939 0.000000 0.000921 0.000000
# 3 -0.002444 -0.004939 0.011557 0.000000 -0.000641 0.000000
# 4 0.000000 0.000000 0.000000 0.033852 0.000000 0.001773
# 5 0.002439 0.000921 -0.000641 0.000000 0.037786 0.000000
# 6 0.000000 0.000000 0.000000 0.001773 0.000000 0.033097
#
#
# Mechanical properties :
#
#
# Convention : Reuss Voigt Hill
#
# Bulk Modulus (GPa) = 56.21105 62.27780 59.24442
# Shear Modulus (GPa) = 26.99551 28.76828 27.88189
#
# Velocity S-wave (km/s) = 3.72601 3.84641 3.78669
# Velocity P-wave (km/s) = 6.88613 7.19405 7.04178
#
# Compressibility (1/GPa) = 0.01779010
#
# Stress axis : x y z
#
# Youngs Moduli (GPa) = 84.16414 43.98995 86.52804
#
# Poissons Ratio (x) = 0.29942 0.21151
# Poissons Ratio (y) = 0.57288 0.42740
# Poissons Ratio (z) = 0.20573 0.21728
#
# Static dielectric constant tensor:
#      x y z
#    x 3.836600 0.000000 0.101040 
#    y 0.000000 3.483410 0.000000 
#    z 0.101040 0.000000 3.826600 
# 
# 
# High freq. dielectric constant tensor:
#      x y z
#    x 1.764900 0.000000 0.000430 
#    y 0.000000 1.752500 0.000000 
#    z 0.000430 0.000000 1.760760 
# 
# From -- ./inp_files/54489.got.cif
#   From: 2010.06.25/outbox.cif.g09.slc.cpg/sg11_28_cif.got.tgz:54489.got - 2010.06.27 23:14:04.
