data_PCOD8073835
_publ_section_title
;
Structure prediction by ZEFSAII (Michael W. Deem and Ramdas Pophale) SiO2 
 PCOD8073835
Probable space group: P 21/M
;
_chemical_formula_sum "Si O2"
_cell_formula_units_Z 32
_cell_length_a 16.759770
_cell_length_b 8.801673
_cell_length_c 23.192370
_cell_angle_alpha 90.000000
_cell_angle_beta 148.497264
_cell_angle_gamma 90.000000
_cell_volume 1787.711184
_symmetry_space_group_name_H-M "P 21/M"
_symmetry_group_IT_number 11
_symmetry_cell_setting 'monoclinic'
loop_
_space_group_symop_operation_xyz
x,y,z
-x,1/2+y,-z
-x,-y,-z
x,1/2-y,z
loop_
_atom_site_type_symbol
_atom_site_label
_atom_site_fract_x
_atom_site_fract_y
_atom_site_fract_z
Si Si1 0.649543 0.925045 0.329905
Si Si2 0.060650 0.429735 0.771063
Si Si3 0.817375 0.570277 0.318730
Si Si4 0.343037 0.569108 0.883624
Si Si5 0.872324 0.926844 0.882336
Si Si6 0.095706 0.071350 0.428315
Si Si7 0.674110 0.926346 0.862245
Si Si8 0.964046 0.928656 0.112330
O O1 0.608952 0.750000 0.299326
O O2 0.767022 0.972563 0.352107
O O3 0.733972 0.960514 0.442603
O O4 0.490381 0.008747 0.225049
O O5 0.085474 0.250000 0.779508
O O6 0.213428 0.518208 0.848497
O O7 0.923953 0.484714 0.644732
O O8 0.022075 0.475611 0.812580
O O9 0.833892 0.750000 0.319041
O O10 0.687935 0.502062 0.197746
O O11 0.977040 0.489918 0.402713
O O12 0.350822 0.750000 0.885008
O O13 0.500000 0.500000 0.000000
O O14 0.903182 0.750000 0.895154
O O15 0.713767 0.958428 0.818918
O O16 0.000000 0.000000 0.000000
O O17 0.886419 0.001486 0.827652
O O18 0.065821 0.250000 0.401103
O O19 0.664271 0.750000 0.868803
O O20 0.806248 0.992412 0.986468
O O21 0.971511 0.750000 0.108468
#
# Coordination Sequence:
#
# PCOD8073835 Si02
#       8
#     4   4   4   4   4   4   4   4
#     4  10  22  35  51  76 104 133 172 219 258 303
#     4  10  20  35  54  77 103 133 173 214 254 305
#     4  10  20  35  52  74  99 131 176 217 257 306
#     4  11  22  35  50  71 102 139 172 209 258 304
#     4   9  17  31  51  76 105 137 168 203 250 306
#     4  10  20  36  53  73 101 135 176 217 259 302
#     4   9  19  33  50  77 107 134 165 203 255 309
#     4   9  19  34  53  79 107 134 167 208 252 308
#
# _framework density 17.899981
#
# number of rings (size 3 to 8) (size 9 to 14) (size 15 to 20)
#    0.000    2.250    0.000    5.250    1.750    5.500 
#    0.000    0.000    0.000    0.750    0.000    0.000 
#    0.000    0.000    0.000    0.000    0.000    0.000 
#
# Total GULP energy -396636.636510 kJ/mol
# GULP energy per Si atom -12394.894891 kJ/mol
# Density = 1.785924 g / cm^3
# Si number density = 17.899981 Si / 1000 Ang^3
#
#
#
# Elastic Constant Matrix: (Units=GPa)
#
#
# Indices 1 2 3 4 5 6 
#
# 1 96.2538 32.2433 39.0259 0.0000 -23.8876 0.0000
# 2 32.2433 42.2166 22.8958 0.0000 -5.2753 0.0000
# 3 39.0259 22.8958 69.2464 0.0000 -10.5064 0.0000
# 4 0.0000 0.0000 0.0000 25.1370 0.0000 -0.0604
# 5 -23.8876 -5.2753 -10.5064 0.0000 21.6091 0.0000
# 6 0.0000 0.0000 0.0000 -0.0604 0.0000 32.3758
#
#
#
# Elastic Compliance Matrix: (Units=1/GPa)
#
#
# Indices 1 2 3 4 5 6 
#
# 1 0.020398 -0.010483 -0.005395 0.000000 0.017367 0.000000
# 2 -0.010483 0.034387 -0.006420 0.000000 -0.006315 0.000000
# 3 -0.005395 -0.006420 0.019932 0.000000 0.002160 0.000000
# 4 0.000000 0.000000 0.000000 0.039782 0.000000 0.000074
# 5 0.017367 -0.006315 0.002160 0.000000 0.064983 0.000000
# 6 0.000000 0.000000 0.000000 0.000074 0.000000 0.030887
#
#
# Mechanical properties :
#
#
# Convention : Reuss Voigt Hill
#
# Bulk Modulus (GPa) = 33.19931 44.00521 38.60226
# Shear Modulus (GPa) = 18.86749 23.39450 21.13099
#
# Velocity S-wave (km/s) = 3.25014 3.61911 3.43957
# Velocity P-wave (km/s) = 5.71593 6.48855 6.11446
#
# Compressibility (1/GPa) = 0.03012111
#
# Stress axis : x y z
#
# Youngs Moduli (GPa) = 49.02370 29.08105 50.17071
#
# Poissons Ratio (x) = 0.30487 0.27066
# Poissons Ratio (y) = 0.51394 0.32208
# Poissons Ratio (z) = 0.26448 0.18669
#
# Static dielectric constant tensor:
#      x y z
#    x 3.586840 0.000000 -0.145800 
#    y 0.000000 3.424680 0.000000 
#    z -0.145800 0.000000 3.245190 
# 
# 
# High freq. dielectric constant tensor:
#      x y z
#    x 1.688500 0.000000 -0.010750 
#    y 0.000000 1.702150 0.000000 
#    z -0.010750 0.000000 1.676170 
# 
# From -- ./inp_files/65229.got.cif
#   From: 2010.06.25/outbox.cif.g09.slc.cpg/sg11_33_cif.got.tgz:65229.got - 2010.06.27 23:14:04.
