data_PCOD8073880
_publ_section_title
;
Structure prediction by ZEFSAII (Michael W. Deem and Ramdas Pophale) SiO2 
 PCOD8073880
Probable space group: P 21/M
;
_chemical_formula_sum "Si O2"
_cell_formula_units_Z 32
_cell_length_a 9.543450
_cell_length_b 19.301298
_cell_length_c 14.698058
_cell_angle_alpha 90.000000
_cell_angle_beta 40.515592
_cell_angle_gamma 90.000000
_cell_volume 1758.873600
_symmetry_space_group_name_H-M "P 21/M"
_symmetry_group_IT_number 11
_symmetry_cell_setting 'monoclinic'
loop_
_space_group_symop_operation_xyz
x,y,z
-x,1/2+y,-z
-x,-y,-z
x,1/2-y,z
loop_
_atom_site_type_symbol
_atom_site_label
_atom_site_fract_x
_atom_site_fract_y
_atom_site_fract_z
Si Si1 0.364679 0.174743 0.923674
Si Si2 0.545399 0.037976 0.886028
Si Si3 0.989601 0.058121 0.580413
Si Si4 0.903459 0.891407 0.090707
Si Si5 0.762955 0.174357 0.594230
Si Si6 0.691051 0.464141 0.154282
Si Si7 0.426994 0.332397 0.612767
Si Si8 0.437181 0.439429 0.459513
O O1 0.326548 0.250000 0.991736
O O2 0.403731 0.108526 0.968616
O O3 0.159384 0.159456 0.961033
O O4 0.579578 0.180863 0.759491
O O5 0.796174 0.052629 0.748113
O O6 0.484519 0.988474 0.831903
O O7 0.500000 0.000000 0.000000
O O8 0.958568 0.127750 0.535001
O O9 0.195513 0.053893 0.542666
O O10 0.000000 0.000000 0.500000
O O11 0.800803 0.859836 0.233291
O O12 0.819412 0.968344 0.119077
O O13 0.162745 0.902563 0.962854
O O14 0.861066 0.250000 0.523492
O O15 0.635645 0.143495 0.569349
O O16 0.589147 0.435402 0.297076
O O17 0.416310 0.250000 0.610277
O O18 0.458532 0.365562 0.498609
O O19 0.500000 0.500000 0.500000
#
# Coordination Sequence:
#
# PCOD8073880 Si02
#       8
#     4   4   4   4   4   4   4   4
#     4   8  15  31  56  81 105 140 186 233 281 339
#     4  10  21  35  57  83 114 148 196 247 287 341
#     4  11  21  35  57  83 111 151 190 234 290 343
#     4   9  17  32  58  80 110 143 186 236 292 342
#     4   8  16  34  57  79 107 144 187 234 277 330
#     4  10  20  35  53  84 116 148 189 242 299 347
#     4  10  20  36  59  87 115 151 199 242 286 352
#     4  12  23  36  57  86 124 152 190 246 299 354
#
# _framework density 18.193463000000001
#
# number of rings (size 3 to 8) (size 9 to 14) (size 15 to 20)
#    0.000    2.250    2.500    2.625    1.750    1.500 
#    0.000    1.250    0.000    3.000    0.000    0.000 
#    0.000    0.000    0.000    0.000    0.000    0.000 
#
# Total GULP energy -396425.429586 kJ/mol
# GULP energy per Si atom -12388.294675 kJ/mol
# Density = 1.815205 g / cm^3
# Si number density = 18.193463 Si / 1000 Ang^3
#
#
#
# Elastic Constant Matrix: (Units=GPa)
#
#
# Indices 1 2 3 4 5 6 
#
# 1 109.2250 52.9423 40.2069 0.0000 0.5504 0.0000
# 2 52.9423 107.0441 28.0394 0.0000 8.4850 0.0000
# 3 40.2069 28.0394 57.9695 0.0000 10.8446 0.0000
# 4 0.0000 0.0000 0.0000 20.4037 0.0000 4.7367
# 5 0.5504 8.4850 10.8446 0.0000 32.1805 0.0000
# 6 0.0000 0.0000 0.0000 4.7367 0.0000 21.0840
#
#
#
# Elastic Compliance Matrix: (Units=1/GPa)
#
#
# Indices 1 2 3 4 5 6 
#
# 1 0.014895 -0.005477 -0.008436 0.000000 0.004032 0.000000
# 2 -0.005477 0.012751 -0.001876 0.000000 -0.002636 0.000000
# 3 -0.008436 -0.001876 0.025497 0.000000 -0.007953 0.000000
# 4 0.000000 0.000000 0.000000 0.051708 0.000000 -0.011616
# 5 0.004032 -0.002636 -0.007953 0.000000 0.034381 0.000000
# 6 0.000000 0.000000 0.000000 -0.011616 0.000000 0.050039
#
#
# Mechanical properties :
#
#
# Convention : Reuss Voigt Hill
#
# Bulk Modulus (GPa) = 46.37064 57.40173 51.88618
# Shear Modulus (GPa) = 21.92624 24.93697 23.43161
#
# Velocity S-wave (km/s) = 3.47532 3.70625 3.59264
# Velocity P-wave (km/s) = 6.45343 7.06642 6.76687
#
# Compressibility (1/GPa) = 0.02156537
#
# Stress axis : x y z
#
# Youngs Moduli (GPa) = 67.13549 78.42550 39.22021
#
# Poissons Ratio (x) = 0.42951 0.33088
# Poissons Ratio (y) = 0.36768 0.07357
# Poissons Ratio (z) = 0.56638 0.14711
#
# Static dielectric constant tensor:
#      x y z
#    x 3.671510 0.000000 -0.053940 
#    y 0.000000 4.809570 0.000000 
#    z -0.053940 0.000000 3.280560 
# 
# 
# High freq. dielectric constant tensor:
#      x y z
#    x 1.695670 0.000000 -0.003420 
#    y 0.000000 1.709180 0.000000 
#    z -0.003420 0.000000 1.681230 
# 
# From -- ./inp_files/23124.got.cif
#   From: 2010.06.25/outbox.cif.g09.slc.cpg/sg11_12_cif.got.tgz:23124.got - 2010.06.27 23:14:04.
