data_PCOD8073849
_publ_section_title
;
Structure prediction by ZEFSAII (Michael W. Deem and Ramdas Pophale) SiO2 
 PCOD8073849
Probable space group: P 21/M
;
_chemical_formula_sum "Si O2"
_cell_formula_units_Z 32
_cell_length_a 11.716359
_cell_length_b 9.246271
_cell_length_c 21.175808
_cell_angle_alpha 90.000000
_cell_angle_beta 52.299853
_cell_angle_gamma 90.000000
_cell_volume 1815.087699
_symmetry_space_group_name_H-M "P 21/M"
_symmetry_group_IT_number 11
_symmetry_cell_setting 'monoclinic'
loop_
_space_group_symop_operation_xyz
x,y,z
-x,1/2+y,-z
-x,-y,-z
x,1/2-y,z
loop_
_atom_site_type_symbol
_atom_site_label
_atom_site_fract_x
_atom_site_fract_y
_atom_site_fract_z
Si Si1 0.985548 0.419123 0.410041
Si Si2 0.704844 0.920651 0.034168
Si Si3 0.771090 0.581989 0.154004
Si Si4 0.214330 0.419561 0.437377
Si Si5 0.498093 0.416470 0.275193
Si Si6 0.938252 0.078629 0.874974
Si Si7 0.570549 0.584211 0.844643
Si Si8 0.897194 0.918824 0.764720
O O1 0.957104 0.250000 0.424094
O O2 0.117414 0.466044 0.410336
O O3 0.023518 0.465756 0.326303
O O4 0.839573 0.499277 0.481519
O O5 0.707562 0.750000 0.020532
O O6 0.766724 0.962591 0.082037
O O7 0.541887 0.978537 0.082590
O O8 0.798983 0.000231 0.950076
O O9 0.742899 0.750000 0.172118
O O10 0.644853 0.504334 0.235950
O O11 0.924876 0.534804 0.128992
O O12 0.202433 0.250000 0.453386
O O13 0.379207 0.464968 0.366937
O O14 0.538254 0.250000 0.270227
O O15 0.429343 0.445414 0.230008
O O16 0.913833 0.250000 0.881784
O O17 0.965720 0.017912 0.795768
O O18 0.527556 0.750000 0.873293
O O19 0.727643 0.547842 0.817741
O O20 0.923258 0.750000 0.770399
#
# Coordination Sequence:
#
# PCOD8073849 Si02
#       8
#     4   4   4   4   4   4   4   4
#     4   9  17  30  48  73 105 137 165 198 241 292
#     4  10  20  35  55  77  99 125 164 211 254 300
#     4   9  20  36  53  75 101 127 163 213 257 294
#     4   9  16  28  48  77 107 132 162 199 244 295
#     4   9  16  29  52  78 103 131 163 203 250 298
#     4  11  23  37  52  72  99 133 170 208 253 298
#     4   9  17  32  52  74 102 134 164 201 251 296
#     4  10  20  35  53  72 102 139 172 204 241 296
#
# _framework density 17.630002000000001
#
# number of rings (size 3 to 8) (size 9 to 14) (size 15 to 20)
#    0.000    2.500    1.250    1.125    0.000    3.500 
#    0.000    0.000    0.000    0.750    0.000    0.000 
#    0.000    0.000    0.000    0.000    0.000    0.000 
#
# Total GULP energy -396845.678888 kJ/mol
# GULP energy per Si atom -12401.427465 kJ/mol
# Density = 1.758988 g / cm^3
# Si number density = 17.630002 Si / 1000 Ang^3
#
#
#
# Elastic Constant Matrix: (Units=GPa)
#
#
# Indices 1 2 3 4 5 6 
#
# 1 34.2852 22.3655 25.9287 0.0000 5.2084 0.0000
# 2 22.3655 56.2819 49.2228 0.0000 -0.0982 0.0000
# 3 25.9287 49.2228 127.1008 0.0000 -3.0855 0.0000
# 4 0.0000 0.0000 0.0000 36.4144 0.0000 -2.7201
# 5 5.2084 -0.0982 -3.0855 0.0000 19.8439 0.0000
# 6 0.0000 0.0000 0.0000 -2.7201 0.0000 25.9274
#
#
#
# Elastic Compliance Matrix: (Units=1/GPa)
#
#
# Indices 1 2 3 4 5 6 
#
# 1 0.042742 -0.013803 -0.003662 0.000000 -0.011856 0.000000
# 2 -0.013803 0.031370 -0.009276 0.000000 0.002336 0.000000
# 3 -0.003662 -0.009276 0.012276 0.000000 0.002824 0.000000
# 4 0.000000 0.000000 0.000000 0.027679 0.000000 0.002904
# 5 -0.011856 0.002336 0.002824 0.000000 0.053956 0.000000
# 6 0.000000 0.000000 0.000000 0.002904 0.000000 0.038874
#
#
# Mechanical properties :
#
#
# Convention : Reuss Voigt Hill
#
# Bulk Modulus (GPa) = 30.39031 45.85577 38.12304
# Shear Modulus (GPa) = 18.42674 24.44720 21.43697
#
# Velocity S-wave (km/s) = 3.23645 3.72786 3.49081
# Velocity P-wave (km/s) = 5.58940 6.67801 6.15781
#
# Compressibility (1/GPa) = 0.03290522
#
# Stress axis : x y z
#
# Youngs Moduli (GPa) = 23.39643 31.87810 81.46227
#
# Poissons Ratio (x) = 0.44002 0.29827
# Poissons Ratio (y) = 0.32295 0.75564
# Poissons Ratio (z) = 0.08567 0.29570
#
# Static dielectric constant tensor:
#      x y z
#    x 3.124160 0.000000 -0.088400 
#    y 0.000000 3.212700 0.000000 
#    z -0.088400 0.000000 3.391710 
# 
# 
# High freq. dielectric constant tensor:
#      x y z
#    x 1.656520 0.000000 -0.009830 
#    y 0.000000 1.679610 0.000000 
#    z -0.009830 0.000000 1.685670 
# 
# From -- ./inp_files/42769.got.cif
#   From: 2010.06.25/outbox.cif.g09.slc.cpg/sg11_22_cif.got.tgz:42769.got - 2010.06.27 23:14:04.
