data_PCOD8073447
_publ_section_title
;
Structure prediction by ZEFSAII (Michael W. Deem and Ramdas Pophale) SiO2 
 PCOD8073447
Probable space group: P 21/M
;
_chemical_formula_sum "Si O2"
_cell_formula_units_Z 28
_cell_length_a 27.970812
_cell_length_b 9.034769
_cell_length_c 7.891693
_cell_angle_alpha 90.000000
_cell_angle_beta 135.309427
_cell_angle_gamma 90.000000
_cell_volume 1402.552683
_symmetry_space_group_name_H-M "P 21/M"
_symmetry_group_IT_number 11
_symmetry_cell_setting 'monoclinic'
loop_
_space_group_symop_operation_xyz
x,y,z
-x,1/2+y,-z
-x,-y,-z
x,1/2-y,z
loop_
_atom_site_type_symbol
_atom_site_label
_atom_site_fract_x
_atom_site_fract_y
_atom_site_fract_z
Si Si1 0.352322 0.576599 0.950848
Si Si2 0.789166 0.081518 0.549395
Si Si3 0.063953 0.078944 0.740088
Si Si4 0.211831 0.079883 0.099706
Si Si5 0.652613 0.923209 0.718762
Si Si6 0.064291 0.920430 0.086027
Si Si7 0.572588 0.925158 0.173395
O O1 0.370590 0.750000 0.988797
O O2 0.271302 0.546407 0.733236
O O3 0.388248 0.493823 0.887051
O O4 0.376629 0.512012 0.193109
O O5 0.786193 0.250000 0.603861
O O6 0.862422 0.056079 0.636734
O O7 0.779792 0.989908 0.695597
O O8 0.045079 0.250000 0.722101
O O9 0.136236 0.060792 0.823907
O O10 0.000000 0.000000 0.500000
O O11 0.079753 0.994297 0.948920
O O12 0.226990 0.250000 0.174383
O O13 0.269516 0.022149 0.116450
O O14 0.648115 0.750000 0.750501
O O15 0.610231 0.962788 0.444118
O O16 0.043986 0.750000 0.016680
O O17 0.000000 0.000000 0.000000
O O18 0.565966 0.750000 0.129840
O O19 0.500000 0.000000 0.000000
#
# Coordination Sequence:
#
# PCOD8073447 Si02
#       7
#     4   4   4   4   4   4   4
#     4  11  23  39  63  95 126 160 204 250 302 363
#     4   9  19  35  56  82 114 152 196 248 305 360
#     4  10  20  34  53  78 111 151 196 246 301 359
#     4   9  18  35  58  82 110 151 201 249 300 359
#     4  10  22  40  63  92 123 159 204 249 299 359
#     4  10  20  35  53  77 111 152 198 247 301 359
#     4  11  24  44  69  94 126 164 201 249 305 361
#
# _framework density 19.9636
#
# number of rings (size 3 to 8) (size 9 to 14) (size 15 to 20)
#    0.000    2.000    1.429    1.714    0.000    5.143 
#    0.000    2.857    0.000    0.000    0.000    0.000 
#    0.000    0.000    0.000    0.000    0.000    0.000 
#
# Total GULP energy -346924.378954 kJ/mol
# GULP energy per Si atom -12390.156391 kJ/mol
# Density = 1.991816 g / cm^3
# Si number density = 19.963600 Si / 1000 Ang^3
#
#
#
# Elastic Constant Matrix: (Units=GPa)
#
#
# Indices 1 2 3 4 5 6 
#
# 1 117.9501 63.2870 70.7158 0.0000 6.5438 0.0000
# 2 63.2870 113.5900 58.3816 0.0000 5.3374 0.0000
# 3 70.7158 58.3816 111.5221 0.0000 10.8634 0.0000
# 4 0.0000 0.0000 0.0000 31.4431 0.0000 -0.2429
# 5 6.5438 5.3374 10.8634 0.0000 36.1716 0.0000
# 6 0.0000 0.0000 0.0000 -0.2429 0.0000 33.9632
#
#
#
# Elastic Compliance Matrix: (Units=1/GPa)
#
#
# Indices 1 2 3 4 5 6 
#
# 1 0.015433 -0.004882 -0.007240 0.000000 0.000103 0.000000
# 2 -0.004882 0.013589 -0.004027 0.000000 0.000087 0.000000
# 3 -0.007240 -0.004027 0.015947 0.000000 -0.002885 0.000000
# 4 0.000000 0.000000 0.000000 0.031805 0.000000 0.000227
# 5 0.000103 0.000087 -0.002885 0.000000 0.028481 0.000000
# 6 0.000000 0.000000 0.000000 0.000227 0.000000 0.029445
#
#
# Mechanical properties :
#
#
# Convention : Reuss Voigt Hill
#
# Bulk Modulus (GPa) = 78.92089 80.87012 79.89550
# Shear Modulus (GPa) = 29.20195 30.36076 29.78135
#
# Velocity S-wave (km/s) = 3.82875 3.90398 3.86655
# Velocity P-wave (km/s) = 7.69181 7.80501 7.74862
#
# Compressibility (1/GPa) = 0.01267092
#
# Stress axis : x y z
#
# Youngs Moduli (GPa) = 64.79757 73.58829 62.70850
#
# Poissons Ratio (x) = 0.35926 0.45402
# Poissons Ratio (y) = 0.31634 0.25251
# Poissons Ratio (z) = 0.46914 0.29632
#
# Static dielectric constant tensor:
#      x y z
#    x 4.170700 0.000000 0.844410 
#    y 0.000000 3.721800 0.000000 
#    z 0.844410 0.000000 3.361750 
# 
# 
# High freq. dielectric constant tensor:
#      x y z
#    x 1.775290 0.000000 0.022230 
#    y 0.000000 1.786830 0.000000 
#    z 0.022230 0.000000 1.779280 
# 
# From -- ./inp_files/29078.got.cif
#   From: 2010.06.25/outbox.cif.g09.slc.cpg/sg11_15_cif.got.tgz:29078.got - 2010.06.27 23:14:04.
