data_PCOD8073433
_publ_section_title
;
Structure prediction by ZEFSAII (Michael W. Deem and Ramdas Pophale) SiO2 
 PCOD8073433
Probable space group: P 21/M
;
_chemical_formula_sum "Si O2"
_cell_formula_units_Z 32
_cell_length_a 15.831425
_cell_length_b 9.058918
_cell_length_c 25.588300
_cell_angle_alpha 90.000000
_cell_angle_beta 150.961347
_cell_angle_gamma 90.000000
_cell_volume 1781.300285
_symmetry_space_group_name_H-M "P 21/M"
_symmetry_group_IT_number 11
_symmetry_cell_setting 'monoclinic'
loop_
_space_group_symop_operation_xyz
x,y,z
-x,1/2+y,-z
-x,-y,-z
x,1/2-y,z
loop_
_atom_site_type_symbol
_atom_site_label
_atom_site_fract_x
_atom_site_fract_y
_atom_site_fract_z
Si Si1 0.422256 0.423613 0.311112
Si Si2 0.636102 0.578580 0.036502
Si Si3 0.460896 0.576449 0.225467
Si Si4 0.773275 0.923735 0.525049
Si Si5 0.282962 0.579004 0.022651
Si Si6 0.893575 0.919811 0.784634
Si Si7 0.032517 0.921253 0.277891
Si Si8 0.149153 0.419729 0.549839
O O1 0.456314 0.250000 0.325447
O O2 0.385403 0.488263 0.233861
O O3 0.585941 0.499286 0.427755
O O4 0.254352 0.461980 0.254509
O O5 0.590548 0.750000 0.009043
O O6 0.620326 0.512784 0.969923
O O7 0.500000 0.500000 0.000000
O O8 0.827430 0.549758 0.162720
O O9 0.441400 0.750000 0.226887
O O10 0.355041 0.526152 0.117391
O O11 0.662602 0.534487 0.325830
O O12 0.746413 0.750000 0.518546
O O13 0.859886 0.959723 0.516169
O O14 0.902546 0.987404 0.637744
O O15 0.326452 0.750000 0.036455
O O16 0.077477 0.548153 0.911765
O O17 0.880433 0.750000 0.759599
O O18 0.870041 0.021249 0.721071
O O19 0.077138 0.750000 0.309450
O O20 0.114546 0.250000 0.540615
O O21 0.000000 0.500000 0.500000
#
# Coordination Sequence:
#
# PCOD8073433 Si02
#       8
#     4   4   4   4   4   4   4   4
#     4  10  20  34  53  78 106 136 173 214 255 306
#     4  10  21  36  54  78 107 138 174 215 259 308
#     4   9  19  35  53  75 104 137 172 211 258 309
#     4  10  21  37  55  76 104 138 173 211 260 312
#     4   9  18  35  56  76 103 138 174 215 261 308
#     4   9  19  35  54  77 105 137 172 212 260 309
#     4  10  21  36  55  79 104 134 174 217 259 305
#     4   9  19  34  51  73 100 131 167 206 251 301
#
# _framework density 17.964406
#
# number of rings (size 3 to 8) (size 9 to 14) (size 15 to 20)
#    0.000    2.500    0.000    2.250    0.000    7.500 
#    0.000    3.750    0.000    0.000    0.000    0.000 
#    0.000    0.000    0.000    0.000    0.000    0.000 
#
# Total GULP energy -396888.727394 kJ/mol
# GULP energy per Si atom -12402.772731 kJ/mol
# Density = 1.792352 g / cm^3
# Si number density = 17.964406 Si / 1000 Ang^3
#
#
#
# Elastic Constant Matrix: (Units=GPa)
#
#
# Indices 1 2 3 4 5 6 
#
# 1 143.8816 76.7741 71.7714 0.0000 8.8910 0.0000
# 2 76.7741 99.9037 50.1872 0.0000 -1.7989 0.0000
# 3 71.7714 50.1872 104.7718 0.0000 -18.2619 0.0000
# 4 0.0000 0.0000 0.0000 29.9979 0.0000 -2.1594
# 5 8.8910 -1.7989 -18.2619 0.0000 31.1355 0.0000
# 6 0.0000 0.0000 0.0000 -2.1594 0.0000 37.1337
#
#
#
# Elastic Compliance Matrix: (Units=1/GPa)
#
#
# Indices 1 2 3 4 5 6 
#
# 1 0.016725 -0.008364 -0.009320 0.000000 -0.010726 0.000000
# 2 -0.008364 0.017671 -0.002385 0.000000 0.002011 0.000000
# 3 -0.009320 -0.002385 0.019505 0.000000 0.013964 0.000000
# 4 0.000000 0.000000 0.000000 0.033476 0.000000 0.001947
# 5 -0.010726 0.002011 0.013964 0.000000 0.043487 0.000000
# 6 0.000000 0.000000 0.000000 0.001947 0.000000 0.027043
#
#
# Mechanical properties :
#
#
# Convention : Reuss Voigt Hill
#
# Bulk Modulus (GPa) = 72.65353 82.89139 77.77246
# Shear Modulus (GPa) = 24.67511 29.64171 27.15841
#
# Velocity S-wave (km/s) = 3.71017 4.06646 3.89239
# Velocity P-wave (km/s) = 7.67364 8.26379 7.97418
#
# Compressibility (1/GPa) = 0.01376396
#
# Stress axis : x y z
#
# Youngs Moduli (GPa) = 59.79091 56.58841 51.26788
#
# Poissons Ratio (x) = 0.47330 0.47782
# Poissons Ratio (y) = 0.50009 0.12227
# Poissons Ratio (z) = 0.55726 0.13496
#
# Static dielectric constant tensor:
#      x y z
#    x 3.230530 0.000000 0.130470 
#    y 0.000000 3.393110 0.000000 
#    z 0.130470 0.000000 2.983940 
# 
# 
# High freq. dielectric constant tensor:
#      x y z
#    x 1.698100 0.000000 -0.002650 
#    y 0.000000 1.702160 0.000000 
#    z -0.002650 0.000000 1.696920 
# 
# From -- ./inp_files/51637.got.cif
#   From: 2010.06.25/outbox.cif.g09.slc.cpg/sg11_26_cif.got.tgz:51637.got - 2010.06.27 23:14:04.
