data_PCOD8073526
_publ_section_title
;
Structure prediction by ZEFSAII (Michael W. Deem and Ramdas Pophale) SiO2 
 PCOD8073526
Probable space group: P 21/M
;
_chemical_formula_sum "Si O2"
_cell_formula_units_Z 32
_cell_length_a 30.940547
_cell_length_b 8.921242
_cell_length_c 11.183614
_cell_angle_alpha 90.000000
_cell_angle_beta 146.947289
_cell_angle_gamma 90.000000
_cell_volume 1683.677328
_symmetry_space_group_name_H-M "P 21/M"
_symmetry_group_IT_number 11
_symmetry_cell_setting 'monoclinic'
loop_
_space_group_symop_operation_xyz
x,y,z
-x,1/2+y,-z
-x,-y,-z
x,1/2-y,z
loop_
_atom_site_type_symbol
_atom_site_label
_atom_site_fract_x
_atom_site_fract_y
_atom_site_fract_z
Si Si1 0.358434 0.925346 0.430662
Si Si2 0.016954 0.073671 0.165040
Si Si3 0.516747 0.573200 0.665258
Si Si4 0.815332 0.923132 0.339515
Si Si5 0.206287 0.422865 0.984971
Si Si6 0.710743 0.426079 0.484490
Si Si7 0.130666 0.572649 0.025875
Si Si8 0.328495 0.572182 0.867085
O O1 0.341284 0.750000 0.375612
O O2 0.445757 0.969313 0.590483
O O3 0.349784 0.972934 0.549928
O O4 0.293988 0.008677 0.200161
O O5 0.009419 0.250000 0.131458
O O6 0.102951 0.025653 0.410400
O O7 0.952057 0.017577 0.110639
O O8 0.000000 0.000000 0.000000
O O9 0.500000 0.500000 0.500000
O O10 0.525332 0.750000 0.668190
O O11 0.596158 0.507870 0.903296
O O12 0.795085 0.750000 0.321716
O O13 0.824565 0.947755 0.220046
O O14 0.747723 0.030983 0.232092
O O15 0.211811 0.250000 0.032189
O O16 0.142258 0.500245 0.922824
O O17 0.713023 0.250000 0.472938
O O18 0.798632 0.483055 0.722622
O O19 0.682902 0.493937 0.293550
O O20 0.134133 0.750000 0.016896
O O21 0.341221 0.750000 0.899891
#
# Coordination Sequence:
#
# PCOD8073526 Si02
#       8
#     4   4   4   4   4   4   4   4
#     4   9  19  37  58  78 105 143 181 218 266 323
#     4  10  21  37  57  81 110 145 183 227 277 325
#     4  11  23  38  57  81 110 144 182 225 273 323
#     4  10  22  38  54  77 112 146 179 225 276 323
#     4  10  20  34  54  80 109 141 178 222 269 318
#     4   8  16  33  55  78 105 137 175 217 261 316
#     4   9  18  35  57  79 108 145 181 220 269 323
#     4  11  22  36  57  82 108 142 183 224 269 323
#
# _framework density 19.006015999999999
#
# number of rings (size 3 to 8) (size 9 to 14) (size 15 to 20)
#    0.000    2.250    0.000    3.375    0.000    7.000 
#    0.000    6.250    0.000    0.000    0.000    0.000 
#    0.000    0.000    0.000    0.000    0.000    0.000 
#
# Total GULP energy -396842.622176 kJ/mol
# GULP energy per Si atom -12401.331943 kJ/mol
# Density = 1.896276 g / cm^3
# Si number density = 19.006016 Si / 1000 Ang^3
#
#
#
# Elastic Constant Matrix: (Units=GPa)
#
#
# Indices 1 2 3 4 5 6 
#
# 1 122.9668 47.2271 69.9174 0.0000 10.9176 0.0000
# 2 47.2271 57.6067 42.7570 0.0000 4.2832 0.0000
# 3 69.9174 42.7570 128.0850 0.0000 5.8437 0.0000
# 4 0.0000 0.0000 0.0000 17.3696 0.0000 -5.7802
# 5 10.9176 4.2832 5.8437 0.0000 40.2258 0.0000
# 6 0.0000 0.0000 0.0000 -5.7802 0.0000 29.0702
#
#
#
# Elastic Compliance Matrix: (Units=1/GPa)
#
#
# Indices 1 2 3 4 5 6 
#
# 1 0.014166 -0.007686 -0.005063 0.000000 -0.002291 0.000000
# 2 -0.007686 0.027319 -0.004919 0.000000 -0.000108 0.000000
# 3 -0.005063 -0.004919 0.012207 0.000000 0.000124 0.000000
# 4 0.000000 0.000000 0.000000 0.061651 0.000000 0.012258
# 5 -0.002291 -0.000108 0.000124 0.000000 0.025475 0.000000
# 6 0.000000 0.000000 0.000000 0.012258 0.000000 0.036837
#
#
# Mechanical properties :
#
#
# Convention : Reuss Voigt Hill
#
# Bulk Modulus (GPa) = 54.47421 69.82907 62.15164
# Shear Modulus (GPa) = 22.81962 27.25027 25.03494
#
# Velocity S-wave (km/s) = 3.46880 3.79062 3.63328
# Velocity P-wave (km/s) = 6.69083 7.48189 7.09739
#
# Compressibility (1/GPa) = 0.01835731
#
# Stress axis : x y z
#
# Youngs Moduli (GPa) = 70.59160 36.60425 81.91794
#
# Poissons Ratio (x) = 0.28133 0.41472
# Poissons Ratio (y) = 0.54254 0.40299
# Poissons Ratio (z) = 0.35738 0.18007
#
# Static dielectric constant tensor:
#      x y z
#    x 3.841710 0.000000 -0.046870 
#    y 0.000000 3.380870 0.000000 
#    z -0.046870 0.000000 3.599960 
# 
# 
# High freq. dielectric constant tensor:
#      x y z
#    x 1.753620 0.000000 -0.000310 
#    y 0.000000 1.727120 0.000000 
#    z -0.000310 0.000000 1.741150 
# 
# From -- ./inp_files/45317.got.cif
#   From: 2010.06.25/outbox.cif.g09.slc.cpg/sg11_23_cif.got.tgz:45317.got - 2010.06.27 23:14:04.
