data_PCOD8073517
_publ_section_title
;
Structure prediction by ZEFSAII (Michael W. Deem and Ramdas Pophale) SiO2 
 PCOD8073517
Probable space group: P 21/M
;
_chemical_formula_sum "Si O2"
_cell_formula_units_Z 32
_cell_length_a 28.420245
_cell_length_b 9.131906
_cell_length_c 20.237341
_cell_angle_alpha 90.000000
_cell_angle_beta 159.339594
_cell_angle_gamma 90.000000
_cell_volume 1853.131090
_symmetry_space_group_name_H-M "P 21/M"
_symmetry_group_IT_number 11
_symmetry_cell_setting 'monoclinic'
loop_
_space_group_symop_operation_xyz
x,y,z
-x,1/2+y,-z
-x,-y,-z
x,1/2-y,z
loop_
_atom_site_type_symbol
_atom_site_label
_atom_site_fract_x
_atom_site_fract_y
_atom_site_fract_z
Si Si1 0.432520 0.575842 0.724361
Si Si2 0.590930 0.918499 0.807725
Si Si3 0.831848 0.084880 0.421020
Si Si4 0.848875 0.080847 0.599481
Si Si5 0.103990 0.581642 0.928800
Si Si6 0.598683 0.422177 0.679312
Si Si7 0.116214 0.414448 0.813761
Si Si8 0.583090 0.923404 0.052062
O O1 0.433162 0.750000 0.725416
O O2 0.491819 0.517216 0.733093
O O3 0.281752 0.516380 0.535279
O O4 0.524666 0.521646 0.905652
O O5 0.556558 0.750000 0.745478
O O6 0.576170 0.012655 0.722448
O O7 0.741753 0.928996 0.036516
O O8 0.780348 0.250000 0.340679
O O9 0.831377 0.051518 0.498656
O O10 0.984713 0.064546 0.594935
O O11 0.737194 0.972312 0.258514
O O12 0.863712 0.250000 0.635185
O O13 0.982790 0.005227 0.804524
O O14 0.067409 0.750000 0.887136
O O15 0.111262 0.538624 0.862103
O O16 0.251358 0.547998 0.151507
O O17 0.500000 0.500000 0.500000
O O18 0.569014 0.250000 0.643632
O O19 0.105643 0.250000 0.832052
O O20 0.572030 0.750000 0.045965
O O21 0.500000 0.000000 0.000000
#
# Coordination Sequence:
#
# PCOD8073517 Si02
#       8
#     4   4   4   4   4   4   4   4
#     4   9  18  32  49  69  96 130 168 205 243 293
#     4   9  17  33  55  74  95 129 166 197 239 293
#     4   9  16  28  44  65  93 122 161 209 249 287
#     4   9  16  29  47  67  95 130 165 202 241 286
#     4   9  17  28  45  73 101 122 153 199 238 274
#     4  10  20  34  54  80 107 128 153 193 237 284
#     4   8  15  28  47  67  90 123 160 198 241 292
#     4  11  20  31  45  65  94 127 167 211 251 290
#
# _framework density 17.268070999999999
#
# number of rings (size 3 to 8) (size 9 to 14) (size 15 to 20)
#    0.000    2.750    1.250    1.875    0.000    3.500 
#    0.000    2.500    0.000    0.750    0.000    0.000 
#    0.000    0.000    0.000    0.000    0.000    0.000 
#
# Total GULP energy -396506.378696 kJ/mol
# GULP energy per Si atom -12390.824334 kJ/mol
# Density = 1.722877 g / cm^3
# Si number density = 17.268071 Si / 1000 Ang^3
#
#
#
# Elastic Constant Matrix: (Units=GPa)
#
#
# Indices 1 2 3 4 5 6 
#
# 1 85.9116 34.6937 60.9400 0.0000 14.9124 0.0000
# 2 34.6937 70.4706 62.5828 0.0000 3.8196 0.0000
# 3 60.9400 62.5828 142.7302 0.0000 17.6404 0.0000
# 4 0.0000 0.0000 0.0000 31.4510 0.0000 1.9201
# 5 14.9124 3.8196 17.6404 0.0000 24.4873 0.0000
# 6 0.0000 0.0000 0.0000 1.9201 0.0000 15.1405
#
#
#
# Elastic Compliance Matrix: (Units=1/GPa)
#
#
# Indices 1 2 3 4 5 6 
#
# 1 0.018043 -0.003950 -0.005148 0.000000 -0.006663 0.000000
# 2 -0.003950 0.024481 -0.009741 0.000000 0.005604 0.000000
# 3 -0.005148 -0.009741 0.014161 0.000000 -0.005547 0.000000
# 4 0.000000 0.000000 0.000000 0.032044 0.000000 -0.004064
# 5 -0.006663 0.005604 -0.005547 0.000000 0.048017 0.000000
# 6 0.000000 0.000000 0.000000 -0.004064 0.000000 0.066563
#
#
# Mechanical properties :
#
#
# Convention : Reuss Voigt Hill
#
# Bulk Modulus (GPa) = 52.60872 68.39396 60.50134
# Shear Modulus (GPa) = 20.21647 23.60882 21.91264
#
# Velocity S-wave (km/s) = 3.42532 3.70157 3.56612
# Velocity P-wave (km/s) = 6.79528 7.61328 7.21588
#
# Compressibility (1/GPa) = 0.01900826
#
# Stress axis : x y z
#
# Youngs Moduli (GPa) = 55.42179 40.84734 70.61712
#
# Poissons Ratio (x) = 0.16134 0.36357
# Poissons Ratio (y) = 0.21890 0.68785
# Poissons Ratio (z) = 0.28534 0.39788
#
# Static dielectric constant tensor:
#      x y z
#    x 3.012520 0.000000 0.392210 
#    y 0.000000 3.166320 0.000000 
#    z 0.392210 0.000000 3.617410 
# 
# 
# High freq. dielectric constant tensor:
#      x y z
#    x 1.623610 0.000000 0.030500 
#    y 0.000000 1.658360 0.000000 
#    z 0.030500 0.000000 1.675900 
# 
# From -- ./inp_files/42737.got.cif
#   From: 2010.06.25/outbox.cif.g09.slc.cpg/sg11_22_cif.got.tgz:42737.got - 2010.06.27 23:14:04.
