data_PCOD8073261
_publ_section_title
;
Structure prediction by ZEFSAII (Michael W. Deem and Ramdas Pophale) SiO2 
 PCOD8073261
Probable space group: P 21/M
;
_chemical_formula_sum "Si O2"
_cell_formula_units_Z 28
_cell_length_a 15.576606
_cell_length_b 8.648835
_cell_length_c 20.145249
_cell_angle_alpha 90.000000
_cell_angle_beta 148.906254
_cell_angle_gamma 90.000000
_cell_volume 1401.595978
_symmetry_space_group_name_H-M "P 21/M"
_symmetry_group_IT_number 11
_symmetry_cell_setting 'monoclinic'
loop_
_space_group_symop_operation_xyz
x,y,z
-x,1/2+y,-z
-x,-y,-z
x,1/2-y,z
loop_
_atom_site_type_symbol
_atom_site_label
_atom_site_fract_x
_atom_site_fract_y
_atom_site_fract_z
Si Si1 0.611939 0.568078 0.132664
Si Si2 0.446628 0.568899 0.159494
Si Si3 0.477766 0.573037 0.556602
Si Si4 0.210099 0.577796 0.193556
Si Si5 0.023674 0.067285 0.589058
Si Si6 0.855638 0.574306 0.982734
Si Si7 0.705477 0.931437 0.445297
O O1 0.604951 0.750000 0.119901
O O2 0.537668 0.513992 0.153599
O O3 0.804268 0.510791 0.261812
O O4 0.500000 0.500000 0.000000
O O5 0.409851 0.750000 0.134415
O O6 0.272897 0.475538 0.045332
O O7 0.558576 0.522518 0.297159
O O8 0.500000 0.500000 0.500000
O O9 0.422012 0.750000 0.514707
O O10 0.660461 0.557893 0.707889
O O11 0.344201 0.483522 0.513486
O O12 0.290497 0.750000 0.253738
O O13 0.156697 0.554422 0.082513
O O14 0.048340 0.565791 0.134637
O O15 0.028004 0.250000 0.583644
O O16 0.874291 0.017122 0.537616
O O17 0.000000 0.000000 0.500000
O O18 0.817402 0.750000 0.933995
O O19 0.739562 0.750000 0.465898
#
# Coordination Sequence:
#
# PCOD8073261 Si02
#       7
#     4   4   4   4   4   4   4
#     4  10  23  43  63  90 126 166 205 255 316 376
#     4  10  20  37  61  87 122 159 199 254 311 370
#     4  12  25  42  63  88 120 162 208 258 318 379
#     4  10  20  36  56  82 118 155 194 246 300 354
#     4  11  22  40  66  97 131 168 215 268 319 382
#     4  10  20  33  56  88 116 150 197 246 298 355
#     4  11  22  40  65  94 125 161 208 263 318 378
#
# _framework density 19.977226000000002
#
# number of rings (size 3 to 8) (size 9 to 14) (size 15 to 20)
#    0.000    1.429    2.857    3.000    0.000    4.000 
#    2.571    0.000    0.000    0.000    0.000    0.000 
#    0.000    0.000    0.000    0.000    0.000    0.000 
#
# Total GULP energy -347084.296151 kJ/mol
# GULP energy per Si atom -12395.867720 kJ/mol
# Density = 1.993176 g / cm^3
# Si number density = 19.977226 Si / 1000 Ang^3
#
#
#
# Elastic Constant Matrix: (Units=GPa)
#
#
# Indices 1 2 3 4 5 6 
#
# 1 134.9653 33.7120 53.1124 0.0000 14.7962 0.0000
# 2 33.7120 71.9754 34.7095 0.0000 8.0487 0.0000
# 3 53.1124 34.7095 93.5874 0.0000 16.2405 0.0000
# 4 0.0000 0.0000 0.0000 31.8428 0.0000 3.2567
# 5 14.7962 8.0487 16.2405 0.0000 39.6268 0.0000
# 6 0.0000 0.0000 0.0000 3.2567 0.0000 36.3559
#
#
#
# Elastic Compliance Matrix: (Units=1/GPa)
#
#
# Indices 1 2 3 4 5 6 
#
# 1 0.009921 -0.002305 -0.004537 0.000000 -0.001377 0.000000
# 2 -0.002305 0.017487 -0.005071 0.000000 -0.000613 0.000000
# 3 -0.004537 -0.005071 0.015791 0.000000 -0.003748 0.000000
# 4 0.000000 0.000000 0.000000 0.031695 0.000000 -0.002839
# 5 -0.001377 -0.000613 -0.003748 0.000000 0.027410 0.000000
# 6 0.000000 0.000000 0.000000 -0.002839 0.000000 0.027760
#
#
# Mechanical properties :
#
#
# Convention : Reuss Voigt Hill
#
# Bulk Modulus (GPa) = 51.61611 60.39954 56.00783
# Shear Modulus (GPa) = 31.18211 33.49805 32.34008
#
# Velocity S-wave (km/s) = 3.95509 4.09933 4.02786
# Velocity P-wave (km/s) = 6.83744 7.25988 7.05182
#
# Compressibility (1/GPa) = 0.01937379
#
# Stress axis : x y z
#
# Youngs Moduli (GPa) = 100.79258 57.18402 63.32764
#
# Poissons Ratio (x) = 0.13182 0.28729
# Poissons Ratio (y) = 0.23235 0.32114
# Poissons Ratio (z) = 0.45726 0.28998
#
# Static dielectric constant tensor:
#      x y z
#    x 3.736740 0.000000 0.340710 
#    y 0.000000 3.601290 0.000000 
#    z 0.340710 0.000000 3.665040 
# 
# 
# High freq. dielectric constant tensor:
#      x y z
#    x 1.779530 0.000000 0.024540 
#    y 0.000000 1.783790 0.000000 
#    z 0.024540 0.000000 1.771870 
# 
# From -- ./inp_files/65456.got.cif
#   From: 2010.06.25/outbox.cif.g09.slc.cpg/sg11_33_cif.got.tgz:65456.got - 2010.06.27 23:14:04.
