data_PCOD8073083
_publ_section_title
;
Structure prediction by ZEFSAII (Michael W. Deem and Ramdas Pophale) SiO2 
 PCOD8073083
Probable space group: P 21/M
;
_chemical_formula_sum "Si O2"
_cell_formula_units_Z 32
_cell_length_a 27.858269
_cell_length_b 8.861741
_cell_length_c 21.992005
_cell_angle_alpha 90.000000
_cell_angle_beta 18.621703
_cell_angle_gamma 90.000000
_cell_volume 1733.651508
_symmetry_space_group_name_H-M "P 21/M"
_symmetry_group_IT_number 11
_symmetry_cell_setting 'monoclinic'
loop_
_space_group_symop_operation_xyz
x,y,z
-x,1/2+y,-z
-x,-y,-z
x,1/2-y,z
loop_
_atom_site_type_symbol
_atom_site_label
_atom_site_fract_x
_atom_site_fract_y
_atom_site_fract_z
Si Si1 0.906110 0.424680 0.524775
Si Si2 0.800296 0.426438 0.785592
Si Si3 0.522807 0.572725 0.791431
Si Si4 0.387768 0.924616 0.549156
Si Si5 0.970179 0.073406 0.220237
Si Si6 0.806012 0.571284 0.524810
Si Si7 0.706208 0.923925 0.218252
Si Si8 0.282398 0.427632 0.553747
O O1 0.908991 0.250000 0.503932
O O2 0.816988 0.455723 0.693873
O O3 0.819443 0.515996 0.577262
O O4 0.076028 0.482816 0.325282
O O5 0.818732 0.250000 0.778760
O O6 0.640712 0.496268 0.998253
O O7 0.507025 0.750000 0.817170
O O8 0.644295 0.514574 0.694598
O O9 0.578911 0.526959 0.656854
O O10 0.357243 0.750000 0.572201
O O11 0.564930 0.959151 0.344082
O O12 0.299238 0.971104 0.716069
O O13 0.322239 0.022144 0.573225
O O14 0.938288 0.250000 0.262776
O O15 0.935229 0.998134 0.327027
O O16 0.869646 0.006464 0.286562
O O17 0.143828 0.037607 0.998541
O O18 0.821049 0.750000 0.503404
O O19 0.701866 0.750000 0.244845
O O20 0.253670 0.250000 0.586257
#
# Coordination Sequence:
#
# PCOD8073083 Si02
#       8
#     4   4   4   4   4   4   4   4
#     4  10  20  33  51  77 106 135 170 212 256 304
#     4   9  18  35  55  74 101 136 173 213 257 303
#     4   8  17  34  54  75  99 132 173 213 252 300
#     4  10  20  35  55  78 104 135 172 212 254 301
#     4  10  20  36  56  78 105 134 169 213 257 302
#     4  10  20  35  54  76 104 136 171 210 254 306
#     4   9  20  37  55  77 105 135 169 212 258 304
#     4  10  20  35  54  77 106 137 171 210 254 305
#
# _framework density 18.458151000000001
#
# number of rings (size 3 to 8) (size 9 to 14) (size 15 to 20)
#    0.000    2.500    0.000    2.625    0.000    4.000 
#    0.000    6.250    0.000    0.000    0.000    0.000 
#    0.000    0.000    0.000    0.000    0.000    0.000 
#
# Total GULP energy -396855.979330 kJ/mol
# GULP energy per Si atom -12401.749354 kJ/mol
# Density = 1.841614 g / cm^3
# Si number density = 18.458151 Si / 1000 Ang^3
#
#
#
# Elastic Constant Matrix: (Units=GPa)
#
#
# Indices 1 2 3 4 5 6 
#
# 1 55.8316 15.2168 -17.3221 0.0000 0.4399 0.0000
# 2 15.2168 64.6296 14.5069 0.0000 -0.4781 0.0000
# 3 -17.3221 14.5069 61.8840 0.0000 -3.3212 0.0000
# 4 0.0000 0.0000 0.0000 25.3127 0.0000 1.4094
# 5 0.4399 -0.4781 -3.3212 0.0000 12.6986 0.0000
# 6 0.0000 0.0000 0.0000 1.4094 0.0000 33.1992
#
#
#
# Elastic Compliance Matrix: (Units=1/GPa)
#
#
# Indices 1 2 3 4 5 6 
#
# 1 0.022279 -0.007019 0.007937 0.000000 0.001040 0.000000
# 2 -0.007019 0.018546 -0.006351 0.000000 -0.000720 0.000000
# 3 0.007937 -0.006351 0.020125 0.000000 0.004749 0.000000
# 4 0.000000 0.000000 0.000000 0.039600 0.000000 -0.001681
# 5 0.001040 -0.000720 0.004749 0.000000 0.079928 0.000000
# 6 0.000000 0.000000 0.000000 -0.001681 0.000000 0.030193
#
#
# Mechanical properties :
#
#
# Convention : Reuss Voigt Hill
#
# Bulk Modulus (GPa) = 19.96682 23.01647 21.49165
# Shear Modulus (GPa) = 20.98820 25.57166 23.27993
#
# Velocity S-wave (km/s) = 3.37570 3.72612 3.55523
# Velocity P-wave (km/s) = 5.10242 5.56853 5.34056
#
# Compressibility (1/GPa) = 0.05008309
#
# Stress axis : x y z
#
# Youngs Moduli (GPa) = 44.88626 53.92095 49.69021
#
# Poissons Ratio (x) = 0.37849 -0.39441
# Poissons Ratio (y) = 0.31507 0.31558
# Poissons Ratio (z) = -0.35628 0.34245
#
# Static dielectric constant tensor:
#      x y z
#    x 3.339500 0.000000 -0.058190 
#    y 0.000000 3.359540 0.000000 
#    z -0.058190 0.000000 3.548440 
# 
# 
# High freq. dielectric constant tensor:
#      x y z
#    x 1.715670 0.000000 -0.001780 
#    y 0.000000 1.715180 0.000000 
#    z -0.001780 0.000000 1.717380 
# 
# From -- ./inp_files/66967.got.cif
#   From: 2010.06.25/outbox.cif.g09.slc.cpg/sg11_34_cif.got.tgz:66967.got - 2010.06.27 23:14:04.
