data_PCOD8073717
_publ_section_title
;
Structure prediction by ZEFSAII (Michael W. Deem and Ramdas Pophale) SiO2 
 PCOD8073717
Probable space group: P 21/M
;
_chemical_formula_sum "Si O2"
_cell_formula_units_Z 32
_cell_length_a 20.147729
_cell_length_b 8.592138
_cell_length_c 25.183321
_cell_angle_alpha 90.000000
_cell_angle_beta 23.134739
_cell_angle_gamma 90.000000
_cell_volume 1712.839074
_symmetry_space_group_name_H-M "P 21/M"
_symmetry_group_IT_number 11
_symmetry_cell_setting 'monoclinic'
loop_
_space_group_symop_operation_xyz
x,y,z
-x,1/2+y,-z
-x,-y,-z
x,1/2-y,z
loop_
_atom_site_type_symbol
_atom_site_label
_atom_site_fract_x
_atom_site_fract_y
_atom_site_fract_z
Si Si1 0.752270 0.931399 0.167592
Si Si2 0.919678 0.932695 0.363855
Si Si3 0.043460 0.433023 0.885807
Si Si4 0.767499 0.568979 0.812495
Si Si5 0.571250 0.430301 0.656217
Si Si6 0.553322 0.431492 0.882192
Si Si7 0.941044 0.064921 0.850150
Si Si8 0.441269 0.932641 0.859163
O O1 0.796463 0.750000 0.130182
O O2 0.800520 0.991184 0.191861
O O3 0.557189 0.965760 0.298080
O O4 0.864985 0.020790 0.042150
O O5 0.880543 0.750000 0.391860
O O6 0.974919 0.997994 0.265489
O O7 0.755198 0.026162 0.501282
O O8 0.066874 0.967971 0.297516
O O9 0.047219 0.250000 0.878764
O O10 0.050129 0.498462 0.820480
O O11 0.813793 0.750000 0.780700
O O12 0.702101 0.525186 0.802091
O O13 0.626177 0.523264 0.959762
O O14 0.563853 0.250000 0.677916
O O15 0.520854 0.532411 0.743692
O O16 0.590975 0.250000 0.860683
O O17 0.553432 0.480897 0.820853
O O18 0.936530 0.250000 0.851916
O O19 0.749812 0.002408 0.996771
O O20 0.448184 0.750000 0.865132
#
# Coordination Sequence:
#
# PCOD8073717 Si02
#       8
#     4   4   4   4   4   4   4   4
#     4   9  18  31  51  78 110 143 179 225 277 328
#     4  11  22  38  57  80 110 149 189 229 277 332
#     4   9  16  31  54  80 107 139 180 229 278 324
#     4  10  20  35  56  83 114 148 183 225 274 326
#     4  11  23  38  53  79 115 151 186 227 280 337
#     4  10  20  34  56  86 116 146 180 226 275 325
#     4   9  18  32  55  83 109 138 183 233 274 322
#     4  11  20  35  58  85 111 144 187 232 276 324
#
# _framework density 18.682431999999999
#
# number of rings (size 3 to 8) (size 9 to 14) (size 15 to 20)
#    0.000    2.000    2.500    1.875    0.000    1.500 
#    0.000    2.500    0.000    0.000    0.000    0.000 
#    0.000    0.000    0.000    0.000    0.000    0.000 
#
# Total GULP energy -396785.698209 kJ/mol
# GULP energy per Si atom -12399.553069 kJ/mol
# Density = 1.863991 g / cm^3
# Si number density = 18.682432 Si / 1000 Ang^3
#
#
#
# Elastic Constant Matrix: (Units=GPa)
#
#
# Indices 1 2 3 4 5 6 
#
# 1 138.6015 13.8152 47.2833 0.0000 -7.5523 0.0000
# 2 13.8152 28.0069 4.1017 0.0000 -3.7285 0.0000
# 3 47.2833 4.1017 84.5313 0.0000 -3.4962 0.0000
# 4 0.0000 0.0000 0.0000 24.0285 0.0000 -0.1120
# 5 -7.5523 -3.7285 -3.4962 0.0000 26.8684 0.0000
# 6 0.0000 0.0000 0.0000 -0.1120 0.0000 23.2920
#
#
#
# Elastic Compliance Matrix: (Units=1/GPa)
#
#
# Indices 1 2 3 4 5 6 
#
# 1 0.009369 -0.003694 -0.005001 0.000000 0.001470 0.000000
# 2 -0.003694 0.038041 0.000398 0.000000 0.004292 0.000000
# 3 -0.005001 0.000398 0.014631 0.000000 0.000553 0.000000
# 4 0.000000 0.000000 0.000000 0.041618 0.000000 0.000200
# 5 0.001470 0.004292 0.000553 0.000000 0.038299 0.000000
# 6 0.000000 0.000000 0.000000 0.000200 0.000000 0.042934
#
#
# Mechanical properties :
#
#
# Convention : Reuss Voigt Hill
#
# Bulk Modulus (GPa) = 22.00344 42.39335 32.19839
# Shear Modulus (GPa) = 23.08038 27.23375 25.15706
#
# Velocity S-wave (km/s) = 3.51865 3.82215 3.67353
# Velocity P-wave (km/s) = 5.32081 6.49764 5.93845
#
# Compressibility (1/GPa) = 0.04544743
#
# Stress axis : x y z
#
# Youngs Moduli (GPa) = 106.73322 26.28772 68.34944
#
# Poissons Ratio (x) = 0.09709 0.34179
# Poissons Ratio (y) = 0.39422 -0.02718
# Poissons Ratio (z) = 0.53374 -0.01045
#
# Static dielectric constant tensor:
#      x y z
#    x 3.980210 0.000000 -0.051610 
#    y 0.000000 3.284010 0.000000 
#    z -0.051610 0.000000 3.177820 
# 
# 
# High freq. dielectric constant tensor:
#      x y z
#    x 1.744170 0.000000 -0.011500 
#    y 0.000000 1.718880 0.000000 
#    z -0.011500 0.000000 1.692130 
# 
# From -- ./inp_files/66400.got.cif
#   From: 2010.06.25/outbox.cif.g09.slc.cpg/sg11_34_cif.got.tgz:66400.got - 2010.06.27 23:14:04.
