data_PCOD8073504
_publ_section_title
;
Structure prediction by ZEFSAII (Michael W. Deem and Ramdas Pophale) SiO2 
 PCOD8073504
Probable space group: P 21/M
;
_chemical_formula_sum "Si O2"
_cell_formula_units_Z 28
_cell_length_a 28.852052
_cell_length_b 8.682000
_cell_length_c 12.554379
_cell_angle_alpha 90.000000
_cell_angle_beta 150.240395
_cell_angle_gamma 90.000000
_cell_volume 1560.954645
_symmetry_space_group_name_H-M "P 21/M"
_symmetry_group_IT_number 11
_symmetry_cell_setting 'monoclinic'
loop_
_space_group_symop_operation_xyz
x,y,z
-x,1/2+y,-z
-x,-y,-z
x,1/2-y,z
loop_
_atom_site_type_symbol
_atom_site_label
_atom_site_fract_x
_atom_site_fract_y
_atom_site_fract_z
Si Si1 0.092751 0.930002 0.563007
Si Si2 0.602313 0.931788 0.703838
Si Si3 0.399321 0.928174 0.924293
Si Si4 0.282706 0.068942 0.271980
Si Si5 0.722685 0.569208 0.143590
Si Si6 0.899048 0.070298 0.175184
Si Si7 0.594252 0.071216 0.308697
O O1 0.073485 0.750000 0.511730
O O2 0.114662 0.974387 0.728683
O O3 0.178948 0.981658 0.662615
O O4 0.001701 0.021170 0.341238
O O5 0.594193 0.750000 0.689970
O O6 0.657034 0.988875 0.708587
O O7 0.500000 0.000000 0.500000
O O8 0.657662 0.991734 0.917769
O O9 0.384954 0.750000 0.924202
O O10 0.504063 0.975267 0.165766
O O11 0.381032 0.963640 0.764215
O O12 0.325809 0.030396 0.841796
O O13 0.292187 0.250000 0.308314
O O14 0.317994 0.981183 0.446906
O O15 0.175190 0.025152 0.041225
O O16 0.741205 0.750000 0.170607
O O17 0.883909 0.250000 0.124623
O O18 0.571912 0.250000 0.281757
#
# Coordination Sequence:
#
# PCOD8073504 Si02
#       7
#     4   4   4   4   4   4   4
#     4  10  20  34  54  79 108 143 180 221 266 318
#     4  10  22  34  47  72 107 142 173 212 260 314
#     4  10  21  37  56  79 107 141 184 228 269 317
#     4  11  21  35  54  78 109 143 180 221 267 321
#     4  11  21  35  54  78 109 143 180 221 267 321
#     4  10  20  34  54  79 108 143 180 221 266 318
#     4  10  21  37  56  79 107 141 184 228 269 317
#
# _framework density 17.937742
#
# number of rings (size 3 to 8) (size 9 to 14) (size 15 to 20)
#    0.000    1.714    1.429    3.429    0.000    7.429 
#    0.000    0.000    0.000    0.857    0.000    0.000 
#    0.000    0.000    0.000    0.000    0.000    0.000 
#
# Total GULP energy -347386.336667 kJ/mol
# GULP energy per Si atom -12406.654881 kJ/mol
# Density = 1.789692 g / cm^3
# Si number density = 17.937742 Si / 1000 Ang^3
#
#
#
# Elastic Constant Matrix: (Units=GPa)
#
#
# Indices 1 2 3 4 5 6 
#
# 1 78.1805 22.6221 47.0357 0.0000 6.7442 0.0000
# 2 22.6221 44.5723 19.5745 0.0000 -4.1353 0.0000
# 3 47.0357 19.5745 109.0971 0.0000 6.3535 0.0000
# 4 0.0000 0.0000 0.0000 35.0358 0.0000 4.0919
# 5 6.7442 -4.1353 6.3535 0.0000 24.3822 0.0000
# 6 0.0000 0.0000 0.0000 4.0919 0.0000 29.1680
#
#
#
# Elastic Compliance Matrix: (Units=1/GPa)
#
#
# Indices 1 2 3 4 5 6 
#
# 1 0.019400 -0.007323 -0.006768 0.000000 -0.004844 0.000000
# 2 -0.007323 0.027826 -0.002262 0.000000 0.007335 0.000000
# 3 -0.006768 -0.002262 0.012594 0.000000 -0.001794 0.000000
# 4 0.000000 0.000000 0.000000 0.029018 0.000000 -0.004071
# 5 -0.004844 0.007335 -0.001794 0.000000 0.044065 0.000000
# 6 0.000000 0.000000 0.000000 -0.004071 0.000000 0.034855
#
#
# Mechanical properties :
#
#
# Convention : Reuss Voigt Hill
#
# Bulk Modulus (GPa) = 36.88241 45.59052 41.23647
# Shear Modulus (GPa) = 23.86602 27.22506 25.54554
#
# Velocity S-wave (km/s) = 3.65155 3.90006 3.77785
# Velocity P-wave (km/s) = 6.19551 6.76401 6.48599
#
# Compressibility (1/GPa) = 0.02711319
#
# Stress axis : x y z
#
# Youngs Moduli (GPa) = 51.54758 35.93710 79.40053
#
# Poissons Ratio (x) = 0.26318 0.53736
# Poissons Ratio (y) = 0.37750 0.17964
# Poissons Ratio (z) = 0.34886 0.08131
#
# Static dielectric constant tensor:
#      x y z
#    x 3.209500 0.000000 0.028240 
#    y 0.000000 3.352660 0.000000 
#    z 0.028240 0.000000 3.349540 
# 
# 
# High freq. dielectric constant tensor:
#      x y z
#    x 1.678270 0.000000 0.008580 
#    y 0.000000 1.706280 0.000000 
#    z 0.008580 0.000000 1.692700 
# 
# From -- ./inp_files/44678.got.cif
#   From: 2010.06.25/outbox.cif.g09.slc.cpg/sg11_23_cif.got.tgz:44678.got - 2010.06.27 23:14:04.
