data_PCOD8073327
_publ_section_title
;
Structure prediction by ZEFSAII (Michael W. Deem and Ramdas Pophale) SiO2 
 PCOD8073327
Probable space group: P 21/M
;
_chemical_formula_sum "Si O2"
_cell_formula_units_Z 32
_cell_length_a 24.209835
_cell_length_b 8.957695
_cell_length_c 12.653035
_cell_angle_alpha 90.000000
_cell_angle_beta 47.147562
_cell_angle_gamma 90.000000
_cell_volume 2011.641581
_symmetry_space_group_name_H-M "P 21/M"
_symmetry_group_IT_number 11
_symmetry_cell_setting 'monoclinic'
loop_
_space_group_symop_operation_xyz
x,y,z
-x,1/2+y,-z
-x,-y,-z
x,1/2-y,z
loop_
_atom_site_type_symbol
_atom_site_label
_atom_site_fract_x
_atom_site_fract_y
_atom_site_fract_z
Si Si1 0.811206 0.076877 0.909302
Si Si2 0.160401 0.073197 0.688414
Si Si3 0.041960 0.078748 0.351389
Si Si4 0.288759 0.918505 0.145181
Si Si5 0.578884 0.080626 0.892293
Si Si6 0.282058 0.075139 0.356591
Si Si7 0.145823 0.573624 0.918190
Si Si8 0.993427 0.076124 0.181703
O O1 0.832748 0.250000 0.874708
O O2 0.733972 0.038435 0.945701
O O3 0.875106 0.986495 0.766561
O O4 0.805844 0.031693 0.039580
O O5 0.146993 0.250000 0.706086
O O6 0.225712 0.026297 0.522309
O O7 0.185816 0.014259 0.770469
O O8 0.084439 0.988606 0.757711
O O9 0.050210 0.250000 0.370122
O O10 0.995237 0.054086 0.305048
O O11 0.000000 0.000000 0.500000
O O12 0.261124 0.750000 0.203905
O O13 0.379604 0.929279 0.045917
O O14 0.248111 0.022665 0.286748
O O15 0.564858 0.250000 0.875277
O O16 0.636004 0.003822 0.733182
O O17 0.500000 0.000000 0.000000
O O18 0.295267 0.250000 0.338592
O O19 0.145085 0.750000 0.897230
O O20 0.060381 0.516267 0.040308
O O21 0.001316 0.250000 0.139990
#
# Coordination Sequence:
#
# PCOD8073327 Si02
#       8
#     4   4   4   4   4   4   4   4
#     4   9  18  34  50  67  91 121 159 199 238 284
#     4  11  22  34  49  69  97 126 161 207 248 290
#     4  10  21  32  44  64  89 121 156 196 244 291
#     4   8  17  31  49  71  98 126 152 188 233 279
#     4   9  17  30  50  75 105 133 155 187 227 280
#     4   9  19  32  47  72 100 128 159 191 234 282
#     4  10  20  34  52  69  90 124 166 209 249 290
#     4  10  21  35  49  65  89 123 165 207 250 294
#
# _framework density 15.907405000000001
#
# number of rings (size 3 to 8) (size 9 to 14) (size 15 to 20)
#    0.750    1.750    0.000    2.250    1.750    4.500 
#    0.000    0.000    0.000    0.000    0.000    0.875 
#    0.000    0.000    0.000    0.000    0.000    0.000 
#
# Total GULP energy -396534.164349 kJ/mol
# GULP energy per Si atom -12391.692636 kJ/mol
# Density = 1.587120 g / cm^3
# Si number density = 15.907405 Si / 1000 Ang^3
#
#
#
# Elastic Constant Matrix: (Units=GPa)
#
#
# Indices 1 2 3 4 5 6 
#
# 1 97.2095 35.5618 53.0204 0.0000 3.1281 0.0000
# 2 35.5618 66.8529 31.9437 0.0000 1.1420 0.0000
# 3 53.0204 31.9437 74.1694 0.0000 5.1354 0.0000
# 4 0.0000 0.0000 0.0000 27.5869 0.0000 1.2975
# 5 3.1281 1.1420 5.1354 0.0000 16.3580 0.0000
# 6 0.0000 0.0000 0.0000 1.2975 0.0000 21.7291
#
#
#
# Elastic Compliance Matrix: (Units=1/GPa)
#
#
# Indices 1 2 3 4 5 6 
#
# 1 0.017777 -0.004255 -0.010898 0.000000 0.000319 0.000000
# 2 -0.004255 0.019878 -0.005602 0.000000 0.001185 0.000000
# 3 -0.010898 -0.005602 0.024037 0.000000 -0.005071 0.000000
# 4 0.000000 0.000000 0.000000 0.036351 0.000000 -0.002171
# 5 0.000319 0.001185 -0.005071 0.000000 0.062581 0.000000
# 6 0.000000 0.000000 0.000000 -0.002171 0.000000 0.046151
#
#
# Mechanical properties :
#
#
# Convention : Reuss Voigt Hill
#
# Bulk Modulus (GPa) = 49.54544 53.25373 51.39959
# Shear Modulus (GPa) = 19.60705 20.98184 20.29444
#
# Velocity S-wave (km/s) = 3.51461 3.63574 3.57569
# Velocity P-wave (km/s) = 6.90534 7.15366 7.03060
#
# Compressibility (1/GPa) = 0.02018349
#
# Stress axis : x y z
#
# Youngs Moduli (GPa) = 56.25191 50.30739 41.60316
#
# Poissons Ratio (x) = 0.21404 0.45338
# Poissons Ratio (y) = 0.23933 0.23305
# Poissons Ratio (z) = 0.61302 0.28180
#
# Static dielectric constant tensor:
#      x y z
#    x 3.139320 0.000000 0.205880 
#    y 0.000000 3.147700 0.000000 
#    z 0.205880 0.000000 2.864940 
# 
# 
# High freq. dielectric constant tensor:
#      x y z
#    x 1.603410 0.000000 0.012940 
#    y 0.000000 1.628320 0.000000 
#    z 0.012940 0.000000 1.580210 
# 
# From -- ./inp_files/56008.got.cif
#   From: 2010.06.25/outbox.cif.g09.slc.cpg/sg11_29_cif.got.tgz:56008.got - 2010.06.27 23:14:04.
