data_PCOD8073532
_publ_section_title
;
Structure prediction by ZEFSAII (Michael W. Deem and Ramdas Pophale) SiO2 
 PCOD8073532
Probable space group: P 21/M
;
_chemical_formula_sum "Si O2"
_cell_formula_units_Z 28
_cell_length_a 12.485242
_cell_length_b 9.400292
_cell_length_c 14.654196
_cell_angle_alpha 90.000000
_cell_angle_beta 122.129554
_cell_angle_gamma 90.000000
_cell_volume 1456.483671
_symmetry_space_group_name_H-M "P 21/M"
_symmetry_group_IT_number 11
_symmetry_cell_setting 'monoclinic'
loop_
_space_group_symop_operation_xyz
x,y,z
-x,1/2+y,-z
-x,-y,-z
x,1/2-y,z
loop_
_atom_site_type_symbol
_atom_site_label
_atom_site_fract_x
_atom_site_fract_y
_atom_site_fract_z
Si Si1 0.782158 0.097219 0.066401
Si Si2 0.982622 0.587105 0.082202
Si Si3 0.389243 0.916616 0.502285
Si Si4 0.890985 0.416285 0.674898
Si Si5 0.883383 0.409854 0.304255
Si Si6 0.502113 0.091383 0.910291
Si Si7 0.647829 0.415565 0.303972
O O1 0.852489 0.250000 0.078201
O O2 0.780293 0.077453 0.175318
O O3 0.649425 0.107604 0.956003
O O4 0.846498 0.956888 0.057025
O O5 0.984926 0.750000 0.056647
O O6 0.083639 0.550172 0.207020
O O7 0.000000 0.500000 0.000000
O O8 0.407212 0.750000 0.489771
O O9 0.251380 0.969882 0.406441
O O10 0.392771 0.948873 0.611329
O O11 0.500000 0.000000 0.500000
O O12 0.904417 0.250000 0.658997
O O13 0.993755 0.491966 0.655621
O O14 0.936089 0.250000 0.337768
O O15 0.797811 0.451176 0.354149
O O16 0.442495 0.250000 0.896976
O O17 0.438862 0.014640 0.796828
O O18 0.500000 0.000000 0.000000
O O19 0.624436 0.250000 0.269270
#
# Coordination Sequence:
#
# PCOD8073532 Si02
#       7
#     4   4   4   4   4   4   4
#     4   9  18  33  51  75 111 150 182 221 275 334
#     4  10  20  34  54  80 110 144 186 233 282 339
#     4  10  23  43  63  81 113 153 196 247 293 344
#     4   9  20  38  58  82 111 147 186 236 293 342
#     4   9  17  33  56  83 114 145 181 228 285 348
#     4  11  21  34  55  84 119 156 190 231 282 342
#     4  10  21  38  58  85 118 155 195 240 295 349
#
# _framework density 19.224384000000001
#
# number of rings (size 3 to 8) (size 9 to 14) (size 15 to 20)
#    0.000    2.286    1.429    0.857    0.000    5.143 
#    0.000    4.286    0.000    0.000    0.000    0.000 
#    0.000    0.000    0.000    0.000    0.000    0.000 
#
# Total GULP energy -346937.858106 kJ/mol
# GULP energy per Si atom -12390.637789 kJ/mol
# Density = 1.918063 g / cm^3
# Si number density = 19.224384 Si / 1000 Ang^3
#
#
#
# Elastic Constant Matrix: (Units=GPa)
#
#
# Indices 1 2 3 4 5 6 
#
# 1 129.6249 62.0240 63.9803 0.0000 -0.3971 0.0000
# 2 62.0240 99.3714 68.3030 0.0000 -3.9500 0.0000
# 3 63.9803 68.3030 97.5030 0.0000 3.0742 0.0000
# 4 0.0000 0.0000 0.0000 27.8867 0.0000 0.0118
# 5 -0.3971 -3.9500 3.0742 0.0000 33.3387 0.0000
# 6 0.0000 0.0000 0.0000 0.0118 0.0000 36.2172
#
#
#
# Elastic Compliance Matrix: (Units=1/GPa)
#
#
# Indices 1 2 3 4 5 6 
#
# 1 0.012211 -0.004061 -0.005173 0.000000 0.000141 0.000000
# 2 -0.004061 0.021190 -0.012293 0.000000 0.003596 0.000000
# 3 -0.005173 -0.012293 0.022375 0.000000 -0.003581 0.000000
# 4 0.000000 0.000000 0.000000 0.035859 0.000000 -0.000012
# 5 0.000141 0.003596 -0.003581 0.000000 0.030753 0.000000
# 6 0.000000 0.000000 0.000000 -0.000012 0.000000 0.027611
#
#
# Mechanical properties :
#
#
# Convention : Reuss Voigt Hill
#
# Bulk Modulus (GPa) = 78.59519 79.45711 79.02615
# Shear Modulus (GPa) = 25.34287 28.30133 26.82210
#
# Velocity S-wave (km/s) = 3.63473 3.84103 3.73931
# Velocity P-wave (km/s) = 7.65421 7.81617 7.73561
#
# Compressibility (1/GPa) = 0.01272342
#
# Stress axis : x y z
#
# Youngs Moduli (GPa) = 81.89265 47.19110 44.69309
#
# Poissons Ratio (x) = 0.19163 0.23118
# Poissons Ratio (y) = 0.33254 0.54942
# Poissons Ratio (z) = 0.42360 0.58013
#
# Static dielectric constant tensor:
#      x y z
#    x 2.997750 0.000000 0.352200 
#    y 0.000000 3.741360 0.000000 
#    z 0.352200 0.000000 3.550430 
# 
# 
# High freq. dielectric constant tensor:
#      x y z
#    x 1.739680 0.000000 -0.001290 
#    y 0.000000 1.752820 0.000000 
#    z -0.001290 0.000000 1.743460 
# 
# From -- ./inp_files/38505.got.cif
#   From: 2010.06.25/outbox.cif.g09.slc.cpg/sg11_20_cif.got.tgz:38505.got - 2010.06.27 23:14:04.
