data_PCOD8073677
_publ_section_title
;
Structure prediction by ZEFSAII (Michael W. Deem and Ramdas Pophale) SiO2 
 PCOD8073677
Probable space group: P 21/M
;
_chemical_formula_sum "Si O2"
_cell_formula_units_Z 32
_cell_length_a 14.947667
_cell_length_b 14.564419
_cell_length_c 18.449760
_cell_angle_alpha 90.000000
_cell_angle_beta 157.621043
_cell_angle_gamma 90.000000
_cell_volume 1529.238782
_symmetry_space_group_name_H-M "P 21/M"
_symmetry_group_IT_number 11
_symmetry_cell_setting 'monoclinic'
loop_
_space_group_symop_operation_xyz
x,y,z
-x,1/2+y,-z
-x,-y,-z
x,1/2-y,z
loop_
_atom_site_type_symbol
_atom_site_label
_atom_site_fract_x
_atom_site_fract_y
_atom_site_fract_z
Si Si1 0.754202 0.476003 0.782070
Si Si2 0.938658 0.146852 0.309039
Si Si3 0.971466 0.855508 0.111518
Si Si4 0.745776 0.524002 0.217924
Si Si5 0.978016 0.354386 0.688184
Si Si6 0.471325 0.644491 0.111396
Si Si7 0.478107 0.354382 0.688280
Si Si8 0.561395 0.853149 0.691043
O O1 0.598571 0.417208 0.719818
O O2 0.620560 0.573965 0.670795
O O3 0.808657 0.418602 0.750191
O O4 0.000000 0.500000 0.000000
O O5 0.906851 0.250000 0.316377
O O6 0.199248 0.131025 0.475003
O O7 0.879435 0.073955 0.329231
O O8 0.765963 0.128579 0.111753
O O9 0.056753 0.750000 0.170027
O O10 0.922477 0.881484 0.158089
O O11 0.734144 0.871411 0.888356
O O12 0.691246 0.581406 0.249740
O O13 0.901404 0.582800 0.280176
O O14 0.500000 0.500000 0.000000
O O15 0.045829 0.250000 0.720834
O O16 0.699165 0.368995 0.474876
O O17 0.556595 0.750000 0.169896
O O18 0.422300 0.618516 0.157940
O O19 0.545945 0.250000 0.720941
O O20 0.593121 0.750000 0.683640
#
# Coordination Sequence:
#
# PCOD8073677 Si02
#       8
#     4   4   4   4   4   4   4   4
#     4  10  20  34  56  80 106 139 175 216 261 311
#     4   9  19  35  53  77 108 139 176 218 257 307
#     4   9  19  36  56  79 107 138 174 216 260 309
#     4  10  20  34  56  80 106 139 175 216 261 311
#     4  10  20  36  57  78 105 140 174 214 264 311
#     4   9  19  36  56  79 107 138 174 216 260 309
#     4  10  20  36  57  78 105 140 174 214 264 311
#     4   9  19  35  53  77 108 139 176 218 257 307
#
# _framework density 20.925443999999999
#
# number of rings (size 3 to 8) (size 9 to 14) (size 15 to 20)
#    0.000    2.500    0.000    1.500    0.000    6.000 
#    0.000    5.000    0.000   22.500    0.000    0.000 
#    0.000    0.000    0.000    0.000    0.000    0.000 
#
# Total GULP energy -396597.323809 kJ/mol
# GULP energy per Si atom -12393.666369 kJ/mol
# Density = 2.087782 g / cm^3
# Si number density = 20.925444 Si / 1000 Ang^3
#
#
#
# Elastic Constant Matrix: (Units=GPa)
#
#
# Indices 1 2 3 4 5 6 
#
# 1 11.8141 7.5741 5.2230 0.0000 4.1949 0.0000
# 2 7.5741 96.0022 25.1809 0.0000 17.5719 0.0000
# 3 5.2230 25.1809 74.8776 0.0000 4.2619 0.0000
# 4 0.0000 0.0000 0.0000 27.0987 0.0000 8.8829
# 5 4.1949 17.5719 4.2619 0.0000 28.3284 0.0000
# 6 0.0000 0.0000 0.0000 8.8829 0.0000 14.3163
#
#
#
# Elastic Compliance Matrix: (Units=1/GPa)
#
#
# Indices 1 2 3 4 5 6 
#
# 1 0.093064 -0.004255 -0.004465 0.000000 -0.010470 0.000000
# 2 -0.004255 0.012972 -0.003675 0.000000 -0.006864 0.000000
# 3 -0.004465 -0.003675 0.014862 0.000000 0.000705 0.000000
# 4 0.000000 0.000000 0.000000 0.046324 0.000000 -0.028743
# 5 -0.010470 -0.006864 0.000705 0.000000 0.041002 0.000000
# 6 0.000000 0.000000 0.000000 -0.028743 0.000000 0.087685
#
#
# Mechanical properties :
#
#
# Convention : Reuss Voigt Hill
#
# Bulk Modulus (GPa) = 10.40483 28.73888 19.57185
# Shear Modulus (GPa) = 14.17493 23.59639 18.88566
#
# Velocity S-wave (km/s) = 2.60552 3.36168 3.00746
# Velocity P-wave (km/s) = 3.74630 5.36951 4.62960
#
# Compressibility (1/GPa) = 0.09610920
#
# Stress axis : x y z
#
# Youngs Moduli (GPa) = 10.74532 77.08687 67.28412
#
# Poissons Ratio (x) = 0.32799 0.30040
# Poissons Ratio (y) = 0.04572 0.24727
# Poissons Ratio (z) = 0.04797 0.28330
#
# Static dielectric constant tensor:
#      x y z
#    x 3.725180 0.000000 0.537880 
#    y 0.000000 4.241900 0.000000 
#    z 0.537880 0.000000 5.586070 
# 
# 
# High freq. dielectric constant tensor:
#      x y z
#    x 1.789040 0.000000 0.007020 
#    y 0.000000 1.842930 0.000000 
#    z 0.007020 0.000000 1.825730 
# 
# From -- ./inp_files/31871.got.cif
#   From: 2010.06.25/outbox.cif.g09.slc.cpg/sg11_16_cif.got.tgz:31871.got - 2010.06.27 23:14:04.
