data_PCOD8073170
_publ_section_title
;
Structure prediction by ZEFSAII (Michael W. Deem and Ramdas Pophale) SiO2 
 PCOD8073170
Probable space group: P 21/M
;
_chemical_formula_sum "Si O2"
_cell_formula_units_Z 32
_cell_length_a 6.370133
_cell_length_b 13.345671
_cell_length_c 20.549238
_cell_angle_alpha 90.000000
_cell_angle_beta 62.198286
_cell_angle_gamma 90.000000
_cell_volume 1545.309167
_symmetry_space_group_name_H-M "P 21/M"
_symmetry_group_IT_number 11
_symmetry_cell_setting 'monoclinic'
loop_
_space_group_symop_operation_xyz
x,y,z
-x,1/2+y,-z
-x,-y,-z
x,1/2-y,z
loop_
_atom_site_type_symbol
_atom_site_label
_atom_site_fract_x
_atom_site_fract_y
_atom_site_fract_z
Si Si1 0.049304 0.500660 0.877486
Si Si2 0.630913 0.864992 0.986018
Si Si3 0.260121 0.459741 0.451236
Si Si4 0.421807 0.860222 0.885542
Si Si5 0.556346 0.360981 0.512011
Si Si6 0.177207 0.477589 0.221806
Si Si7 0.049199 0.135458 0.364652
Si Si8 0.437515 0.135730 0.857279
O O1 0.266500 0.572051 0.862376
O O2 0.159077 0.393665 0.885007
O O3 0.826319 0.547200 0.948541
O O4 0.012632 0.490285 0.805474
O O5 0.733639 0.750000 0.964689
O O6 0.419053 0.881238 0.964027
O O7 0.510208 0.879659 0.073416
O O8 0.332818 0.381966 0.497464
O O9 0.435527 0.557037 0.430627
O O10 0.261428 0.401835 0.382189
O O11 0.000000 0.500000 0.500000
O O12 0.336920 0.750000 0.882103
O O13 0.693045 0.878754 0.824882
O O14 0.530052 0.250000 0.546011
O O15 0.794109 0.370171 0.435018
O O16 0.042207 0.442929 0.306130
O O17 0.365055 0.568123 0.208041
O O18 0.105141 0.250000 0.335420
O O19 0.473244 0.250000 0.830153
#
# Coordination Sequence:
#
# PCOD8073170 Si02
#       8
#     4   4   4   4   4   4   4   4
#     4  10  20  33  53  77 102 135 178 227 278 329
#     4   9  18  33  53  78 105 132 169 223 285 342
#     4   9  18  34  57  86 119 149 180 218 259 309
#     4   9  18  32  51  78 109 136 167 216 278 337
#     4   9  18  33  57  89 119 147 181 220 262 310
#     4  10  22  36  51  75 108 143 180 222 266 316
#     4  10  20  35  57  83 112 147 181 215 262 316
#     4  10  22  38  54  72  98 138 186 231 277 330
#
# _framework density 20.707830999999999
#
# number of rings (size 3 to 8) (size 9 to 14) (size 15 to 20)
#    0.000    2.500    0.000    1.500    0.000   10.000 
#    0.000    4.375    0.000    4.500    0.000    0.000 
#    0.000    0.000    0.000    0.000    0.000    0.000 
#
# Total GULP energy -396422.815957 kJ/mol
# GULP energy per Si atom -12388.212999 kJ/mol
# Density = 2.066070 g / cm^3
# Si number density = 20.707831 Si / 1000 Ang^3
#
#
#
# Elastic Constant Matrix: (Units=GPa)
#
#
# Indices 1 2 3 4 5 6 
#
# 1 86.5013 38.9389 13.2864 0.0000 16.9819 0.0000
# 2 38.9389 133.3379 26.1366 0.0000 4.5553 0.0000
# 3 13.2864 26.1366 42.9215 0.0000 9.6176 0.0000
# 4 0.0000 0.0000 0.0000 27.5730 0.0000 2.9971
# 5 16.9819 4.5553 9.6176 0.0000 21.1321 0.0000
# 6 0.0000 0.0000 0.0000 2.9971 0.0000 22.1515
#
#
#
# Elastic Compliance Matrix: (Units=1/GPa)
#
#
# Indices 1 2 3 4 5 6 
#
# 1 0.015765 -0.004274 0.000395 0.000000 -0.011928 0.000000
# 2 -0.004274 0.009681 -0.005428 0.000000 0.003818 0.000000
# 3 0.000395 -0.005428 0.029276 0.000000 -0.012471 0.000000
# 4 0.000000 0.000000 0.000000 0.036809 0.000000 -0.004980
# 5 -0.011928 0.003818 -0.012471 0.000000 0.061759 0.000000
# 6 0.000000 0.000000 0.000000 -0.004980 0.000000 0.045818
#
#
# Mechanical properties :
#
#
# Convention : Reuss Voigt Hill
#
# Bulk Modulus (GPa) = 27.69387 46.60938 37.15163
# Shear Modulus (GPa) = 21.76202 26.46458 24.11330
#
# Velocity S-wave (km/s) = 3.24529 3.57879 3.41611
# Velocity P-wave (km/s) = 5.23881 6.29555 5.79133
#
# Compressibility (1/GPa) = 0.03610907
#
# Stress axis : x y z
#
# Youngs Moduli (GPa) = 63.43000 103.29087 34.15790
#
# Poissons Ratio (x) = 0.44146 -0.01349
# Poissons Ratio (y) = 0.27110 0.18540
# Poissons Ratio (z) = -0.02506 0.56065
#
# Static dielectric constant tensor:
#      x y z
#    x 4.011790 0.000000 0.301690 
#    y 0.000000 4.241480 0.000000 
#    z 0.301690 0.000000 3.330640 
# 
# 
# High freq. dielectric constant tensor:
#      x y z
#    x 1.817170 0.000000 0.019070 
#    y 0.000000 1.824790 0.000000 
#    z 0.019070 0.000000 1.759020 
# 
# From -- ./inp_files/62847.got.cif
#   From: 2010.06.25/outbox.cif.g09.slc.cpg/sg11_32_cif.got.tgz:62847.got - 2010.06.27 23:14:04.
