data_PCOD8073167
_publ_section_title
;
Structure prediction by ZEFSAII (Michael W. Deem and Ramdas Pophale) SiO2 
 PCOD8073167
Probable space group: P 21/M
;
_chemical_formula_sum "Si O2"
_cell_formula_units_Z 32
_cell_length_a 6.418239
_cell_length_b 13.557892
_cell_length_c 19.274153
_cell_angle_alpha 90.000000
_cell_angle_beta 78.106604
_cell_angle_gamma 90.000000
_cell_volume 1641.189467
_symmetry_space_group_name_H-M "P 21/M"
_symmetry_group_IT_number 11
_symmetry_cell_setting 'monoclinic'
loop_
_space_group_symop_operation_xyz
x,y,z
-x,1/2+y,-z
-x,-y,-z
x,1/2-y,z
loop_
_atom_site_type_symbol
_atom_site_label
_atom_site_fract_x
_atom_site_fract_y
_atom_site_fract_z
Si Si1 0.731975 0.636625 0.107277
Si Si2 0.934563 0.963633 0.224908
Si Si3 0.569459 0.860471 0.504877
Si Si4 0.631440 0.515993 0.861301
Si Si5 0.889010 0.638486 0.948982
Si Si6 0.217376 0.966668 0.451279
Si Si7 0.273793 0.637706 0.825405
Si Si8 0.942517 0.863174 0.367344
O O1 0.663861 0.750000 0.118979
O O2 0.518827 0.574794 0.108445
O O3 0.852414 0.603617 0.167771
O O4 0.890750 0.619558 0.031358
O O5 0.871052 0.912722 0.300833
O O6 0.187888 0.975156 0.202543
O O7 0.823321 0.071263 0.229773
O O8 0.566683 0.750000 0.535389
O O9 0.336570 0.885322 0.490506
O O10 0.742650 0.872039 0.432187
O O11 0.629672 0.936277 0.563306
O O12 0.729545 0.561877 0.924086
O O13 0.508771 0.601988 0.828478
O O14 0.811474 0.750000 0.937889
O O15 0.127568 0.622936 0.904028
O O16 0.154960 0.918285 0.381894
O O17 0.000000 0.000000 0.500000
O O18 0.279845 0.750000 0.798974
O O19 0.005311 0.750000 0.350233
#
# Coordination Sequence:
#
# PCOD8073167 Si02
#       8
#     4   4   4   4   4   4   4   4
#     4  10  21  34  48  72 105 137 171 215 267 319
#     4  10  22  36  51  75 108 141 174 214 258 308
#     4   9  18  34  58  85 112 142 175 213 253 295
#     4  10  20  33  53  75  98 131 174 220 267 319
#     4   9  18  33  53  75  98 128 169 219 274 325
#     4   9  18  33  55  83 112 139 174 214 251 294
#     4   9  19  36  55  73  96 130 174 224 274 321
#     4  10  20  35  56  80 109 147 181 207 246 302
#
# _framework density 19.498054
#
# number of rings (size 3 to 8) (size 9 to 14) (size 15 to 20)
#    0.000    2.500    0.000    1.500    0.000    9.500 
#    0.000    3.125    0.000    8.250    0.000    0.000 
#    0.000    0.000    0.000    0.000    0.000    0.000 
#
# Total GULP energy -396740.372300 kJ/mol
# GULP energy per Si atom -12398.136634 kJ/mol
# Density = 1.945368 g / cm^3
# Si number density = 19.498054 Si / 1000 Ang^3
#
#
#
# Elastic Constant Matrix: (Units=GPa)
#
#
# Indices 1 2 3 4 5 6 
#
# 1 84.6356 31.5290 15.2015 0.0000 12.5752 0.0000
# 2 31.5290 139.4911 40.6802 0.0000 12.5809 0.0000
# 3 15.2015 40.6802 62.6929 0.0000 16.7018 0.0000
# 4 0.0000 0.0000 0.0000 30.0445 0.0000 2.2469
# 5 12.5752 12.5809 16.7018 0.0000 20.5828 0.0000
# 6 0.0000 0.0000 0.0000 2.2469 0.0000 27.4072
#
#
#
# Elastic Compliance Matrix: (Units=1/GPa)
#
#
# Indices 1 2 3 4 5 6 
#
# 1 0.013768 -0.002529 0.000168 0.000000 -0.007002 0.000000
# 2 -0.002529 0.009322 -0.005523 0.000000 0.000329 0.000000
# 3 0.000168 -0.005523 0.023758 0.000000 -0.016005 0.000000
# 4 0.000000 0.000000 0.000000 0.033489 0.000000 -0.002746
# 5 -0.007002 0.000329 -0.016005 0.000000 0.065648 0.000000
# 6 0.000000 0.000000 0.000000 -0.002746 0.000000 0.036712
#
#
# Mechanical properties :
#
#
# Convention : Reuss Voigt Hill
#
# Bulk Modulus (GPa) = 32.17642 51.29344 41.73493
# Shear Modulus (GPa) = 23.94363 28.90084 26.42223
#
# Velocity S-wave (km/s) = 3.50809 3.85417 3.68519
# Velocity P-wave (km/s) = 5.73996 6.79487 6.28957
#
# Compressibility (1/GPa) = 0.03107866
#
# Stress axis : x y z
#
# Youngs Moduli (GPa) = 72.63335 107.27716 42.09186
#
# Poissons Ratio (x) = 0.27136 -0.00709
# Poissons Ratio (y) = 0.18373 0.23247
# Poissons Ratio (z) = -0.01223 0.59249
#
# Static dielectric constant tensor:
#      x y z
#    x 3.622480 0.000000 0.115630 
#    y 0.000000 3.918270 0.000000 
#    z 0.115630 0.000000 3.252480 
# 
# 
# High freq. dielectric constant tensor:
#      x y z
#    x 1.762390 0.000000 0.009250 
#    y 0.000000 1.779110 0.000000 
#    z 0.009250 0.000000 1.723450 
# 
# From -- ./inp_files/57058.got.cif
#   From: 2010.06.25/outbox.cif.g09.slc.cpg/sg11_29_cif.got.tgz:57058.got - 2010.06.27 23:14:04.
