data_PCOD8073161
_publ_section_title
;
Structure prediction by ZEFSAII (Michael W. Deem and Ramdas Pophale) SiO2 
 PCOD8073161
Probable space group: P 21/M
;
_chemical_formula_sum "Si O2"
_cell_formula_units_Z 28
_cell_length_a 12.442940
_cell_length_b 9.125406
_cell_length_c 15.992185
_cell_angle_alpha 90.000000
_cell_angle_beta 124.306193
_cell_angle_gamma 90.000000
_cell_volume 1499.970466
_symmetry_space_group_name_H-M "P 21/M"
_symmetry_group_IT_number 11
_symmetry_cell_setting 'monoclinic'
loop_
_space_group_symop_operation_xyz
x,y,z
-x,1/2+y,-z
-x,-y,-z
x,1/2-y,z
loop_
_atom_site_type_symbol
_atom_site_label
_atom_site_fract_x
_atom_site_fract_y
_atom_site_fract_z
Si Si1 0.038689 0.083969 0.270960
Si Si2 0.755353 0.080416 0.192604
Si Si3 0.486623 0.078465 0.621500
Si Si4 0.700055 0.421570 0.582011
Si Si5 0.312780 0.418571 0.998753
Si Si6 0.072593 0.581957 0.959236
Si Si7 0.457675 0.915238 0.776473
O O1 0.080779 0.250000 0.310728
O O2 0.908285 0.039281 0.264930
O O3 0.012032 0.066954 0.161296
O O4 0.152732 0.974882 0.346152
O O5 0.742694 0.250000 0.158528
O O6 0.688809 0.054160 0.253845
O O7 0.681013 0.982844 0.091685
O O8 0.459195 0.250000 0.607677
O O9 0.619775 0.039136 0.630947
O O10 0.364869 0.998612 0.525879
O O11 0.498745 0.026087 0.722012
O O12 0.700088 0.250000 0.564690
O O13 0.268780 0.250000 0.974747
O O14 0.211850 0.507744 0.010563
O O15 0.451977 0.436276 0.103109
O O16 0.093913 0.750000 0.993791
O O17 0.000000 0.500000 0.000000
O O18 0.469447 0.750000 0.746275
#
# Coordination Sequence:
#
# PCOD8073161 Si02
#       7
#     4   4   4   4   4   4   4
#     4   9  19  35  56  78 105 143 180 220 271 321
#     4   9  19  37  56  79 111 149 187 226 270 318
#     4  10  22  38  57  83 109 138 178 225 276 328
#     4  10  21  38  59  82 108 139 176 222 276 331
#     4  10  20  33  52  80 111 148 186 224 272 322
#     4  10  21  35  51  76 111 147 184 227 269 320
#     4  10  21  36  56  81 112 146 185 229 273 322
#
# _framework density 18.667034000000001
#
# number of rings (size 3 to 8) (size 9 to 14) (size 15 to 20)
#    0.000    2.286    0.000    3.000    2.000    6.286 
#    0.000    0.714    0.000    0.000    0.000    0.000 
#    0.000    0.000    0.000    0.000    0.000    0.000 
#
# Total GULP energy -347253.024622 kJ/mol
# GULP energy per Si atom -12401.893736 kJ/mol
# Density = 1.862455 g / cm^3
# Si number density = 18.667034 Si / 1000 Ang^3
#
#
#
# Elastic Constant Matrix: (Units=GPa)
#
#
# Indices 1 2 3 4 5 6 
#
# 1 88.2010 44.5121 37.7741 0.0000 5.4602 0.0000
# 2 44.5121 105.7849 40.8959 0.0000 4.7929 0.0000
# 3 37.7741 40.8959 60.5554 0.0000 7.8607 0.0000
# 4 0.0000 0.0000 0.0000 36.4778 0.0000 0.7914
# 5 5.4602 4.7929 7.8607 0.0000 26.4146 0.0000
# 6 0.0000 0.0000 0.0000 0.7914 0.0000 29.7949
#
#
#
# Elastic Compliance Matrix: (Units=1/GPa)
#
#
# Indices 1 2 3 4 5 6 
#
# 1 0.016667 -0.004054 -0.007600 0.000000 -0.000448 0.000000
# 2 -0.004054 0.013781 -0.006826 0.000000 0.000369 0.000000
# 3 -0.007600 -0.006826 0.026525 0.000000 -0.005084 0.000000
# 4 0.000000 0.000000 0.000000 0.027430 0.000000 -0.000729
# 5 -0.000448 0.000369 -0.005084 0.000000 0.039396 0.000000
# 6 0.000000 0.000000 0.000000 -0.000729 0.000000 0.033582
#
#
# Mechanical properties :
#
#
# Convention : Reuss Voigt Hill
#
# Bulk Modulus (GPa) = 49.97178 55.65615 52.81397
# Shear Modulus (GPa) = 24.87411 27.29474 26.08443
#
# Velocity S-wave (km/s) = 3.65432 3.82801 3.74217
# Velocity P-wave (km/s) = 6.68084 7.02980 6.85754
#
# Compressibility (1/GPa) = 0.02001129
#
# Stress axis : x y z
#
# Youngs Moduli (GPa) = 60.00030 72.56200 37.70096
#
# Poissons Ratio (x) = 0.29420 0.28654
# Poissons Ratio (y) = 0.24327 0.25734
# Poissons Ratio (z) = 0.45602 0.49530
#
# Static dielectric constant tensor:
#      x y z
#    x 3.045440 0.000000 0.271230 
#    y 0.000000 3.524990 0.000000 
#    z 0.271230 0.000000 3.058240 
# 
# 
# High freq. dielectric constant tensor:
#      x y z
#    x 1.732780 0.000000 0.002950 
#    y 0.000000 1.733670 0.000000 
#    z 0.002950 0.000000 1.703320 
# 
# From -- ./inp_files/38485.got.cif
#   From: 2010.06.25/outbox.cif.g09.slc.cpg/sg11_20_cif.got.tgz:38485.got - 2010.06.27 23:14:04.
