data_PCOD8073002
_publ_section_title
;
Structure prediction by ZEFSAII (Michael W. Deem and Ramdas Pophale) SiO2 
 PCOD8073002
Probable space group: P 21/M
;
_chemical_formula_sum "Si O2"
_cell_formula_units_Z 28
_cell_length_a 19.365431
_cell_length_b 9.400421
_cell_length_c 17.479189
_cell_angle_alpha 90.000000
_cell_angle_beta 28.304198
_cell_angle_gamma 90.000000
_cell_volume 1508.738578
_symmetry_space_group_name_H-M "P 21/M"
_symmetry_group_IT_number 11
_symmetry_cell_setting 'monoclinic'
loop_
_space_group_symop_operation_xyz
x,y,z
-x,1/2+y,-z
-x,-y,-z
x,1/2-y,z
loop_
_atom_site_type_symbol
_atom_site_label
_atom_site_fract_x
_atom_site_fract_y
_atom_site_fract_z
Si Si1 0.363563 0.084055 0.665109
Si Si2 0.936672 0.417620 0.311930
Si Si3 0.859742 0.092546 0.550376
Si Si4 0.802208 0.593415 0.739983
Si Si5 0.264547 0.417704 0.027576
Si Si6 0.251971 0.090087 0.615269
Si Si7 0.582535 0.082706 0.246824
O O1 0.401342 0.250000 0.644389
O O2 0.240892 0.073620 0.718485
O O3 0.500000 0.000000 0.500000
O O4 0.318414 0.003597 0.787436
O O5 0.917128 0.250000 0.325749
O O6 0.855890 0.472738 0.468272
O O7 0.865487 0.486739 0.307156
O O8 0.106258 0.457312 0.148692
O O9 0.792052 0.250000 0.616149
O O10 0.025971 0.098952 0.414472
O O11 0.763754 0.002926 0.704110
O O12 0.743965 0.750000 0.777217
O O13 0.725794 0.538891 0.892323
O O14 0.296915 0.250000 0.985202
O O15 0.382269 0.515284 0.869887
O O16 0.212239 0.250000 0.629735
O O17 0.413611 0.053263 0.428196
O O18 0.620336 0.250000 0.213039
#
# Coordination Sequence:
#
# PCOD8073002 Si02
#       7
#     4   4   4   4   4   4   4
#     4   9  17  31  50  71  94 121 156 197 235 274
#     4   9  18  31  48  71  98 126 156 191 234 282
#     4   8  14  25  41  64  92 119 151 190 227 269
#     4   8  14  25  42  64  90 120 153 188 228 273
#     4   9  18  32  48  70  99 126 155 194 236 279
#     4   9  19  33  49  71  96 120 153 195 233 275
#     4  10  20  33  50  73  96 122 159 197 234 279
#
# _framework density 18.558548999999999
#
# number of rings (size 3 to 8) (size 9 to 14) (size 15 to 20)
#    0.000    3.143    0.000    3.429    0.000    5.143 
#    0.000    3.571    0.000    0.857    0.000    0.000 
#    0.000    0.000    0.000    0.000    0.000    0.000 
#
# Total GULP energy -346978.383314 kJ/mol
# GULP energy per Si atom -12392.085118 kJ/mol
# Density = 1.851631 g / cm^3
# Si number density = 18.558549 Si / 1000 Ang^3
#
#
#
# Elastic Constant Matrix: (Units=GPa)
#
#
# Indices 1 2 3 4 5 6 
#
# 1 16.9869 4.3284 -9.3304 0.0000 1.9005 0.0000
# 2 4.3284 61.8818 14.0676 0.0000 7.3797 0.0000
# 3 -9.3304 14.0676 36.8102 0.0000 16.2025 0.0000
# 4 0.0000 0.0000 0.0000 27.9938 0.0000 7.4912
# 5 1.9005 7.3797 16.2025 0.0000 23.0441 0.0000
# 6 0.0000 0.0000 0.0000 7.4912 0.0000 33.4494
#
#
#
# Elastic Compliance Matrix: (Units=1/GPa)
#
#
# Indices 1 2 3 4 5 6 
#
# 1 0.087942 -0.011606 0.040959 0.000000 -0.032335 0.000000
# 2 -0.011606 0.019257 -0.011597 0.000000 0.002945 0.000000
# 3 0.040959 -0.011597 0.060582 0.000000 -0.042260 0.000000
# 4 0.000000 0.000000 0.000000 0.038000 0.000000 -0.008510
# 5 -0.032335 0.002945 -0.042260 0.000000 0.074832 0.000000
# 6 0.000000 0.000000 0.000000 -0.008510 0.000000 0.031802
#
#
# Mechanical properties :
#
#
# Convention : Reuss Voigt Hill
#
# Bulk Modulus (GPa) = 4.91905 14.86780 9.89342
# Shear Modulus (GPa) = 14.50674 24.00500 19.25587
#
# Velocity S-wave (km/s) = 2.79888 3.60039 3.22463
# Velocity P-wave (km/s) = 3.61957 5.03115 4.38256
#
# Compressibility (1/GPa) = 0.20329134
#
# Stress axis : x y z
#
# Youngs Moduli (GPa) = 11.37116 51.92926 16.50658
#
# Poissons Ratio (x) = 0.60272 -0.67610
# Poissons Ratio (y) = 0.13198 0.19143
# Poissons Ratio (z) = -0.46575 0.60225
#
# Static dielectric constant tensor:
#      x y z
#    x 3.525790 0.000000 0.478520 
#    y 0.000000 3.538530 0.000000 
#    z 0.478520 0.000000 3.193340 
# 
# 
# High freq. dielectric constant tensor:
#      x y z
#    x 1.708000 0.000000 0.034050 
#    y 0.000000 1.720290 0.000000 
#    z 0.034050 0.000000 1.688330 
# 
# From -- ./inp_files/25601.got.cif
#   From: 2010.06.25/outbox.cif.g09.slc.cpg/sg11_13_cif.got.tgz:25601.got - 2010.06.27 23:14:04.
