data_PCOD8073823
_publ_section_title
;
Structure prediction by ZEFSAII (Michael W. Deem and Ramdas Pophale) SiO2 
 PCOD8073823
Probable space group: P 21/M
;
_chemical_formula_sum "Si O2"
_cell_formula_units_Z 28
_cell_length_a 14.977068
_cell_length_b 14.026427
_cell_length_c 8.652377
_cell_angle_alpha 90.000000
_cell_angle_beta 128.341553
_cell_angle_gamma 90.000000
_cell_volume 1425.628204
_symmetry_space_group_name_H-M "P 21/M"
_symmetry_group_IT_number 11
_symmetry_cell_setting 'monoclinic'
loop_
_space_group_symop_operation_xyz
x,y,z
-x,1/2+y,-z
-x,-y,-z
x,1/2-y,z
loop_
_atom_site_type_symbol
_atom_site_label
_atom_site_fract_x
_atom_site_fract_y
_atom_site_fract_z
Si Si1 0.235522 0.095673 0.318206
Si Si2 0.183187 0.979739 0.988808
Si Si3 0.818785 0.640036 0.247820
Si Si4 0.449324 0.144306 0.380425
Si Si5 0.620884 0.637845 0.247750
Si Si6 0.431882 0.549715 0.203840
Si Si7 0.964749 0.644323 0.695955
O O1 0.316265 0.154408 0.287123
O O2 0.310165 0.076065 0.550736
O O3 0.119388 0.147014 0.245959
O O4 0.202634 0.998031 0.192842
O O5 0.076659 0.913179 0.853051
O O6 0.153942 0.079594 0.873844
O O7 0.296870 0.933577 0.037187
O O8 0.842208 0.750000 0.234455
O O9 0.685241 0.625429 0.153408
O O10 0.898715 0.604464 0.474756
O O11 0.486793 0.250000 0.360011
O O12 0.527116 0.113703 0.608023
O O13 0.459888 0.062766 0.260369
O O14 0.619668 0.750000 0.293125
O O15 0.494692 0.590706 0.116437
O O16 0.006317 0.750000 0.705527
#
# Coordination Sequence:
#
# PCOD8073823 Si02
#       7
#     4   4   4   4   4   4   4
#     4   9  17  31  52  74  93 121 163 203 233 268
#     4  11  21  31  49  77 104 122 153 206 249 281
#     4   9  20  36  54  71  90 126 170 205 238 278
#     4   9  16  29  48  71 101 130 158 196 237 280
#     4   9  17  34  55  71  95 130 163 194 233 287
#     4   9  18  28  46  75  99 126 158 193 242 290
#     4  10  20  35  51  69  97 133 164 191 238 297
#
# _framework density 19.640464999999999
#
# number of rings (size 3 to 8) (size 9 to 14) (size 15 to 20)
#    0.000    2.571    0.000    5.143    0.000    5.143 
#    0.000    0.000    0.000    0.857    0.000    8.000 
#    0.000    0.000    0.000    0.000    0.000    0.000 
#
# Total GULP energy -346885.087688 kJ/mol
# GULP energy per Si atom -12388.753132 kJ/mol
# Density = 1.959576 g / cm^3
# Si number density = 19.640465 Si / 1000 Ang^3
#
#
#
# Elastic Constant Matrix: (Units=GPa)
#
#
# Indices 1 2 3 4 5 6 
#
# 1 63.6355 40.1258 23.8578 0.0000 18.2143 0.0000
# 2 40.1258 82.7795 25.7297 0.0000 11.4175 0.0000
# 3 23.8578 25.7297 51.1573 0.0000 18.4682 0.0000
# 4 0.0000 0.0000 0.0000 15.8092 0.0000 5.5834
# 5 18.2143 11.4175 18.4682 0.0000 28.5074 0.0000
# 6 0.0000 0.0000 0.0000 5.5834 0.0000 29.9969
#
#
#
# Elastic Compliance Matrix: (Units=1/GPa)
#
#
# Indices 1 2 3 4 5 6 
#
# 1 0.026546 -0.010366 -0.003318 0.000000 -0.010660 0.000000
# 2 -0.010366 0.018409 -0.005422 0.000000 0.002763 0.000000
# 3 -0.003318 -0.005422 0.029072 0.000000 -0.014542 0.000000
# 4 0.000000 0.000000 0.000000 0.067705 0.000000 -0.012602
# 5 -0.010660 0.002763 -0.014542 0.000000 0.050204 0.000000
# 6 0.000000 0.000000 0.000000 -0.012602 0.000000 0.035682
#
#
# Mechanical properties :
#
#
# Convention : Reuss Voigt Hill
#
# Bulk Modulus (GPa) = 27.92142 41.88875 34.90508
# Shear Modulus (GPa) = 18.00051 22.05328 20.02690
#
# Velocity S-wave (km/s) = 3.03066 3.35453 3.19670
# Velocity P-wave (km/s) = 5.14720 6.03141 5.60676
#
# Compressibility (1/GPa) = 0.03581480
#
# Stress axis : x y z
#
# Youngs Moduli (GPa) = 37.67038 54.32041 34.39745
#
# Poissons Ratio (x) = 0.56309 0.11414
# Poissons Ratio (y) = 0.39049 0.18650
# Poissons Ratio (z) = 0.12500 0.29453
#
# Static dielectric constant tensor:
#      x y z
#    x 3.627800 0.000000 0.114290 
#    y 0.000000 3.438560 0.000000 
#    z 0.114290 0.000000 3.503560 
# 
# 
# High freq. dielectric constant tensor:
#      x y z
#    x 1.753390 0.000000 0.006460 
#    y 0.000000 1.745380 0.000000 
#    z 0.006460 0.000000 1.754430 
# 
# From -- ./inp_files/22281.got.cif
#   From: 2010.06.25/outbox.cif.g09.slc.cpg/sg11_12_cif.got.tgz:22281.got - 2010.06.27 23:14:04.
