data_PCOD8073578
_publ_section_title
;
Structure prediction by ZEFSAII (Michael W. Deem and Ramdas Pophale) SiO2 
 PCOD8073578
Probable space group: P 21/M
;
_chemical_formula_sum "Si O2"
_cell_formula_units_Z 32
_cell_length_a 20.092355
_cell_length_b 11.210949
_cell_length_c 19.962259
_cell_angle_alpha 90.000000
_cell_angle_beta 158.011500
_cell_angle_gamma 90.000000
_cell_volume 1683.613932
_symmetry_space_group_name_H-M "P 21/M"
_symmetry_group_IT_number 11
_symmetry_cell_setting 'monoclinic'
loop_
_space_group_symop_operation_xyz
x,y,z
-x,1/2+y,-z
-x,-y,-z
x,1/2-y,z
loop_
_atom_site_type_symbol
_atom_site_label
_atom_site_fract_x
_atom_site_fract_y
_atom_site_fract_z
Si Si1 0.388165 0.999107 0.292609
Si Si2 0.840756 0.115102 0.516206
Si Si3 0.719229 0.889306 0.671690
Si Si4 0.941344 0.386966 0.084228
Si Si5 0.165398 0.520594 0.877819
Si Si6 0.395290 0.883394 0.982445
Si Si7 0.638603 0.115314 0.199625
Si Si8 0.517179 0.888215 0.752910
O O1 0.292731 0.066941 0.263594
O O2 0.465844 0.091023 0.310703
O O3 0.545256 0.917818 0.466684
O O4 0.245280 0.916325 0.123526
O O5 0.860548 0.250000 0.559286
O O6 0.810624 0.105816 0.407835
O O7 0.669674 0.057296 0.394734
O O8 0.025254 0.054208 0.704879
O O9 0.740993 0.750000 0.695605
O O10 0.891460 0.950749 0.796959
O O11 0.976590 0.250000 0.108041
O O12 0.942132 0.415602 0.163448
O O13 0.248025 0.615633 0.903252
O O14 0.319384 0.441354 0.053586
O O15 0.488655 0.750000 0.074351
O O16 0.303543 0.894740 0.823767
O O17 0.516295 0.001423 0.104965
O O18 0.551664 0.250000 0.130624
O O19 0.519750 0.750000 0.771276
#
# Coordination Sequence:
#
# PCOD8073578 Si02
#       8
#     4   4   4   4   4   4   4   4
#     4  10  20  34  55  78 102 137 179 223 272 324
#     4  10  20  35  56  83 111 145 188 232 280 337
#     4  10  20  35  54  77 104 136 176 221 271 327
#     4  10  21  36  52  74 107 144 178 218 269 330
#     4  11  21  34  56  80 112 147 186 225 280 332
#     4  10  20  36  58  85 116 149 190 236 283 338
#     4   9  19  37  60  84 114 150 189 236 286 337
#     4  10  20  35  54  80 111 143 183 233 277 326
#
# _framework density 19.006734000000002
#
# number of rings (size 3 to 8) (size 9 to 14) (size 15 to 20)
#    0.000    2.000    1.250    2.625    0.000    1.000 
#    0.000    1.250    0.000   12.000    0.000    0.000 
#    0.000    0.000    0.000    0.000    0.000    0.000 
#
# Total GULP energy -396513.419795 kJ/mol
# GULP energy per Si atom -12391.044369 kJ/mol
# Density = 1.896347 g / cm^3
# Si number density = 19.006734 Si / 1000 Ang^3
#
#
#
# Elastic Constant Matrix: (Units=GPa)
#
#
# Indices 1 2 3 4 5 6 
#
# 1 124.2480 29.5411 24.3188 0.0000 -12.1847 0.0000
# 2 29.5411 88.3294 28.8211 0.0000 -2.0482 0.0000
# 3 24.3188 28.8211 68.6169 0.0000 -12.7299 0.0000
# 4 0.0000 0.0000 0.0000 19.0204 0.0000 8.4906
# 5 -12.1847 -2.0482 -12.7299 0.0000 25.9463 0.0000
# 6 0.0000 0.0000 0.0000 8.4906 0.0000 17.4973
#
#
#
# Elastic Compliance Matrix: (Units=1/GPa)
#
#
# Indices 1 2 3 4 5 6 
#
# 1 0.009290 -0.002501 -0.001616 0.000000 0.003372 0.000000
# 2 -0.002501 0.013873 -0.005451 0.000000 -0.002754 0.000000
# 3 -0.001616 -0.005451 0.018939 0.000000 0.008103 0.000000
# 4 0.000000 0.000000 0.000000 0.067113 0.000000 -0.032567
# 5 0.003372 -0.002754 0.008103 0.000000 0.043883 0.000000
# 6 0.000000 0.000000 0.000000 -0.032567 0.000000 0.072955
#
#
# Mechanical properties :
#
#
# Convention : Reuss Voigt Hill
#
# Bulk Modulus (GPa) = 43.54594 49.61738 46.58166
# Shear Modulus (GPa) = 19.77491 25.72703 22.75097
#
# Velocity S-wave (km/s) = 3.22905 3.68309 3.46352
# Velocity P-wave (km/s) = 6.07148 6.65197 6.36834
#
# Compressibility (1/GPa) = 0.02296425
#
# Stress axis : x y z
#
# Youngs Moduli (GPa) = 107.63989 72.08392 52.79984
#
# Poissons Ratio (x) = 0.18032 0.08534
# Poissons Ratio (y) = 0.26926 0.28783
# Poissons Ratio (z) = 0.17397 0.39295
#
# Static dielectric constant tensor:
#      x y z
#    x 4.027870 0.000000 -0.042660 
#    y 0.000000 3.452090 0.000000 
#    z -0.042660 0.000000 3.349770 
# 
# 
# High freq. dielectric constant tensor:
#      x y z
#    x 1.759890 0.000000 -0.009670 
#    y 0.000000 1.733300 0.000000 
#    z -0.009670 0.000000 1.726390 
# 
# From -- ./inp_files/66535.got.cif
#   From: 2010.06.25/outbox.cif.g09.slc.cpg/sg11_34_cif.got.tgz:66535.got - 2010.06.27 23:14:04.
