data_PCOD8073078
_publ_section_title
;
Structure prediction by ZEFSAII (Michael W. Deem and Ramdas Pophale) SiO2 
 PCOD8073078
Probable space group: P 21/M
;
_chemical_formula_sum "Si O2"
_cell_formula_units_Z 28
_cell_length_a 23.788404
_cell_length_b 9.140417
_cell_length_c 24.893606
_cell_angle_alpha 90.000000
_cell_angle_beta 16.844852
_cell_angle_gamma 90.000000
_cell_volume 1568.516898
_symmetry_space_group_name_H-M "P 21/M"
_symmetry_group_IT_number 11
_symmetry_cell_setting 'monoclinic'
loop_
_space_group_symop_operation_xyz
x,y,z
-x,1/2+y,-z
-x,-y,-z
x,1/2-y,z
loop_
_atom_site_type_symbol
_atom_site_label
_atom_site_fract_x
_atom_site_fract_y
_atom_site_fract_z
Si Si1 0.131327 0.578848 0.716707
Si Si2 0.722554 0.577693 0.724654
Si Si3 0.861606 0.079505 0.696325
Si Si4 0.348274 0.578047 0.007249
Si Si5 0.767412 0.424935 0.003412
Si Si6 0.439492 0.421569 0.712810
Si Si7 0.940863 0.918199 0.000964
O O1 0.093867 0.750000 0.739881
O O2 0.350307 0.532666 0.501870
O O3 0.982797 0.485871 0.816812
O O4 0.091312 0.542385 0.815734
O O5 0.701453 0.750000 0.752687
O O6 0.717012 0.504422 0.788379
O O7 0.918397 0.532716 0.515159
O O8 0.551068 0.514911 0.844225
O O9 0.826072 0.250000 0.718726
O O10 0.817322 0.036391 0.798251
O O11 0.368129 0.750000 0.982376
O O12 0.294745 0.513832 0.998161
O O13 0.771971 0.250000 0.002912
O O14 0.607789 0.486843 0.190616
O O15 0.429160 0.250000 0.736474
O O16 0.278099 0.461161 0.815800
O O17 0.952863 0.750000 0.004618
O O18 0.000000 0.000000 0.000000
#
# Coordination Sequence:
#
# PCOD8073078 Si02
#       7
#     4   4   4   4   4   4   4
#     4   9  19  37  56  72  99 140 174 201 244 298
#     4   9  17  30  47  66  90 120 153 190 234 286
#     4   9  17  30  47  66  90 120 153 190 234 286
#     4   9  18  31  47  68  94 124 154 189 242 297
#     4  10  20  33  51  77 103 127 166 216 254 290
#     4   9  19  37  56  72  99 140 174 201 244 298
#     4   9  18  32  51  77 106 133 164 203 245 291
#
# _framework density 17.851258000000001
#
# number of rings (size 3 to 8) (size 9 to 14) (size 15 to 20)
#    0.000    2.857    0.000    1.714    0.000    4.571 
#    0.000    5.714    0.000    3.429    0.000    0.000 
#    0.000    0.000    0.000    0.000    0.000    0.000 
#
# Total GULP energy -347134.448283 kJ/mol
# GULP energy per Si atom -12397.658867 kJ/mol
# Density = 1.781063 g / cm^3
# Si number density = 17.851258 Si / 1000 Ang^3
#
#
#
# Elastic Constant Matrix: (Units=GPa)
#
#
# Indices 1 2 3 4 5 6 
#
# 1 152.2044 47.3132 54.2463 0.0000 3.0208 0.0000
# 2 47.3132 43.4306 31.0040 0.0000 1.2738 0.0000
# 3 54.2463 31.0040 116.6212 0.0000 11.0108 0.0000
# 4 0.0000 0.0000 0.0000 22.6263 0.0000 -1.7587
# 5 3.0208 1.2738 11.0108 0.0000 17.6218 0.0000
# 6 0.0000 0.0000 0.0000 -1.7587 0.0000 28.6963
#
#
#
# Elastic Compliance Matrix: (Units=1/GPa)
#
#
# Indices 1 2 3 4 5 6 
#
# 1 0.010394 -0.009699 -0.002289 0.000000 0.000350 0.000000
# 2 -0.009699 0.037604 -0.005723 0.000000 0.002521 0.000000
# 3 -0.002289 -0.005723 0.011780 0.000000 -0.006554 0.000000
# 4 0.000000 0.000000 0.000000 0.044408 0.000000 0.002722
# 5 0.000350 0.002521 -0.006554 0.000000 0.060601 0.000000
# 6 0.000000 0.000000 0.000000 0.002722 0.000000 0.035015
#
#
# Mechanical properties :
#
#
# Convention : Reuss Voigt Hill
#
# Bulk Modulus (GPa) = 41.06132 64.15369 52.60751
# Shear Modulus (GPa) = 20.54713 25.76840 23.15776
#
# Velocity S-wave (km/s) = 3.39635 3.80347 3.60566
# Velocity P-wave (km/s) = 6.19936 7.43670 6.84604
#
# Compressibility (1/GPa) = 0.02435382
#
# Stress axis : x y z
#
# Youngs Moduli (GPa) = 96.20787 26.59323 84.88961
#
# Poissons Ratio (x) = 0.25794 0.19433
# Poissons Ratio (y) = 0.93316 0.48585
# Poissons Ratio (z) = 0.22024 0.15220
#
# Static dielectric constant tensor:
#      x y z
#    x 3.416910 0.000000 0.005450 
#    y 0.000000 3.102460 0.000000 
#    z 0.005450 0.000000 3.557730 
# 
# 
# High freq. dielectric constant tensor:
#      x y z
#    x 1.690650 0.000000 0.002350 
#    y 0.000000 1.672810 0.000000 
#    z 0.002350 0.000000 1.699670 
# 
# From -- ./inp_files/69781.got.cif
#   From: 2010.06.25/outbox.cif.g09.slc.cpg/sg11_35_cif.got.tgz:69781.got - 2010.06.27 23:14:04.
