data_PCOD8073090
_publ_section_title
;
Structure prediction by ZEFSAII (Michael W. Deem and Ramdas Pophale) SiO2 
 PCOD8073090
Probable space group: P 21/M
;
_chemical_formula_sum "Si O2"
_cell_formula_units_Z 24
_cell_length_a 28.329856
_cell_length_b 9.906250
_cell_length_c 20.084033
_cell_angle_alpha 90.000000
_cell_angle_beta 167.798794
_cell_angle_gamma 90.000000
_cell_volume 1191.234642
_symmetry_space_group_name_H-M "P 21/M"
_symmetry_group_IT_number 11
_symmetry_cell_setting 'monoclinic'
loop_
_space_group_symop_operation_xyz
x,y,z
-x,1/2+y,-z
-x,-y,-z
x,1/2-y,z
loop_
_atom_site_type_symbol
_atom_site_label
_atom_site_fract_x
_atom_site_fract_y
_atom_site_fract_z
Si Si1 0.009369 0.605318 0.570344
Si Si2 0.010157 0.401679 0.751253
Si Si3 0.669497 0.462271 0.177611
Si Si4 0.204763 0.405912 0.299904
Si Si5 0.272233 0.100137 0.545291
Si Si6 0.344466 0.596366 0.147414
O O1 0.008908 0.750000 0.534798
O O2 0.788131 0.594631 0.311136
O O3 0.000000 0.500000 0.500000
O O4 0.228707 0.585859 0.916313
O O5 0.069346 0.250000 0.859354
O O6 0.867896 0.378239 0.487014
O O7 0.869604 0.485863 0.611985
O O8 0.237122 0.486969 0.050032
O O9 0.500000 0.500000 0.000000
O O10 0.528563 0.388828 0.925407
O O11 0.132377 0.250000 0.194171
O O12 0.284984 0.438547 0.485400
O O13 0.397604 0.438380 0.511625
O O14 0.000000 0.500000 0.000000
O O15 0.165293 0.250000 0.407880
O O16 0.317597 0.750000 0.138556
#
# Coordination Sequence:
#
# PCOD8073090 Si02
#       6
#     4   4   4   4   4   4
#     4  10  20  33  51  77 110 146 183 220 263 320
#     4  10  20  33  54  87 118 144 179 222 263 311
#     4   9  19  33  52  79 114 150 183 216 257 314
#     4  10  22  40  61  82 104 137 184 233 280 326
#     4  10  20  36  57  80 111 151 185 217 268 331
#     4   9  19  37  56  75 106 146 180 216 270 332
#
# _framework density 20.147164
#
# number of rings (size 3 to 8) (size 9 to 14) (size 15 to 20)
#    0.000    2.333    0.000    2.000    0.000   12.667 
#    0.000    2.500    0.000    0.000    0.000    0.000 
#    0.000    0.000    0.000    0.000    0.000    0.000 
#
# Total GULP energy -297342.907353 kJ/mol
# GULP energy per Si atom -12389.287806 kJ/mol
# Density = 2.010131 g / cm^3
# Si number density = 20.147164 Si / 1000 Ang^3
#
#
#
# Elastic Constant Matrix: (Units=GPa)
#
#
# Indices 1 2 3 4 5 6 
#
# 1 48.6008 26.5328 24.8169 0.0000 9.4715 0.0000
# 2 26.5328 131.2441 37.7435 0.0000 18.6775 0.0000
# 3 24.8169 37.7435 91.3992 0.0000 20.9911 0.0000
# 4 0.0000 0.0000 0.0000 17.0943 0.0000 2.0657
# 5 9.4715 18.6775 20.9911 0.0000 29.5928 0.0000
# 6 0.0000 0.0000 0.0000 2.0657 0.0000 31.2353
#
#
#
# Elastic Compliance Matrix: (Units=1/GPa)
#
#
# Indices 1 2 3 4 5 6 
#
# 1 0.025422 -0.003362 -0.004937 0.000000 -0.002513 0.000000
# 2 -0.003362 0.009404 -0.002215 0.000000 -0.003288 0.000000
# 3 -0.004937 -0.002215 0.014947 0.000000 -0.007624 0.000000
# 4 0.000000 0.000000 0.000000 0.058970 0.000000 -0.003900
# 5 -0.002513 -0.003288 -0.007624 0.000000 0.042079 0.000000
# 6 0.000000 0.000000 0.000000 -0.003900 0.000000 0.032273
#
#
# Mechanical properties :
#
#
# Convention : Reuss Voigt Hill
#
# Bulk Modulus (GPa) = 34.78973 49.93672 42.36323
# Shear Modulus (GPa) = 23.39653 27.72787 25.56220
#
# Velocity S-wave (km/s) = 3.41145 3.71383 3.56585
# Velocity P-wave (km/s) = 5.72911 6.57494 6.16654
#
# Compressibility (1/GPa) = 0.02874412
#
# Stress axis : x y z
#
# Youngs Moduli (GPa) = 39.33606 106.33664 66.90098
#
# Poissons Ratio (x) = 0.35750 0.33031
# Poissons Ratio (y) = 0.13225 0.14822
# Poissons Ratio (z) = 0.19421 0.23559
#
# Static dielectric constant tensor:
#      x y z
#    x 3.670910 0.000000 0.124000 
#    y 0.000000 3.580360 0.000000 
#    z 0.124000 0.000000 4.056920 
# 
# 
# High freq. dielectric constant tensor:
#      x y z
#    x 1.780690 0.000000 0.015840 
#    y 0.000000 1.783840 0.000000 
#    z 0.015840 0.000000 1.772230 
# 
# From -- ./inp_files/67469.got.cif
#   From: 2010.06.25/outbox.cif.g09.slc.cpg/sg11_34_cif.got.tgz:67469.got - 2010.06.27 23:14:04.
