data_PCOD8073455
_publ_section_title
;
Structure prediction by ZEFSAII (Michael W. Deem and Ramdas Pophale) SiO2 
 PCOD8073455
Probable space group: P 21/M
;
_chemical_formula_sum "Si O2"
_cell_formula_units_Z 32
_cell_length_a 24.627010
_cell_length_b 8.967372
_cell_length_c 14.523243
_cell_angle_alpha 90.000000
_cell_angle_beta 31.316184
_cell_angle_gamma 90.000000
_cell_volume 1667.031102
_symmetry_space_group_name_H-M "P 21/M"
_symmetry_group_IT_number 11
_symmetry_cell_setting 'monoclinic'
loop_
_space_group_symop_operation_xyz
x,y,z
-x,1/2+y,-z
-x,-y,-z
x,1/2-y,z
loop_
_atom_site_type_symbol
_atom_site_label
_atom_site_fract_x
_atom_site_fract_y
_atom_site_fract_z
Si Si1 0.609051 0.923640 0.827423
Si Si2 0.760339 0.421325 0.482768
Si Si3 0.726134 0.076915 0.324552
Si Si4 0.486395 0.072481 0.420234
Si Si5 0.158612 0.076658 0.001668
Si Si6 0.929608 0.075298 0.383879
Si Si7 0.778484 0.576330 0.732452
Si Si8 0.684901 0.923268 0.059186
O O1 0.590568 0.750000 0.844452
O O2 0.681202 0.966035 0.809173
O O3 0.661330 0.982405 0.658144
O O4 0.500000 0.000000 0.000000
O O5 0.734378 0.250000 0.542134
O O6 0.777622 0.447956 0.349813
O O7 0.863767 0.471837 0.388587
O O8 0.699568 0.250000 0.344954
O O9 0.621324 0.980651 0.468460
O O10 0.812834 0.020904 0.127914
O O11 0.485487 0.250000 0.431763
O O12 0.500000 0.000000 0.500000
O O13 0.580276 0.020888 0.217995
O O14 0.152512 0.250000 0.982268
O O15 0.245954 0.049206 0.951484
O O16 0.047591 0.018342 0.199764
O O17 0.928341 0.250000 0.401515
O O18 0.882412 0.003935 0.544918
O O19 0.802985 0.750000 0.695029
O O20 0.750812 0.522415 0.875350
O O21 0.653273 0.750000 0.094341
#
# Coordination Sequence:
#
# PCOD8073455 Si02
#       8
#     4   4   4   4   4   4   4   4
#     4  10  20  34  53  79 109 145 188 234 284 338
#     4   9  20  38  57  79 112 150 188 233 286 337
#     4  11  23  38  58  84 114 151 192 235 285 340
#     4  12  24  39  59  84 115 151 189 234 284 337
#     4  10  21  37  59  84 113 150 191 236 286 337
#     4   9  19  38  60  83 113 149 190 238 286 334
#     4   9  20  37  56  80 112 149 188 231 283 338
#     4  10  21  38  58  83 116 153 189 229 282 341
#
# _framework density 19.195803000000002
#
# number of rings (size 3 to 8) (size 9 to 14) (size 15 to 20)
#    0.000    2.000    1.250    1.875    1.750    3.500 
#    0.000    0.000    0.000    0.000    0.000    0.000 
#    0.000    0.000    0.000    0.000    0.000    0.000 
#
# Total GULP energy -396915.492623 kJ/mol
# GULP energy per Si atom -12403.609144 kJ/mol
# Density = 1.915211 g / cm^3
# Si number density = 19.195803 Si / 1000 Ang^3
#
#
#
# Elastic Constant Matrix: (Units=GPa)
#
#
# Indices 1 2 3 4 5 6 
#
# 1 42.2579 24.2587 24.5084 0.0000 21.4171 0.0000
# 2 24.2587 74.8856 49.3527 0.0000 5.8694 0.0000
# 3 24.5084 49.3527 141.8912 0.0000 7.4583 0.0000
# 4 0.0000 0.0000 0.0000 38.6176 0.0000 4.3486
# 5 21.4171 5.8694 7.4583 0.0000 34.8523 0.0000
# 6 0.0000 0.0000 0.0000 4.3486 0.0000 24.2887
#
#
#
# Elastic Compliance Matrix: (Units=1/GPa)
#
#
# Indices 1 2 3 4 5 6 
#
# 1 0.043593 -0.010495 -0.002593 0.000000 -0.024466 0.000000
# 2 -0.010495 0.019946 -0.005347 0.000000 0.004235 0.000000
# 3 -0.002593 -0.005347 0.009329 0.000000 0.000498 0.000000
# 4 0.000000 0.000000 0.000000 0.026428 0.000000 -0.004732
# 5 -0.024466 0.004235 0.000498 0.000000 0.042907 0.000000
# 6 0.000000 0.000000 0.000000 -0.004732 0.000000 0.042018
#
#
# Mechanical properties :
#
#
# Convention : Reuss Voigt Hill
#
# Bulk Modulus (GPa) = 27.78041 50.58602 39.18321
# Shear Modulus (GPa) = 21.45085 30.27938 25.86512
#
# Velocity S-wave (km/s) = 3.34649 3.97595 3.67473
# Velocity P-wave (km/s) = 5.42546 6.89111 6.20173
#
# Compressibility (1/GPa) = 0.03599659
#
# Stress axis : x y z
#
# Youngs Moduli (GPa) = 22.93969 50.13617 107.18872
#
# Poissons Ratio (x) = 0.52617 0.27797
# Poissons Ratio (y) = 0.24075 0.57318
# Poissons Ratio (z) = 0.05949 0.26810
#
# Static dielectric constant tensor:
#      x y z
#    x 2.834350 0.000000 0.184060 
#    y 0.000000 3.511760 0.000000 
#    z 0.184060 0.000000 3.785230 
# 
# 
# High freq. dielectric constant tensor:
#      x y z
#    x 1.744750 0.000000 0.004260 
#    y 0.000000 1.743840 0.000000 
#    z 0.004260 0.000000 1.754730 
# 
# From -- ./inp_files/51638.got.cif
#   From: 2010.06.25/outbox.cif.g09.slc.cpg/sg11_26_cif.got.tgz:51638.got - 2010.06.27 23:14:04.
