data_PCOD8073663
_publ_section_title
;
Structure prediction by ZEFSAII (Michael W. Deem and Ramdas Pophale) SiO2 
 PCOD8073663
Probable space group: P 21/M
;
_chemical_formula_sum "Si O2"
_cell_formula_units_Z 32
_cell_length_a 9.229933
_cell_length_b 9.093559
_cell_length_c 23.712164
_cell_angle_alpha 90.000000
_cell_angle_beta 58.307229
_cell_angle_gamma 90.000000
_cell_volume 1693.443131
_symmetry_space_group_name_H-M "P 21/M"
_symmetry_group_IT_number 11
_symmetry_cell_setting 'monoclinic'
loop_
_space_group_symop_operation_xyz
x,y,z
-x,1/2+y,-z
-x,-y,-z
x,1/2-y,z
loop_
_atom_site_type_symbol
_atom_site_label
_atom_site_fract_x
_atom_site_fract_y
_atom_site_fract_z
Si Si1 0.312756 0.916224 0.779231
Si Si2 0.177225 0.920880 0.477148
Si Si3 0.505052 0.423338 0.369976
Si Si4 0.914936 0.081581 0.721910
Si Si5 0.586823 0.918719 0.818171
Si Si6 0.014831 0.584394 0.163497
Si Si7 0.604639 0.424882 0.929499
Si Si8 0.205980 0.581933 0.601752
O O1 0.269450 0.750000 0.772764
O O2 0.402978 0.984072 0.705366
O O3 0.426303 0.931316 0.810881
O O4 0.135484 0.990554 0.832326
O O5 0.158227 0.750000 0.465175
O O6 0.235184 0.941305 0.529793
O O7 0.325849 0.992902 0.409627
O O8 0.000000 0.000000 0.500000
O O9 0.466397 0.250000 0.373973
O O10 0.622797 0.462060 0.399766
O O11 0.869549 0.250000 0.717062
O O12 0.992681 0.066248 0.767923
O O13 0.745487 0.984896 0.751612
O O14 0.051118 0.023116 0.649825
O O15 0.625846 0.750000 0.826616
O O16 0.542028 0.011978 0.882728
O O17 0.982010 0.750000 0.151520
O O18 0.197462 0.532357 0.102518
O O19 0.578210 0.250000 0.934742
O O20 0.500000 0.500000 0.000000
O O21 0.156467 0.750000 0.626343
#
# Coordination Sequence:
#
# PCOD8073663 Si02
#       8
#     4   4   4   4   4   4   4   4
#     4  10  21  36  58  86 116 150 190 233 287 342
#     4  11  25  41  57  81 111 149 192 240 296 355
#     4  10  21  39  60  83 111 147 190 240 290 347
#     4  10  20  34  55  85 113 145 190 236 283 339
#     4  10  21  36  56  85 120 154 188 233 282 335
#     4   9  19  35  56  85 118 146 183 232 277 331
#     4  10  21  39  62  90 119 155 197 235 278 332
#     4  10  21  38  60  81 108 146 191 237 291 351
#
# _framework density 18.896412999999999
#
# number of rings (size 3 to 8) (size 9 to 14) (size 15 to 20)
#    0.000    2.000    1.250    2.625    1.750    5.500 
#    0.000    0.625    0.000    0.000    0.000    0.000 
#    0.000    0.000    0.000    0.000    0.000    0.000 
#
# Total GULP energy -396876.054101 kJ/mol
# GULP energy per Si atom -12402.376691 kJ/mol
# Density = 1.885340 g / cm^3
# Si number density = 18.896413 Si / 1000 Ang^3
#
#
#
# Elastic Constant Matrix: (Units=GPa)
#
#
# Indices 1 2 3 4 5 6 
#
# 1 91.4499 55.0924 46.6465 0.0000 -15.2931 0.0000
# 2 55.0924 102.9701 56.3811 0.0000 -11.8477 0.0000
# 3 46.6465 56.3811 115.8257 0.0000 -17.6398 0.0000
# 4 0.0000 0.0000 0.0000 36.0321 0.0000 -6.0501
# 5 -15.2931 -11.8477 -17.6398 0.0000 21.9134 0.0000
# 6 0.0000 0.0000 0.0000 -6.0501 0.0000 32.3637
#
#
#
# Elastic Compliance Matrix: (Units=1/GPa)
#
#
# Indices 1 2 3 4 5 6 
#
# 1 0.017743 -0.007336 -0.002613 0.000000 0.006313 0.000000
# 2 -0.007336 0.016371 -0.005068 0.000000 -0.000348 0.000000
# 3 -0.002613 -0.005068 0.013059 0.000000 0.005948 0.000000
# 4 0.000000 0.000000 0.000000 0.028652 0.000000 0.005356
# 5 0.006313 -0.000348 0.005948 0.000000 0.054640 0.000000
# 6 0.000000 0.000000 0.000000 0.005356 0.000000 0.031900
#
#
# Mechanical properties :
#
#
# Convention : Reuss Voigt Hill
#
# Bulk Modulus (GPa) = 58.34519 69.60953 63.97736
# Shear Modulus (GPa) = 25.23818 28.20355 26.72087
#
# Velocity S-wave (km/s) = 3.65856 3.86752 3.76449
# Velocity P-wave (km/s) = 6.98499 7.54063 7.26812
#
# Compressibility (1/GPa) = 0.01713937
#
# Stress axis : x y z
#
# Youngs Moduli (GPa) = 56.36044 61.08258 76.57620
#
# Poissons Ratio (x) = 0.44809 0.20012
# Poissons Ratio (y) = 0.41345 0.38807
# Poissons Ratio (z) = 0.14729 0.30955
#
# Static dielectric constant tensor:
#      x y z
#    x 3.366910 0.000000 -0.051450 
#    y 0.000000 3.579600 0.000000 
#    z -0.051450 0.000000 3.361100 
# 
# 
# High freq. dielectric constant tensor:
#      x y z
#    x 1.732760 0.000000 -0.007550 
#    y 0.000000 1.739980 0.000000 
#    z -0.007550 0.000000 1.728550 
# 
# From -- ./inp_files/70681.got.cif
#   From: 2010.06.25/outbox.cif.g09.slc.cpg/sg11_36_cif.got.tgz:70681.got - 2010.06.27 23:14:04.
