data_PCOD8073503
_publ_section_title
;
Structure prediction by ZEFSAII (Michael W. Deem and Ramdas Pophale) SiO2 
 PCOD8073503
Probable space group: P 21/M
;
_chemical_formula_sum "Si O2"
_cell_formula_units_Z 32
_cell_length_a 15.815137
_cell_length_b 8.948664
_cell_length_c 25.492685
_cell_angle_alpha 90.000000
_cell_angle_beta 151.165174
_cell_angle_gamma 90.000000
_cell_volume 1740.009427
_symmetry_space_group_name_H-M "P 21/M"
_symmetry_group_IT_number 11
_symmetry_cell_setting 'monoclinic'
loop_
_space_group_symop_operation_xyz
x,y,z
-x,1/2+y,-z
-x,-y,-z
x,1/2-y,z
loop_
_atom_site_type_symbol
_atom_site_label
_atom_site_fract_x
_atom_site_fract_y
_atom_site_fract_z
Si Si1 0.283992 0.076107 0.933352
Si Si2 0.235361 0.423410 0.592712
Si Si3 0.925165 0.075912 0.908151
Si Si4 0.584166 0.923942 0.595480
Si Si5 0.154729 0.923437 0.653233
Si Si6 0.983934 0.574777 0.833887
Si Si7 0.638232 0.576147 0.144331
Si Si8 0.525653 0.422940 0.668474
O O1 0.270565 0.250000 0.939793
O O2 0.289355 0.046443 0.874334
O O3 0.114719 0.990907 0.862211
O O4 0.456705 0.010690 0.054964
O O5 0.255165 0.250000 0.618678
O O6 0.254761 0.519685 0.655872
O O7 0.388184 0.477614 0.637164
O O8 0.051590 0.454226 0.464308
O O9 0.970491 0.250000 0.933107
O O10 0.718188 0.045484 0.795332
O O11 0.017820 0.002775 0.908150
O O12 0.000000 0.000000 0.000000
O O13 0.547671 0.750000 0.572271
O O14 0.789650 0.962238 0.708060
O O15 0.500000 0.000000 0.500000
O O16 0.490446 0.984955 0.596636
O O17 0.197189 0.750000 0.684450
O O18 0.217097 0.015013 0.737380
O O19 0.015431 0.750000 0.857691
O O20 0.603822 0.750000 0.135883
O O21 0.497486 0.250000 0.639453
#
# Coordination Sequence:
#
# PCOD8073503 Si02
#       8
#     4   4   4   4   4   4   4   4
#     4  10  21  37  57  81 107 138 178 221 264 312
#     4   9  19  36  55  76 105 140 178 221 269 317
#     4  10  20  35  55  78 107 141 179 224 270 320
#     4  10  21  36  55  79 108 141 177 218 263 314
#     4  10  20  34  54  79 107 139 177 221 265 315
#     4  10  21  37  56  79 108 142 178 218 267 319
#     4  10  21  37  56  78 108 142 175 216 265 318
#     4   9  19  36  56  77 103 138 178 220 267 315
#
# _framework density 18.390706000000002
#
# number of rings (size 3 to 8) (size 9 to 14) (size 15 to 20)
#    0.000    2.250    0.000    2.250    0.000    6.500 
#    0.000    7.500    0.000    0.000    0.000    0.000 
#    0.000    0.000    0.000    0.000    0.000    0.000 
#
# Total GULP energy -396963.892081 kJ/mol
# GULP energy per Si atom -12405.121628 kJ/mol
# Density = 1.834885 g / cm^3
# Si number density = 18.390706 Si / 1000 Ang^3
#
#
#
# Elastic Constant Matrix: (Units=GPa)
#
#
# Indices 1 2 3 4 5 6 
#
# 1 118.2097 59.4600 55.5787 0.0000 5.6294 0.0000
# 2 59.4600 97.4763 53.5411 0.0000 -8.9084 0.0000
# 3 55.5787 53.5411 82.7203 0.0000 -18.5884 0.0000
# 4 0.0000 0.0000 0.0000 35.5708 0.0000 -4.1856
# 5 5.6294 -8.9084 -18.5884 0.0000 32.3647 0.0000
# 6 0.0000 0.0000 0.0000 -4.1856 0.0000 37.4089
#
#
#
# Elastic Compliance Matrix: (Units=1/GPa)
#
#
# Indices 1 2 3 4 5 6 
#
# 1 0.016172 -0.005560 -0.009464 0.000000 -0.009779 0.000000
# 2 -0.005560 0.017918 -0.007505 0.000000 0.001589 0.000000
# 3 -0.009464 -0.007505 0.026651 0.000000 0.014887 0.000000
# 4 0.000000 0.000000 0.000000 0.028488 0.000000 0.003187
# 5 -0.009779 0.001589 0.014887 0.000000 0.041586 0.000000
# 6 0.000000 0.000000 0.000000 0.003187 0.000000 0.027088
#
#
# Mechanical properties :
#
#
# Convention : Reuss Voigt Hill
#
# Bulk Modulus (GPa) = 63.76649 70.61842 67.19245
# Shear Modulus (GPa) = 24.01670 29.72398 26.87034
#
# Velocity S-wave (km/s) = 3.61766 4.02462 3.82656
# Velocity P-wave (km/s) = 7.22485 7.75107 7.49258
#
# Compressibility (1/GPa) = 0.01568222
#
# Stress axis : x y z
#
# Youngs Moduli (GPa) = 61.83626 55.81064 37.52223
#
# Poissons Ratio (x) = 0.31030 0.35513
# Poissons Ratio (y) = 0.34380 0.28160
# Poissons Ratio (z) = 0.58525 0.41885
#
# Static dielectric constant tensor:
#      x y z
#    x 3.451950 0.000000 0.019800 
#    y 0.000000 3.530580 0.000000 
#    z 0.019800 0.000000 3.336460 
# 
# 
# High freq. dielectric constant tensor:
#      x y z
#    x 1.717640 0.000000 -0.002360 
#    y 0.000000 1.726370 0.000000 
#    z -0.002360 0.000000 1.711210 
# 
# From -- ./inp_files/69019.got.cif
#   From: 2010.06.25/outbox.cif.g09.slc.cpg/sg11_35_cif.got.tgz:69019.got - 2010.06.27 23:14:04.
