data_PCOD8073147
_publ_section_title
;
Structure prediction by ZEFSAII (Michael W. Deem and Ramdas Pophale) SiO2 
 PCOD8073147
Probable space group: P 21/M
;
_chemical_formula_sum "Si O2"
_cell_formula_units_Z 28
_cell_length_a 17.493946
_cell_length_b 9.162221
_cell_length_c 19.940385
_cell_angle_alpha 90.000000
_cell_angle_beta 28.952799
_cell_angle_gamma 90.000000
_cell_volume 1547.202783
_symmetry_space_group_name_H-M "P 21/M"
_symmetry_group_IT_number 11
_symmetry_cell_setting 'monoclinic'
loop_
_space_group_symop_operation_xyz
x,y,z
-x,1/2+y,-z
-x,-y,-z
x,1/2-y,z
loop_
_atom_site_type_symbol
_atom_site_label
_atom_site_fract_x
_atom_site_fract_y
_atom_site_fract_z
Si Si1 0.541632 0.579561 0.368207
Si Si2 0.728301 0.920423 0.354120
Si Si3 0.862207 0.577659 0.647247
Si Si4 0.629201 0.922213 0.152878
Si Si5 0.791007 0.083891 0.834682
Si Si6 0.925090 0.082951 0.874187
Si Si7 0.522247 0.579446 0.849217
O O1 0.507224 0.750000 0.396521
O O2 0.379366 0.500121 0.509191
O O3 0.677368 0.536911 0.317639
O O4 0.594786 0.527038 0.254625
O O5 0.710547 0.750000 0.381073
O O6 0.905803 0.972367 0.230697
O O7 0.892839 0.750000 0.623214
O O8 0.859870 0.521532 0.725099
O O9 0.693143 0.537094 0.745597
O O10 0.000000 0.500000 0.500000
O O11 0.621168 0.750000 0.150082
O O12 0.500363 0.993391 0.202648
O O13 0.803245 0.976958 0.003316
O O14 0.787326 0.250000 0.810446
O O15 0.910678 0.069420 0.805045
O O16 0.614189 0.034726 0.992760
O O17 0.892394 0.250000 0.921154
O O18 0.505582 0.750000 0.846007
#
# Coordination Sequence:
#
# PCOD8073147 Si02
#       7
#     4   4   4   4   4   4   4
#     4   9  19  34  50  74 106 135 170 216 258 298
#     4   9  18  34  54  73  99 139 178 209 250 305
#     4  11  23  37  54  78 106 136 170 208 252 302
#     4  10  20  33  52  79 107 133 166 212 260 301
#     4   9  18  35  56  77 102 131 168 214 256 298
#     4   9  19  35  54  77 104 135 172 210 250 303
#     4   9  20  38  57  76 101 135 173 209 249 304
#
# _framework density 18.097173999999999
#
# number of rings (size 3 to 8) (size 9 to 14) (size 15 to 20)
#    0.000    2.571    0.000    2.143    0.000    6.857 
#    0.000    4.286    0.000    0.000    0.000    0.000 
#    0.000    0.000    0.000    0.000    0.000    0.000 
#
# Total GULP energy -347238.726935 kJ/mol
# GULP energy per Si atom -12401.383105 kJ/mol
# Density = 1.805598 g / cm^3
# Si number density = 18.097174 Si / 1000 Ang^3
#
#
#
# Elastic Constant Matrix: (Units=GPa)
#
#
# Indices 1 2 3 4 5 6 
#
# 1 88.8796 36.4726 51.2538 0.0000 18.2856 0.0000
# 2 36.4726 50.8058 33.4925 0.0000 15.7496 0.0000
# 3 51.2538 33.4925 79.1225 0.0000 21.1294 0.0000
# 4 0.0000 0.0000 0.0000 33.8475 0.0000 2.2350
# 5 18.2856 15.7496 21.1294 0.0000 27.4127 0.0000
# 6 0.0000 0.0000 0.0000 2.2350 0.0000 29.5273
#
#
#
# Elastic Compliance Matrix: (Units=1/GPa)
#
#
# Indices 1 2 3 4 5 6 
#
# 1 0.020182 -0.007803 -0.009283 0.000000 -0.001824 0.000000
# 2 -0.007803 0.032002 -0.006260 0.000000 -0.008356 0.000000
# 3 -0.009283 -0.006260 0.023532 0.000000 -0.008349 0.000000
# 4 0.000000 0.000000 0.000000 0.029693 0.000000 -0.002248
# 5 -0.001824 -0.008356 -0.008349 0.000000 0.048932 0.000000
# 6 0.000000 0.000000 0.000000 -0.002248 0.000000 0.034037
#
#
# Mechanical properties :
#
#
# Convention : Reuss Voigt Hill
#
# Bulk Modulus (GPa) = 34.45678 51.24953 42.85315
# Shear Modulus (GPa) = 20.42952 24.66341 22.54647
#
# Velocity S-wave (km/s) = 3.36352 3.69566 3.53350
# Velocity P-wave (km/s) = 5.84513 6.82577 6.35440
#
# Compressibility (1/GPa) = 0.02902187
#
# Stress axis : x y z
#
# Youngs Moduli (GPa) = 49.54968 31.24834 42.49601
#
# Poissons Ratio (x) = 0.24383 0.39450
# Poissons Ratio (y) = 0.38664 0.26604
# Poissons Ratio (z) = 0.45998 0.19562
#
# Static dielectric constant tensor:
#      x y z
#    x 3.474920 0.000000 -0.063290 
#    y 0.000000 3.303430 0.000000 
#    z -0.063290 0.000000 3.343470 
# 
# 
# High freq. dielectric constant tensor:
#      x y z
#    x 1.708370 0.000000 -0.002600 
#    y 0.000000 1.700890 0.000000 
#    z -0.002600 0.000000 1.696640 
# 
# From -- ./inp_files/65987.got.cif
#   From: 2010.06.25/outbox.cif.g09.slc.cpg/sg11_33_cif.got.tgz:65987.got - 2010.06.27 23:14:04.
