data_PCOD8073266
_publ_section_title
;
Structure prediction by ZEFSAII (Michael W. Deem and Ramdas Pophale) SiO2 
 PCOD8073266
Probable space group: P 21/M
;
_chemical_formula_sum "Si O2"
_cell_formula_units_Z 32
_cell_length_a 12.997696
_cell_length_b 18.531591
_cell_length_c 9.109385
_cell_angle_alpha 90.000000
_cell_angle_beta 47.847634
_cell_angle_gamma 90.000000
_cell_volume 1626.667999
_symmetry_space_group_name_H-M "P 21/M"
_symmetry_group_IT_number 11
_symmetry_cell_setting 'monoclinic'
loop_
_space_group_symop_operation_xyz
x,y,z
-x,1/2+y,-z
-x,-y,-z
x,1/2-y,z
loop_
_atom_site_type_symbol
_atom_site_label
_atom_site_fract_x
_atom_site_fract_y
_atom_site_fract_z
Si Si1 0.677454 0.449462 0.918325
Si Si2 0.855524 0.832156 0.482216
Si Si3 0.212080 0.667601 0.642932
Si Si4 0.872897 0.333606 0.603730
Si Si5 0.358486 0.968029 0.576173
Si Si6 0.624934 0.555373 0.711919
Si Si7 0.025243 0.114486 0.924954
Si Si8 0.852358 0.508773 0.991367
O O1 0.755186 0.375756 0.805738
O O2 0.634436 0.489776 0.814141
O O3 0.539618 0.426360 0.142355
O O4 0.779643 0.506498 0.902648
O O5 0.818435 0.750000 0.551213
O O6 0.717350 0.875379 0.661022
O O7 0.894842 0.837154 0.270979
O O8 0.979192 0.858305 0.471390
O O9 0.266362 0.750000 0.592611
O O10 0.133178 0.650114 0.564680
O O11 0.348337 0.615045 0.525278
O O12 0.104162 0.657452 0.881000
O O13 0.846535 0.250000 0.662767
O O14 0.250878 0.965101 0.807874
O O15 0.500000 0.000000 0.500000
O O16 0.311077 0.024590 0.498961
O O17 0.120707 0.089713 0.973390
O O18 0.990087 0.040772 0.867579
#
# Coordination Sequence:
#
# PCOD8073266 Si02
#       8
#     4   4   4   4   4   4   4   4
#     4  11  22  39  60  88 118 161 200 247 292 362
#     4  11  23  40  60  88 124 157 196 256 311 360
#     4  10  22  39  60  88 119 155 198 248 304 363
#     4  10  22  39  61  88 120 158 202 248 302 362
#     4  11  20  38  61  84 118 150 197 253 291 349
#     4  11  24  38  59  88 119 156 202 245 301 357
#     4  10  20  35  59  90 115 149 195 253 303 351
#     4  10  20  33  58  88 114 149 197 245 296 345
#
# _framework density 19.672115000000002
#
# number of rings (size 3 to 8) (size 9 to 14) (size 15 to 20)
#    0.000    1.500    5.000    0.375    1.750    1.000 
#    0.000    0.625    0.000    0.000    0.000    0.000 
#    0.000    0.000    0.000    0.000    0.000    0.000 
#
# Total GULP energy -396505.714050 kJ/mol
# GULP energy per Si atom -12390.803564 kJ/mol
# Density = 1.962734 g / cm^3
# Si number density = 19.672115 Si / 1000 Ang^3
#
#
#
# Elastic Constant Matrix: (Units=GPa)
#
#
# Indices 1 2 3 4 5 6 
#
# 1 98.9087 42.0925 18.6391 0.0000 -9.8445 0.0000
# 2 42.0925 91.7854 19.8234 0.0000 -15.9765 0.0000
# 3 18.6391 19.8234 53.3313 0.0000 -7.6529 0.0000
# 4 0.0000 0.0000 0.0000 26.9305 0.0000 0.1586
# 5 -9.8445 -15.9765 -7.6529 0.0000 29.2953 0.0000
# 6 0.0000 0.0000 0.0000 0.1586 0.0000 33.2642
#
#
#
# Elastic Compliance Matrix: (Units=1/GPa)
#
#
# Indices 1 2 3 4 5 6 
#
# 1 0.012881 -0.005235 -0.002436 0.000000 0.000837 0.000000
# 2 -0.005235 0.014899 -0.002904 0.000000 0.005608 0.000000
# 3 -0.002436 -0.002904 0.021129 0.000000 0.003117 0.000000
# 4 0.000000 0.000000 0.000000 0.037134 0.000000 -0.000177
# 5 0.000837 0.005608 0.003117 0.000000 0.038289 0.000000
# 6 0.000000 0.000000 0.000000 -0.000177 0.000000 0.030063
#
#
# Mechanical properties :
#
#
# Convention : Reuss Voigt Hill
#
# Bulk Modulus (GPa) = 36.02418 45.01505 40.51961
# Shear Modulus (GPa) = 27.05684 28.79604 27.92644
#
# Velocity S-wave (km/s) = 3.71265 3.83011 3.77184
# Velocity P-wave (km/s) = 6.06056 6.51859 6.29375
#
# Compressibility (1/GPa) = 0.02775914
#
# Stress axis : x y z
#
# Youngs Moduli (GPa) = 77.63608 67.11838 47.32922
#
# Poissons Ratio (x) = 0.35138 0.11528
# Poissons Ratio (y) = 0.40645 0.13743
# Poissons Ratio (z) = 0.18909 0.19489
#
# Static dielectric constant tensor:
#      x y z
#    x 3.541750 0.000000 0.299660 
#    y 0.000000 3.299370 0.000000 
#    z 0.299660 0.000000 3.340210 
# 
# 
# High freq. dielectric constant tensor:
#      x y z
#    x 1.769460 0.000000 0.011580 
#    y 0.000000 1.754120 0.000000 
#    z 0.011580 0.000000 1.760490 
# 
# From -- ./inp_files/19343.got.cif
#   From: 2010.06.25/outbox.cif.g09.slc.cpg/sg11_10_cif.got.tgz:19343.got - 2010.06.27 23:14:04.
