data_PCOD8073056
_publ_section_title
;
Structure prediction by ZEFSAII (Michael W. Deem and Ramdas Pophale) SiO2 
 PCOD8073056
Probable space group: P 21/M
;
_chemical_formula_sum "Si O2"
_cell_formula_units_Z 32
_cell_length_a 17.769385
_cell_length_b 9.259810
_cell_length_c 24.503161
_cell_angle_alpha 90.000000
_cell_angle_beta 154.713516
_cell_angle_gamma 90.000000
_cell_volume 1722.152022
_symmetry_space_group_name_H-M "P 21/M"
_symmetry_group_IT_number 11
_symmetry_cell_setting 'monoclinic'
loop_
_space_group_symop_operation_xyz
x,y,z
-x,1/2+y,-z
-x,-y,-z
x,1/2-y,z
loop_
_atom_site_type_symbol
_atom_site_label
_atom_site_fract_x
_atom_site_fract_y
_atom_site_fract_z
Si Si1 0.071942 0.581700 0.178755
Si Si2 0.589138 0.417135 0.664576
Si Si3 0.266677 0.415780 0.809419
Si Si4 0.732715 0.418567 0.583799
Si Si5 0.581945 0.582946 0.972511
Si Si6 0.724418 0.079023 0.963444
Si Si7 0.544782 0.918151 0.306470
Si Si8 0.868151 0.081534 0.555207
O O1 0.017901 0.750000 0.144560
O O2 0.211640 0.548720 0.222535
O O3 0.151620 0.532958 0.289013
O O4 0.903368 0.483924 0.055333
O O5 0.546024 0.250000 0.627541
O O6 0.455093 0.502484 0.537799
O O7 0.565109 0.464118 0.711765
O O8 0.300267 0.250000 0.814359
O O9 0.386437 0.517531 0.850340
O O10 0.065326 0.461919 0.667246
O O11 0.309848 0.437362 0.901136
O O12 0.692494 0.250000 0.560122
O O13 0.838777 0.462841 0.598905
O O14 0.566603 0.750000 0.945632
O O15 0.689890 0.496297 0.998317
O O16 0.742235 0.250000 0.982784
O O17 0.566536 0.037861 0.819259
O O18 0.587031 0.750000 0.334953
O O19 0.731544 0.999511 0.426497
O O20 0.835853 0.250000 0.526096
#
# Coordination Sequence:
#
# PCOD8073056 Si02
#       8
#     4   4   4   4   4   4   4   4
#     4  10  20  33  51  75 103 134 169 212 260 310
#     4   9  18  33  52  74 101 134 171 212 258 304
#     4   9  18  34  56  83 112 135 160 200 250 303
#     4   9  17  30  49  76 108 135 162 203 254 304
#     4  10  20  35  56  81 109 137 165 202 249 302
#     4  11  23  37  52  71 100 137 175 215 257 299
#     4   9  20  37  52  70 100 135 173 218 258 294
#     4   9  17  31  53  77 101 133 169 204 247 301
#
# _framework density 18.581403000000002
#
# number of rings (size 3 to 8) (size 9 to 14) (size 15 to 20)
#    0.000    2.500    0.000    1.875    0.000    5.500 
#    0.000    3.125    0.000    0.000    0.000    0.000 
#    0.000    0.000    0.000    0.000    0.000    0.000 
#
# Total GULP energy -396885.253763 kJ/mol
# GULP energy per Si atom -12402.664180 kJ/mol
# Density = 1.853911 g / cm^3
# Si number density = 18.581403 Si / 1000 Ang^3
#
#
#
# Elastic Constant Matrix: (Units=GPa)
#
#
# Indices 1 2 3 4 5 6 
#
# 1 47.6034 29.5604 30.9514 0.0000 18.1259 0.0000
# 2 29.5604 67.7337 51.3090 0.0000 12.6007 0.0000
# 3 30.9514 51.3090 105.4493 0.0000 22.9433 0.0000
# 4 0.0000 0.0000 0.0000 34.4658 0.0000 6.3071
# 5 18.1259 12.6007 22.9433 0.0000 26.5254 0.0000
# 6 0.0000 0.0000 0.0000 6.3071 0.0000 28.0494
#
#
#
# Elastic Compliance Matrix: (Units=1/GPa)
#
#
# Indices 1 2 3 4 5 6 
#
# 1 0.035628 -0.011472 -0.000941 0.000000 -0.018082 0.000000
# 2 -0.011472 0.027128 -0.010759 0.000000 0.004258 0.000000
# 3 -0.000941 -0.010759 0.016929 0.000000 -0.008888 0.000000
# 4 0.000000 0.000000 0.000000 0.030259 0.000000 -0.006804
# 5 -0.018082 0.004258 -0.008888 0.000000 0.055721 0.000000
# 6 0.000000 0.000000 0.000000 -0.006804 0.000000 0.037181
#
#
# Mechanical properties :
#
#
# Convention : Reuss Voigt Hill
#
# Bulk Modulus (GPa) = 29.99407 49.38089 39.68748
# Shear Modulus (GPa) = 19.20830 25.07249 22.14039
#
# Velocity S-wave (km/s) = 3.21867 3.67731 3.45561
# Velocity P-wave (km/s) = 5.47632 6.68306 6.10956
#
# Compressibility (1/GPa) = 0.03333993
#
# Stress axis : x y z
#
# Youngs Moduli (GPa) = 28.06800 36.86194 59.07183
#
# Poissons Ratio (x) = 0.42287 0.05561
# Poissons Ratio (y) = 0.32199 0.63557
# Poissons Ratio (z) = 0.02642 0.39661
#
# Static dielectric constant tensor:
#      x y z
#    x 3.395190 0.000000 0.096840 
#    y 0.000000 3.388020 0.000000 
#    z 0.096840 0.000000 3.394350 
# 
# 
# High freq. dielectric constant tensor:
#      x y z
#    x 1.715840 0.000000 0.010510 
#    y 0.000000 1.718540 0.000000 
#    z 0.010510 0.000000 1.717170 
# 
# From -- ./inp_files/72205.got.cif
#   From: 2010.06.25/outbox.cif.g09.slc.cpg/sg11_37_cif.got.tgz:72205.got - 2010.06.27 23:14:04.
