data_PCOD8073044
_publ_section_title
;
Structure prediction by ZEFSAII (Michael W. Deem and Ramdas Pophale) SiO2 
 PCOD8073044
Probable space group: P 21/M
;
_chemical_formula_sum "Si O2"
_cell_formula_units_Z 32
_cell_length_a 11.485124
_cell_length_b 8.913685
_cell_length_c 17.314015
_cell_angle_alpha 90.000000
_cell_angle_beta 100.971688
_cell_angle_gamma 90.000000
_cell_volume 1740.119189
_symmetry_space_group_name_H-M "P 21/M"
_symmetry_group_IT_number 11
_symmetry_cell_setting 'monoclinic'
loop_
_space_group_symop_operation_xyz
x,y,z
-x,1/2+y,-z
-x,-y,-z
x,1/2-y,z
loop_
_atom_site_type_symbol
_atom_site_label
_atom_site_fract_x
_atom_site_fract_y
_atom_site_fract_z
Si Si1 0.374161 0.922636 0.491939
Si Si2 0.982562 0.580662 0.616137
Si Si3 0.485860 0.915947 0.116250
Si Si4 0.214960 0.922746 0.321642
Si Si5 0.671004 0.415479 0.055735
Si Si6 0.285039 0.072815 0.175213
Si Si7 0.822651 0.919105 0.444439
Si Si8 0.126742 0.571379 0.026700
O O1 0.392309 0.750000 0.516155
O O2 0.304574 0.941319 0.403535
O O3 0.500000 0.000000 0.500000
O O4 0.301015 0.999508 0.552087
O O5 0.001245 0.750000 0.648956
O O6 0.915272 0.483113 0.672235
O O7 0.906166 0.581689 0.529155
O O8 0.110725 0.506791 0.616096
O O9 0.497107 0.750000 0.154147
O O10 0.618186 0.978271 0.115908
O O11 0.417135 0.023128 0.166973
O O12 0.416624 0.907918 0.027608
O O13 0.203525 0.750000 0.294299
O O14 0.266621 0.024498 0.260547
O O15 0.685323 0.250000 0.093501
O O16 0.797030 0.474871 0.039584
O O17 0.273043 0.250000 0.164663
O O18 0.185552 0.993191 0.111137
O O19 0.795533 0.750000 0.413724
O O20 0.119937 0.750000 0.034148
O O21 0.000000 0.500000 0.000000
#
# Coordination Sequence:
#
# PCOD8073044 Si02
#       8
#     4   4   4   4   4   4   4   4
#     4  10  20  33  51  74 101 132 165 204 249 297
#     4   9  16  27  45  70  97 125 161 203 245 288
#     4   9  16  27  45  69  96 125 160 203 245 286
#     4  10  20  34  51  73 101 132 166 204 247 294
#     4   8  15  27  44  68  96 125 159 200 242 285
#     4  11  21  33  51  74 101 133 167 204 247 294
#     4   9  16  27  45  69  97 127 161 202 244 287
#     4  10  20  34  52  75 103 133 166 204 247 295
#
# _framework density 18.389543
#
# number of rings (size 3 to 8) (size 9 to 14) (size 15 to 20)
#    0.000    2.500    0.000    4.125    0.000    8.000 
#    0.000    0.000    0.000    1.500    0.000    3.500 
#    0.000    0.000    0.000    0.000    0.000    0.000 
#
# Total GULP energy -396749.523653 kJ/mol
# GULP energy per Si atom -12398.422614 kJ/mol
# Density = 1.834769 g / cm^3
# Si number density = 18.389543 Si / 1000 Ang^3
#
#
#
# Elastic Constant Matrix: (Units=GPa)
#
#
# Indices 1 2 3 4 5 6 
#
# 1 145.9397 71.6599 30.7535 0.0000 -33.8591 0.0000
# 2 71.6599 145.8083 30.8721 0.0000 -17.9861 0.0000
# 3 30.7535 30.8721 39.1622 0.0000 -21.1636 0.0000
# 4 0.0000 0.0000 0.0000 25.8391 0.0000 -9.2229
# 5 -33.8591 -17.9861 -21.1636 0.0000 24.1119 0.0000
# 6 0.0000 0.0000 0.0000 -9.2229 0.0000 36.5053
#
#
#
# Elastic Compliance Matrix: (Units=1/GPa)
#
#
# Indices 1 2 3 4 5 6 
#
# 1 0.012320 -0.004634 0.002777 0.000000 0.016280 0.000000
# 2 -0.004634 0.009985 -0.007084 0.000000 -0.005277 0.000000
# 3 0.002777 -0.007084 0.053627 0.000000 0.045685 0.000000
# 4 0.000000 0.000000 0.000000 0.042537 0.000000 0.010747
# 5 0.016280 -0.005277 0.045685 0.000000 0.100498 0.000000
# 6 0.000000 0.000000 0.000000 0.010747 0.000000 0.030108
#
#
# Mechanical properties :
#
#
# Convention : Reuss Voigt Hill
#
# Bulk Modulus (GPa) = 17.22675 66.38679 41.80677
# Shear Modulus (GPa) = 17.46375 30.46624 23.96500
#
# Velocity S-wave (km/s) = 3.08499 4.07469 3.61388
# Velocity P-wave (km/s) = 4.69868 7.63650 6.34010
#
# Compressibility (1/GPa) = 0.05804926
#
# Stress axis : x y z
#
# Youngs Moduli (GPa) = 81.17029 100.15152 18.64722
#
# Poissons Ratio (x) = 0.46415 -0.05178
# Poissons Ratio (y) = 0.37618 0.13209
# Poissons Ratio (z) = -0.22541 0.70946
#
# Static dielectric constant tensor:
#      x y z
#    x 3.564100 0.000000 -0.416270 
#    y 0.000000 3.667430 0.000000 
#    z -0.416270 0.000000 3.010060 
# 
# 
# High freq. dielectric constant tensor:
#      x y z
#    x 1.712240 0.000000 -0.037910 
#    y 0.000000 1.731630 0.000000 
#    z -0.037910 0.000000 1.665120 
# 
# From -- ./inp_files/42440.got.cif
#   From: 2010.06.25/outbox.cif.g09.slc.cpg/sg11_22_cif.got.tgz:42440.got - 2010.06.27 23:14:04.
