data_PCOD8073308
_publ_section_title
;
Structure prediction by ZEFSAII (Michael W. Deem and Ramdas Pophale) SiO2 
 PCOD8073308
Probable space group: P 21/M
;
_chemical_formula_sum "Si O2"
_cell_formula_units_Z 28
_cell_length_a 30.678213
_cell_length_b 9.074157
_cell_length_c 9.890486
_cell_angle_alpha 90.000000
_cell_angle_beta 144.098703
_cell_angle_gamma 90.000000
_cell_volume 1614.511152
_symmetry_space_group_name_H-M "P 21/M"
_symmetry_group_IT_number 11
_symmetry_cell_setting 'monoclinic'
loop_
_space_group_symop_operation_xyz
x,y,z
-x,1/2+y,-z
-x,-y,-z
x,1/2-y,z
loop_
_atom_site_type_symbol
_atom_site_label
_atom_site_fract_x
_atom_site_fract_y
_atom_site_fract_z
Si Si1 0.838065 0.422326 0.454991
Si Si2 0.284886 0.574485 0.067517
Si Si3 0.159628 0.422945 0.251996
Si Si4 0.555966 0.581160 0.237519
Si Si5 0.998919 0.419760 0.857994
Si Si6 0.560153 0.923519 0.558057
Si Si7 0.276403 0.075402 0.324239
O O1 0.830483 0.250000 0.465214
O O2 0.827320 0.502213 0.570897
O O3 0.919296 0.458880 0.588904
O O4 0.775664 0.475215 0.194655
O O5 0.294763 0.750000 0.100572
O O6 0.361270 0.499033 0.214002
O O7 0.256379 0.512343 0.138432
O O8 0.170207 0.250000 0.300718
O O9 0.220160 0.480769 0.297728
O O10 0.077131 0.460125 0.980492
O O11 0.545657 0.750000 0.177131
O O12 0.536349 0.547804 0.343793
O O13 0.640581 0.532589 0.419809
O O14 0.500000 0.500000 0.000000
O O15 0.000445 0.250000 0.897525
O O16 0.000000 0.500000 0.000000
O O17 0.565992 0.750000 0.604064
O O18 0.500000 0.000000 0.500000
O O19 0.270561 0.250000 0.280033
#
# Coordination Sequence:
#
# PCOD8073308 Si02
#       7
#     4   4   4   4   4   4   4
#     4   9  18  31  48  72 101 128 161 205 248 289
#     4  10  20  34  51  72  99 133 166 197 240 292
#     4   9  17  30  51  74  95 125 167 206 246 295
#     4   9  19  34  51  71  96 124 157 196 239 285
#     4   8  14  27  46  68  95 126 158 200 248 290
#     4  10  21  37  55  76 101 129 162 201 242 288
#     4   9  19  35  50  69  98 129 161 201 244 289
#
# _framework density 17.342711000000001
#
# number of rings (size 3 to 8) (size 9 to 14) (size 15 to 20)
#    0.000    2.857    0.000    1.714    0.000    5.714 
#    0.000    3.571    0.000    0.000    0.000    0.000 
#    0.000    0.000    0.000    0.000    0.000    0.000 
#
# Total GULP energy -346936.879187 kJ/mol
# GULP energy per Si atom -12390.602828 kJ/mol
# Density = 1.730324 g / cm^3
# Si number density = 17.342711 Si / 1000 Ang^3
#
#
#
# Elastic Constant Matrix: (Units=GPa)
#
#
# Indices 1 2 3 4 5 6 
#
# 1 152.9949 48.4531 84.9136 0.0000 16.7584 0.0000
# 2 48.4531 56.2119 54.2679 0.0000 3.8854 0.0000
# 3 84.9136 54.2679 144.2843 0.0000 9.9345 0.0000
# 4 0.0000 0.0000 0.0000 28.3169 0.0000 -2.3529
# 5 16.7584 3.8854 9.9345 0.0000 15.8795 0.0000
# 6 0.0000 0.0000 0.0000 -2.3529 0.0000 27.4937
#
#
#
# Elastic Compliance Matrix: (Units=1/GPa)
#
#
# Indices 1 2 3 4 5 6 
#
# 1 0.011407 -0.005228 -0.004186 0.000000 -0.008140 0.000000
# 2 -0.005228 0.030330 -0.008569 0.000000 0.003457 0.000000
# 3 -0.004186 -0.008569 0.012716 0.000000 -0.001441 0.000000
# 4 0.000000 0.000000 0.000000 0.035567 0.000000 0.003044
# 5 -0.008140 0.003457 -0.001441 0.000000 0.071621 0.000000
# 6 0.000000 0.000000 0.000000 0.003044 0.000000 0.036633
#
#
# Mechanical properties :
#
#
# Convention : Reuss Voigt Hill
#
# Bulk Modulus (GPa) = 54.09264 80.97335 67.53299
# Shear Modulus (GPa) = 20.79841 25.39511 23.09676
#
# Velocity S-wave (km/s) = 3.46679 3.83078 3.65332
# Velocity P-wave (km/s) = 6.87626 8.14604 7.53794
#
# Compressibility (1/GPa) = 0.01848681
#
# Stress axis : x y z
#
# Youngs Moduli (GPa) = 87.66528 32.97069 78.63801
#
# Poissons Ratio (x) = 0.17238 0.32920
# Poissons Ratio (y) = 0.45835 0.67382
# Poissons Ratio (z) = 0.36699 0.28252
#
# Static dielectric constant tensor:
#      x y z
#    x 3.518920 0.000000 0.426110 
#    y 0.000000 3.208180 0.000000 
#    z 0.426110 0.000000 3.461980 
# 
# 
# High freq. dielectric constant tensor:
#      x y z
#    x 1.666750 0.000000 0.022100 
#    y 0.000000 1.672430 0.000000 
#    z 0.022100 0.000000 1.668490 
# 
# From -- ./inp_files/28969.got.cif
#   From: 2010.06.25/outbox.cif.g09.slc.cpg/sg11_15_cif.got.tgz:28969.got - 2010.06.27 23:14:04.
