data_PCOD8073843
_publ_section_title
;
Structure prediction by ZEFSAII (Michael W. Deem and Ramdas Pophale) SiO2 
 PCOD8073843
Probable space group: P 21/M
;
_chemical_formula_sum "Si O2"
_cell_formula_units_Z 24
_cell_length_a 17.700518
_cell_length_b 16.845571
_cell_length_c 11.155894
_cell_angle_alpha 90.000000
_cell_angle_beta 155.870501
_cell_angle_gamma 90.000000
_cell_volume 1359.838666
_symmetry_space_group_name_H-M "P 21/M"
_symmetry_group_IT_number 11
_symmetry_cell_setting 'monoclinic'
loop_
_space_group_symop_operation_xyz
x,y,z
-x,1/2+y,-z
-x,-y,-z
x,1/2-y,z
loop_
_atom_site_type_symbol
_atom_site_label
_atom_site_fract_x
_atom_site_fract_y
_atom_site_fract_z
Si Si1 0.952478 0.048236 0.311095
Si Si2 0.644888 0.161368 0.200064
Si Si3 0.783271 0.904315 0.657298
Si Si4 0.766348 0.840052 0.384420
Si Si5 0.932367 0.051973 0.743364
Si Si6 0.621579 0.158111 0.891843
O O1 0.117460 0.110928 0.541984
O O2 0.761817 0.098085 0.028838
O O3 0.000000 0.000000 0.500000
O O4 0.952310 0.992704 0.193313
O O5 0.649196 0.250000 0.257910
O O6 0.792686 0.112025 0.483466
O O7 0.440832 0.125060 0.922329
O O8 0.693307 0.161061 0.130735
O O9 0.837154 0.846668 0.624730
O O10 0.580539 0.881662 0.412434
O O11 0.805201 0.994368 0.640503
O O12 0.926432 0.895553 0.973703
O O13 0.776513 0.750000 0.357851
O O14 0.620517 0.250000 0.839884
#
# Coordination Sequence:
#
# PCOD8073843 Si02
#       6
#     4   4   4   4   4   4
#     4  11  21  32  54  82 108 144 172 221 268 309
#     4   9  18  32  53  77 102 134 177 225 262 308
#     4   9  20  34  56  77 103 137 177 222 263 308
#     4   9  19  35  55  77 104 139 179 218 263 317
#     4  10  20  35  52  83 107 134 176 221 269 315
#     4  10  20  35  54  78 106 142 182 214 258 323
#
# _framework density 17.649152000000001
#
# number of rings (size 3 to 8) (size 9 to 14) (size 15 to 20)
#    0.000    2.333    1.667    2.000    2.333    4.000 
#    0.000    0.000    0.000    0.000    0.000    0.000 
#    0.000    0.000    0.000    0.000    0.000    0.000 
#
# Total GULP energy -297441.248191 kJ/mol
# GULP energy per Si atom -12393.385341 kJ/mol
# Density = 1.760898 g / cm^3
# Si number density = 17.649152 Si / 1000 Ang^3
#
#
#
# Elastic Constant Matrix: (Units=GPa)
#
#
# Indices 1 2 3 4 5 6 
#
# 1 75.0824 41.9720 55.3422 0.0000 10.1100 0.0000
# 2 41.9720 83.4347 69.1460 0.0000 3.1065 0.0000
# 3 55.3422 69.1460 122.3369 0.0000 -4.0755 0.0000
# 4 0.0000 0.0000 0.0000 29.1198 0.0000 9.2635
# 5 10.1100 3.1065 -4.0755 0.0000 29.9241 0.0000
# 6 0.0000 0.0000 0.0000 9.2635 0.0000 22.6911
#
#
#
# Elastic Compliance Matrix: (Units=1/GPa)
#
#
# Indices 1 2 3 4 5 6 
#
# 1 0.022948 -0.004509 -0.008112 0.000000 -0.008390 0.000000
# 2 -0.004509 0.023943 -0.011578 0.000000 -0.002539 0.000000
# 3 -0.008112 -0.011578 0.018604 0.000000 0.006476 0.000000
# 4 0.000000 0.000000 0.000000 0.039466 0.000000 -0.016112
# 5 -0.008390 -0.002539 0.006476 0.000000 0.037398 0.000000
# 6 0.000000 0.000000 0.000000 -0.016112 0.000000 0.050648
#
#
# Mechanical properties :
#
#
# Convention : Reuss Voigt Hill
#
# Bulk Modulus (GPa) = 58.48903 68.19716 63.34310
# Shear Modulus (GPa) = 20.23437 23.97326 22.10381
#
# Velocity S-wave (km/s) = 3.38964 3.68954 3.54277
# Velocity P-wave (km/s) = 6.96645 7.54153 7.25968
#
# Compressibility (1/GPa) = 0.01709722
#
# Stress axis : x y z
#
# Youngs Moduli (GPa) = 43.57595 41.76557 53.75290
#
# Poissons Ratio (x) = 0.18831 0.43606
# Poissons Ratio (y) = 0.19647 0.62234
# Poissons Ratio (z) = 0.35351 0.48355
#
# Static dielectric constant tensor:
#      x y z
#    x 3.258230 0.000000 0.094020 
#    y 0.000000 3.426610 0.000000 
#    z 0.094020 0.000000 3.247170 
# 
# 
# High freq. dielectric constant tensor:
#      x y z
#    x 1.669810 0.000000 0.008670 
#    y 0.000000 1.689260 0.000000 
#    z 0.008670 0.000000 1.679140 
# 
# From -- ./inp_files/12608.got.cif
#   From: 2010.06.25/outbox.cif.g09.slc.cpg/sg11_7_cif.got.tgz:12608.got - 2010.06.27 23:14:04.
