data_PCOD8073933
_publ_section_title
;
Structure prediction by ZEFSAII (Michael W. Deem and Ramdas Pophale) SiO2 
 PCOD8073933
Probable space group: P 21/M
;
_chemical_formula_sum "Si O2"
_cell_formula_units_Z 32
_cell_length_a 12.878826
_cell_length_b 8.560329
_cell_length_c 14.319913
_cell_angle_alpha 90.000000
_cell_angle_beta 89.650688
_cell_angle_gamma 90.000000
_cell_volume 1578.697932
_symmetry_space_group_name_H-M "P 21/M"
_symmetry_group_IT_number 11
_symmetry_cell_setting 'monoclinic'
loop_
_space_group_symop_operation_xyz
x,y,z
-x,1/2+y,-z
-x,-y,-z
x,1/2-y,z
loop_
_atom_site_type_symbol
_atom_site_label
_atom_site_fract_x
_atom_site_fract_y
_atom_site_fract_z
Si Si1 0.722069 0.933821 0.390834
Si Si2 0.997038 0.064965 0.103682
Si Si3 0.807655 0.933226 0.785355
Si Si4 0.510435 0.433312 0.397933
Si Si5 0.791173 0.066623 0.212297
Si Si6 0.611158 0.931337 0.095981
Si Si7 0.717027 0.565994 0.600836
Si Si8 0.376979 0.570457 0.102380
O O1 0.739960 0.750000 0.387283
O O2 0.736366 0.003572 0.496442
O O3 0.606858 0.975453 0.351042
O O4 0.803994 0.018434 0.321297
O O5 0.005215 0.250000 0.098390
O O6 0.892373 0.011110 0.155463
O O7 0.093535 0.992761 0.162024
O O8 0.000000 0.000000 0.000000
O O9 0.824283 0.750000 0.778912
O O10 0.798200 0.998220 0.678205
O O11 0.701797 0.964141 0.840457
O O12 0.500000 0.500000 0.500000
O O13 0.535574 0.250000 0.397147
O O14 0.397411 0.470977 0.354475
O O15 0.773104 0.250000 0.202096
O O16 0.692235 0.972680 0.175547
O O17 0.619123 0.750000 0.067682
O O18 0.494811 0.969962 0.132769
O O19 0.637777 0.036713 0.006861
O O20 0.726763 0.750000 0.587866
O O21 0.349131 0.750000 0.121351
#
# Coordination Sequence:
#
# PCOD8073933 Si02
#       8
#     4   4   4   4   4   4   4   4
#     4  10  20  35  54  80 114 152 193 238 283 338
#     4  10  23  41  62  85 111 144 187 239 289 341
#     4  10  20  37  60  83 109 148 192 232 284 343
#     4   9  16  29  49  77 110 150 189 229 276 331
#     4  11  23  38  57  83 114 149 191 238 287 339
#     4  10  21  37  56  81 113 149 185 226 282 346
#     4   8  17  33  54  80 111 148 191 232 276 332
#     4  10  21  36  54  83 117 145 179 229 285 342
#
# _framework density 20.269867999999999
#
# number of rings (size 3 to 8) (size 9 to 14) (size 15 to 20)
#    0.000    2.250    0.000    3.375    1.750    5.000 
#    0.000    3.750    0.000    0.000    0.000    0.000 
#    0.000    0.000    0.000    0.000    0.000    0.000 
#
# Total GULP energy -396610.969660 kJ/mol
# GULP energy per Si atom -12394.092802 kJ/mol
# Density = 2.022373 g / cm^3
# Si number density = 20.269868 Si / 1000 Ang^3
#
#
#
# Elastic Constant Matrix: (Units=GPa)
#
#
# Indices 1 2 3 4 5 6 
#
# 1 115.9904 25.1054 85.4970 0.0000 3.6163 0.0000
# 2 25.1054 29.0801 10.1897 0.0000 1.0018 0.0000
# 3 85.4970 10.1897 130.9368 0.0000 2.6283 0.0000
# 4 0.0000 0.0000 0.0000 28.4621 0.0000 -3.1851
# 5 3.6163 1.0018 2.6283 0.0000 37.1458 0.0000
# 6 0.0000 0.0000 0.0000 -3.1851 0.0000 20.8503
#
#
#
# Elastic Compliance Matrix: (Units=1/GPa)
#
#
# Indices 1 2 3 4 5 6 
#
# 1 0.020800 -0.013546 -0.012512 0.000000 -0.000774 0.000000
# 2 -0.013546 0.044195 0.005411 0.000000 -0.000256 0.000000
# 3 -0.012512 0.005411 0.015386 0.000000 -0.000017 0.000000
# 4 0.000000 0.000000 0.000000 0.035746 0.000000 0.005461
# 5 -0.000774 -0.000256 -0.000017 0.000000 0.027004 0.000000
# 6 0.000000 0.000000 0.000000 0.005461 0.000000 0.048795
#
#
# Mechanical properties :
#
#
# Convention : Reuss Voigt Hill
#
# Bulk Modulus (GPa) = 25.58370 57.51017 41.54694
# Shear Modulus (GPa) = 20.30448 27.63932 23.97190
#
# Velocity S-wave (km/s) = 3.16841 3.69666 3.44268
# Velocity P-wave (km/s) = 5.10236 6.83039 6.02861
#
# Compressibility (1/GPa) = 0.03908739
#
# Stress axis : x y z
#
# Youngs Moduli (GPa) = 48.07623 22.62678 64.99220
#
# Poissons Ratio (x) = 0.30651 0.81319
# Poissons Ratio (y) = 0.65126 -0.35168
# Poissons Ratio (z) = 0.60153 -0.12244
#
# Static dielectric constant tensor:
#      x y z
#    x 4.081390 0.000000 0.114900 
#    y 0.000000 3.564970 0.000000 
#    z 0.114900 0.000000 3.882460 
# 
# 
# High freq. dielectric constant tensor:
#      x y z
#    x 1.777860 0.000000 0.000210 
#    y 0.000000 1.775450 0.000000 
#    z 0.000210 0.000000 1.799440 
# 
# From -- ./inp_files/49357.got.cif
#   From: 2010.06.25/outbox.cif.g09.slc.cpg/sg11_25_cif.got.tgz:49357.got - 2010.06.27 23:14:04.
