data_PCOD8073353
_publ_section_title
;
Structure prediction by ZEFSAII (Michael W. Deem and Ramdas Pophale) SiO2 
 PCOD8073353
Probable space group: P 21/M
;
_chemical_formula_sum "Si O2"
_cell_formula_units_Z 28
_cell_length_a 9.611557
_cell_length_b 9.223252
_cell_length_c 17.425507
_cell_angle_alpha 90.000000
_cell_angle_beta 90.366895
_cell_angle_gamma 90.000000
_cell_volume 1544.736254
_symmetry_space_group_name_H-M "P 21/M"
_symmetry_group_IT_number 11
_symmetry_cell_setting 'monoclinic'
loop_
_space_group_symop_operation_xyz
x,y,z
-x,1/2+y,-z
-x,-y,-z
x,1/2-y,z
loop_
_atom_site_type_symbol
_atom_site_label
_atom_site_fract_x
_atom_site_fract_y
_atom_site_fract_z
Si Si1 0.636852 0.081739 0.122230
Si Si2 0.338185 0.919699 0.701322
Si Si3 0.848355 0.581968 0.414425
Si Si4 0.615603 0.081506 0.694458
Si Si5 0.639696 0.081726 0.868770
Si Si6 0.145549 0.579882 0.003752
Si Si7 0.829552 0.416353 0.564507
O O1 0.605777 0.250000 0.109610
O O2 0.682438 0.047190 0.209079
O O3 0.760858 0.028922 0.067781
O O4 0.495360 0.000164 0.099909
O O5 0.336637 0.750000 0.682890
O O6 0.212256 0.997731 0.658233
O O7 0.482770 0.985865 0.671918
O O8 0.807052 0.750000 0.410238
O O9 0.786649 0.516341 0.492830
O O10 0.012479 0.556699 0.410681
O O11 0.574351 0.250000 0.687905
O O12 0.668995 0.043404 0.780077
O O13 0.737265 0.038763 0.636714
O O14 0.608085 0.250000 0.880683
O O15 0.775056 0.035559 0.917671
O O16 0.116001 0.750000 0.000195
O O17 0.000000 0.500000 0.000000
O O18 0.804977 0.250000 0.540311
#
# Coordination Sequence:
#
# PCOD8073353 Si02
#       7
#     4   4   4   4   4   4   4
#     4   9  19  35  53  74 102 135 170 207 249 299
#     4  10  20  34  52  75 103 134 168 207 251 298
#     4  10  20  34  53  76 101 132 170 208 249 300
#     4   9  18  34  54  76 101 129 166 211 254 297
#     4   9  18  33  54  77 100 130 169 210 251 297
#     4  10  21  35  51  76 107 136 169 208 249 295
#     4   9  19  35  53  73 100 133 167 206 253 302
#
# _framework density 18.126073000000002
#
# number of rings (size 3 to 8) (size 9 to 14) (size 15 to 20)
#    0.000    2.571    0.000    1.286    0.000    4.571 
#    0.000    1.429    0.000    0.000    0.000    0.000 
#    0.000    0.000    0.000    0.000    0.000    0.000 
#
# Total GULP energy -347278.929969 kJ/mol
# GULP energy per Si atom -12402.818927 kJ/mol
# Density = 1.808482 g / cm^3
# Si number density = 18.126073 Si / 1000 Ang^3
#
#
#
# Elastic Constant Matrix: (Units=GPa)
#
#
# Indices 1 2 3 4 5 6 
#
# 1 88.0141 40.3882 42.7099 0.0000 0.1123 0.0000
# 2 40.3882 67.3181 33.8959 0.0000 6.3139 0.0000
# 3 42.7099 33.8959 75.2130 0.0000 -0.9116 0.0000
# 4 0.0000 0.0000 0.0000 24.3800 0.0000 1.6063
# 5 0.1123 6.3139 -0.9116 0.0000 35.0888 0.0000
# 6 0.0000 0.0000 0.0000 1.6063 0.0000 35.1188
#
#
#
# Elastic Compliance Matrix: (Units=1/GPa)
#
#
# Indices 1 2 3 4 5 6 
#
# 1 0.018167 -0.007524 -0.006912 0.000000 0.001116 0.000000
# 2 -0.007524 0.022819 -0.006063 0.000000 -0.004240 0.000000
# 3 -0.006912 -0.006063 0.019973 0.000000 0.001632 0.000000
# 4 0.000000 0.000000 0.000000 0.041141 0.000000 -0.001882
# 5 0.001116 -0.004240 0.001632 0.000000 0.029301 0.000000
# 6 0.000000 0.000000 0.000000 -0.001882 0.000000 0.028561
#
#
# Mechanical properties :
#
#
# Convention : Reuss Voigt Hill
#
# Bulk Modulus (GPa) = 50.09591 51.61478 50.85535
# Shear Modulus (GPa) = 24.08327 26.48760 25.28544
#
# Velocity S-wave (km/s) = 3.64902 3.82684 3.73899
# Velocity P-wave (km/s) = 6.74176 6.93279 6.83794
#
# Compressibility (1/GPa) = 0.01996171
#
# Stress axis : x y z
#
# Youngs Moduli (GPa) = 55.04459 43.82260 50.06858
#
# Poissons Ratio (x) = 0.32972 0.34607
# Poissons Ratio (y) = 0.41415 0.30355
# Poissons Ratio (z) = 0.38046 0.26569
#
# Static dielectric constant tensor:
#      x y z
#    x 3.256330 0.000000 0.010590 
#    y 0.000000 3.366820 0.000000 
#    z 0.010590 0.000000 3.513940 
# 
# 
# High freq. dielectric constant tensor:
#      x y z
#    x 1.696110 0.000000 0.002150 
#    y 0.000000 1.702490 0.000000 
#    z 0.002150 0.000000 1.711370 
# 
# From -- ./inp_files/28323.got.cif
#   From: 2010.06.25/outbox.cif.g09.slc.cpg/sg11_15_cif.got.tgz:28323.got - 2010.06.27 23:14:04.
