data_PCOD8073335
_publ_section_title
;
Structure prediction by ZEFSAII (Michael W. Deem and Ramdas Pophale) SiO2 
 PCOD8073335
Probable space group: P 21/M
;
_chemical_formula_sum "Si O2"
_cell_formula_units_Z 32
_cell_length_a 16.556093
_cell_length_b 9.501193
_cell_length_c 17.804559
_cell_angle_alpha 90.000000
_cell_angle_beta 39.267197
_cell_angle_gamma 90.000000
_cell_volume 1772.671259
_symmetry_space_group_name_H-M "P 21/M"
_symmetry_group_IT_number 11
_symmetry_cell_setting 'monoclinic'
loop_
_space_group_symop_operation_xyz
x,y,z
-x,1/2+y,-z
-x,-y,-z
x,1/2-y,z
loop_
_atom_site_type_symbol
_atom_site_label
_atom_site_fract_x
_atom_site_fract_y
_atom_site_fract_z
Si Si1 0.976786 0.583942 0.092826
Si Si2 0.309170 0.087250 0.658973
Si Si3 0.797347 0.417212 0.962807
Si Si4 0.302689 0.086728 0.264789
Si Si5 0.476156 0.916978 0.793612
Si Si6 0.510870 0.913969 0.602966
Si Si7 0.827721 0.085842 0.774012
Si Si8 0.940312 0.593466 0.481120
O O1 0.990155 0.750000 0.066872
O O2 0.839458 0.547350 0.227747
O O3 0.082266 0.529309 0.076018
O O4 0.000000 0.500000 0.000000
O O5 0.331250 0.250000 0.663403
O O6 0.360930 0.055122 0.537359
O O7 0.388451 0.995356 0.660143
O O8 0.800710 0.250000 0.957180
O O9 0.800788 0.476692 0.875540
O O10 0.667605 0.474565 0.094004
O O11 0.309698 0.250000 0.234490
O O12 0.437615 0.028283 0.198714
O O13 0.211950 0.070333 0.405042
O O14 0.256267 0.996660 0.227178
O O15 0.477282 0.750000 0.796876
O O16 0.532670 0.965918 0.672622
O O17 0.474876 0.750000 0.626301
O O18 0.789837 0.250000 0.795469
O O19 0.982043 0.063515 0.651791
O O20 0.972826 0.750000 0.483439
O O21 0.000000 0.500000 0.500000
#
# Coordination Sequence:
#
# PCOD8073335 Si02
#       8
#     4   4   4   4   4   4   4   4
#     4  10  20  34  52  73  98 127 159 195 235 281
#     4   9  18  31  49  75 100 122 155 199 240 278
#     4   9  18  31  47  68  93 122 155 191 230 273
#     4   9  17  29  46  67  90 117 151 191 230 268
#     4   9  17  29  46  68  92 121 158 193 227 274
#     4   9  17  31  51  72  97 128 158 191 236 288
#     4   9  17  30  47  66  90 119 151 186 226 275
#     4   8  14  25  42  63  85 111 143 181 225 267
#
# _framework density 18.051853000000001
#
# number of rings (size 3 to 8) (size 9 to 14) (size 15 to 20)
#    0.000    3.000    0.000    0.750    0.000    3.000 
#    0.000    6.250    0.000    1.500    0.000    8.750 
#    0.000    0.000    0.000    0.000    0.000    0.000 
#
# Total GULP energy -396429.249052 kJ/mol
# GULP energy per Si atom -12388.414033 kJ/mol
# Density = 1.801077 g / cm^3
# Si number density = 18.051853 Si / 1000 Ang^3
#
#
#
# Elastic Constant Matrix: (Units=GPa)
#
#
# Indices 1 2 3 4 5 6 
#
# 1 141.1586 34.3813 82.7236 0.0000 1.1328 0.0000
# 2 34.3813 34.0184 32.1513 0.0000 0.9776 0.0000
# 3 82.7236 32.1513 134.4471 0.0000 1.8891 0.0000
# 4 0.0000 0.0000 0.0000 19.7251 0.0000 1.2228
# 5 1.1328 0.9776 1.8891 0.0000 33.7056 0.0000
# 6 0.0000 0.0000 0.0000 1.2228 0.0000 22.4349
#
#
#
# Elastic Compliance Matrix: (Units=1/GPa)
#
#
# Indices 1 2 3 4 5 6 
#
# 1 0.012171 -0.006751 -0.005876 0.000000 0.000116 0.000000
# 2 -0.006751 0.041736 -0.005818 0.000000 -0.000658 0.000000
# 3 -0.005876 -0.005818 0.012449 0.000000 -0.000332 0.000000
# 4 0.000000 0.000000 0.000000 0.050869 0.000000 -0.002772
# 5 0.000116 -0.000658 -0.000332 0.000000 0.029702 0.000000
# 6 0.000000 0.000000 0.000000 -0.002772 0.000000 0.044725
#
#
# Mechanical properties :
#
#
# Convention : Reuss Voigt Hill
#
# Bulk Modulus (GPa) = 33.93598 67.57073 50.75335
# Shear Modulus (GPa) = 20.97640 25.86431 23.42036
#
# Velocity S-wave (km/s) = 3.41252 3.78931 3.60584
# Velocity P-wave (km/s) = 5.86234 7.52715 6.74629
#
# Compressibility (1/GPa) = 0.02946725
#
# Stress axis : x y z
#
# Youngs Moduli (GPa) = 82.16214 23.96019 80.32658
#
# Poissons Ratio (x) = 0.16175 0.47200
# Poissons Ratio (y) = 0.55466 0.46732
# Poissons Ratio (z) = 0.48278 0.13939
#
# Static dielectric constant tensor:
#      x y z
#    x 3.124640 0.000000 0.156820 
#    y 0.000000 3.088880 0.000000 
#    z 0.156820 0.000000 3.153130 
# 
# 
# High freq. dielectric constant tensor:
#      x y z
#    x 1.686320 0.000000 -0.004690 
#    y 0.000000 1.666300 0.000000 
#    z -0.004690 0.000000 1.716470 
# 
# From -- ./inp_files/52281.got.cif
#   From: 2010.06.25/outbox.cif.g09.slc.cpg/sg11_27_cif.got.tgz:52281.got - 2010.06.27 23:14:04.
