data_PCOD8073397
_publ_section_title
;
Structure prediction by ZEFSAII (Michael W. Deem and Ramdas Pophale) SiO2 
 PCOD8073397
Probable space group: P 21/M
;
_chemical_formula_sum "Si O2"
_cell_formula_units_Z 32
_cell_length_a 11.601495
_cell_length_b 9.097199
_cell_length_c 21.476363
_cell_angle_alpha 90.000000
_cell_angle_beta 124.152953
_cell_angle_gamma 90.000000
_cell_volume 1875.738734
_symmetry_space_group_name_H-M "P 21/M"
_symmetry_group_IT_number 11
_symmetry_cell_setting 'monoclinic'
loop_
_space_group_symop_operation_xyz
x,y,z
-x,1/2+y,-z
-x,-y,-z
x,1/2-y,z
loop_
_atom_site_type_symbol
_atom_site_label
_atom_site_fract_x
_atom_site_fract_y
_atom_site_fract_z
Si Si1 0.339423 0.923472 0.236968
Si Si2 0.627074 0.418863 0.506881
Si Si3 0.928235 0.586480 0.067239
Si Si4 0.208258 0.912303 0.073528
Si Si5 0.072069 0.418856 0.578361
Si Si6 0.366970 0.081270 0.618604
Si Si7 0.078025 0.580332 0.344061
Si Si8 0.919869 0.575217 0.781780
O O1 0.309436 0.750000 0.236659
O O2 0.321735 0.967278 0.158731
O O3 0.493822 0.969532 0.303904
O O4 0.231069 0.010621 0.246866
O O5 0.500000 0.500000 0.500000
O O6 0.586297 0.250000 0.486146
O O7 0.661068 0.483697 0.449956
O O8 0.759829 0.438368 0.591077
O O9 0.886777 0.750000 0.077274
O O10 0.061594 0.594035 0.063920
O O11 0.960108 0.483647 0.135822
O O12 0.799600 0.520098 0.988210
O O13 0.247525 0.750000 0.060854
O O14 0.027695 0.250000 0.558442
O O15 0.238559 0.440211 0.626908
O O16 0.000000 0.500000 0.500000
O O17 0.015850 0.478233 0.627162
O O18 0.380407 0.250000 0.600978
O O19 0.044072 0.750000 0.317705
O O20 0.039725 0.477172 0.274774
O O21 0.914725 0.750000 0.784015
#
# Coordination Sequence:
#
# PCOD8073397 Si02
#       8
#     4   4   4   4   4   4   4   4
#     4   9  18  32  48  70 102 134 159 194 244 291
#     4  11  22  34  49  70  98 130 162 197 242 293
#     4   9  16  27  44  66  96 131 161 193 236 284
#     4   8  14  25  42  65  95 129 162 191 226 282
#     4  10  20  36  56  74  93 122 163 209 250 293
#     4  10  20  34  53  74  96 125 163 203 245 292
#     4  10  21  36  50  67  95 129 161 199 249 293
#     4  11  21  31  47  72  99 129 165 202 239 286
#
# _framework density 17.059944000000002
#
# number of rings (size 3 to 8) (size 9 to 14) (size 15 to 20)
#    0.000    2.250    1.250    3.375    0.000    8.000 
#    0.000    0.000    0.000    0.000    0.000    0.875 
#    0.000    0.000    0.000    0.000    0.000    0.000 
#
# Total GULP energy -396790.629542 kJ/mol
# GULP energy per Si atom -12399.707173 kJ/mol
# Density = 1.702111 g / cm^3
# Si number density = 17.059944 Si / 1000 Ang^3
#
#
#
# Elastic Constant Matrix: (Units=GPa)
#
#
# Indices 1 2 3 4 5 6 
#
# 1 68.0606 33.0775 31.4896 0.0000 -17.2544 0.0000
# 2 33.0775 93.2745 53.0520 0.0000 -12.6499 0.0000
# 3 31.4896 53.0520 113.8234 0.0000 -14.2242 0.0000
# 4 0.0000 0.0000 0.0000 31.4895 0.0000 -4.0892
# 5 -17.2544 -12.6499 -14.2242 0.0000 13.5512 0.0000
# 6 0.0000 0.0000 0.0000 -4.0892 0.0000 17.8010
#
#
#
# Elastic Compliance Matrix: (Units=1/GPa)
#
#
# Indices 1 2 3 4 5 6 
#
# 1 0.023680 -0.004192 -0.001517 0.000000 0.024645 0.000000
# 2 -0.004192 0.016017 -0.005875 0.000000 0.003447 0.000000
# 3 -0.001517 -0.005875 0.012680 0.000000 0.005894 0.000000
# 4 0.000000 0.000000 0.000000 0.032733 0.000000 0.007519
# 5 0.024645 0.003447 0.005894 0.000000 0.114579 0.000000
# 6 0.000000 0.000000 0.000000 0.007519 0.000000 0.057904
#
#
# Mechanical properties :
#
#
# Convention : Reuss Voigt Hill
#
# Bulk Modulus (GPa) = 34.23679 56.71074 45.47377
# Shear Modulus (GPa) = 17.21188 23.07096 20.14142
#
# Velocity S-wave (km/s) = 3.17977 3.68142 3.43975
# Velocity P-wave (km/s) = 5.79598 7.16831 6.51836
#
# Compressibility (1/GPa) = 0.02920834
#
# Stress axis : x y z
#
# Youngs Moduli (GPa) = 42.22945 62.43560 78.86457
#
# Poissons Ratio (x) = 0.26174 0.11967
# Poissons Ratio (y) = 0.17703 0.46330
# Poissons Ratio (z) = 0.06408 0.36678
#
# Static dielectric constant tensor:
#      x y z
#    x 3.000310 0.000000 0.004220 
#    y 0.000000 3.300330 0.000000 
#    z 0.004220 0.000000 3.417150 
# 
# 
# High freq. dielectric constant tensor:
#      x y z
#    x 1.618220 0.000000 -0.002370 
#    y 0.000000 1.661180 0.000000 
#    z -0.002370 0.000000 1.665420 
# 
# From -- ./inp_files/40631.got.cif
#   From: 2010.06.25/outbox.cif.g09.slc.cpg/sg11_21_cif.got.tgz:40631.got - 2010.06.27 23:14:04.
