data_PCOD8073048
_publ_section_title
;
Structure prediction by ZEFSAII (Michael W. Deem and Ramdas Pophale) SiO2 
 PCOD8073048
Probable space group: P 21/M
;
_chemical_formula_sum "Si O2"
_cell_formula_units_Z 32
_cell_length_a 16.421157
_cell_length_b 8.650848
_cell_length_c 29.956633
_cell_angle_alpha 90.000000
_cell_angle_beta 25.910966
_cell_angle_gamma 90.000000
_cell_volume 1859.563359
_symmetry_space_group_name_H-M "P 21/M"
_symmetry_group_IT_number 11
_symmetry_cell_setting 'monoclinic'
loop_
_space_group_symop_operation_xyz
x,y,z
-x,1/2+y,-z
-x,-y,-z
x,1/2-y,z
loop_
_atom_site_type_symbol
_atom_site_label
_atom_site_fract_x
_atom_site_fract_y
_atom_site_fract_z
Si Si1 0.987948 0.076586 0.179402
Si Si2 0.348905 0.568515 0.965233
Si Si3 0.651332 0.570685 0.301056
Si Si4 0.997287 0.923505 0.724815
Si Si5 0.609058 0.431204 0.903995
Si Si6 0.402639 0.567405 0.504361
Si Si7 0.219287 0.928928 0.848512
Si Si8 0.210869 0.070847 0.946039
O O1 0.959821 0.250000 0.173217
O O2 0.943298 0.077090 0.253190
O O3 0.855363 0.955049 0.220673
O O4 0.197807 0.023132 0.068706
O O5 0.324587 0.750000 0.983622
O O6 0.543961 0.512500 0.890121
O O7 0.333788 0.525300 0.920622
O O8 0.621198 0.750000 0.305661
O O9 0.500231 0.505904 0.410872
O O10 0.638501 0.478349 0.260719
O O11 0.938452 0.750000 0.739075
O O12 0.185068 0.979422 0.607141
O O13 0.830005 0.040708 0.798145
O O14 0.569199 0.250000 0.921926
O O15 0.500000 0.500000 0.000000
O O16 0.500000 0.500000 0.500000
O O17 0.426157 0.750000 0.496297
O O18 0.241984 0.750000 0.848656
O O19 0.273833 0.024001 0.865567
O O20 0.007129 0.968111 0.938619
O O21 0.252148 0.250000 0.933078
#
# Coordination Sequence:
#
# PCOD8073048 Si02
#       8
#     4   4   4   4   4   4   4   4
#     4  11  20  31  50  73 104 141 177 217 259 302
#     4  12  23  35  53  76 105 140 177 213 258 313
#     4  11  21  32  50  76 106 141 180 216 258 310
#     4  10  21  37  53  72 104 140 178 222 263 303
#     4  12  24  37  54  76 103 137 178 219 262 310
#     4  10  21  35  52  75 104 139 178 218 260 307
#     4  10  20  33  51  74 105 140 174 213 261 309
#     4  10  20  34  52  75 106 137 172 214 260 310
#
# _framework density 17.208338999999999
#
# number of rings (size 3 to 8) (size 9 to 14) (size 15 to 20)
#    0.000    1.250    3.750    3.750    0.000    2.500 
#    0.000    0.000    0.000    0.000    0.000    0.875 
#    0.000    0.000    0.000    0.000    0.000    0.000 
#
# Total GULP energy -396867.706544 kJ/mol
# GULP energy per Si atom -12402.115830 kJ/mol
# Density = 1.716917 g / cm^3
# Si number density = 17.208339 Si / 1000 Ang^3
#
#
#
# Elastic Constant Matrix: (Units=GPa)
#
#
# Indices 1 2 3 4 5 6 
#
# 1 85.4108 29.5514 39.4734 0.0000 9.3709 0.0000
# 2 29.5514 71.3430 22.8853 0.0000 5.1341 0.0000
# 3 39.4734 22.8853 99.2872 0.0000 14.7191 0.0000
# 4 0.0000 0.0000 0.0000 22.6357 0.0000 1.1635
# 5 9.3709 5.1341 14.7191 0.0000 25.1967 0.0000
# 6 0.0000 0.0000 0.0000 1.1635 0.0000 30.8148
#
#
#
# Elastic Compliance Matrix: (Units=1/GPa)
#
#
# Indices 1 2 3 4 5 6 
#
# 1 0.015873 -0.004860 -0.004885 0.000000 -0.002059 0.000000
# 2 -0.004860 0.016654 -0.001830 0.000000 -0.000517 0.000000
# 3 -0.004885 -0.001830 0.013259 0.000000 -0.005556 0.000000
# 4 0.000000 0.000000 0.000000 0.044264 0.000000 -0.001671
# 5 -0.002059 -0.000517 -0.005556 0.000000 0.043805 0.000000
# 6 0.000000 0.000000 0.000000 -0.001671 0.000000 0.032515
#
#
# Mechanical properties :
#
#
# Convention : Reuss Voigt Hill
#
# Bulk Modulus (GPa) = 44.17565 48.87345 46.52455
# Shear Modulus (GPa) = 25.37225 26.67150 26.02188
#
# Velocity S-wave (km/s) = 3.84398 3.94117 3.89288
# Velocity P-wave (km/s) = 6.74006 7.01235 6.87755
#
# Compressibility (1/GPa) = 0.02263691
#
# Stress axis : x y z
#
# Youngs Moduli (GPa) = 62.99910 60.04573 75.41774
#
# Poissons Ratio (x) = 0.29180 0.36844
# Poissons Ratio (y) = 0.30615 0.13801
# Poissons Ratio (z) = 0.30777 0.10988
#
# Static dielectric constant tensor:
#      x y z
#    x 3.139850 0.000000 0.124740 
#    y 0.000000 3.258910 0.000000 
#    z 0.124740 0.000000 3.213550 
# 
# 
# High freq. dielectric constant tensor:
#      x y z
#    x 1.650890 0.000000 0.013610 
#    y 0.000000 1.675570 0.000000 
#    z 0.013610 0.000000 1.642050 
# 
# From -- ./inp_files/71616.got.cif
#   From: 2010.06.25/outbox.cif.g09.slc.cpg/sg11_36_cif.got.tgz:71616.got - 2010.06.27 23:14:04.
