data_PCOD8073284
_publ_section_title
;
Structure prediction by ZEFSAII (Michael W. Deem and Ramdas Pophale) SiO2 
 PCOD8073284
Probable space group: P 21/M
;
_chemical_formula_sum "Si O2"
_cell_formula_units_Z 28
_cell_length_a 9.737131
_cell_length_b 8.939218
_cell_length_c 19.210605
_cell_angle_alpha 90.000000
_cell_angle_beta 73.480956
_cell_angle_gamma 90.000000
_cell_volume 1603.119007
_symmetry_space_group_name_H-M "P 21/M"
_symmetry_group_IT_number 11
_symmetry_cell_setting 'monoclinic'
loop_
_space_group_symop_operation_xyz
x,y,z
-x,1/2+y,-z
-x,-y,-z
x,1/2-y,z
loop_
_atom_site_type_symbol
_atom_site_label
_atom_site_fract_x
_atom_site_fract_y
_atom_site_fract_z
Si Si1 0.304415 0.581801 0.206499
Si Si2 0.091604 0.916413 0.647349
Si Si3 0.974124 0.586595 0.215276
Si Si4 0.761194 0.579548 0.651269
Si Si5 0.927300 0.069589 0.943633
Si Si6 0.152016 0.572389 0.491207
Si Si7 0.632971 0.929370 0.941785
O O1 0.369166 0.750000 0.195827
O O2 0.333713 0.506074 0.277264
O O3 0.377476 0.479608 0.137150
O O4 0.136074 0.590111 0.218149
O O5 0.131122 0.750000 0.662178
O O6 0.190187 0.965797 0.566844
O O7 0.926819 0.930075 0.648497
O O8 0.124485 0.003547 0.713958
O O9 0.906813 0.750000 0.221059
O O10 0.975594 0.518871 0.136909
O O11 0.708557 0.750000 0.653668
O O12 0.736355 0.499785 0.579661
O O13 0.914069 0.250000 0.949209
O O14 0.771661 0.997608 0.959052
O O15 0.000000 0.000000 0.000000
O O16 0.142420 0.750000 0.481011
O O17 0.000000 0.500000 0.500000
O O18 0.633972 0.750000 0.946490
O O19 0.500000 0.000000 0.000000
#
# Coordination Sequence:
#
# PCOD8073284 Si02
#       7
#     4   4   4   4   4   4   4
#     4   9  16  27  41  58  80 108 142 181 222 268
#     4   8  14  21  30  45  67  96 133 171 210 255
#     4   8  15  25  38  55  77 104 138 177 218 264
#     4   9  15  22  32  48  69  98 135 173 213 260
#     4  10  20  34  50  71  95 123 158 196 238 284
#     4   9  15  21  28  42  65  95 131 172 212 255
#     4  11  21  34  51  71  95 124 157 196 237 282
#
# _framework density 17.465951
#
# number of rings (size 3 to 8) (size 9 to 14) (size 15 to 20)
#    0.000    2.857    0.000    4.714    0.000    8.000 
#    0.000    0.000    0.000    0.000    0.000    0.000 
#    0.000    0.000    0.000    1.286    0.000   18.857 
#
# Total GULP energy -346865.733258 kJ/mol
# GULP energy per Si atom -12388.061902 kJ/mol
# Density = 1.742620 g / cm^3
# Si number density = 17.465951 Si / 1000 Ang^3
#
#
#
# Elastic Constant Matrix: (Units=GPa)
#
#
# Indices 1 2 3 4 5 6 
#
# 1 23.8150 26.7878 42.3765 0.0000 6.1073 0.0000
# 2 26.7878 134.0155 86.9934 0.0000 10.3849 0.0000
# 3 42.3765 86.9934 192.1889 0.0000 22.7948 0.0000
# 4 0.0000 0.0000 0.0000 38.9934 0.0000 3.0923
# 5 6.1073 10.3849 22.7948 0.0000 15.6286 0.0000
# 6 0.0000 0.0000 0.0000 3.0923 0.0000 12.7874
#
#
#
# Elastic Compliance Matrix: (Units=1/GPa)
#
#
# Indices 1 2 3 4 5 6 
#
# 1 0.072620 -0.005832 -0.012655 0.000000 -0.006045 0.000000
# 2 -0.005832 0.011035 -0.003760 0.000000 0.000431 0.000000
# 3 -0.012655 -0.003760 0.010656 0.000000 -0.008098 0.000000
# 4 0.000000 0.000000 0.000000 0.026147 0.000000 -0.006323
# 5 -0.006045 0.000431 -0.008098 0.000000 0.077873 0.000000
# 6 0.000000 0.000000 0.000000 -0.006323 0.000000 0.079731
#
#
# Mechanical properties :
#
#
# Convention : Reuss Voigt Hill
#
# Bulk Modulus (GPa) = 20.07410 73.59275 46.83342
# Shear Modulus (GPa) = 14.74224 26.40600 20.57412
#
# Velocity S-wave (km/s) = 2.90842 3.89248 3.43586
# Velocity P-wave (km/s) = 4.77459 7.90116 6.52783
#
# Compressibility (1/GPa) = 0.04981543
#
# Stress axis : x y z
#
# Youngs Moduli (GPa) = 13.77038 90.62079 93.84298
#
# Poissons Ratio (x) = 0.52853 1.18761
# Poissons Ratio (y) = 0.08031 0.35285
# Poissons Ratio (z) = 0.17427 0.34074
#
# Static dielectric constant tensor:
#      x y z
#    x 2.427580 0.000000 0.227190 
#    y 0.000000 3.494160 0.000000 
#    z 0.227190 0.000000 3.920680 
# 
# 
# High freq. dielectric constant tensor:
#      x y z
#    x 1.575800 0.000000 0.016560 
#    y 0.000000 1.689460 0.000000 
#    z 0.016560 0.000000 1.704670 
# 
# From -- ./inp_files/43647.got.cif
#   From: 2010.06.25/outbox.cif.g09.slc.cpg/sg11_22_cif.got.tgz:43647.got - 2010.06.27 23:14:04.
