data_PCOD8073401
_publ_section_title
;
Structure prediction by ZEFSAII (Michael W. Deem and Ramdas Pophale) SiO2 
 PCOD8073401
Probable space group: P 21/M
;
_chemical_formula_sum "Si O2"
_cell_formula_units_Z 32
_cell_length_a 15.694663
_cell_length_b 17.632199
_cell_length_c 19.815154
_cell_angle_alpha 90.000000
_cell_angle_beta 161.131169
_cell_angle_gamma 90.000000
_cell_volume 1773.370847
_symmetry_space_group_name_H-M "P 21/M"
_symmetry_group_IT_number 11
_symmetry_cell_setting 'monoclinic'
loop_
_space_group_symop_operation_xyz
x,y,z
-x,1/2+y,-z
-x,-y,-z
x,1/2-y,z
loop_
_atom_site_type_symbol
_atom_site_label
_atom_site_fract_x
_atom_site_fract_y
_atom_site_fract_z
Si Si1 0.940598 0.839163 0.646257
Si Si2 0.946830 0.662049 0.496477
Si Si3 0.508116 0.160201 0.441377
Si Si4 0.508343 0.340358 0.591347
Si Si5 0.502638 0.406206 0.930454
Si Si6 0.908165 0.659990 0.974466
Si Si7 0.104433 0.338922 0.882162
Si Si8 0.518156 0.417146 0.097639
O O1 0.980732 0.750000 0.687286
O O2 0.871913 0.858527 0.517352
O O3 0.701013 0.871922 0.511674
O O4 0.203767 0.880515 0.868919
O O5 0.016105 0.750000 0.541211
O O6 0.705485 0.642995 0.266997
O O7 0.206089 0.616053 0.668843
O O8 0.481415 0.250000 0.421822
O O9 0.436596 0.129916 0.462549
O O10 0.803175 0.138509 0.640597
O O11 0.304540 0.123344 0.235731
O O12 0.507273 0.250000 0.591767
O O13 0.801791 0.370181 0.828996
O O14 0.463184 0.493071 0.881749
O O15 0.457319 0.391104 0.975768
O O16 0.908760 0.750000 0.969422
O O17 0.831046 0.637393 0.992707
O O18 0.155364 0.250000 0.908106
O O19 0.283379 0.387394 0.967214
#
# Coordination Sequence:
#
# PCOD8073401 Si02
#       8
#     4   4   4   4   4   4   4   4
#     4   9  18  32  50  75 102 127 163 208 247 286
#     4  10  20  34  53  76 100 125 160 208 250 289
#     4   8  14  25  43  69  98 124 155 196 240 288
#     4   8  14  25  43  68  98 127 154 193 243 286
#     4  10  21  36  52  71  98 133 168 202 245 298
#     4   8  14  25  41  65  96 125 155 196 244 287
#     4   9  17  29  46  70  97 123 156 200 244 285
#     4  10  21  36  52  71  99 133 166 202 246 297
#
# _framework density 18.044730999999999
#
# number of rings (size 3 to 8) (size 9 to 14) (size 15 to 20)
#    0.000    3.000    0.000    2.625    0.000    3.500 
#    0.000    5.000    0.000    3.000    0.000    5.250 
#    0.000    0.000    0.000    0.000    0.000    0.000 
#
# Total GULP energy -396728.640211 kJ/mol
# GULP energy per Si atom -12397.770007 kJ/mol
# Density = 1.800366 g / cm^3
# Si number density = 18.044731 Si / 1000 Ang^3
#
#
#
# Elastic Constant Matrix: (Units=GPa)
#
#
# Indices 1 2 3 4 5 6 
#
# 1 113.0873 18.6302 66.6489 0.0000 18.8079 0.0000
# 2 18.6302 27.1768 15.1426 0.0000 2.6746 0.0000
# 3 66.6489 15.1426 135.1053 0.0000 -7.7476 0.0000
# 4 0.0000 0.0000 0.0000 -98.9112 0.0000 -206.5769
# 5 18.8079 2.6746 -7.7476 0.0000 28.1059 0.0000
# 6 0.0000 0.0000 0.0000 -206.5769 0.0000 -341.9744
#
#
#
# Elastic Compliance Matrix: (Units=1/GPa)
#
#
# Indices 1 2 3 4 5 6 
#
# 1 0.016958 -0.005598 -0.008493 0.000000 -0.013157 0.000000
# 2 -0.005598 0.041807 -0.001968 0.000000 -0.000775 0.000000
# 3 -0.008493 -0.001968 0.012344 0.000000 0.009273 0.000000
# 4 0.000000 0.000000 0.000000 0.038646 0.000000 -0.023345
# 5 -0.013157 -0.000775 0.009273 0.000000 0.047014 0.000000
# 6 0.000000 0.000000 0.000000 -0.023345 0.000000 0.011178
#
#
# Mechanical properties :
#
#
# Convention : Reuss Voigt Hill
#
# Bulk Modulus (GPa) = 25.64779 52.91254 39.28016
# Shear Modulus (GPa) = 23.46737 -70.89276 -23.71269
#
# Velocity S-wave (km/s) = 3.61017 -6.27475 -3.62899
# Velocity P-wave (km/s) = 5.62335 4.80729 2.06301
#
# Compressibility (1/GPa) = 0.03898972
#
# Stress axis : x y z
#
# Youngs Moduli (GPa) = 58.96784 23.91954 81.01376
#
# Poissons Ratio (x) = 0.13391 0.68803
# Poissons Ratio (y) = 0.33013 0.15947
# Poissons Ratio (z) = 0.50080 0.04708
#
# Static dielectric constant tensor:
#      x y z
#    x 3.474320 0.000000 -0.116770 
#    y 0.000000 2.946010 0.000000 
#    z -0.116770 0.000000 3.753810 
# 
# 
# High freq. dielectric constant tensor:
#      x y z
#    x 1.701570 0.000000 0.001480 
#    y 0.000000 1.659360 0.000000 
#    z 0.001480 0.000000 1.707750 
# 
# From -- ./inp_files/60567.got.cif
#   From: 2010.06.25/outbox.cif.g09.slc.cpg/sg11_31_cif.got.tgz:60567.got - 2010.06.27 23:14:04.
