data_PCOD8073820
_publ_section_title
;
Structure prediction by ZEFSAII (Michael W. Deem and Ramdas Pophale) SiO2 
 PCOD8073820
Probable space group: P 21/M
;
_chemical_formula_sum "Si O2"
_cell_formula_units_Z 32
_cell_length_a 12.018125
_cell_length_b 8.940670
_cell_length_c 25.925422
_cell_angle_alpha 90.000000
_cell_angle_beta 135.577179
_cell_angle_gamma 90.000000
_cell_volume 1949.836998
_symmetry_space_group_name_H-M "P 21/M"
_symmetry_group_IT_number 11
_symmetry_cell_setting 'monoclinic'
loop_
_space_group_symop_operation_xyz
x,y,z
-x,1/2+y,-z
-x,-y,-z
x,1/2-y,z
loop_
_atom_site_type_symbol
_atom_site_label
_atom_site_fract_x
_atom_site_fract_y
_atom_site_fract_z
Si Si1 0.459431 0.581441 0.203797
Si Si2 0.672691 0.420465 0.473185
Si Si3 0.108667 0.426976 0.372583
Si Si4 0.263458 0.073911 0.215106
Si Si5 0.198375 0.424080 0.694483
Si Si6 0.681225 0.927784 0.652141
Si Si7 0.117372 0.919428 0.077267
Si Si8 0.846304 0.078352 0.427193
O O1 0.475369 0.750000 0.231259
O O2 0.431875 0.471013 0.243796
O O3 0.620769 0.544548 0.225162
O O4 0.299699 0.571407 0.115186
O O5 0.686898 0.250000 0.497909
O O6 0.797942 0.519578 0.545976
O O7 0.494782 0.485584 0.421576
O O8 0.708821 0.428103 0.424456
O O9 0.101263 0.250000 0.370722
O O10 0.195746 0.486490 0.350001
O O11 0.929283 0.489629 0.312914
O O12 0.239840 0.250000 0.205340
O O13 0.262606 0.012592 0.273428
O O14 0.119326 0.996766 0.134863
O O15 0.152438 0.250000 0.679805
O O16 0.206018 0.483902 0.639130
O O17 0.673430 0.750000 0.651705
O O18 0.058986 0.750000 0.064259
O O19 0.000000 0.000000 0.000000
O O20 0.883421 0.250000 0.423751
O O21 0.000000 0.000000 0.500000
#
# Coordination Sequence:
#
# PCOD8073820 Si02
#       8
#     4   4   4   4   4   4   4   4
#     4   8  18  32  48  71 101 127 155 192 232 282
#     4  10  20  35  51  67  90 124 164 209 255 303
#     4  11  22  34  48  67  92 126 169 215 251 290
#     4   9  16  30  52  75  99 129 159 193 240 289
#     4  11  21  35  49  66  94 128 163 203 246 291
#     4   9  19  34  50  69  94 125 166 208 249 292
#     4   9  17  31  49  78 109 133 155 185 229 283
#     4  11  21  32  49  70  93 121 158 204 251 301
#
# _framework density 16.411629000000001
#
# number of rings (size 3 to 8) (size 9 to 14) (size 15 to 20)
#    0.750    1.500    1.250    2.625    0.000    2.500 
#    0.000    4.375    0.000    0.000    0.000    0.875 
#    0.000    0.000    0.000    0.000    0.000    0.000 
#
# Total GULP energy -396501.660776 kJ/mol
# GULP energy per Si atom -12390.676899 kJ/mol
# Density = 1.637428 g / cm^3
# Si number density = 16.411629 Si / 1000 Ang^3
#
#
#
# Elastic Constant Matrix: (Units=GPa)
#
#
# Indices 1 2 3 4 5 6 
#
# 1 105.1521 29.7233 35.4756 0.0000 10.5113 0.0000
# 2 29.7233 72.6323 26.0388 0.0000 6.7013 0.0000
# 3 35.4756 26.0388 72.1130 0.0000 14.3795 0.0000
# 4 0.0000 0.0000 0.0000 21.1209 0.0000 2.2363
# 5 10.5113 6.7013 14.3795 0.0000 17.6783 0.0000
# 6 0.0000 0.0000 0.0000 2.2363 0.0000 20.7633
#
#
#
# Elastic Compliance Matrix: (Units=1/GPa)
#
#
# Indices 1 2 3 4 5 6 
#
# 1 0.012113 -0.003181 -0.004315 0.000000 -0.002487 0.000000
# 2 -0.003181 0.016689 -0.004269 0.000000 -0.000962 0.000000
# 3 -0.004315 -0.004269 0.019929 0.000000 -0.012027 0.000000
# 4 0.000000 0.000000 0.000000 0.047892 0.000000 -0.005158
# 5 -0.002487 -0.000962 -0.012027 0.000000 0.068193 0.000000
# 6 0.000000 0.000000 0.000000 -0.005158 0.000000 0.048717
#
#
# Mechanical properties :
#
#
# Convention : Reuss Voigt Hill
#
# Bulk Modulus (GPa) = 39.67927 48.04142 43.86034
# Shear Modulus (GPa) = 20.36947 22.48981 21.42964
#
# Velocity S-wave (km/s) = 3.52683 3.70585 3.61745
# Velocity P-wave (km/s) = 6.38864 6.90271 6.65065
#
# Compressibility (1/GPa) = 0.02520208
#
# Stress axis : x y z
#
# Youngs Moduli (GPa) = 82.55288 59.91940 50.17697
#
# Poissons Ratio (x) = 0.19060 0.21649
# Poissons Ratio (y) = 0.26259 0.21423
# Poissons Ratio (z) = 0.35618 0.25582
#
# Static dielectric constant tensor:
#      x y z
#    x 3.186240 0.000000 0.060440 
#    y 0.000000 3.310780 0.000000 
#    z 0.060440 0.000000 2.883660 
# 
# 
# High freq. dielectric constant tensor:
#      x y z
#    x 1.619930 0.000000 0.015350 
#    y 0.000000 1.636360 0.000000 
#    z 0.015350 0.000000 1.605190 
# 
# From -- ./inp_files/68321.got.cif
#   From: 2010.06.25/outbox.cif.g09.slc.cpg/sg11_35_cif.got.tgz:68321.got - 2010.06.27 23:14:04.
