data_PCOD8073763
_publ_section_title
;
Structure prediction by ZEFSAII (Michael W. Deem and Ramdas Pophale) SiO2 
 PCOD8073763
Probable space group: P 21/M
;
_chemical_formula_sum "Si O2"
_cell_formula_units_Z 32
_cell_length_a 11.295662
_cell_length_b 8.993247
_cell_length_c 21.223110
_cell_angle_alpha 90.000000
_cell_angle_beta 128.766155
_cell_angle_gamma 90.000000
_cell_volume 1681.005783
_symmetry_space_group_name_H-M "P 21/M"
_symmetry_group_IT_number 11
_symmetry_cell_setting 'monoclinic'
loop_
_space_group_symop_operation_xyz
x,y,z
-x,1/2+y,-z
-x,-y,-z
x,1/2-y,z
loop_
_atom_site_type_symbol
_atom_site_label
_atom_site_fract_x
_atom_site_fract_y
_atom_site_fract_z
Si Si1 0.597362 0.074564 0.763128
Si Si2 0.415896 0.576112 0.382780
Si Si3 0.673759 0.083220 0.124630
Si Si4 0.314679 0.083357 0.993720
Si Si5 0.995656 0.079430 0.565074
Si Si6 0.307103 0.420304 0.740982
Si Si7 0.267840 0.076466 0.447351
Si Si8 0.161264 0.924575 0.055784
O O1 0.575610 0.250000 0.751637
O O2 0.606037 0.011736 0.695055
O O3 0.451169 0.010720 0.751610
O O4 0.750894 0.029754 0.850941
O O5 0.376654 0.750000 0.374635
O O6 0.589249 0.544941 0.459918
O O7 0.299903 0.488422 0.388777
O O8 0.739770 0.250000 0.141972
O O9 0.494259 0.086488 0.057589
O O10 0.724812 0.014512 0.207481
O O11 0.743265 0.983368 0.091823
O O12 0.247579 0.250000 0.978573
O O13 0.259358 0.976096 0.029810
O O14 0.946989 0.250000 0.539624
O O15 0.163070 0.066980 0.648491
O O16 0.878214 0.002490 0.572807
O O17 0.000000 0.000000 0.500000
O O18 0.339718 0.250000 0.771734
O O19 0.233489 0.250000 0.429802
O O20 0.139210 0.750000 0.044446
O O21 0.000000 0.000000 0.000000
#
# Coordination Sequence:
#
# PCOD8073763 Si02
#       8
#     4   4   4   4   4   4   4   4
#     4   9  18  35  60  83 106 142 190 236 279 335
#     4   9  18  36  61  85 110 149 197 236 277 334
#     4  10  20  34  57  87 114 144 185 237 286 333
#     4  10  20  36  58  83 113 147 186 230 284 347
#     4  11  23  38  59  86 119 156 191 234 283 340
#     4  10  20  37  59  84 113 150 194 236 284 341
#     4  10  20  36  58  85 119 151 188 237 283 336
#     4  11  22  38  59  82 112 149 190 239 290 342
#
# _framework density 19.036221000000001
#
# number of rings (size 3 to 8) (size 9 to 14) (size 15 to 20)
#    0.000    2.000    1.250    2.625    0.000    4.500 
#    2.250    1.875    0.000    0.000    0.000    0.000 
#    0.000    0.000    0.000    0.000    0.000    0.000 
#
# Total GULP energy -396876.311056 kJ/mol
# GULP energy per Si atom -12402.384720 kJ/mol
# Density = 1.899289 g / cm^3
# Si number density = 19.036221 Si / 1000 Ang^3
#
#
#
# Elastic Constant Matrix: (Units=GPa)
#
#
# Indices 1 2 3 4 5 6 
#
# 1 79.1556 48.3067 46.6742 0.0000 -15.0123 0.0000
# 2 48.3067 96.4812 52.8786 0.0000 -2.1523 0.0000
# 3 46.6742 52.8786 111.5942 0.0000 -25.8220 0.0000
# 4 0.0000 0.0000 0.0000 29.7637 0.0000 -3.3692
# 5 -15.0123 -2.1523 -25.8220 0.0000 33.3998 0.0000
# 6 0.0000 0.0000 0.0000 -3.3692 0.0000 34.7045
#
#
#
# Elastic Compliance Matrix: (Units=1/GPa)
#
#
# Indices 1 2 3 4 5 6 
#
# 1 0.020998 -0.008601 -0.003229 0.000000 0.006388 0.000000
# 2 -0.008601 0.018291 -0.006931 0.000000 -0.008046 0.000000
# 3 -0.003229 -0.006931 0.016023 0.000000 0.010490 0.000000
# 4 0.000000 0.000000 0.000000 0.033971 0.000000 0.003298
# 5 0.006388 -0.008046 0.010490 0.000000 0.040403 0.000000
# 6 0.000000 0.000000 0.000000 0.003298 0.000000 0.029135
#
#
# Mechanical properties :
#
#
# Convention : Reuss Voigt Hill
#
# Bulk Modulus (GPa) = 56.21417 64.77222 60.49319
# Shear Modulus (GPa) = 24.71921 28.86502 26.79211
#
# Velocity S-wave (km/s) = 3.60743 3.89822 3.75564
# Velocity P-wave (km/s) = 6.85169 7.37300 7.11712
#
# Compressibility (1/GPa) = 0.01778911
#
# Stress axis : x y z
#
# Youngs Moduli (GPa) = 47.62450 54.67304 62.41028
#
# Poissons Ratio (x) = 0.47025 0.20149
# Poissons Ratio (y) = 0.40963 0.43258
# Poissons Ratio (z) = 0.15376 0.37895
#
# Static dielectric constant tensor:
#      x y z
#    x 3.355940 0.000000 -0.175440 
#    y 0.000000 4.247350 0.000000 
#    z -0.175440 0.000000 3.524440 
# 
# 
# High freq. dielectric constant tensor:
#      x y z
#    x 1.738640 0.000000 -0.013540 
#    y 0.000000 1.738000 0.000000 
#    z -0.013540 0.000000 1.741150 
# 
# From -- ./inp_files/64430.got.cif
#   From: 2010.06.25/outbox.cif.g09.slc.cpg/sg11_33_cif.got.tgz:64430.got - 2010.06.27 23:14:04.
