data_PCOD8073909
_publ_section_title
;
Structure prediction by ZEFSAII (Michael W. Deem and Ramdas Pophale) SiO2 
 PCOD8073909
Probable space group: P 21/M
;
_chemical_formula_sum "Si O2"
_cell_formula_units_Z 28
_cell_length_a 9.579612
_cell_length_b 8.924451
_cell_length_c 26.308261
_cell_angle_alpha 90.000000
_cell_angle_beta 141.184618
_cell_angle_gamma 90.000000
_cell_volume 1409.806719
_symmetry_space_group_name_H-M "P 21/M"
_symmetry_group_IT_number 11
_symmetry_cell_setting 'monoclinic'
loop_
_space_group_symop_operation_xyz
x,y,z
-x,1/2+y,-z
-x,-y,-z
x,1/2-y,z
loop_
_atom_site_type_symbol
_atom_site_label
_atom_site_fract_x
_atom_site_fract_y
_atom_site_fract_z
Si Si1 0.758522 0.080173 0.815891
Si Si2 0.079879 0.076163 0.750825
Si Si3 0.791137 0.076336 0.415557
Si Si4 0.693374 0.574721 0.693385
Si Si5 0.144170 0.418330 0.999860
Si Si6 0.343893 0.927926 0.735111
Si Si7 0.538193 0.922970 0.064514
O O1 0.684449 0.250000 0.780920
O O2 0.006697 0.083161 0.908535
O O3 0.773197 0.975298 0.771358
O O4 0.584518 0.009222 0.807236
O O5 0.070989 0.250000 0.732887
O O6 0.216573 0.053428 0.842220
O O7 0.184795 0.983631 0.734574
O O8 0.830066 0.015343 0.689295
O O9 0.840503 0.250000 0.430139
O O10 0.569945 0.039025 0.385889
O O11 0.761054 0.023198 0.348840
O O12 0.000000 0.000000 0.500000
O O13 0.742676 0.750000 0.701140
O O14 0.200091 0.250000 0.033462
O O15 0.372774 0.506807 0.058735
O O16 0.000000 0.500000 0.000000
O O17 0.377154 0.750000 0.748190
O O18 0.482319 0.750000 0.041221
O O19 0.500000 0.000000 0.000000
#
# Coordination Sequence:
#
# PCOD8073909 Si02
#       7
#     4   4   4   4   4   4   4
#     4  10  20  35  54  78 107 141 185 233 276 328
#     4  11  23  38  56  82 113 147 189 234 279 331
#     4   9  20  38  61  89 116 142 178 220 266 325
#     4  10  21  37  58  84 111 143 182 223 268 325
#     4  11  23  36  52  76 106 141 185 234 283 331
#     4  10  21  37  58  85 114 147 186 228 275 330
#     4  11  24  39  55  78 110 147 191 238 284 334
#
# _framework density 19.860879000000001
#
# number of rings (size 3 to 8) (size 9 to 14) (size 15 to 20)
#    0.000    1.714    0.000    5.143    0.000   14.857 
#    0.000    0.714    0.000    0.000    0.000    0.000 
#    0.000    0.000    0.000    0.000    0.000    0.000 
#
# Total GULP energy -347248.052464 kJ/mol
# GULP energy per Si atom -12401.716159 kJ/mol
# Density = 1.981567 g / cm^3
# Si number density = 19.860879 Si / 1000 Ang^3
#
#
#
# Elastic Constant Matrix: (Units=GPa)
#
#
# Indices 1 2 3 4 5 6 
#
# 1 95.6658 30.2291 12.0635 0.0000 14.9860 0.0000
# 2 30.2291 109.7213 37.2405 0.0000 10.5199 0.0000
# 3 12.0635 37.2405 66.1591 0.0000 12.1495 0.0000
# 4 0.0000 0.0000 0.0000 32.2534 0.0000 1.1702
# 5 14.9860 10.5199 12.1495 0.0000 24.6308 0.0000
# 6 0.0000 0.0000 0.0000 1.1702 0.0000 40.8070
#
#
#
# Elastic Compliance Matrix: (Units=1/GPa)
#
#
# Indices 1 2 3 4 5 6 
#
# 1 0.012343 -0.002988 0.000633 0.000000 -0.006546 0.000000
# 2 -0.002988 0.012067 -0.006196 0.000000 -0.000280 0.000000
# 3 0.000633 -0.006196 0.019872 0.000000 -0.007541 0.000000
# 4 0.000000 0.000000 0.000000 0.031037 0.000000 -0.000890
# 5 -0.006546 -0.000280 -0.007541 0.000000 0.048422 0.000000
# 6 0.000000 0.000000 0.000000 -0.000890 0.000000 0.024531
#
#
# Mechanical properties :
#
#
# Convention : Reuss Voigt Hill
#
# Bulk Modulus (GPa) = 36.79109 47.84580 42.31845
# Shear Modulus (GPa) = 28.66421 32.33910 30.50166
#
# Velocity S-wave (km/s) = 3.80313 4.03957 3.92314
# Velocity P-wave (km/s) = 6.15221 6.77498 6.47109
#
# Compressibility (1/GPa) = 0.02718049
#
# Stress axis : x y z
#
# Youngs Moduli (GPa) = 81.01928 82.87002 50.32119
#
# Poissons Ratio (x) = 0.24761 -0.03187
# Poissons Ratio (y) = 0.24208 0.31181
# Poissons Ratio (z) = -0.05132 0.51349
#
# Static dielectric constant tensor:
#      x y z
#    x 3.681530 0.000000 0.169880 
#    y 0.000000 3.652720 0.000000 
#    z 0.169880 0.000000 3.720080 
# 
# 
# High freq. dielectric constant tensor:
#      x y z
#    x 1.781310 0.000000 0.010650 
#    y 0.000000 1.789550 0.000000 
#    z 0.010650 0.000000 1.755270 
# 
# From -- ./inp_files/28159.got.cif
#   From: 2010.06.25/outbox.cif.g09.slc.cpg/sg11_15_cif.got.tgz:28159.got - 2010.06.27 23:14:04.
