data_PCOD8073451
_publ_section_title
;
Structure prediction by ZEFSAII (Michael W. Deem and Ramdas Pophale) SiO2 
 PCOD8073451
Probable space group: P 21/M
;
_chemical_formula_sum "Si O2"
_cell_formula_units_Z 32
_cell_length_a 19.934175
_cell_length_b 8.829839
_cell_length_c 14.096110
_cell_angle_alpha 90.000000
_cell_angle_beta 44.539194
_cell_angle_gamma 90.000000
_cell_volume 1740.260414
_symmetry_space_group_name_H-M "P 21/M"
_symmetry_group_IT_number 11
_symmetry_cell_setting 'monoclinic'
loop_
_space_group_symop_operation_xyz
x,y,z
-x,1/2+y,-z
-x,-y,-z
x,1/2-y,z
loop_
_atom_site_type_symbol
_atom_site_label
_atom_site_fract_x
_atom_site_fract_y
_atom_site_fract_z
Si Si1 0.737784 0.427652 0.659762
Si Si2 0.903531 0.078161 0.832513
Si Si3 0.727502 0.072253 0.881112
Si Si4 0.230765 0.071308 0.664065
Si Si5 0.759451 0.425853 0.144703
Si Si6 0.610685 0.928422 0.160128
Si Si7 0.898055 0.072181 0.358270
Si Si8 0.609459 0.072577 0.618469
O O1 0.744003 0.250000 0.668586
O O2 0.725542 0.497597 0.776926
O O3 0.835513 0.484482 0.511317
O O4 0.648201 0.473418 0.683814
O O5 0.941099 0.250000 0.789903
O O6 0.832826 0.043203 0.816822
O O7 0.849376 0.048217 0.985477
O O8 0.992094 0.965727 0.734159
O O9 0.702011 0.250000 0.912450
O O10 0.648650 0.981785 0.019962
O O11 0.228927 0.250000 0.661801
O O12 0.218764 0.018291 0.783373
O O13 0.140271 0.008591 0.697404
O O14 0.331577 0.013637 0.521652
O O15 0.744053 0.250000 0.183642
O O16 0.663582 0.487049 0.192147
O O17 0.626087 0.750000 0.155026
O O18 0.500160 0.974806 0.278741
O O19 0.884878 0.250000 0.356512
O O20 0.625544 0.250000 0.585448
#
# Coordination Sequence:
#
# PCOD8073451 Si02
#       8
#     4   4   4   4   4   4   4   4
#     4   8  16  33  54  75 102 140 179 212 256 310
#     4   9  19  34  52  76 104 135 173 216 260 307
#     4   9  18  34  54  75 105 142 177 216 260 307
#     4  11  22  36  56  80 105 133 171 218 260 307
#     4  10  21  38  57  76 104 140 174 212 260 312
#     4  10  20  34  53  79 108 137 174 218 260 306
#     4  10  20  35  55  77 105 140 174 212 260 312
#     4   9  19  36  55  76 107 142 174 213 260 310
#
# _framework density 18.388051999999998
#
# number of rings (size 3 to 8) (size 9 to 14) (size 15 to 20)
#    0.000    2.500    0.000    3.750    0.000    5.500 
#    0.000    3.125    0.000    0.000    0.000    0.000 
#    0.000    0.000    0.000    0.000    0.000    0.000 
#
# Total GULP energy -396838.266823 kJ/mol
# GULP energy per Si atom -12401.195838 kJ/mol
# Density = 1.834620 g / cm^3
# Si number density = 18.388052 Si / 1000 Ang^3
#
#
#
# Elastic Constant Matrix: (Units=GPa)
#
#
# Indices 1 2 3 4 5 6 
#
# 1 36.9798 14.8474 11.1407 0.0000 4.7580 0.0000
# 2 14.8474 67.0649 18.2828 0.0000 -6.0255 0.0000
# 3 11.1407 18.2828 33.4943 0.0000 -1.4361 0.0000
# 4 0.0000 0.0000 0.0000 29.7044 0.0000 -4.2408
# 5 4.7580 -6.0255 -1.4361 0.0000 40.1967 0.0000
# 6 0.0000 0.0000 0.0000 -4.2408 0.0000 27.5148
#
#
#
# Elastic Compliance Matrix: (Units=1/GPa)
#
#
# Indices 1 2 3 4 5 6 
#
# 1 0.032250 -0.005404 -0.007988 0.000000 -0.004913 0.000000
# 2 -0.005404 0.018636 -0.008240 0.000000 0.003139 0.000000
# 3 -0.007988 -0.008240 0.037055 0.000000 0.001034 0.000000
# 4 0.000000 0.000000 0.000000 0.034423 0.000000 0.005306
# 5 -0.004913 0.003139 0.001034 0.000000 0.025967 0.000000
# 6 0.000000 0.000000 0.000000 0.005306 0.000000 0.037162
#
#
# Mechanical properties :
#
#
# Convention : Reuss Voigt Hill
#
# Bulk Modulus (GPa) = 22.38292 25.12010 23.75151
# Shear Modulus (GPa) = 20.52145 25.70105 23.11125
#
# Velocity S-wave (km/s) = 3.34431 3.74264 3.54907
# Velocity P-wave (km/s) = 5.20687 5.68922 5.45338
#
# Compressibility (1/GPa) = 0.04467693
#
# Stress axis : x y z
#
# Youngs Moduli (GPa) = 31.00788 53.66066 26.98684
#
# Poissons Ratio (x) = 0.28996 0.21557
# Poissons Ratio (y) = 0.16755 0.22238
# Poissons Ratio (z) = 0.24769 0.44218
#
# Static dielectric constant tensor:
#      x y z
#    x 3.468190 0.000000 0.093290 
#    y 0.000000 3.277180 0.000000 
#    z 0.093290 0.000000 3.426320 
# 
# 
# High freq. dielectric constant tensor:
#      x y z
#    x 1.717500 0.000000 0.002820 
#    y 0.000000 1.706130 0.000000 
#    z 0.002820 0.000000 1.713350 
# 
# From -- ./inp_files/54259.got.cif
#   From: 2010.06.25/outbox.cif.g09.slc.cpg/sg11_28_cif.got.tgz:54259.got - 2010.06.27 23:14:04.
