data_PCOD8073903
_publ_section_title
;
Structure prediction by ZEFSAII (Michael W. Deem and Ramdas Pophale) SiO2 
 PCOD8073903
Probable space group: P 21/M
;
_chemical_formula_sum "Si O2"
_cell_formula_units_Z 32
_cell_length_a 14.343743
_cell_length_b 17.523651
_cell_length_c 12.045436
_cell_angle_alpha 90.000000
_cell_angle_beta 32.885011
_cell_angle_gamma 90.000000
_cell_volume 1643.891979
_symmetry_space_group_name_H-M "P 21/M"
_symmetry_group_IT_number 11
_symmetry_cell_setting 'monoclinic'
loop_
_space_group_symop_operation_xyz
x,y,z
-x,1/2+y,-z
-x,-y,-z
x,1/2-y,z
loop_
_atom_site_type_symbol
_atom_site_label
_atom_site_fract_x
_atom_site_fract_y
_atom_site_fract_z
Si Si1 0.500003 0.089763 0.507227
Si Si2 0.499971 0.840885 0.734802
Si Si3 0.692282 0.340494 0.687598
Si Si4 0.806609 0.660922 0.051023
Si Si5 0.692252 0.659505 0.927878
Si Si6 0.193385 0.660923 0.664236
Si Si7 0.810714 0.659314 0.574089
Si Si8 0.189230 0.840686 0.195565
O O1 0.500025 0.125111 0.386241
O O2 0.327608 0.115006 0.741450
O O3 0.672381 0.115002 0.396702
O O4 0.500000 0.000000 0.500000
O O5 0.499977 0.750000 0.726849
O O6 0.668160 0.871681 0.631376
O O7 0.331774 0.871681 0.967750
O O8 0.689550 0.250000 0.698740
O O9 0.795962 0.366098 0.474635
O O10 0.778902 0.373870 0.712468
O O11 0.500016 0.372929 0.870354
O O12 0.759779 0.750000 0.107612
O O13 0.795922 0.633894 0.933495
O O14 0.000001 0.645041 0.900441
O O15 0.689533 0.750000 0.922204
O O16 0.778870 0.626132 0.729771
O O17 0.240221 0.750000 0.627171
O O18 0.798107 0.750000 0.590949
O O19 0.999969 0.633071 0.344716
O O20 0.201832 0.750000 0.187221
#
# Coordination Sequence:
#
# PCOD8073903 Si02
#       8
#     4   4   4   4   4   4   4   4
#     4  12  26  41  56  76 110 155 195 238 283 330
#     4  10  20  35  54  77 106 143 186 227 264 320
#     4   9  14  25  50  84 117 140 164 214 281 336
#     4  10  20  36  61  88 111 140 184 237 284 329
#     4   9  14  25  50  84 117 140 164 214 281 336
#     4  10  20  36  61  88 111 140 184 237 284 329
#     4   9  16  27  48  81 115 141 167 211 274 333
#     4   9  16  27  48  81 115 141 167 211 274 333
#
# _framework density 19.465999
#
# number of rings (size 3 to 8) (size 9 to 14) (size 15 to 20)
#    0.000    2.250    2.500    1.875    0.000    4.500 
#    0.000    2.500    0.000    3.000    0.000    3.500 
#    0.000    0.000    0.000    0.000    0.000    0.000 
#
# Total GULP energy -396690.762644 kJ/mol
# GULP energy per Si atom -12396.586333 kJ/mol
# Density = 1.942169 g / cm^3
# Si number density = 19.465999 Si / 1000 Ang^3
#
#
#
# Elastic Constant Matrix: (Units=GPa)
#
#
# Indices 1 2 3 4 5 6 
#
# 1 121.2477 23.7130 96.9752 0.0000 9.9089 0.0000
# 2 23.7130 26.0721 23.0197 0.0000 0.8314 0.0000
# 3 96.9752 23.0197 125.3007 0.0000 -14.6581 0.0000
# 4 0.0000 0.0000 0.0000 4.9569 0.0000 -7.8797
# 5 9.9089 0.8314 -14.6581 0.0000 37.6031 0.0000
# 6 0.0000 0.0000 0.0000 -7.8797 0.0000 -1.5910
#
#
#
# Elastic Compliance Matrix: (Units=1/GPa)
#
#
# Indices 1 2 3 4 5 6 
#
# 1 0.030365 -0.005382 -0.024553 0.000000 -0.017454 0.000000
# 2 -0.005382 0.047472 -0.004729 0.000000 -0.001475 0.000000
# 3 -0.024553 -0.004729 0.029989 0.000000 0.018265 0.000000
# 4 0.000000 0.000000 0.000000 0.022736 0.000000 -0.112606
# 5 -0.017454 -0.001475 0.018265 0.000000 0.038345 0.000000
# 6 0.000000 0.000000 0.000000 -0.112606 0.000000 -0.070837
#
#
# Mechanical properties :
#
#
# Convention : Reuss Voigt Hill
#
# Bulk Modulus (GPa) = 25.97545 62.22626 44.10085
# Shear Modulus (GPa) = 27.74232 16.78798 22.26515
#
# Velocity S-wave (km/s) = 3.77924 2.93989 3.38568
# Velocity P-wave (km/s) = 5.69355 6.60000 6.16346
#
# Compressibility (1/GPa) = 0.03849789
#
# Stress axis : x y z
#
# Youngs Moduli (GPa) = 32.93315 21.06504 33.34548
#
# Poissons Ratio (x) = 0.11336 0.81875
# Poissons Ratio (y) = 0.17723 0.15768
# Poissons Ratio (z) = 0.80862 0.09961
#
# Static dielectric constant tensor:
#      x y z
#    x 3.813350 0.000000 -0.017330 
#    y 0.000000 2.875880 0.000000 
#    z -0.017330 0.000000 3.827540 
# 
# 
# High freq. dielectric constant tensor:
#      x y z
#    x 1.769200 0.000000 -0.005470 
#    y 0.000000 1.683860 0.000000 
#    z -0.005470 0.000000 1.773740 
# 
# From -- ./inp_files/39943.got.cif
#   From: 2010.06.25/outbox.cif.g09.slc.cpg/sg11_20_cif.got.tgz:39943.got - 2010.06.27 23:14:04.
