data_PCOD8073115
_publ_section_title
;
Structure prediction by ZEFSAII (Michael W. Deem and Ramdas Pophale) SiO2 
 PCOD8073115
Probable space group: P 21/M
;
_chemical_formula_sum "Si O2"
_cell_formula_units_Z 32
_cell_length_a 14.858181
_cell_length_b 8.676434
_cell_length_c 14.946097
_cell_angle_alpha 90.000000
_cell_angle_beta 78.608028
_cell_angle_gamma 90.000000
_cell_volume 1888.831453
_symmetry_space_group_name_H-M "P 21/M"
_symmetry_group_IT_number 11
_symmetry_cell_setting 'monoclinic'
loop_
_space_group_symop_operation_xyz
x,y,z
-x,1/2+y,-z
-x,-y,-z
x,1/2-y,z
loop_
_atom_site_type_symbol
_atom_site_label
_atom_site_fract_x
_atom_site_fract_y
_atom_site_fract_z
Si Si1 0.930833 0.571309 0.888307
Si Si2 0.247639 0.429204 0.753300
Si Si3 0.789628 0.071789 0.580278
Si Si4 0.386541 0.071691 0.447051
Si Si5 0.931853 0.070189 0.703103
Si Si6 0.124905 0.928729 0.626128
Si Si7 0.870554 0.428776 0.076280
Si Si8 0.409919 0.927954 0.630758
O O1 0.915700 0.750000 0.870305
O O2 0.900063 0.471051 0.809426
O O3 0.037182 0.533243 0.886925
O O4 0.868465 0.523603 0.984584
O O5 0.238275 0.250000 0.775422
O O6 0.187341 0.470779 0.679032
O O7 0.215333 0.521160 0.847114
O O8 0.353542 0.472800 0.713940
O O9 0.761943 0.250000 0.588975
O O10 0.849253 0.023764 0.653908
O O11 0.847813 0.032977 0.480498
O O12 0.696538 0.971780 0.602340
O O13 0.382551 0.250000 0.476183
O O14 0.482313 0.035497 0.378038
O O15 0.377217 0.968990 0.537346
O O16 0.956176 0.250000 0.690192
O O17 0.019106 0.969848 0.658747
O O18 0.139443 0.750000 0.647644
O O19 0.864390 0.250000 0.053390
O O20 0.386841 0.750000 0.651328
#
# Coordination Sequence:
#
# PCOD8073115 Si02
#       8
#     4   4   4   4   4   4   4   4
#     4  10  20  34  52  74 100 133 170 212 256 300
#     4  12  22  32  51  78 104 136 172 207 251 308
#     4  10  22  36  51  71 102 140 177 215 255 298
#     4  10  20  33  52  75  98 132 173 213 256 301
#     4  11  22  35  51  73 101 139 179 214 252 299
#     4  11  21  34  49  70 102 141 177 214 252 292
#     4  10  20  34  53  74 102 134 165 209 259 304
#     4  10  20  34  51  73 103 133 167 211 258 306
#
# _framework density 16.941693000000001
#
# number of rings (size 3 to 8) (size 9 to 14) (size 15 to 20)
#    0.000    1.500    2.500    3.750    0.000    4.000 
#    0.000    0.000    0.000    0.000    0.000    0.875 
#    0.000    0.000    0.000    0.000    0.000    0.000 
#
# Total GULP energy -396978.904578 kJ/mol
# GULP energy per Si atom -12405.590768 kJ/mol
# Density = 1.690313 g / cm^3
# Si number density = 16.941693 Si / 1000 Ang^3
#
#
#
# Elastic Constant Matrix: (Units=GPa)
#
#
# Indices 1 2 3 4 5 6 
#
# 1 82.4716 20.5553 42.6722 0.0000 -7.2937 0.0000
# 2 20.5553 46.6180 20.6064 0.0000 -1.8995 0.0000
# 3 42.6722 20.6064 89.7890 0.0000 -6.7471 0.0000
# 4 0.0000 0.0000 0.0000 27.9926 0.0000 -2.3833
# 5 -7.2937 -1.8995 -6.7471 0.0000 22.5846 0.0000
# 6 0.0000 0.0000 0.0000 -2.3833 0.0000 26.8076
#
#
#
# Elastic Compliance Matrix: (Units=1/GPa)
#
#
# Indices 1 2 3 4 5 6 
#
# 1 0.017035 -0.004351 -0.006866 0.000000 0.003084 0.000000
# 2 -0.004351 0.024987 -0.003697 0.000000 -0.000408 0.000000
# 3 -0.006866 -0.003697 0.015404 0.000000 0.002074 0.000000
# 4 0.000000 0.000000 0.000000 0.035996 0.000000 0.003200
# 5 0.003084 -0.000408 0.002074 0.000000 0.045859 0.000000
# 6 0.000000 0.000000 0.000000 0.003200 0.000000 0.037587
#
#
# Mechanical properties :
#
#
# Convention : Reuss Voigt Hill
#
# Bulk Modulus (GPa) = 36.23334 42.94959 39.59147
# Shear Modulus (GPa) = 23.15926 24.47996 23.81961
#
# Velocity S-wave (km/s) = 3.70130 3.80538 3.75370
# Velocity P-wave (km/s) = 6.30077 6.68688 6.49669
#
# Compressibility (1/GPa) = 0.02759889
#
# Stress axis : x y z
#
# Youngs Moduli (GPa) = 58.70294 40.02067 64.91623
#
# Poissons Ratio (x) = 0.17412 0.44569
# Poissons Ratio (y) = 0.25540 0.24002
# Poissons Ratio (z) = 0.40303 0.14797
#
# Static dielectric constant tensor:
#      x y z
#    x 3.135650 0.000000 -0.117300 
#    y 0.000000 3.258180 0.000000 
#    z -0.117300 0.000000 3.115780 
# 
# 
# High freq. dielectric constant tensor:
#      x y z
#    x 1.632980 0.000000 -0.014830 
#    y 0.000000 1.668650 0.000000 
#    z -0.014830 0.000000 1.639680 
# 
# From -- ./inp_files/51268.got.cif
#   From: 2010.06.25/outbox.cif.g09.slc.cpg/sg11_26_cif.got.tgz:51268.got - 2010.06.27 23:14:04.
