data_PCOD8073338
_publ_section_title
;
Structure prediction by ZEFSAII (Michael W. Deem and Ramdas Pophale) SiO2 
 PCOD8073338
Probable space group: P 21/M
;
_chemical_formula_sum "Si O2"
_cell_formula_units_Z 32
_cell_length_a 9.220621
_cell_length_b 14.047113
_cell_length_c 26.981481
_cell_angle_alpha 90.000000
_cell_angle_beta 31.312422
_cell_angle_gamma 90.000000
_cell_volume 1816.223890
_symmetry_space_group_name_H-M "P 21/M"
_symmetry_group_IT_number 11
_symmetry_cell_setting 'monoclinic'
loop_
_space_group_symop_operation_xyz
x,y,z
-x,1/2+y,-z
-x,-y,-z
x,1/2-y,z
loop_
_atom_site_type_symbol
_atom_site_label
_atom_site_fract_x
_atom_site_fract_y
_atom_site_fract_z
Si Si1 0.331920 0.488058 0.099093
Si Si2 0.055459 0.141903 0.745085
Si Si3 0.821106 0.140705 0.238536
Si Si4 0.719118 0.358097 0.745084
Si Si5 0.486221 0.359295 0.238535
Si Si6 0.902548 0.486931 0.606589
Si Si7 0.327383 0.511941 0.900907
Si Si8 0.435493 0.986929 0.393411
O O1 0.543938 0.474156 0.082425
O O2 0.141590 0.581650 0.160903
O O3 0.136806 0.395337 0.152113
O O4 0.500000 0.500000 0.000000
O O5 0.051565 0.250000 0.765525
O O6 0.369204 0.103387 0.653865
O O7 0.949971 0.133520 0.720012
O O8 0.806323 0.250000 0.259416
O O9 0.728351 0.127025 0.208661
O O10 0.616480 0.082857 0.334670
O O11 0.620823 0.250000 0.765519
O O12 0.861469 0.396617 0.653866
O O13 0.446103 0.418348 0.839098
O O14 0.396606 0.250000 0.259413
O O15 0.210176 0.417141 0.334670
O O16 0.602638 0.395339 0.152112
O O17 0.739173 0.463287 0.604330
O O18 0.230223 0.500002 0.500000
O O19 0.000000 0.500000 0.000000
#
# Coordination Sequence:
#
# PCOD8073338 Si02
#       8
#     4   4   4   4   4   4   4   4
#     4  10  20  34  52  74 100 129 164 206 250 296
#     4   9  19  35  52  71  98 132 167 202 243 292
#     4   9  18  33  51  71  99 134 168 203 246 294
#     4   9  19  35  52  71  98 132 167 202 243 292
#     4   9  18  33  51  71  99 134 168 203 246 294
#     4   9  18  32  51  76 103 130 163 204 247 290
#     4  10  20  34  52  74 100 129 164 206 250 296
#     4   9  18  32  51  76 103 130 163 204 247 290
#
# _framework density 17.618971999999999
#
# number of rings (size 3 to 8) (size 9 to 14) (size 15 to 20)
#    0.000    2.750    0.000    0.750    0.000    4.500 
#    0.000    5.000    0.000    0.000    0.000    0.000 
#    0.000    0.000    0.000    0.000    0.000    0.000 
#
# Total GULP energy -396878.309957 kJ/mol
# GULP energy per Si atom -12402.447186 kJ/mol
# Density = 1.757887 g / cm^3
# Si number density = 17.618972 Si / 1000 Ang^3
#
#
#
# Elastic Constant Matrix: (Units=GPa)
#
#
# Indices 1 2 3 4 5 6 
#
# 1 65.5123 44.7193 60.1131 0.0000 1.8354 0.0000
# 2 44.7193 127.8096 54.8953 0.0000 0.3310 0.0000
# 3 60.1131 54.8953 146.3412 0.0000 0.7912 0.0000
# 4 0.0000 0.0000 0.0000 14.9377 0.0000 -0.4588
# 5 1.8354 0.3310 0.7912 0.0000 30.9035 0.0000
# 6 0.0000 0.0000 0.0000 -0.4588 0.0000 29.0499
#
#
#
# Elastic Compliance Matrix: (Units=1/GPa)
#
#
# Indices 1 2 3 4 5 6 
#
# 1 0.027653 -0.005718 -0.009207 0.000000 -0.001345 0.000000
# 2 -0.005718 0.010509 -0.001595 0.000000 0.000268 0.000000
# 3 -0.009207 -0.001595 0.011212 0.000000 0.000277 0.000000
# 4 0.000000 0.000000 0.000000 0.066977 0.000000 0.001058
# 5 -0.001345 0.000268 0.000277 0.000000 0.032429 0.000000
# 6 0.000000 0.000000 0.000000 0.001058 0.000000 0.034440
#
#
# Mechanical properties :
#
#
# Convention : Reuss Voigt Hill
#
# Bulk Modulus (GPa) = 61.21795 73.23541 67.22668
# Shear Modulus (GPa) = 22.55248 26.97391 24.76319
#
# Velocity S-wave (km/s) = 3.58161 3.91699 3.75305
# Velocity P-wave (km/s) = 7.20588 7.88122 7.55110
#
# Compressibility (1/GPa) = 0.01633508
#
# Stress axis : x y z
#
# Youngs Moduli (GPa) = 36.16214 95.15652 89.18838
#
# Poissons Ratio (x) = 0.54406 0.82117
# Poissons Ratio (y) = 0.20676 0.14225
# Poissons Ratio (z) = 0.33295 0.15177
#
# Static dielectric constant tensor:
#      x y z
#    x 3.282950 0.000000 0.000700 
#    y 0.000000 3.389140 0.000000 
#    z 0.000700 0.000000 3.304530 
# 
# 
# High freq. dielectric constant tensor:
#      x y z
#    x 1.680980 0.000000 0.000010 
#    y 0.000000 1.681880 0.000000 
#    z 0.000010 0.000000 1.681380 
# 
# From -- ./inp_files/47464.got.cif
#   From: 2010.06.25/outbox.cif.g09.slc.cpg/sg11_24_cif.got.tgz:47464.got - 2010.06.27 23:14:04.
