data_PCOD8073481
_publ_section_title
;
Structure prediction by ZEFSAII (Michael W. Deem and Ramdas Pophale) SiO2 
 PCOD8073481
Probable space group: P 21/M
;
_chemical_formula_sum "Si O2"
_cell_formula_units_Z 32
_cell_length_a 9.114823
_cell_length_b 19.676959
_cell_length_c 13.457667
_cell_angle_alpha 90.000000
_cell_angle_beta 47.367307
_cell_angle_gamma 90.000000
_cell_volume 1775.755199
_symmetry_space_group_name_H-M "P 21/M"
_symmetry_group_IT_number 11
_symmetry_cell_setting 'monoclinic'
loop_
_space_group_symop_operation_xyz
x,y,z
-x,1/2+y,-z
-x,-y,-z
x,1/2-y,z
loop_
_atom_site_type_symbol
_atom_site_label
_atom_site_fract_x
_atom_site_fract_y
_atom_site_fract_z
Si Si1 0.425364 0.927138 0.153432
Si Si2 0.701791 0.172412 0.377863
Si Si3 0.922781 0.436609 0.157444
Si Si4 0.728254 0.829579 0.352055
Si Si5 0.262331 0.436609 0.157444
Si Si6 0.767773 0.572862 0.153432
Si Si7 0.957516 0.827588 0.622137
Si Si8 0.932365 0.329579 0.647945
O O1 0.563858 0.925451 0.186142
O O2 0.270560 0.866187 0.229827
O O3 0.312114 0.999100 0.203306
O O4 0.549146 0.915922 0.995770
O O5 0.699504 0.250000 0.340690
O O6 0.786107 0.127051 0.249732
O O7 0.481720 0.146645 0.505835
O O8 0.835216 0.164705 0.414784
O O9 0.781274 0.500900 0.203306
O O10 0.075476 0.456474 0.174524
O O11 0.040686 0.415922 0.004230
O O12 0.724285 0.750000 0.330737
O O13 0.769786 0.866187 0.229827
O O14 0.898486 0.849709 0.351514
O O15 0.214429 0.372949 0.249732
O O16 0.880885 0.750000 0.659310
O O17 0.993389 0.853355 0.494165
O O18 0.885758 0.250000 0.669263
#
# Coordination Sequence:
#
# PCOD8073481 Si02
#       8
#     4   4   4   4   4   4   4   4
#     4  10  20  34  54  78 104 136 172 210 253 303
#     4   9  18  34  55  77 101 131 169 212 256 302
#     4   9  19  35  54  77 105 135 169 211 256 302
#     4  10  21  36  53  75 104 136 170 210 255 303
#     4   9  19  35  54  77 105 135 169 211 256 302
#     4  10  20  34  54  78 104 136 172 210 253 303
#     4   9  18  34  55  77 101 131 169 212 256 302
#     4  10  21  36  53  75 104 136 170 210 255 303
#
# _framework density 18.020500999999999
#
# number of rings (size 3 to 8) (size 9 to 14) (size 15 to 20)
#    0.000    2.500    0.000    1.500    0.000    5.500 
#    0.000    2.500    0.000    3.000    0.000    0.000 
#    0.000    0.000    0.000    0.000    0.000    0.000 
#
# Total GULP energy -396930.368846 kJ/mol
# GULP energy per Si atom -12404.074026 kJ/mol
# Density = 1.797949 g / cm^3
# Si number density = 18.020501 Si / 1000 Ang^3
#
#
#
# Elastic Constant Matrix: (Units=GPa)
#
#
# Indices 1 2 3 4 5 6 
#
# 1 95.5641 55.3521 58.5236 0.0000 -1.3668 0.0000
# 2 55.3521 83.8367 65.7404 0.0000 -0.7078 0.0000
# 3 58.5236 65.7404 100.9315 0.0000 1.0011 0.0000
# 4 0.0000 0.0000 0.0000 34.1314 0.0000 -0.2267
# 5 -1.3668 -0.7078 1.0011 0.0000 28.3887 0.0000
# 6 0.0000 0.0000 0.0000 -0.2267 0.0000 30.8042
#
#
#
# Elastic Compliance Matrix: (Units=1/GPa)
#
#
# Indices 1 2 3 4 5 6 
#
# 1 0.018409 -0.007705 -0.005664 0.000000 0.000894 0.000000
# 2 -0.007705 0.027643 -0.013545 0.000000 0.000796 0.000000
# 3 -0.005664 -0.013545 0.022029 0.000000 -0.001387 0.000000
# 4 0.000000 0.000000 0.000000 0.029300 0.000000 0.000216
# 5 0.000894 0.000796 -0.001387 0.000000 0.035337 0.000000
# 6 0.000000 0.000000 0.000000 0.000216 0.000000 0.032465
#
#
# Mechanical properties :
#
#
# Convention : Reuss Voigt Hill
#
# Bulk Modulus (GPa) = 70.16991 71.06271 70.61631
# Shear Modulus (GPa) = 22.34518 25.37926 23.86222
#
# Velocity S-wave (km/s) = 3.52516 3.75688 3.64286
# Velocity P-wave (km/s) = 7.45604 7.63798 7.54756
#
# Compressibility (1/GPa) = 0.01425112
#
# Stress axis : x y z
#
# Youngs Moduli (GPa) = 54.32259 36.17521 45.39555
#
# Poissons Ratio (x) = 0.27872 0.25714
# Poissons Ratio (y) = 0.41854 0.61491
# Poissons Ratio (z) = 0.30771 0.49001
#
# Static dielectric constant tensor:
#      x y z
#    x 3.416730 0.000000 0.005160 
#    y 0.000000 3.323900 0.000000 
#    z 0.005160 0.000000 3.340950 
# 
# 
# High freq. dielectric constant tensor:
#      x y z
#    x 1.704290 0.000000 0.000390 
#    y 0.000000 1.697210 0.000000 
#    z 0.000390 0.000000 1.698570 
# 
# From -- ./inp_files/32797.got.cif
#   From: 2010.06.25/outbox.cif.g09.slc.cpg/sg11_17_cif.got.tgz:32797.got - 2010.06.27 23:14:04.
