data_PCOD8073245
_publ_section_title
;
Structure prediction by ZEFSAII (Michael W. Deem and Ramdas Pophale) SiO2 
 PCOD8073245
Probable space group: P 21/M
;
_chemical_formula_sum "Si O2"
_cell_formula_units_Z 32
_cell_length_a 27.102296
_cell_length_b 13.646416
_cell_length_c 10.448971
_cell_angle_alpha 90.000000
_cell_angle_beta 25.286799
_cell_angle_gamma 90.000000
_cell_volume 1650.738073
_symmetry_space_group_name_H-M "P 21/M"
_symmetry_group_IT_number 11
_symmetry_cell_setting 'monoclinic'
loop_
_space_group_symop_operation_xyz
x,y,z
-x,1/2+y,-z
-x,-y,-z
x,1/2-y,z
loop_
_atom_site_type_symbol
_atom_site_label
_atom_site_fract_x
_atom_site_fract_y
_atom_site_fract_z
Si Si1 0.312837 0.636453 0.916546
Si Si2 0.695387 0.638837 0.679717
Si Si3 0.692327 0.039939 0.531037
Si Si4 0.722264 0.136558 0.725632
Si Si5 0.450593 0.863033 0.353953
Si Si6 0.940327 0.135987 0.561841
Si Si7 0.941390 0.456327 0.825052
Si Si8 0.102017 0.024818 0.667726
O O1 0.302931 0.750000 0.909869
O O2 0.403800 0.593819 0.599173
O O3 0.356710 0.619473 0.960593
O O4 0.183696 0.594889 0.196051
O O5 0.709500 0.750000 0.601170
O O6 0.673688 0.575340 0.602344
O O7 0.810060 0.604443 0.482865
O O8 0.588719 0.625941 0.028420
O O9 0.665929 0.095241 0.727988
O O10 0.602161 0.074188 0.637623
O O11 0.823052 0.057108 0.180352
O O12 0.751974 0.250000 0.637084
O O13 0.838952 0.080567 0.489155
O O14 0.414442 0.750000 0.417399
O O15 0.962676 0.250000 0.474892
O O16 0.041929 0.068875 0.262557
O O17 0.942513 0.122417 0.709426
O O18 0.049805 0.430197 0.660838
O O19 0.000000 0.000000 0.000000
#
# Coordination Sequence:
#
# PCOD8073245 Si02
#       8
#     4   4   4   4   4   4   4   4
#     4   9  17  32  56  81 110 147 188 232 285 342
#     4  10  23  39  57  83 117 157 194 234 290 350
#     4  11  21  37  58  89 118 148 191 244 294 336
#     4  10  20  33  55  86 115 146 187 240 294 339
#     4  10  20  38  62  85 112 154 202 240 282 344
#     4  10  21  35  55  84 114 152 194 238 288 343
#     4  11  21  35  56  84 119 148 190 241 288 352
#     4  11  21  38  53  82 117 148 186 233 291 350
#
# _framework density 19.385269000000001
#
# number of rings (size 3 to 8) (size 9 to 14) (size 15 to 20)
#    0.000    1.750    5.000    0.750    0.000    2.000 
#    0.000    2.500    0.000    0.000    0.000    4.375 
#    0.000    0.000    0.000    0.000    0.000    0.000 
#
# Total GULP energy -396573.994418 kJ/mol
# GULP energy per Si atom -12392.937326 kJ/mol
# Density = 1.934115 g / cm^3
# Si number density = 19.385269 Si / 1000 Ang^3
#
#
#
# Elastic Constant Matrix: (Units=GPa)
#
#
# Indices 1 2 3 4 5 6 
#
# 1 98.6065 33.8059 54.6317 0.0000 21.9481 0.0000
# 2 33.8059 85.9639 26.6828 0.0000 -0.3810 0.0000
# 3 54.6317 26.6828 85.8891 0.0000 5.1688 0.0000
# 4 0.0000 0.0000 0.0000 23.5960 0.0000 2.7523
# 5 21.9481 -0.3810 5.1688 0.0000 29.3081 0.0000
# 6 0.0000 0.0000 0.0000 2.7523 0.0000 23.3385
#
#
#
# Elastic Compliance Matrix: (Units=1/GPa)
#
#
# Indices 1 2 3 4 5 6 
#
# 1 0.021001 -0.004906 -0.011000 0.000000 -0.013851 0.000000
# 2 -0.004906 0.014043 -0.001490 0.000000 0.004119 0.000000
# 3 -0.011000 -0.001490 0.018808 0.000000 0.004902 0.000000
# 4 0.000000 0.000000 0.000000 0.042971 0.000000 -0.005068
# 5 -0.013851 0.004119 0.004902 0.000000 0.043682 0.000000
# 6 0.000000 0.000000 0.000000 -0.005068 0.000000 0.043445
#
#
# Mechanical properties :
#
#
# Convention : Reuss Voigt Hill
#
# Bulk Modulus (GPa) = 52.46860 55.63337 54.05098
# Shear Modulus (GPa) = 22.21282 25.60445 23.90863
#
# Velocity S-wave (km/s) = 3.38873 3.63825 3.51570
# Velocity P-wave (km/s) = 6.51431 6.81251 6.66508
#
# Compressibility (1/GPa) = 0.01905902
#
# Stress axis : x y z
#
# Youngs Moduli (GPa) = 47.61745 71.21119 53.16890
#
# Poissons Ratio (x) = 0.34933 0.58488
# Poissons Ratio (y) = 0.23359 0.07923
# Poissons Ratio (z) = 0.52381 0.10612
#
# Static dielectric constant tensor:
#      x y z
#    x 3.719750 0.000000 0.198500 
#    y 0.000000 3.674180 0.000000 
#    z 0.198500 0.000000 3.755170 
# 
# 
# High freq. dielectric constant tensor:
#      x y z
#    x 1.754030 0.000000 0.016360 
#    y 0.000000 1.741550 0.000000 
#    z 0.016360 0.000000 1.753970 
# 
# From -- ./inp_files/27785.got.cif
#   From: 2010.06.25/outbox.cif.g09.slc.cpg/sg11_14_cif.got.tgz:27785.got - 2010.06.27 23:14:04.
