data_PCOD8073762
_publ_section_title
;
Structure prediction by ZEFSAII (Michael W. Deem and Ramdas Pophale) SiO2 
 PCOD8073762
Probable space group: P 21/M
;
_chemical_formula_sum "Si O2"
_cell_formula_units_Z 32
_cell_length_a 27.956863
_cell_length_b 8.901062
_cell_length_c 21.576861
_cell_angle_alpha 90.000000
_cell_angle_beta 17.929799
_cell_angle_gamma 90.000000
_cell_volume 1652.950280
_symmetry_space_group_name_H-M "P 21/M"
_symmetry_group_IT_number 11
_symmetry_cell_setting 'monoclinic'
loop_
_space_group_symop_operation_xyz
x,y,z
-x,1/2+y,-z
-x,-y,-z
x,1/2-y,z
loop_
_atom_site_type_symbol
_atom_site_label
_atom_site_fract_x
_atom_site_fract_y
_atom_site_fract_z
Si Si1 0.408529 0.425743 0.023046
Si Si2 0.285274 0.074360 0.306211
Si Si3 0.246718 0.423353 0.544218
Si Si4 0.705675 0.576314 0.081521
Si Si5 0.943574 0.423771 0.325879
Si Si6 0.601538 0.426143 0.087891
Si Si7 0.452408 0.928554 0.494221
Si Si8 0.164664 0.074010 0.786378
O O1 0.431286 0.250000 0.985753
O O2 0.296626 0.462143 0.219176
O O3 0.576808 0.497470 0.825849
O O4 0.330782 0.496578 0.057678
O O5 0.297928 0.250000 0.303731
O O6 0.123511 0.012205 0.531896
O O7 0.220167 0.250000 0.559786
O O8 0.130779 0.521718 0.646438
O O9 0.422277 0.473214 0.314983
O O10 0.213996 0.456850 0.655633
O O11 0.680437 0.750000 0.096088
O O12 0.695940 0.482570 0.030610
O O13 0.577183 0.520635 0.288764
O O14 0.873298 0.546351 0.904892
O O15 0.905403 0.250000 0.382525
O O16 0.625241 0.250000 0.053162
O O17 0.444581 0.750000 0.510256
O O18 0.500000 0.000000 0.500000
O O19 0.284945 0.993086 0.683389
O O20 0.159489 0.250000 0.808584
O O21 0.000000 0.000000 0.000000
#
# Coordination Sequence:
#
# PCOD8073762 Si02
#       8
#     4   4   4   4   4   4   4   4
#     4  10  20  34  57  86 118 156 195 243 299 352
#     4  10  20  35  55  85 121 155 196 245 296 352
#     4  10  22  39  60  88 121 154 196 250 298 349
#     4  10  24  43  61  86 121 159 201 245 294 355
#     4  11  23  38  60  89 120 159 201 246 298 351
#     4  11  21  37  62  90 117 154 200 246 297 352
#     4  11  24  43  65  90 121 162 203 247 302 360
#     4  11  24  43  64  92 125 158 200 250 301 357
#
# _framework density 19.359324000000001
#
# number of rings (size 3 to 8) (size 9 to 14) (size 15 to 20)
#    0.000    1.500    2.500    2.250    1.750    4.500 
#    0.000    0.625    0.000    0.000    0.000    0.000 
#    0.000    0.000    0.000    0.000    0.000    0.000 
#
# Total GULP energy -396969.084275 kJ/mol
# GULP energy per Si atom -12405.283884 kJ/mol
# Density = 1.931526 g / cm^3
# Si number density = 19.359324 Si / 1000 Ang^3
#
#
#
# Elastic Constant Matrix: (Units=GPa)
#
#
# Indices 1 2 3 4 5 6 
#
# 1 123.7106 48.6872 38.0055 0.0000 -1.3280 0.0000
# 2 48.6872 84.8512 33.4837 0.0000 -3.1275 0.0000
# 3 38.0055 33.4837 76.7505 0.0000 -6.2333 0.0000
# 4 0.0000 0.0000 0.0000 30.6586 0.0000 -0.0411
# 5 -1.3280 -3.1275 -6.2333 0.0000 30.4096 0.0000
# 6 0.0000 0.0000 0.0000 -0.0411 0.0000 39.7998
#
#
#
# Elastic Compliance Matrix: (Units=1/GPa)
#
#
# Indices 1 2 3 4 5 6 
#
# 1 0.011100 -0.005078 -0.003340 0.000000 -0.000722 0.000000
# 2 -0.005078 0.016560 -0.004668 0.000000 0.000525 0.000000
# 3 -0.003340 -0.004668 0.016951 0.000000 0.002849 0.000000
# 4 0.000000 0.000000 0.000000 0.032617 0.000000 0.000034
# 5 -0.000722 0.000525 0.002849 0.000000 0.033491 0.000000
# 6 0.000000 0.000000 0.000000 0.000034 0.000000 0.025126
#
#
# Mechanical properties :
#
#
# Convention : Reuss Voigt Hill
#
# Bulk Modulus (GPa) = 54.22885 58.40723 56.31804
# Shear Modulus (GPa) = 29.73318 31.18269 30.45793
#
# Velocity S-wave (km/s) = 3.92325 4.01775 3.97078
# Velocity P-wave (km/s) = 6.97102 7.19435 7.08356
#
# Compressibility (1/GPa) = 0.01844037
#
# Stress axis : x y z
#
# Youngs Moduli (GPa) = 90.08924 60.38567 58.99430
#
# Poissons Ratio (x) = 0.30663 0.19704
# Poissons Ratio (y) = 0.45746 0.27536
# Poissons Ratio (z) = 0.30089 0.28186
#
# Static dielectric constant tensor:
#      x y z
#    x 3.658450 0.000000 0.246490 
#    y 0.000000 3.650760 0.000000 
#    z 0.246490 0.000000 3.584360 
# 
# 
# High freq. dielectric constant tensor:
#      x y z
#    x 1.762370 0.000000 0.011950 
#    y 0.000000 1.764970 0.000000 
#    z 0.011950 0.000000 1.747150 
# 
# From -- ./inp_files/67091.got.cif
#   From: 2010.06.25/outbox.cif.g09.slc.cpg/sg11_34_cif.got.tgz:67091.got - 2010.06.27 23:14:04.
