data_PCOD8073484
_publ_section_title
;
Structure prediction by ZEFSAII (Michael W. Deem and Ramdas Pophale) SiO2 
 PCOD8073484
Probable space group: P 21/M
;
_chemical_formula_sum "Si O2"
_cell_formula_units_Z 28
_cell_length_a 9.403643
_cell_length_b 8.976842
_cell_length_c 25.956946
_cell_angle_alpha 90.000000
_cell_angle_beta 39.954709
_cell_angle_gamma 90.000000
_cell_volume 1407.120686
_symmetry_space_group_name_H-M "P 21/M"
_symmetry_group_IT_number 11
_symmetry_cell_setting 'monoclinic'
loop_
_space_group_symop_operation_xyz
x,y,z
-x,1/2+y,-z
-x,-y,-z
x,1/2-y,z
loop_
_atom_site_type_symbol
_atom_site_label
_atom_site_fract_x
_atom_site_fract_y
_atom_site_fract_z
Si Si1 0.574246 0.578273 0.427132
Si Si2 0.779262 0.074898 0.081200
Si Si3 0.781486 0.418323 0.673332
Si Si4 0.103271 0.581012 0.519539
Si Si5 0.081592 0.574098 0.741602
Si Si6 0.341956 0.578992 0.174632
Si Si7 0.352276 0.577764 0.767253
O O1 0.500000 0.500000 0.500000
O O2 0.639954 0.750000 0.420011
O O3 0.368033 0.568388 0.445163
O O4 0.780196 0.496193 0.343696
O O5 0.783822 0.250000 0.069023
O O6 0.762042 0.038866 0.146640
O O7 0.576488 0.004023 0.105516
O O8 0.000000 0.000000 0.000000
O O9 0.808043 0.250000 0.647179
O O10 0.745905 0.432359 0.743338
O O11 0.577058 0.485683 0.698105
O O12 0.007156 0.505506 0.598004
O O13 0.023372 0.750000 0.540968
O O14 0.000000 0.500000 0.500000
O O15 0.066327 0.750000 0.736754
O O16 0.187815 0.533373 0.767046
O O17 0.836168 0.504048 0.811774
O O18 0.369866 0.750000 0.149158
O O19 0.417788 0.750000 0.746570
#
# Coordination Sequence:
#
# PCOD8073484 Si02
#       7
#     4   4   4   4   4   4   4
#     4  11  24  39  55  78 108 147 191 236 284 333
#     4  10  20  38  63  90 118 147 182 224 270 326
#     4  10  20  34  54  78 105 139 183 229 275 328
#     4  11  23  36  52  75 104 139 183 232 282 330
#     4  11  22  37  57  82 112 147 186 230 279 332
#     4  10  21  37  58  84 112 145 182 222 269 325
#     4   9  20  37  58  83 113 148 184 225 276 330
#
# _framework density 19.898790999999999
#
# number of rings (size 3 to 8) (size 9 to 14) (size 15 to 20)
#    0.000    1.714    0.000    4.286    0.000   10.286 
#    0.000    0.714    0.000    0.000    0.000    0.000 
#    0.000    0.000    0.000    0.000    0.000    0.000 
#
# Total GULP energy -347310.754202 kJ/mol
# GULP energy per Si atom -12403.955507 kJ/mol
# Density = 1.985350 g / cm^3
# Si number density = 19.898791 Si / 1000 Ang^3
#
#
#
# Elastic Constant Matrix: (Units=GPa)
#
#
# Indices 1 2 3 4 5 6 
#
# 1 93.4083 41.7161 20.1095 0.0000 -18.6607 0.0000
# 2 41.7161 126.3699 38.3744 0.0000 -15.9980 0.0000
# 3 20.1095 38.3744 82.9313 0.0000 -22.9937 0.0000
# 4 0.0000 0.0000 0.0000 37.2555 0.0000 -6.4982
# 5 -18.6607 -15.9980 -22.9937 0.0000 29.9412 0.0000
# 6 0.0000 0.0000 0.0000 -6.4982 0.0000 32.8121
#
#
#
# Elastic Compliance Matrix: (Units=1/GPa)
#
#
# Indices 1 2 3 4 5 6 
#
# 1 0.013661 -0.003744 0.000287 0.000000 0.006734 0.000000
# 2 -0.003744 0.010338 -0.003800 0.000000 0.000271 0.000000
# 3 0.000287 -0.003800 0.016814 0.000000 0.011061 0.000000
# 4 0.000000 0.000000 0.000000 0.027802 0.000000 0.005506
# 5 0.006734 0.000271 0.011061 0.000000 0.046235 0.000000
# 6 0.000000 0.000000 0.000000 0.005506 0.000000 0.031567
#
#
# Mechanical properties :
#
#
# Convention : Reuss Voigt Hill
#
# Bulk Modulus (GPa) = 38.02625 55.90104 46.96365
# Shear Modulus (GPa) = 29.46408 33.50240 31.48324
#
# Velocity S-wave (km/s) = 3.85216 4.10767 3.98196
# Velocity P-wave (km/s) = 6.23994 7.11695 6.69282
#
# Compressibility (1/GPa) = 0.02629762
#
# Stress axis : x y z
#
# Youngs Moduli (GPa) = 73.19858 96.73282 59.47516
#
# Poissons Ratio (x) = 0.36221 -0.01707
# Poissons Ratio (y) = 0.27409 0.22602
# Poissons Ratio (z) = -0.02101 0.36761
#
# Static dielectric constant tensor:
#      x y z
#    x 3.682730 0.000000 -0.084490 
#    y 0.000000 3.834130 0.000000 
#    z -0.084490 0.000000 3.307440 
# 
# 
# High freq. dielectric constant tensor:
#      x y z
#    x 1.781070 0.000000 -0.013170 
#    y 0.000000 1.791410 0.000000 
#    z -0.013170 0.000000 1.763150 
# 
# From -- ./inp_files/28291.got.cif
#   From: 2010.06.25/outbox.cif.g09.slc.cpg/sg11_15_cif.got.tgz:28291.got - 2010.06.27 23:14:04.
