data_PCOD8073303
_publ_section_title
;
Structure prediction by ZEFSAII (Michael W. Deem and Ramdas Pophale) SiO2 
 PCOD8073303
Probable space group: P 21/M
;
_chemical_formula_sum "Si O2"
_cell_formula_units_Z 28
_cell_length_a 9.601588
_cell_length_b 9.011121
_cell_length_c 19.068442
_cell_angle_alpha 90.000000
_cell_angle_beta 73.529196
_cell_angle_gamma 90.000000
_cell_volume 1582.120485
_symmetry_space_group_name_H-M "P 21/M"
_symmetry_group_IT_number 11
_symmetry_cell_setting 'monoclinic'
loop_
_space_group_symop_operation_xyz
x,y,z
-x,1/2+y,-z
-x,-y,-z
x,1/2-y,z
loop_
_atom_site_type_symbol
_atom_site_label
_atom_site_fract_x
_atom_site_fract_y
_atom_site_fract_z
Si Si1 0.307821 0.584443 0.205901
Si Si2 0.098027 0.916384 0.642613
Si Si3 0.970368 0.586460 0.218330
Si Si4 0.758787 0.584378 0.655420
Si Si5 0.928723 0.072870 0.943097
Si Si6 0.146025 0.423625 0.503351
Si Si7 0.631097 0.927682 0.939951
O O1 0.373974 0.750000 0.190510
O O2 0.137978 0.587470 0.215461
O O3 0.333011 0.525075 0.281627
O O4 0.384565 0.476161 0.139146
O O5 0.157066 0.750000 0.633410
O O6 0.929475 0.926806 0.647337
O O7 0.193034 0.007779 0.571679
O O8 0.121508 0.978866 0.717983
O O9 0.903836 0.750000 0.237386
O O10 0.963390 0.538028 0.137779
O O11 0.703993 0.750000 0.679460
O O12 0.735716 0.547083 0.575744
O O13 0.905520 0.250000 0.954719
O O14 0.775941 0.993521 0.953171
O O15 0.000000 0.000000 0.000000
O O16 0.116805 0.250000 0.516957
O O17 0.000000 0.500000 0.500000
O O18 0.629884 0.750000 0.945753
O O19 0.500000 0.000000 0.000000
#
# Coordination Sequence:
#
# PCOD8073303 Si02
#       7
#     4   4   4   4   4   4   4
#     4   9  16  26  40  58  79 106 141 180 221 267
#     4   9  15  21  31  47  68  96 133 172 211 254
#     4   8  15  26  39  55  78 107 140 176 215 262
#     4   8  14  22  31  46  68  98 134 171 211 257
#     4  10  20  34  51  72  95 122 156 193 235 281
#     4   9  15  21  29  42  64  94 130 169 209 252
#     4  11  21  34  51  70  94 123 156 195 235 279
#
# _framework density 17.697768
#
# number of rings (size 3 to 8) (size 9 to 14) (size 15 to 20)
#    0.000    2.857    0.000    4.714    0.000    8.000 
#    0.000    0.000    0.000    0.000    0.000    0.000 
#    0.000    0.000    0.000    1.286    0.000   18.286 
#
# Total GULP energy -346930.902119 kJ/mol
# GULP energy per Si atom -12390.389361 kJ/mol
# Density = 1.765749 g / cm^3
# Si number density = 17.697768 Si / 1000 Ang^3
#
#
#
# Elastic Constant Matrix: (Units=GPa)
#
#
# Indices 1 2 3 4 5 6 
#
# 1 17.4087 25.4755 31.1511 0.0000 3.7762 0.0000
# 2 25.4755 157.9571 97.6136 0.0000 10.0347 0.0000
# 3 31.1511 97.6136 176.3236 0.0000 22.2661 0.0000
# 4 0.0000 0.0000 0.0000 39.1237 0.0000 3.0863
# 5 3.7762 10.0347 22.2661 0.0000 14.9810 0.0000
# 6 0.0000 0.0000 0.0000 3.0863 0.0000 12.9895
#
#
#
# Elastic Compliance Matrix: (Units=1/GPa)
#
#
# Indices 1 2 3 4 5 6 
#
# 1 0.088863 -0.007042 -0.011779 0.000000 -0.000176 0.000000
# 2 -0.007042 0.010221 -0.004646 0.000000 0.001834 0.000000
# 3 -0.011779 -0.004646 0.011765 0.000000 -0.011404 0.000000
# 4 0.000000 0.000000 0.000000 0.026048 0.000000 -0.006189
# 5 -0.000176 0.001834 -0.011404 0.000000 0.082518 0.000000
# 6 0.000000 0.000000 0.000000 -0.006189 0.000000 0.078456
#
#
# Mechanical properties :
#
#
# Convention : Reuss Voigt Hill
#
# Bulk Modulus (GPa) = 15.64571 73.35219 44.49895
# Shear Modulus (GPa) = 13.65716 26.58210 20.11963
#
# Velocity S-wave (km/s) = 2.78094 3.87977 3.37537
# Velocity P-wave (km/s) = 4.37849 7.84903 6.35525
#
# Compressibility (1/GPa) = 0.06391529
#
# Stress axis : x y z
#
# Youngs Moduli (GPa) = 11.25332 97.83668 85.00093
#
# Poissons Ratio (x) = 0.68893 1.00122
# Poissons Ratio (y) = 0.07924 0.39491
# Poissons Ratio (z) = 0.13255 0.45455
#
# Static dielectric constant tensor:
#      x y z
#    x 2.470180 0.000000 0.247300 
#    y 0.000000 3.527500 0.000000 
#    z 0.247300 0.000000 1.578890 
# 
# 
# High freq. dielectric constant tensor:
#      x y z
#    x 1.584570 0.000000 0.017620 
#    y 0.000000 1.700530 0.000000 
#    z 0.017620 0.000000 1.711430 
# 
# From -- ./inp_files/64070.got.cif
#   From: 2010.06.25/outbox.cif.g09.slc.cpg/sg11_33_cif.got.tgz:64070.got - 2010.06.27 23:14:04.
