data_PCOD8073018
_publ_section_title
;
Structure prediction by ZEFSAII (Michael W. Deem and Ramdas Pophale) SiO2 
 PCOD8073018
Probable space group: P 21/M
;
_chemical_formula_sum "Si O2"
_cell_formula_units_Z 28
_cell_length_a 20.383559
_cell_length_b 8.692625
_cell_length_c 15.943363
_cell_angle_alpha 90.000000
_cell_angle_beta 31.999115
_cell_angle_gamma 90.000000
_cell_volume 1496.958863
_symmetry_space_group_name_H-M "P 21/M"
_symmetry_group_IT_number 11
_symmetry_cell_setting 'monoclinic'
loop_
_space_group_symop_operation_xyz
x,y,z
-x,1/2+y,-z
-x,-y,-z
x,1/2-y,z
loop_
_atom_site_type_symbol
_atom_site_label
_atom_site_fract_x
_atom_site_fract_y
_atom_site_fract_z
Si Si1 0.082543 0.572579 0.662760
Si Si2 0.897212 0.065847 0.547907
Si Si3 0.304838 0.925564 0.735567
Si Si4 0.052310 0.428834 0.028419
Si Si5 0.670403 0.921869 0.596621
Si Si6 0.628193 0.926800 0.831191
Si Si7 0.548839 0.575893 0.562252
O O1 0.049977 0.750000 0.693701
O O2 0.063558 0.505780 0.588478
O O3 0.223958 0.546101 0.535436
O O4 0.002016 0.497628 0.825797
O O5 0.896167 0.250000 0.554019
O O6 0.756961 0.008035 0.721732
O O7 0.000000 0.000000 0.500000
O O8 0.257458 0.750000 0.788461
O O9 0.407383 0.959804 0.694468
O O10 0.197322 0.042701 0.874464
O O11 0.359234 0.960560 0.584867
O O12 0.020224 0.250000 0.060326
O O13 0.000000 0.500000 0.000000
O O14 0.727441 0.750000 0.525671
O O15 0.611150 0.944253 0.750800
O O16 0.561962 0.949223 0.647120
O O17 0.635936 0.750000 0.852250
O O18 0.500000 0.000000 0.000000
O O19 0.582303 0.750000 0.498398
#
# Coordination Sequence:
#
# PCOD8073018 Si02
#       7
#     4   4   4   4   4   4   4
#     4   9  20  36  54  77 108 140 177 220 264 321
#     4  10  20  38  61  84 112 148 188 231 285 341
#     4  10  20  33  50  74 105 138 175 216 260 309
#     4  11  22  36  53  76 107 141 178 219 264 313
#     4   9  18  33  55  78 102 134 175 217 260 313
#     4  10  20  36  57  83 114 144 183 230 279 333
#     4   9  18  34  53  73 101 137 176 216 260 310
#
# _framework density 18.704588999999999
#
# number of rings (size 3 to 8) (size 9 to 14) (size 15 to 20)
#    0.000    2.286    0.000    2.571    0.000    5.714 
#    2.571    0.000    0.000    0.000    0.000    0.000 
#    0.000    0.000    0.000    0.000    0.000    0.000 
#
# Total GULP energy -346998.505082 kJ/mol
# GULP energy per Si atom -12392.803753 kJ/mol
# Density = 1.866202 g / cm^3
# Si number density = 18.704589 Si / 1000 Ang^3
#
#
#
# Elastic Constant Matrix: (Units=GPa)
#
#
# Indices 1 2 3 4 5 6 
#
# 1 142.6201 36.7698 78.0208 0.0000 2.9336 0.0000
# 2 36.7698 58.1927 36.8219 0.0000 -1.5224 0.0000
# 3 78.0208 36.8219 106.2923 0.0000 -9.8219 0.0000
# 4 0.0000 0.0000 0.0000 28.5880 0.0000 -3.6498
# 5 2.9336 -1.5224 -9.8219 0.0000 20.4863 0.0000
# 6 0.0000 0.0000 0.0000 -3.6498 0.0000 27.5528
#
#
#
# Elastic Compliance Matrix: (Units=1/GPa)
#
#
# Indices 1 2 3 4 5 6 
#
# 1 0.012755 -0.002471 -0.009095 0.000000 -0.006371 0.000000
# 2 -0.002471 0.022575 -0.006089 0.000000 -0.000888 0.000000
# 3 -0.009095 -0.006089 0.019119 0.000000 0.010016 0.000000
# 4 0.000000 0.000000 0.000000 0.035581 0.000000 0.004713
# 5 -0.006371 -0.000888 0.010016 0.000000 0.054462 0.000000
# 6 0.000000 0.000000 0.000000 0.004713 0.000000 0.036918
#
#
# Mechanical properties :
#
#
# Convention : Reuss Voigt Hill
#
# Bulk Modulus (GPa) = 52.24879 67.81445 60.03162
# Shear Modulus (GPa) = 22.41138 25.69162 24.05150
#
# Velocity S-wave (km/s) = 3.46522 3.71016 3.58978
# Velocity P-wave (km/s) = 6.63360 7.39513 7.02469
#
# Compressibility (1/GPa) = 0.01913920
#
# Stress axis : x y z
#
# Youngs Moduli (GPa) = 78.39787 44.29657 52.30404
#
# Poissons Ratio (x) = 0.10947 0.47573
# Poissons Ratio (y) = 0.19374 0.31846
# Poissons Ratio (z) = 0.71306 0.26970
#
# Static dielectric constant tensor:
#      x y z
#    x 3.603350 0.000000 0.116930 
#    y 0.000000 3.507890 0.000000 
#    z 0.116930 0.000000 3.492180 
# 
# 
# High freq. dielectric constant tensor:
#      x y z
#    x 1.732140 0.000000 0.003150 
#    y 0.000000 1.726370 0.000000 
#    z 0.003150 0.000000 1.717340 
# 
# From -- ./inp_files/54517.got.cif
#   From: 2010.06.25/outbox.cif.g09.slc.cpg/sg11_28_cif.got.tgz:54517.got - 2010.06.27 23:14:04.
