data_PCOD8073139
_publ_section_title
;
Structure prediction by ZEFSAII (Michael W. Deem and Ramdas Pophale) SiO2 
 PCOD8073139
Probable space group: P 21/M
;
_chemical_formula_sum "Si O2"
_cell_formula_units_Z 32
_cell_length_a 24.166518
_cell_length_b 9.324628
_cell_length_c 16.280436
_cell_angle_alpha 90.000000
_cell_angle_beta 27.244911
_cell_angle_gamma 90.000000
_cell_volume 1679.510120
_symmetry_space_group_name_H-M "P 21/M"
_symmetry_group_IT_number 11
_symmetry_cell_setting 'monoclinic'
loop_
_space_group_symop_operation_xyz
x,y,z
-x,1/2+y,-z
-x,-y,-z
x,1/2-y,z
loop_
_atom_site_type_symbol
_atom_site_label
_atom_site_fract_x
_atom_site_fract_y
_atom_site_fract_z
Si Si1 0.622811 0.583075 0.321130
Si Si2 0.676098 0.087213 0.823614
Si Si3 0.261182 0.915634 0.440014
Si Si4 0.478685 0.086423 0.856995
Si Si5 0.922608 0.583543 0.214766
Si Si6 0.151578 0.085200 0.869157
Si Si7 0.712198 0.918559 0.024804
Si Si8 0.882335 0.416440 0.684365
O O1 0.500000 0.500000 0.500000
O O2 0.589938 0.750000 0.360203
O O3 0.715457 0.548364 0.272624
O O4 0.685603 0.534547 0.153165
O O5 0.632433 0.250000 0.874922
O O6 0.710117 0.029678 0.689165
O O7 0.790613 0.069135 0.730733
O O8 0.563727 0.000087 0.007403
O O9 0.219989 0.750000 0.494918
O O10 0.378347 0.938820 0.343585
O O11 0.152435 0.012512 0.613889
O O12 0.450608 0.250000 0.915206
O O13 0.408409 0.040446 0.867336
O O14 0.937806 0.750000 0.213001
O O15 0.852001 0.553957 0.223041
O O16 0.054927 0.514662 0.041583
O O17 0.117759 0.250000 0.932768
O O18 0.743377 0.750000 0.977223
O O19 0.825845 0.008562 0.840133
O O20 0.911550 0.250000 0.665726
O O21 0.000000 0.500000 0.500000
#
# Coordination Sequence:
#
# PCOD8073139 Si02
#       8
#     4   4   4   4   4   4   4   4
#     4  10  22  38  59  85 114 147 184 228 278 331
#     4   9  19  34  50  73 104 138 174 212 261 314
#     4  10  20  33  52  78 107 139 174 214 265 322
#     4   9  18  32  52  76 105 139 174 212 259 314
#     4  10  21  36  56  81 105 139 184 226 270 320
#     4   9  20  40  58  76 108 144 178 222 275 324
#     4   9  19  36  54  78 109 141 178 220 269 323
#     4  10  20  35  55  77 104 141 180 220 267 321
#
# _framework density 19.053173999999999
#
# number of rings (size 3 to 8) (size 9 to 14) (size 15 to 20)
#    0.000    2.500    0.000    1.125    1.750    4.000 
#    0.000    5.000    0.000    0.000    0.000    0.000 
#    0.000    0.000    0.000    0.000    0.000    0.000 
#
# Total GULP energy -396844.389437 kJ/mol
# GULP energy per Si atom -12401.387170 kJ/mol
# Density = 1.900981 g / cm^3
# Si number density = 19.053174 Si / 1000 Ang^3
#
#
#
# Elastic Constant Matrix: (Units=GPa)
#
#
# Indices 1 2 3 4 5 6 
#
# 1 62.5974 26.2141 30.7674 0.0000 0.7914 0.0000
# 2 26.2141 81.0226 59.5652 0.0000 -2.1896 0.0000
# 3 30.7674 59.5652 108.5955 0.0000 -0.9238 0.0000
# 4 0.0000 0.0000 0.0000 40.5076 0.0000 0.1836
# 5 0.7914 -2.1896 -0.9238 0.0000 23.2000 0.0000
# 6 0.0000 0.0000 0.0000 0.1836 0.0000 24.5785
#
#
#
# Elastic Compliance Matrix: (Units=1/GPa)
#
#
# Indices 1 2 3 4 5 6 
#
# 1 0.019233 -0.003754 -0.003400 0.000000 -0.001146 0.000000
# 2 -0.003754 0.021467 -0.010697 0.000000 0.001728 0.000000
# 3 -0.003400 -0.010697 0.016037 0.000000 -0.000255 0.000000
# 4 0.000000 0.000000 0.000000 0.024688 0.000000 -0.000184
# 5 -0.001146 0.001728 -0.000255 0.000000 0.043295 0.000000
# 6 0.000000 0.000000 0.000000 -0.000184 0.000000 0.040687
#
#
# Mechanical properties :
#
#
# Convention : Reuss Voigt Hill
#
# Bulk Modulus (GPa) = 47.53787 53.92319 50.73053
# Shear Modulus (GPa) = 24.02460 26.70180 25.36320
#
# Velocity S-wave (km/s) = 3.55480 3.74764 3.65249
# Velocity P-wave (km/s) = 6.46940 6.86216 6.66867
#
# Compressibility (1/GPa) = 0.02103586
#
# Stress axis : x y z
#
# Youngs Moduli (GPa) = 51.99483 46.58224 62.35728
#
# Poissons Ratio (x) = 0.17488 0.21198
# Poissons Ratio (y) = 0.19520 0.66701
# Poissons Ratio (z) = 0.17676 0.49827
#
# Static dielectric constant tensor:
#      x y z
#    x 3.629560 0.000000 0.016500 
#    y 0.000000 3.369950 0.000000 
#    z 0.016500 0.000000 3.361520 
# 
# 
# High freq. dielectric constant tensor:
#      x y z
#    x 1.742520 0.000000 -0.000610 
#    y 0.000000 1.738640 0.000000 
#    z -0.000610 0.000000 1.737420 
# 
# From -- ./inp_files/55555.got.cif
#   From: 2010.06.25/outbox.cif.g09.slc.cpg/sg11_28_cif.got.tgz:55555.got - 2010.06.27 23:14:04.
