data_PCOD8073179
_publ_section_title
;
Structure prediction by ZEFSAII (Michael W. Deem and Ramdas Pophale) SiO2 
 PCOD8073179
Probable space group: P 21/M
;
_chemical_formula_sum "Si O2"
_cell_formula_units_Z 32
_cell_length_a 5.229542
_cell_length_b 9.637515
_cell_length_c 32.165769
_cell_angle_alpha 90.000000
_cell_angle_beta 84.952665
_cell_angle_gamma 90.000000
_cell_volume 1614.861748
_symmetry_space_group_name_H-M "P 21/M"
_symmetry_group_IT_number 11
_symmetry_cell_setting 'monoclinic'
loop_
_space_group_symop_operation_xyz
x,y,z
-x,1/2+y,-z
-x,-y,-z
x,1/2-y,z
loop_
_atom_site_type_symbol
_atom_site_label
_atom_site_fract_x
_atom_site_fract_y
_atom_site_fract_z
Si Si1 0.688836 0.401144 0.520661
Si Si2 0.602294 0.409945 0.771842
Si Si3 0.304037 0.415859 0.310910
Si Si4 0.506350 0.911413 0.958575
Si Si5 0.032224 0.911130 0.906595
Si Si6 0.071480 0.409222 0.824725
Si Si7 0.984926 0.900644 0.563033
Si Si8 0.775277 0.088414 0.357426
O O1 0.500000 0.500000 0.500000
O O2 0.569934 0.250000 0.533763
O O3 0.776392 0.476131 0.562346
O O4 0.917697 0.376974 0.484942
O O5 0.630379 0.250000 0.757033
O O6 0.640210 0.513043 0.733352
O O7 0.815953 0.446733 0.802962
O O8 0.320683 0.439840 0.793522
O O9 0.312810 0.250000 0.305120
O O10 0.029700 0.470093 0.331223
O O11 0.515411 0.472115 0.341225
O O12 0.516098 0.750000 0.970659
O O13 0.252790 0.948001 0.936339
O O14 0.757034 0.953944 0.928879
O O15 0.500000 0.000000 0.000000
O O16 0.039673 0.750000 0.894500
O O17 0.085871 0.996378 0.864688
O O18 0.066948 0.250000 0.839391
O O19 0.864984 0.750000 0.579419
O O20 0.202936 0.945309 0.593319
O O21 0.766842 0.250000 0.349653
#
# Coordination Sequence:
#
# PCOD8073179 Si02
#       8
#     4   4   4   4   4   4   4   4
#     4  10  20  33  53  78 105 138 177 219 268 321
#     4  10  21  37  55  78 109 141 174 215 267 324
#     4  10  20  35  56  82 106 136 178 220 259 318
#     4  10  21  36  54  78 109 146 184 223 269 318
#     4  10  21  36  54  80 111 139 178 229 274 313
#     4  10  21  36  56  80 106 141 180 218 266 325
#     4   9  19  35  54  75 102 140 177 219 269 316
#     4   9  19  34  56  81 106 136 178 221 262 311
#
# _framework density 19.815939
#
# number of rings (size 3 to 8) (size 9 to 14) (size 15 to 20)
#    0.000    2.250    0.000    2.250    1.750    2.500 
#    0.000    1.250    0.000    0.000    0.000    0.000 
#    0.000    0.000    0.000    0.000    0.000    0.000 
#
# Total GULP energy -396650.023228 kJ/mol
# GULP energy per Si atom -12395.313226 kJ/mol
# Density = 1.977084 g / cm^3
# Si number density = 19.815939 Si / 1000 Ang^3
#
#
#
# Elastic Constant Matrix: (Units=GPa)
#
#
# Indices 1 2 3 4 5 6 
#
# 1 82.4630 14.2640 -2.8969 0.0000 9.8756 0.0000
# 2 14.2640 74.2554 28.8440 0.0000 14.0175 0.0000
# 3 -2.8969 28.8440 71.8789 0.0000 11.5736 0.0000
# 4 0.0000 0.0000 0.0000 32.7468 0.0000 5.7351
# 5 9.8756 14.0175 11.5736 0.0000 27.6361 0.0000
# 6 0.0000 0.0000 0.0000 5.7351 0.0000 16.3355
#
#
#
# Elastic Compliance Matrix: (Units=1/GPa)
#
#
# Indices 1 2 3 4 5 6 
#
# 1 0.013175 -0.002593 0.002271 0.000000 -0.004344 0.000000
# 2 -0.002593 0.017382 -0.006229 0.000000 -0.005281 0.000000
# 3 0.002271 -0.006229 0.017291 0.000000 -0.004893 0.000000
# 4 0.000000 0.000000 0.000000 0.032538 0.000000 -0.011423
# 5 -0.004344 -0.005281 -0.004893 0.000000 0.042465 0.000000
# 6 0.000000 0.000000 0.000000 -0.011423 0.000000 0.065227
#
#
# Mechanical properties :
#
#
# Convention : Reuss Voigt Hill
#
# Bulk Modulus (GPa) = 28.78046 34.33550 31.55798
# Shear Modulus (GPa) = 23.50042 27.90278 25.70160
#
# Velocity S-wave (km/s) = 3.44748 3.75653 3.60532
# Velocity P-wave (km/s) = 5.51382 6.01500 5.76985
#
# Compressibility (1/GPa) = 0.03474580
#
# Stress axis : x y z
#
# Youngs Moduli (GPa) = 75.90035 57.53160 57.83214
#
# Poissons Ratio (x) = 0.14918 -0.13133
# Poissons Ratio (y) = 0.19681 0.36025
# Poissons Ratio (z) = -0.17237 0.35838
#
# Static dielectric constant tensor:
#      x y z
#    x 4.227750 0.000000 0.001090 
#    y 0.000000 3.524180 0.000000 
#    z 0.001090 0.000000 3.731920 
# 
# 
# High freq. dielectric constant tensor:
#      x y z
#    x 1.785880 0.000000 0.009880 
#    y 0.000000 1.760840 0.000000 
#    z 0.009880 0.000000 1.767420 
# 
# From -- ./inp_files/72591.got.cif
#   From: 2010.06.25/outbox.cif.g09.slc.cpg/sg11_37_cif.got.tgz:72591.got - 2010.06.27 23:14:04.
