data_PCOD8073417
_publ_section_title
;
Structure prediction by ZEFSAII (Michael W. Deem and Ramdas Pophale) SiO2 
 PCOD8073417
Probable space group: P 21/M
;
_chemical_formula_sum "Si O2"
_cell_formula_units_Z 32
_cell_length_a 28.055066
_cell_length_b 8.999415
_cell_length_c 22.211713
_cell_angle_alpha 90.000000
_cell_angle_beta 18.400540
_cell_angle_gamma 90.000000
_cell_volume 1770.208412
_symmetry_space_group_name_H-M "P 21/M"
_symmetry_group_IT_number 11
_symmetry_cell_setting 'monoclinic'
loop_
_space_group_symop_operation_xyz
x,y,z
-x,1/2+y,-z
-x,-y,-z
x,1/2-y,z
loop_
_atom_site_type_symbol
_atom_site_label
_atom_site_fract_x
_atom_site_fract_y
_atom_site_fract_z
Si Si1 0.479907 0.574492 0.700944
Si Si2 0.343237 0.425483 0.975296
Si Si3 0.221910 0.922627 0.698984
Si Si4 0.562007 0.077379 0.017632
Si Si5 0.964249 0.576534 0.718081
Si Si6 0.169531 0.923545 0.013285
Si Si7 0.056412 0.577742 0.019722
Si Si8 0.709250 0.077771 0.715161
O O1 0.492622 0.750000 0.694198
O O2 0.626757 0.514167 0.492026
O O3 0.338584 0.527969 0.828578
O O4 0.463582 0.500048 0.786020
O O5 0.367951 0.250000 0.944496
O O6 0.174120 0.472125 0.158723
O O7 0.367395 0.485643 0.012824
O O8 0.251138 0.750000 0.651223
O O9 0.172116 0.953198 0.827045
O O10 0.093636 0.979962 0.807268
O O11 0.554100 0.250000 0.044088
O O12 0.393987 0.020171 0.205000
O O13 0.669972 0.046723 0.831501
O O14 0.960715 0.750000 0.734378
O O15 0.118607 0.527299 0.500948
O O16 0.952522 0.499860 0.797079
O O17 0.147798 0.750000 0.047535
O O18 0.139544 0.973261 0.980901
O O19 0.008250 0.750000 0.079061
O O20 0.683269 0.250000 0.729938
#
# Coordination Sequence:
#
# PCOD8073417 Si02
#       8
#     4   4   4   4   4   4   4   4
#     4  10  20  35  54  76 103 134 169 210 256 305
#     4  10  20  35  54  76 103 134 169 210 256 305
#     4  10  20  34  53  77 104 136 173 211 254 304
#     4  10  20  34  53  77 104 136 173 211 254 304
#     4   9  19  35  54  76 102 133 169 210 255 303
#     4   9  19  35  54  76 102 133 169 210 255 303
#     4   9  19  36  54  74 104 138 172 212 256 303
#     4   9  19  36  54  74 104 138 172 212 256 303
#
# _framework density 18.076967
#
# number of rings (size 3 to 8) (size 9 to 14) (size 15 to 20)
#    0.000    2.500    0.000    1.500    0.000    5.000 
#    0.000    2.500    0.000    0.000    0.000    0.000 
#    0.000    0.000    0.000    0.000    0.000    0.000 
#
# Total GULP energy -396913.403840 kJ/mol
# GULP energy per Si atom -12403.543870 kJ/mol
# Density = 1.803582 g / cm^3
# Si number density = 18.076967 Si / 1000 Ang^3
#
#
#
# Elastic Constant Matrix: (Units=GPa)
#
#
# Indices 1 2 3 4 5 6 
#
# 1 124.3479 48.7482 58.4501 0.0000 2.7777 0.0000
# 2 48.7482 72.0520 47.3591 0.0000 0.4470 0.0000
# 3 58.4501 47.3591 119.1907 0.0000 0.1130 0.0000
# 4 0.0000 0.0000 0.0000 30.2673 0.0000 4.1655
# 5 2.7777 0.4470 0.1130 0.0000 14.0361 0.0000
# 6 0.0000 0.0000 0.0000 4.1655 0.0000 29.3706
#
#
#
# Elastic Compliance Matrix: (Units=1/GPa)
#
#
# Indices 1 2 3 4 5 6 
#
# 1 0.012049 -0.005761 -0.003618 0.000000 -0.002172 0.000000
# 2 -0.005761 0.021543 -0.005735 0.000000 0.000500 0.000000
# 3 -0.003618 -0.005735 0.012442 0.000000 0.000798 0.000000
# 4 0.000000 0.000000 0.000000 0.033697 0.000000 -0.004779
# 5 -0.002172 0.000500 0.000798 0.000000 0.071653 0.000000
# 6 0.000000 0.000000 0.000000 -0.004779 0.000000 0.034725
#
#
# Mechanical properties :
#
#
# Convention : Reuss Voigt Hill
#
# Bulk Modulus (GPa) = 63.26426 69.41170 66.33798
# Shear Modulus (GPa) = 22.56251 25.47034 24.01643
#
# Velocity S-wave (km/s) = 3.53673 3.75773 3.64890
# Velocity P-wave (km/s) = 7.19382 7.57024 7.38443
#
# Compressibility (1/GPa) = 0.01580671
#
# Stress axis : x y z
#
# Youngs Moduli (GPa) = 82.99100 46.41844 80.37149
#
# Poissons Ratio (x) = 0.26741 0.29078
# Poissons Ratio (y) = 0.47810 0.46096
# Poissons Ratio (z) = 0.30025 0.26623
#
# Static dielectric constant tensor:
#      x y z
#    x 3.394770 0.000000 -0.013850 
#    y 0.000000 3.370350 0.000000 
#    z -0.013850 0.000000 3.394970 
# 
# 
# High freq. dielectric constant tensor:
#      x y z
#    x 1.700710 0.000000 0.001170 
#    y 0.000000 1.706320 0.000000 
#    z 0.001170 0.000000 1.700940 
# 
# From -- ./inp_files/67088.got.cif
#   From: 2010.06.25/outbox.cif.g09.slc.cpg/sg11_34_cif.got.tgz:67088.got - 2010.06.27 23:14:04.
