data_PCOD8073204
_publ_section_title
;
Structure prediction by ZEFSAII (Michael W. Deem and Ramdas Pophale) SiO2 
 PCOD8073204
Probable space group: P 21/M
;
_chemical_formula_sum "Si O2"
_cell_formula_units_Z 32
_cell_length_a 21.180774
_cell_length_b 9.073843
_cell_length_c 14.336454
_cell_angle_alpha 90.000000
_cell_angle_beta 35.822881
_cell_angle_gamma 90.000000
_cell_volume 1612.648245
_symmetry_space_group_name_H-M "P 21/M"
_symmetry_group_IT_number 11
_symmetry_cell_setting 'monoclinic'
loop_
_space_group_symop_operation_xyz
x,y,z
-x,1/2+y,-z
-x,-y,-z
x,1/2-y,z
loop_
_atom_site_type_symbol
_atom_site_label
_atom_site_fract_x
_atom_site_fract_y
_atom_site_fract_z
Si Si1 0.961027 0.925715 0.769184
Si Si2 0.731366 0.588577 0.385459
Si Si3 0.667903 0.422916 0.634225
Si Si4 0.917585 0.578173 0.030898
Si Si5 0.796733 0.923752 0.809866
Si Si6 0.169122 0.074771 0.438818
Si Si7 0.432414 0.423161 0.849805
Si Si8 0.492024 0.912121 0.603494
O O1 0.973834 0.750000 0.747342
O O2 0.872284 0.986823 0.801948
O O3 0.925049 0.978232 0.915449
O O4 0.074737 0.000421 0.610937
O O5 0.772296 0.750000 0.372403
O O6 0.739102 0.468533 0.458438
O O7 0.799581 0.539808 0.213150
O O8 0.609909 0.604618 0.501826
O O9 0.682183 0.250000 0.633835
O O10 0.715403 0.513325 0.664416
O O11 0.541920 0.467594 0.773444
O O12 0.943185 0.750000 0.001944
O O13 0.000000 0.500000 0.000000
O O14 0.797768 0.750000 0.816758
O O15 0.842972 0.974034 0.654620
O O16 0.672342 0.976789 0.967299
O O17 0.166264 0.250000 0.453772
O O18 0.432838 0.250000 0.829991
O O19 0.420724 0.500275 0.763562
O O20 0.441472 0.750000 0.646729
O O21 0.500000 0.000000 0.500000
#
# Coordination Sequence:
#
# PCOD8073204 Si02
#       8
#     4   4   4   4   4   4   4   4
#     4  10  21  38  60  83 109 145 190 235 281 338
#     4   9  19  35  54  78 108 144 183 223 271 326
#     4  10  20  35  57  85 114 147 186 231 280 334
#     4  10  21  35  54  80 107 141 182 223 270 325
#     4   9  20  38  61  84 110 147 189 233 286 343
#     4  11  22  37  58  83 111 147 189 234 286 340
#     4   9  19  37  59  82 112 147 187 233 283 335
#     4  10  20  33  53  80 111 147 185 224 270 327
#
# _framework density 19.843136999999999
#
# number of rings (size 3 to 8) (size 9 to 14) (size 15 to 20)
#    0.000    2.250    0.000    2.250    1.750    4.500 
#    0.000    2.500    0.000    0.000    0.000    0.000 
#    0.000    0.000    0.000    0.000    0.000    0.000 
#
# Total GULP energy -396715.447657 kJ/mol
# GULP energy per Si atom -12397.357739 kJ/mol
# Density = 1.979797 g / cm^3
# Si number density = 19.843137 Si / 1000 Ang^3
#
#
#
# Elastic Constant Matrix: (Units=GPa)
#
#
# Indices 1 2 3 4 5 6 
#
# 1 110.4234 31.8888 30.3729 0.0000 14.5421 0.0000
# 2 31.8888 56.4102 21.4991 0.0000 1.6048 0.0000
# 3 30.3729 21.4991 95.5089 0.0000 4.6696 0.0000
# 4 0.0000 0.0000 0.0000 22.6328 0.0000 2.4901
# 5 14.5421 1.6048 4.6696 0.0000 28.6276 0.0000
# 6 0.0000 0.0000 0.0000 2.4901 0.0000 30.9359
#
#
#
# Elastic Compliance Matrix: (Units=1/GPa)
#
#
# Indices 1 2 3 4 5 6 
#
# 1 0.012072 -0.005806 -0.002266 0.000000 -0.005437 0.000000
# 2 -0.005806 0.022187 -0.003257 0.000000 0.002237 0.000000
# 3 -0.002266 -0.003257 0.011954 0.000000 -0.000616 0.000000
# 4 0.000000 0.000000 0.000000 0.044578 0.000000 -0.003588
# 5 -0.005437 0.002237 -0.000616 0.000000 0.037668 0.000000
# 6 0.000000 0.000000 0.000000 -0.003588 0.000000 0.032614
#
#
# Mechanical properties :
#
#
# Convention : Reuss Voigt Hill
#
# Bulk Modulus (GPa) = 42.45498 47.76269 45.10884
# Shear Modulus (GPa) = 26.09808 28.34471 27.22140
#
# Velocity S-wave (km/s) = 3.63053 3.78357 3.70784
# Velocity P-wave (km/s) = 6.24629 6.57340 6.41193
#
# Compressibility (1/GPa) = 0.02355436
#
# Stress axis : x y z
#
# Youngs Moduli (GPa) = 82.83526 45.07099 83.65187
#
# Poissons Ratio (x) = 0.26168 0.18958
# Poissons Ratio (y) = 0.48094 0.27248
# Poissons Ratio (z) = 0.18773 0.14681
#
# Static dielectric constant tensor:
#      x y z
#    x 3.505080 0.000000 -0.001820 
#    y 0.000000 3.698600 0.000000 
#    z -0.001820 0.000000 3.890610 
# 
# 
# High freq. dielectric constant tensor:
#      x y z
#    x 1.775830 0.000000 0.002240 
#    y 0.000000 1.760300 0.000000 
#    z 0.002240 0.000000 1.777410 
# 
# From -- ./inp_files/55544.got.cif
#   From: 2010.06.25/outbox.cif.g09.slc.cpg/sg11_28_cif.got.tgz:55544.got - 2010.06.27 23:14:04.
