data_PCOD8073544
_publ_section_title
;
Structure prediction by ZEFSAII (Michael W. Deem and Ramdas Pophale) SiO2 
 PCOD8073544
Probable space group: P 21/M
;
_chemical_formula_sum "Si O2"
_cell_formula_units_Z 28
_cell_length_a 20.493932
_cell_length_b 9.028555
_cell_length_c 15.639405
_cell_angle_alpha 90.000000
_cell_angle_beta 32.318870
_cell_angle_gamma 90.000000
_cell_volume 1547.097415
_symmetry_space_group_name_H-M "P 21/M"
_symmetry_group_IT_number 11
_symmetry_cell_setting 'monoclinic'
loop_
_space_group_symop_operation_xyz
x,y,z
-x,1/2+y,-z
-x,-y,-z
x,1/2-y,z
loop_
_atom_site_type_symbol
_atom_site_label
_atom_site_fract_x
_atom_site_fract_y
_atom_site_fract_z
Si Si1 0.088495 0.576406 0.647870
Si Si2 0.903541 0.928176 0.540489
Si Si3 0.324166 0.076360 0.727672
Si Si4 0.051663 0.424859 0.026869
Si Si5 0.673338 0.914737 0.591662
Si Si6 0.623373 0.913752 0.840519
Si Si7 0.519169 0.578202 0.605022
O O1 0.074219 0.750000 0.643188
O O2 0.056033 0.483592 0.598468
O O3 0.224879 0.540148 0.526424
O O4 0.007237 0.525381 0.818120
O O5 0.913141 0.750000 0.532716
O O6 0.759853 0.976417 0.716914
O O7 0.000000 0.000000 0.500000
O O8 0.328284 0.250000 0.733311
O O9 0.383118 0.022910 0.573356
O O10 0.393190 0.007634 0.732259
O O11 0.188388 0.016598 0.881069
O O12 0.039727 0.250000 0.027783
O O13 0.000000 0.500000 0.000000
O O14 0.724591 0.750000 0.509915
O O15 0.615220 0.907159 0.748379
O O16 0.567141 0.962956 0.645176
O O17 0.611662 0.750000 0.893533
O O18 0.500000 0.000000 0.000000
O O19 0.492359 0.750000 0.623402
#
# Coordination Sequence:
#
# PCOD8073544 Si02
#       7
#     4   4   4   4   4   4   4
#     4  10  20  34  54  81 110 139 179 224 265 322
#     4  10  21  39  61  84 111 148 187 228 280 335
#     4   9  18  32  48  69 100 134 167 209 259 306
#     4  10  21  35  52  76 107 141 177 220 267 314
#     4   9  18  34  54  75 102 135 174 216 260 315
#     4   9  19  35  55  80 109 137 174 223 272 325
#     4   9  17  31  51  71  95 131 172 213 255 304
#
# _framework density 18.098407000000002
#
# number of rings (size 3 to 8) (size 9 to 14) (size 15 to 20)
#    0.000    2.571    0.000    2.571    0.000    6.286 
#    2.571    2.857    0.000    0.000    0.000    0.000 
#    0.000    0.000    0.000    0.000    0.000    0.000 
#
# Total GULP energy -346949.413305 kJ/mol
# GULP energy per Si atom -12391.050475 kJ/mol
# Density = 1.805721 g / cm^3
# Si number density = 18.098407 Si / 1000 Ang^3
#
#
#
# Elastic Constant Matrix: (Units=GPa)
#
#
# Indices 1 2 3 4 5 6 
#
# 1 158.8888 45.2922 67.7610 0.0000 -15.6471 0.0000
# 2 45.2922 51.1399 43.1555 0.0000 -4.2549 0.0000
# 3 67.7610 43.1555 112.4567 0.0000 -17.2090 0.0000
# 4 0.0000 0.0000 0.0000 26.9470 0.0000 -1.8768
# 5 -15.6471 -4.2549 -17.2090 0.0000 22.3346 0.0000
# 6 0.0000 0.0000 0.0000 -1.8768 0.0000 35.2203
#
#
#
# Elastic Compliance Matrix: (Units=1/GPa)
#
#
# Indices 1 2 3 4 5 6 
#
# 1 0.009517 -0.005527 -0.003122 0.000000 0.003208 0.000000
# 2 -0.005527 0.032365 -0.009907 0.000000 -0.005340 0.000000
# 3 -0.003122 -0.009907 0.015817 0.000000 0.008112 0.000000
# 4 0.000000 0.000000 0.000000 0.037248 0.000000 0.001985
# 5 0.003208 -0.005340 0.008112 0.000000 0.052255 0.000000
# 6 0.000000 0.000000 0.000000 0.001985 0.000000 0.028498
#
#
# Mechanical properties :
#
#
# Convention : Reuss Voigt Hill
#
# Bulk Modulus (GPa) = 48.57615 70.54478 59.56047
# Shear Modulus (GPa) = 22.76096 27.98550 25.37323
#
# Velocity S-wave (km/s) = 3.55014 3.93656 3.74834
# Velocity P-wave (km/s) = 6.61082 7.72820 7.19125
#
# Compressibility (1/GPa) = 0.02058623
#
# Stress axis : x y z
#
# Youngs Moduli (GPa) = 105.07856 30.89763 63.22279
#
# Poissons Ratio (x) = 0.17076 0.19741
# Poissons Ratio (y) = 0.58072 0.62636
# Poissons Ratio (z) = 0.32811 0.30611
#
# Static dielectric constant tensor:
#      x y z
#    x 3.564860 0.000000 -0.038220 
#    y 0.000000 3.362320 0.000000 
#    z -0.038220 0.000000 3.423170 
# 
# 
# High freq. dielectric constant tensor:
#      x y z
#    x 1.709040 0.000000 -0.003880 
#    y 0.000000 1.697240 0.000000 
#    z -0.003880 0.000000 1.691890 
# 
# From -- ./inp_files/54519.got.cif
#   From: 2010.06.25/outbox.cif.g09.slc.cpg/sg11_28_cif.got.tgz:54519.got - 2010.06.27 23:14:04.
