data_PCOD8073186
_publ_section_title
;
Structure prediction by ZEFSAII (Michael W. Deem and Ramdas Pophale) SiO2 
 PCOD8073186
Probable space group: P 21/M
;
_chemical_formula_sum "Si O2"
_cell_formula_units_Z 24
_cell_length_a 12.654192
_cell_length_b 13.443808
_cell_length_c 23.086169
_cell_angle_alpha 90.000000
_cell_angle_beta 161.980245
_cell_angle_gamma 90.000000
_cell_volume 1214.930791
_symmetry_space_group_name_H-M "P 21/M"
_symmetry_group_IT_number 11
_symmetry_cell_setting 'monoclinic'
loop_
_space_group_symop_operation_xyz
x,y,z
-x,1/2+y,-z
-x,-y,-z
x,1/2-y,z
loop_
_atom_site_type_symbol
_atom_site_label
_atom_site_fract_x
_atom_site_fract_y
_atom_site_fract_z
Si Si1 0.554947 0.638923 0.857979
Si Si2 0.945056 0.138923 0.142023
Si Si3 0.235132 0.444557 0.401809
Si Si4 0.731137 0.456363 0.756149
Si Si5 0.231141 0.043639 0.756150
Si Si6 0.735135 0.444556 0.401810
O O1 0.486114 0.750000 0.845678
O O2 0.345762 0.561499 0.787868
O O3 0.448090 0.636622 0.734346
O O4 0.957284 0.617360 0.071872
O O5 0.013903 0.250000 0.154333
O O6 0.051901 0.136620 0.265650
O O7 0.154243 0.061499 0.212135
O O8 0.542723 0.117361 0.928130
O O9 0.500000 0.500000 0.500000
O O10 0.450899 0.401360 0.568784
O O11 0.945056 0.520326 0.274140
O O12 0.554941 0.479677 0.725859
O O13 0.950907 0.098642 0.568787
O O14 0.000000 0.500000 0.500000
#
# Coordination Sequence:
#
# PCOD8073186 Si02
#       6
#     4   4   4   4   4   4
#     4  10  20  33  53  79 104 137 177 213 257 310
#     4  10  20  33  53  79 104 137 177 213 257 310
#     4   9  18  35  55  73 100 138 174 213 260 307
#     4   9  19  36  54  75 107 138 170 217 263 303
#     4   9  19  36  54  75 107 138 170 217 263 303
#     4   9  18  35  55  73 100 138 174 213 260 307
#
# _framework density 19.75421
#
# number of rings (size 3 to 8) (size 9 to 14) (size 15 to 20)
#    0.000    2.667    0.000    1.000    0.000    2.667 
#    0.000   13.333    0.000    0.000    0.000    0.000 
#    0.000    0.000    0.000    0.000    0.000    0.000 
#
# Total GULP energy -297403.198634 kJ/mol
# GULP energy per Si atom -12391.799943 kJ/mol
# Density = 1.970925 g / cm^3
# Si number density = 19.754210 Si / 1000 Ang^3
#
#
#
# Elastic Constant Matrix: (Units=GPa)
#
#
# Indices 1 2 3 4 5 6 
#
# 1 96.4299 16.9906 18.5962 0.0000 9.0263 0.0000
# 2 16.9906 83.8935 31.9355 0.0000 -15.0967 0.0000
# 3 18.5962 31.9355 112.3000 0.0000 -6.9007 0.0000
# 4 0.0000 0.0000 0.0000 6.5564 0.0000 -2.3759
# 5 9.0263 -15.0967 -6.9007 0.0000 27.7764 0.0000
# 6 0.0000 0.0000 0.0000 -2.3759 0.0000 17.5505
#
#
#
# Elastic Compliance Matrix: (Units=1/GPa)
#
#
# Indices 1 2 3 4 5 6 
#
# 1 0.011688 -0.002830 -0.001481 0.000000 -0.005704 0.000000
# 2 -0.002830 0.015283 -0.003362 0.000000 0.008391 0.000000
# 3 -0.001481 -0.003362 0.010179 0.000000 0.001183 0.000000
# 4 0.000000 0.000000 0.000000 0.160392 0.000000 0.021713
# 5 -0.005704 0.008391 0.001183 0.000000 0.042710 0.000000
# 6 0.000000 0.000000 0.000000 0.021713 0.000000 0.059918
#
#
# Mechanical properties :
#
#
# Convention : Reuss Voigt Hill
#
# Bulk Modulus (GPa) = 45.86345 47.51866 46.69106
# Shear Modulus (GPa) = 15.49025 25.38339 20.43682
#
# Velocity S-wave (km/s) = 2.80330 3.58852 3.21994
# Velocity P-wave (km/s) = 5.80909 6.42473 6.12465
#
# Compressibility (1/GPa) = 0.02180386
#
# Stress axis : x y z
#
# Youngs Moduli (GPa) = 85.55439 65.43376 98.24400
#
# Poissons Ratio (x) = 0.18517 0.14553
# Poissons Ratio (y) = 0.24210 0.33028
# Poissons Ratio (z) = 0.12673 0.21998
#
# Static dielectric constant tensor:
#      x y z
#    x 3.833220 0.000000 -0.301950 
#    y 0.000000 3.082330 0.000000 
#    z -0.301950 0.000000 4.243180 
# 
# 
# High freq. dielectric constant tensor:
#      x y z
#    x 1.776450 0.000000 0.000220 
#    y 0.000000 1.716270 0.000000 
#    z 0.000220 0.000000 1.798520 
# 
# From -- ./inp_files/6449.got.cif
#   From: 2010.06.25/outbox.cif.g09.slc.cpg/sg11_4_cif.got.tgz:6449.got - 2010.06.27 23:14:04.
