data_PCOD8073767
_publ_section_title
;
Structure prediction by ZEFSAII (Michael W. Deem and Ramdas Pophale) SiO2 
 PCOD8073767
Probable space group: P 21/M
;
_chemical_formula_sum "Si O2"
_cell_formula_units_Z 28
_cell_length_a 9.589037
_cell_length_b 9.311163
_cell_length_c 27.210098
_cell_angle_alpha 90.000000
_cell_angle_beta 140.996307
_cell_angle_gamma 90.000000
_cell_volume 1529.027862
_symmetry_space_group_name_H-M "P 21/M"
_symmetry_group_IT_number 11
_symmetry_cell_setting 'monoclinic'
loop_
_space_group_symop_operation_xyz
x,y,z
-x,1/2+y,-z
-x,-y,-z
x,1/2-y,z
loop_
_atom_site_type_symbol
_atom_site_label
_atom_site_fract_x
_atom_site_fract_y
_atom_site_fract_z
Si Si1 0.719537 0.588307 0.050980
Si Si2 0.856306 0.416889 0.500644
Si Si3 0.648966 0.918972 0.629041
Si Si4 0.210122 0.410273 0.044381
Si Si5 0.682038 0.414361 0.205777
Si Si6 0.955757 0.081393 0.639868
Si Si7 0.981987 0.411300 0.194833
O O1 0.686294 0.750000 0.061545
O O2 0.930620 0.518716 0.136309
O O3 0.500000 0.500000 0.000000
O O4 0.766300 0.587173 0.006920
O O5 0.872431 0.250000 0.491966
O O6 0.601091 0.468343 0.429082
O O7 0.947170 0.449234 0.579697
O O8 0.000000 0.500000 0.500000
O O9 0.665194 0.750000 0.620474
O O10 0.787617 0.955037 0.716119
O O11 0.749222 0.004883 0.610225
O O12 0.170428 0.250000 0.052554
O O13 0.429999 0.470032 0.131802
O O14 0.000000 0.500000 0.000000
O O15 0.695482 0.250000 0.228662
O O16 0.784699 0.422481 0.179828
O O17 0.810516 0.517738 0.278199
O O18 0.943885 0.250000 0.648449
O O19 0.997054 0.250000 0.177768
#
# Coordination Sequence:
#
# PCOD8073767 Si02
#       7
#     4   4   4   4   4   4   4
#     4  11  21  35  56  81 110 142 181 226 272 320
#     4  10  22  39  57  81 114 148 182 222 269 325
#     4   9  19  37  59  81 110 146 183 222 267 326
#     4  10  22  39  55  77 109 146 186 226 269 324
#     4   9  18  36  57  78 110 146 182 222 268 326
#     4  10  20  34  57  88 112 136 181 232 272 316
#     4   9  17  33  56  82 109 137 180 229 269 317
#
# _framework density 18.312287999999999
#
# number of rings (size 3 to 8) (size 9 to 14) (size 15 to 20)
#    0.000    2.286    1.429    2.143    0.000    5.714 
#    2.571    0.000    0.000    0.000    0.000    0.000 
#    0.000    0.000    0.000    0.000    0.000    0.000 
#
# Total GULP energy -347188.736669 kJ/mol
# GULP energy per Si atom -12399.597738 kJ/mol
# Density = 1.827061 g / cm^3
# Si number density = 18.312288 Si / 1000 Ang^3
#
#
#
# Elastic Constant Matrix: (Units=GPa)
#
#
# Indices 1 2 3 4 5 6 
#
# 1 87.3672 56.6208 68.4325 0.0000 17.7049 0.0000
# 2 56.6208 101.8043 69.0292 0.0000 1.2534 0.0000
# 3 68.4325 69.0292 144.9268 0.0000 15.7573 0.0000
# 4 0.0000 0.0000 0.0000 33.7224 0.0000 -0.4806
# 5 17.7049 1.2534 15.7573 0.0000 28.5568 0.0000
# 6 0.0000 0.0000 0.0000 -0.4806 0.0000 33.6138
#
#
#
# Elastic Compliance Matrix: (Units=1/GPa)
#
#
# Indices 1 2 3 4 5 6 
#
# 1 0.024518 -0.009600 -0.005742 0.000000 -0.011611 0.000000
# 2 -0.009600 0.018580 -0.005187 0.000000 0.007998 0.000000
# 3 -0.005742 -0.005187 0.012415 0.000000 -0.003063 0.000000
# 4 0.000000 0.000000 0.000000 0.029660 0.000000 0.000424
# 5 -0.011611 0.007998 -0.003063 0.000000 0.043556 0.000000
# 6 0.000000 0.000000 0.000000 0.000424 0.000000 0.029756
#
#
# Mechanical properties :
#
#
# Convention : Reuss Voigt Hill
#
# Bulk Modulus (GPa) = 69.17577 80.25150 74.71363
# Shear Modulus (GPa) = 24.46661 28.51298 26.48979
#
# Velocity S-wave (km/s) = 3.65920 3.95022 3.80749
# Velocity P-wave (km/s) = 7.46396 8.04516 7.76000
#
# Compressibility (1/GPa) = 0.01445593
#
# Stress axis : x y z
#
# Youngs Moduli (GPa) = 40.78623 53.82068 80.54882
#
# Poissons Ratio (x) = 0.51666 0.46253
# Poissons Ratio (y) = 0.39154 0.41777
# Poissons Ratio (z) = 0.23421 0.27914
#
# Static dielectric constant tensor:
#      x y z
#    x 3.038080 0.000000 0.034680 
#    y 0.000000 3.505290 0.000000 
#    z 0.034680 0.000000 3.658420 
# 
# 
# High freq. dielectric constant tensor:
#      x y z
#    x 1.686520 0.000000 0.002520 
#    y 0.000000 1.710130 0.000000 
#    z 0.002520 0.000000 1.727870 
# 
# From -- ./inp_files/70924.got.cif
#   From: 2010.06.25/outbox.cif.g09.slc.cpg/sg11_36_cif.got.tgz:70924.got - 2010.06.27 23:14:04.
