data_PCOD8073269
_publ_section_title
;
Structure prediction by ZEFSAII (Michael W. Deem and Ramdas Pophale) SiO2 
 PCOD8073269
Probable space group: P 21/M
;
_chemical_formula_sum "Si O2"
_cell_formula_units_Z 32
_cell_length_a 11.710102
_cell_length_b 13.764910
_cell_length_c 18.615673
_cell_angle_alpha 90.000000
_cell_angle_beta 150.856541
_cell_angle_gamma 90.000000
_cell_volume 1461.301979
_symmetry_space_group_name_H-M "P 21/M"
_symmetry_group_IT_number 11
_symmetry_cell_setting 'monoclinic'
loop_
_space_group_symop_operation_xyz
x,y,z
-x,1/2+y,-z
-x,-y,-z
x,1/2-y,z
loop_
_atom_site_type_symbol
_atom_site_label
_atom_site_fract_x
_atom_site_fract_y
_atom_site_fract_z
Si Si1 0.719371 0.950086 0.429496
Si Si2 0.441356 0.636435 0.406892
Si Si3 0.785006 0.361180 0.275917
Si Si4 0.455421 0.643776 0.162582
Si Si5 0.471622 0.855845 0.721682
Si Si6 0.189030 0.048388 0.289259
Si Si7 0.746938 0.137173 0.097071
Si Si8 0.961119 0.602702 0.944701
O O1 0.581487 0.884202 0.410713
O O2 0.642873 0.922407 0.306382
O O3 0.995889 0.934242 0.591645
O O4 0.640747 0.063510 0.394140
O O5 0.373046 0.750000 0.373453
O O6 0.585367 0.601596 0.554880
O O7 0.212208 0.567351 0.285585
O O8 0.880744 0.250000 0.331110
O O9 0.596164 0.381268 0.233666
O O10 0.649718 0.377324 0.124788
O O11 0.567480 0.750000 0.218629
O O12 0.418393 0.603021 0.060404
O O13 0.214767 0.653025 0.077481
O O14 0.369601 0.750000 0.643536
O O15 0.756156 0.847596 0.878819
O O16 0.144936 0.103894 0.192165
O O17 0.974395 0.068134 0.224599
O O18 0.815184 0.250000 0.120426
O O19 0.000000 0.500000 0.000000
#
# Coordination Sequence:
#
# PCOD8073269 Si02
#       8
#     4   4   4   4   4   4   4   4
#     4  12  21  39  60  91 125 158 207 257 304 367
#     4  11  21  34  55  87 124 159 197 250 311 362
#     4  10  21  39  64  90 121 163 210 251 301 366
#     4  10  20  33  60  91 117 153 201 259 309 357
#     4  11  24  40  60  89 123 163 205 255 310 369
#     4  10  20  34  55  87 118 153 199 248 297 366
#     4   9  18  35  59  87 118 160 206 247 298 367
#     4  11  20  39  60  83 124 155 200 252 309 369
#
# _framework density 21.898281000000001
#
# number of rings (size 3 to 8) (size 9 to 14) (size 15 to 20)
#    0.000    1.500    3.750    2.250    0.000    1.500 
#    0.000    1.250    0.000    0.000    0.000    0.000 
#    0.000    0.000    0.000    0.000    0.000    0.000 
#
# Total GULP energy -396461.881160 kJ/mol
# GULP energy per Si atom -12389.433786 kJ/mol
# Density = 2.184844 g / cm^3
# Si number density = 21.898281 Si / 1000 Ang^3
#
#
#
# Elastic Constant Matrix: (Units=GPa)
#
#
# Indices 1 2 3 4 5 6 
#
# 1 88.9046 13.9725 21.7164 0.0000 -9.7472 0.0000
# 2 13.9725 99.1324 1.2759 0.0000 -4.1023 0.0000
# 3 21.7164 1.2759 67.2635 0.0000 -17.4593 0.0000
# 4 0.0000 0.0000 0.0000 20.9176 0.0000 -3.8413
# 5 -9.7472 -4.1023 -17.4593 0.0000 10.5287 0.0000
# 6 0.0000 0.0000 0.0000 -3.8413 0.0000 26.5620
#
#
#
# Elastic Compliance Matrix: (Units=1/GPa)
#
#
# Indices 1 2 3 4 5 6 
#
# 1 0.012848 -0.001458 -0.002073 0.000000 0.007890 0.000000
# 2 -0.001458 0.010503 0.001726 0.000000 0.005605 0.000000
# 3 -0.002073 0.001726 0.026651 0.000000 0.042948 0.000000
# 4 0.000000 0.000000 0.000000 0.049111 0.000000 0.007102
# 5 0.007890 0.005605 0.042948 0.000000 0.175685 0.000000
# 6 0.000000 0.000000 0.000000 0.007102 0.000000 0.038675
#
#
# Mechanical properties :
#
#
# Convention : Reuss Voigt Hill
#
# Bulk Modulus (GPa) = 21.55433 36.58111 29.06772
# Shear Modulus (GPa) = 15.03551 26.15738 20.59645
#
# Velocity S-wave (km/s) = 2.62316 3.45990 3.07017
# Velocity P-wave (km/s) = 4.36336 5.71861 5.08632
#
# Compressibility (1/GPa) = 0.04639440
#
# Stress axis : x y z
#
# Youngs Moduli (GPa) = 77.83065 95.21328 37.52177
#
# Poissons Ratio (x) = 0.13880 0.07777
# Poissons Ratio (y) = 0.11346 -0.06478
# Poissons Ratio (z) = 0.16131 -0.16438
#
# Static dielectric constant tensor:
#      x y z
#    x 4.344630 0.000000 -0.250630 
#    y 0.000000 3.947460 0.000000 
#    z -0.250630 0.000000 3.880210 
# 
# 
# High freq. dielectric constant tensor:
#      x y z
#    x 1.857340 0.000000 -0.022680 
#    y 0.000000 1.860440 0.000000 
#    z -0.022680 0.000000 1.839870 
# 
# From -- ./inp_files/59520.got.cif
#   From: 2010.06.25/outbox.cif.g09.slc.cpg/sg11_30_cif.got.tgz:59520.got - 2010.06.27 23:14:04.
