data_PCOD8073777
_publ_section_title
;
Structure prediction by ZEFSAII (Michael W. Deem and Ramdas Pophale) SiO2 
 PCOD8073777
Probable space group: P 21/M
;
_chemical_formula_sum "Si O2"
_cell_formula_units_Z 24
_cell_length_a 12.107775
_cell_length_b 17.117060
_cell_length_c 17.343650
_cell_angle_alpha 90.000000
_cell_angle_beta 158.921180
_cell_angle_gamma 90.000000
_cell_volume 1292.755468
_symmetry_space_group_name_H-M "P 21/M"
_symmetry_group_IT_number 11
_symmetry_cell_setting 'monoclinic'
loop_
_space_group_symop_operation_xyz
x,y,z
-x,1/2+y,-z
-x,-y,-z
x,1/2-y,z
loop_
_atom_site_type_symbol
_atom_site_label
_atom_site_fract_x
_atom_site_fract_y
_atom_site_fract_z
Si Si1 0.227325 0.840285 0.245807
Si Si2 0.696363 0.448491 0.570665
Si Si3 0.771863 0.660079 0.489580
Si Si4 0.687229 0.158442 0.942826
Si Si5 0.129582 0.416792 0.109759
Si Si6 0.764396 0.052951 0.137096
O O1 0.256062 0.750000 0.274562
O O2 0.198257 0.873338 0.312420
O O3 0.529019 0.870824 0.395909
O O4 0.924813 0.859761 0.998164
O O5 0.500000 0.500000 0.500000
O O6 0.491890 0.423489 0.363674
O O7 0.999138 0.491951 0.743164
O O8 0.860430 0.750000 0.562915
O O9 0.624919 0.650752 0.309477
O O10 0.073424 0.606101 0.691574
O O11 0.765502 0.250000 0.008660
O O12 0.635455 0.112452 0.988629
O O13 0.968187 0.118032 0.080844
O O14 0.000000 0.500000 0.000000
O O15 0.500000 0.000000 0.000000
#
# Coordination Sequence:
#
# PCOD8073777 Si02
#       6
#     4   4   4   4   4   4
#     4  10  20  34  57  89 115 141 186 240 290 339
#     4  12  20  36  58  83 113 149 183 232 285 340
#     4   9  18  35  59  84 109 142 187 236 281 337
#     4  10  20  36  60  86 110 147 195 236 280 343
#     4  11  18  32  58  87 116 139 180 233 291 333
#     4  12  24  37  55  83 116 152 192 234 281 331
#
# _framework density 18.564996000000001
#
# number of rings (size 3 to 8) (size 9 to 14) (size 15 to 20)
#    0.000    1.333    5.000    3.000    0.000    3.333 
#    0.000    1.667    0.000    2.000    0.000    0.000 
#    0.000    0.000    0.000    0.000    0.000    0.000 
#
# Total GULP energy -297563.748799 kJ/mol
# GULP energy per Si atom -12398.489533 kJ/mol
# Density = 1.852274 g / cm^3
# Si number density = 18.564996 Si / 1000 Ang^3
#
#
#
# Elastic Constant Matrix: (Units=GPa)
#
#
# Indices 1 2 3 4 5 6 
#
# 1 70.9885 54.3613 54.2160 0.0000 -7.2721 0.0000
# 2 54.3613 102.7791 59.6206 0.0000 1.8975 0.0000
# 3 54.2160 59.6206 114.8129 0.0000 -11.0683 0.0000
# 4 0.0000 0.0000 0.0000 37.9529 0.0000 -5.0653
# 5 -7.2721 1.8975 -11.0683 0.0000 30.9646 0.0000
# 6 0.0000 0.0000 0.0000 -5.0653 0.0000 33.1648
#
#
#
# Elastic Compliance Matrix: (Units=1/GPa)
#
#
# Indices 1 2 3 4 5 6 
#
# 1 0.028555 -0.010926 -0.007353 0.000000 0.004747 0.000000
# 2 -0.010926 0.018494 -0.004972 0.000000 -0.005477 0.000000
# 3 -0.007353 -0.004972 0.015149 0.000000 0.003993 0.000000
# 4 0.000000 0.000000 0.000000 0.026897 0.000000 0.004108
# 5 0.004747 -0.005477 0.003993 0.000000 0.035173 0.000000
# 6 0.000000 0.000000 0.000000 0.004108 0.000000 0.030780
#
#
# Mechanical properties :
#
#
# Convention : Reuss Voigt Hill
#
# Bulk Modulus (GPa) = 63.70931 69.44181 66.57556
# Shear Modulus (GPa) = 24.18012 28.44196 26.31104
#
# Velocity S-wave (km/s) = 3.61287 3.91835 3.76871
# Velocity P-wave (km/s) = 7.19689 7.61296 7.40785
#
# Compressibility (1/GPa) = 0.01569629
#
# Stress axis : x y z
#
# Youngs Moduli (GPa) = 35.01960 54.07219 66.01118
#
# Poissons Ratio (x) = 0.59077 0.48538
# Poissons Ratio (y) = 0.38261 0.32823
# Poissons Ratio (z) = 0.25750 0.26886
#
# Static dielectric constant tensor:
#      x y z
#    x 2.830710 0.000000 -0.321770 
#    y 0.000000 3.706440 0.000000 
#    z -0.321770 0.000000 3.256940 
# 
# 
# High freq. dielectric constant tensor:
#      x y z
#    x 1.684620 0.000000 -0.040360 
#    y 0.000000 1.738360 0.000000 
#    z -0.040360 0.000000 1.715700 
# 
# From -- ./inp_files/41886.got.cif
#   From: 2010.06.25/outbox.cif.g09.slc.cpg/sg11_21_cif.got.tgz:41886.got - 2010.06.27 23:14:04.
