data_PCOD8073871
_publ_section_title
;
Structure prediction by ZEFSAII (Michael W. Deem and Ramdas Pophale) SiO2 
 PCOD8073871
Probable space group: P 21/M
;
_chemical_formula_sum "Si O2"
_cell_formula_units_Z 32
_cell_length_a 30.945687
_cell_length_b 9.036964
_cell_length_c 12.303874
_cell_angle_alpha 90.000000
_cell_angle_beta 150.932439
_cell_angle_gamma 90.000000
_cell_volume 1671.700073
_symmetry_space_group_name_H-M "P 21/M"
_symmetry_group_IT_number 11
_symmetry_cell_setting 'monoclinic'
loop_
_space_group_symop_operation_xyz
x,y,z
-x,1/2+y,-z
-x,-y,-z
x,1/2-y,z
loop_
_atom_site_type_symbol
_atom_site_label
_atom_site_fract_x
_atom_site_fract_y
_atom_site_fract_z
Si Si1 0.235739 0.923809 0.338677
Si Si2 0.523504 0.078264 0.383525
Si Si3 0.050918 0.924897 0.015374
Si Si4 0.432690 0.575067 0.768681
Si Si5 0.369561 0.921875 0.168241
Si Si6 0.166997 0.412076 0.990299
Si Si7 0.021477 0.579760 0.350598
Si Si8 0.806052 0.582173 0.194866
O O1 0.238933 0.750000 0.346051
O O2 0.155130 0.978131 0.240183
O O3 0.333822 0.982038 0.586733
O O4 0.214401 0.967672 0.168571
O O5 0.494805 0.250000 0.323444
O O6 0.551372 0.030276 0.322602
O O7 0.602271 0.050448 0.644122
O O8 0.442038 0.976759 0.241283
O O9 0.044982 0.750000 0.014020
O O10 0.000000 0.000000 0.000000
O O11 0.999566 0.975836 0.796563
O O12 0.442098 0.750000 0.802573
O O13 0.500000 0.500000 0.000000
O O14 0.351822 0.750000 0.107962
O O15 0.281124 0.012162 0.943003
O O16 0.183423 0.250000 0.079080
O O17 0.211345 0.420238 0.971229
O O18 0.060450 0.436923 0.745520
O O19 0.035100 0.750000 0.344270
O O20 0.110497 0.521155 0.599719
O O21 0.820773 0.750000 0.269786
#
# Coordination Sequence:
#
# PCOD8073871 Si02
#       8
#     4   4   4   4   4   4   4   4
#     4   9  19  36  58  82 108 141 184 228 275 329
#     4   9  19  37  58  79 109 143 182 231 283 336
#     4  10  20  37  59  81 107 145 186 230 278 326
#     4  10  21  38  58  83 113 146 184 234 287 336
#     4  10  20  35  57  82 107 145 188 227 277 336
#     4   9  19  33  53  80 110 143 180 224 269 321
#     4  10  20  35  53  77 109 143 182 225 269 324
#     4  11  21  33  50  79 115 146 178 219 272 328
#
# _framework density 19.142189999999999
#
# number of rings (size 3 to 8) (size 9 to 14) (size 15 to 20)
#    0.000    2.250    0.000    2.625    0.000    4.500 
#    2.250    0.000    0.000    0.000    0.000    0.000 
#    0.000    0.000    0.000    0.000    0.000    0.000 
#
# Total GULP energy -396652.456023 kJ/mol
# GULP energy per Si atom -12395.389251 kJ/mol
# Density = 1.909862 g / cm^3
# Si number density = 19.142190 Si / 1000 Ang^3
#
#
#
# Elastic Constant Matrix: (Units=GPa)
#
#
# Indices 1 2 3 4 5 6 
#
# 1 95.9616 39.6522 39.2715 0.0000 8.8473 0.0000
# 2 39.6522 51.3403 33.4167 0.0000 10.7982 0.0000
# 3 39.2715 33.4167 107.4658 0.0000 19.7729 0.0000
# 4 0.0000 0.0000 0.0000 35.0856 0.0000 -0.9977
# 5 8.8473 10.7982 19.7729 0.0000 24.2754 0.0000
# 6 0.0000 0.0000 0.0000 -0.9977 0.0000 29.8190
#
#
#
# Elastic Compliance Matrix: (Units=1/GPa)
#
#
# Indices 1 2 3 4 5 6 
#
# 1 0.015845 -0.010752 -0.002664 0.000000 0.001177 0.000000
# 2 -0.010752 0.032357 -0.004947 0.000000 -0.006446 0.000000
# 3 -0.002664 -0.004947 0.013214 0.000000 -0.007592 0.000000
# 4 0.000000 0.000000 0.000000 0.028529 0.000000 0.000955
# 5 0.001177 -0.006446 -0.007592 0.000000 0.049816 0.000000
# 6 0.000000 0.000000 0.000000 0.000955 0.000000 0.033568
#
#
# Mechanical properties :
#
#
# Convention : Reuss Voigt Hill
#
# Bulk Modulus (GPa) = 40.49895 53.27206 46.88551
# Shear Modulus (GPa) = 22.90609 27.33113 25.11861
#
# Velocity S-wave (km/s) = 3.46298 3.78272 3.62638
# Velocity P-wave (km/s) = 6.09857 6.85337 6.48696
#
# Compressibility (1/GPa) = 0.02469200
#
# Stress axis : x y z
#
# Youngs Moduli (GPa) = 63.11109 30.90505 75.67931
#
# Poissons Ratio (x) = 0.33228 0.20159
# Poissons Ratio (y) = 0.67855 0.37435
# Poissons Ratio (z) = 0.16811 0.15287
#
# Static dielectric constant tensor:
#      x y z
#    x 3.484310 0.000000 0.307940 
#    y 0.000000 3.573080 0.000000 
#    z 0.307940 0.000000 3.517250 
# 
# 
# High freq. dielectric constant tensor:
#      x y z
#    x 1.738100 0.000000 0.020110 
#    y 0.000000 1.749510 0.000000 
#    z 0.020110 0.000000 1.738080 
# 
# From -- ./inp_files/45279.got.cif
#   From: 2010.06.25/outbox.cif.g09.slc.cpg/sg11_23_cif.got.tgz:45279.got - 2010.06.27 23:14:04.
