data_PCOD8073258
_publ_section_title
;
Structure prediction by ZEFSAII (Michael W. Deem and Ramdas Pophale) SiO2 
 PCOD8073258
Probable space group: P 21/M
;
_chemical_formula_sum "Si O2"
_cell_formula_units_Z 32
_cell_length_a 12.119715
_cell_length_b 18.209483
_cell_length_c 9.715167
_cell_angle_alpha 90.000000
_cell_angle_beta 125.595803
_cell_angle_gamma 90.000000
_cell_volume 1743.441722
_symmetry_space_group_name_H-M "P 21/M"
_symmetry_group_IT_number 11
_symmetry_cell_setting 'monoclinic'
loop_
_space_group_symop_operation_xyz
x,y,z
-x,1/2+y,-z
-x,-y,-z
x,1/2-y,z
loop_
_atom_site_type_symbol
_atom_site_label
_atom_site_fract_x
_atom_site_fract_y
_atom_site_fract_z
Si Si1 0.782832 0.834296 0.729653
Si Si2 0.889549 0.100649 0.653850
Si Si3 0.811999 0.922188 0.198494
Si Si4 0.088469 0.835076 0.040410
Si Si5 0.615124 0.835956 0.868453
Si Si6 0.841360 0.413875 0.176809
Si Si7 0.145480 0.065476 0.456779
Si Si8 0.309372 0.665793 0.699493
O O1 0.760551 0.750000 0.669540
O O2 0.673180 0.860598 0.762346
O O3 0.767167 0.883374 0.581660
O O4 0.928857 0.846171 0.904008
O O5 0.864760 0.118067 0.795149
O O6 0.794864 0.155240 0.500240
O O7 0.045036 0.117512 0.726896
O O8 0.849011 0.017055 0.594792
O O9 0.788676 0.931029 0.344882
O O10 0.810599 0.001274 0.123274
O O11 0.690466 0.874881 0.049346
O O12 0.126520 0.750000 0.087157
O O13 0.169795 0.867555 0.970534
O O14 0.639383 0.750000 0.906307
O O15 0.458145 0.858178 0.757437
O O16 0.729615 0.383460 0.199137
O O17 0.990371 0.406298 0.353559
O O18 0.306847 0.750000 0.744541
#
# Coordination Sequence:
#
# PCOD8073258 Si02
#       8
#     4   4   4   4   4   4   4   4
#     4   9  19  36  55  81 114 149 186 231 286 333
#     4  11  20  36  58  87 114 144 187 232 283 333
#     4  11  20  37  61  85 115 145 191 236 273 337
#     4  10  20  33  56  88 113 143 192 236 276 333
#     4  10  23  39  57  82 113 152 193 228 279 340
#     4  10  20  36  57  86 117 147 180 236 291 329
#     4  10  20  35  58  89 116 140 186 242 281 332
#     4  11  22  39  58  80 117 155 184 229 286 336
#
# _framework density 18.354500000000002
#
# number of rings (size 3 to 8) (size 9 to 14) (size 15 to 20)
#    0.000    1.750    3.750    1.500    1.750    3.500 
#    0.000    1.875    0.000    3.000    0.000    0.000 
#    0.000    0.000    0.000    0.000    0.000    0.000 
#
# Total GULP energy -396940.816062 kJ/mol
# GULP energy per Si atom -12404.400502 kJ/mol
# Density = 1.831272 g / cm^3
# Si number density = 18.354500 Si / 1000 Ang^3
#
#
#
# Elastic Constant Matrix: (Units=GPa)
#
#
# Indices 1 2 3 4 5 6 
#
# 1 112.8222 43.9266 42.1995 0.0000 -9.9455 0.0000
# 2 43.9266 66.6241 37.2474 0.0000 -5.3819 0.0000
# 3 42.1995 37.2474 75.0007 0.0000 -12.6466 0.0000
# 4 0.0000 0.0000 0.0000 32.3140 0.0000 -6.4781
# 5 -9.9455 -5.3819 -12.6466 0.0000 31.0755 0.0000
# 6 0.0000 0.0000 0.0000 -6.4781 0.0000 29.0927
#
#
#
# Elastic Compliance Matrix: (Units=1/GPa)
#
#
# Indices 1 2 3 4 5 6 
#
# 1 0.012862 -0.006166 -0.003930 0.000000 0.001449 0.000000
# 2 -0.006166 0.023747 -0.008550 0.000000 -0.001340 0.000000
# 3 -0.003930 -0.008550 0.020753 0.000000 0.005707 0.000000
# 4 0.000000 0.000000 0.000000 0.032392 0.000000 0.007213
# 5 0.001449 -0.001340 0.005707 0.000000 0.034734 0.000000
# 6 0.000000 0.000000 0.000000 0.007213 0.000000 0.035979
#
#
# Mechanical properties :
#
#
# Convention : Reuss Voigt Hill
#
# Bulk Modulus (GPa) = 49.82719 55.68821 52.75770
# Shear Modulus (GPa) = 24.45597 27.23467 25.84532
#
# Velocity S-wave (km/s) = 3.65420 3.85621 3.75656
# Velocity P-wave (km/s) = 6.70897 7.08755 6.90086
#
# Compressibility (1/GPa) = 0.02006936
#
# Stress axis : x y z
#
# Youngs Moduli (GPa) = 77.74883 42.11142 48.18533
#
# Poissons Ratio (x) = 0.25965 0.18939
# Poissons Ratio (y) = 0.47937 0.41199
# Poissons Ratio (z) = 0.30559 0.36005
#
# Static dielectric constant tensor:
#      x y z
#    x 3.366730 0.000000 -0.134470 
#    y 0.000000 3.425430 0.000000 
#    z -0.134470 0.000000 3.268920 
# 
# 
# High freq. dielectric constant tensor:
#      x y z
#    x 1.703170 0.000000 -0.019830 
#    y 0.000000 1.717770 0.000000 
#    z -0.019830 0.000000 1.700120 
# 
# From -- ./inp_files/18824.got.cif
#   From: 2010.06.25/outbox.cif.g09.slc.cpg/sg11_10_cif.got.tgz:18824.got - 2010.06.27 23:14:04.
