data_PCOD8073158
_publ_section_title
;
Structure prediction by ZEFSAII (Michael W. Deem and Ramdas Pophale) SiO2 
 PCOD8073158
Probable space group: P 21/M
;
_chemical_formula_sum "Si O2"
_cell_formula_units_Z 28
_cell_length_a 18.528378
_cell_length_b 9.100685
_cell_length_c 15.028921
_cell_angle_alpha 90.000000
_cell_angle_beta 141.769409
_cell_angle_gamma 90.000000
_cell_volume 1568.227852
_symmetry_space_group_name_H-M "P 21/M"
_symmetry_group_IT_number 11
_symmetry_cell_setting 'monoclinic'
loop_
_space_group_symop_operation_xyz
x,y,z
-x,1/2+y,-z
-x,-y,-z
x,1/2-y,z
loop_
_atom_site_type_symbol
_atom_site_label
_atom_site_fract_x
_atom_site_fract_y
_atom_site_fract_z
Si Si1 0.234894 0.423090 0.412267
Si Si2 0.255873 0.582740 0.104282
Si Si3 0.381985 0.580508 0.408838
Si Si4 0.660744 0.082269 0.330372
Si Si5 0.619327 0.080132 0.096157
Si Si6 0.388995 0.421776 0.082087
Si Si7 0.997099 0.078940 0.090935
O O1 0.254909 0.250000 0.424103
O O2 0.330123 0.505081 0.445440
O O3 0.254557 0.475684 0.532403
O O4 0.105452 0.469449 0.256927
O O5 0.277797 0.750000 0.093901
O O6 0.291645 0.562644 0.241172
O O7 0.330730 0.473768 0.116779
O O8 0.119613 0.539775 0.966942
O O9 0.500000 0.500000 0.500000
O O10 0.408276 0.750000 0.455952
O O11 0.680640 0.250000 0.379927
O O12 0.696173 0.063430 0.260434
O O13 0.525768 0.038278 0.216357
O O14 0.595427 0.250000 0.051932
O O15 0.500000 0.000000 0.000000
O O16 0.675283 0.003741 0.063145
O O17 0.368804 0.250000 0.050326
O O18 0.001128 0.250000 0.072634
O O19 0.000000 0.000000 0.000000
#
# Coordination Sequence:
#
# PCOD8073158 Si02
#       7
#     4   4   4   4   4   4   4
#     4  11  22  34  53  78 104 135 174 219 262 307
#     4  10  21  36  53  73 101 138 175 214 261 309
#     4  11  22  35  52  74 104 139 171 210 260 312
#     4   9  19  34  52  77 109 141 172 207 257 314
#     4   9  17  31  52  77 106 140 173 210 255 309
#     4  10  20  33  52  80 109 138 172 213 260 312
#     4  10  21  38  56  75  99 134 181 224 262 307
#
# _framework density 17.854548000000001
#
# number of rings (size 3 to 8) (size 9 to 14) (size 15 to 20)
#    0.000    2.000    1.429    3.429    0.000    8.000 
#    0.000    0.000    0.000    0.857    0.000    0.000 
#    0.000    0.000    0.000    0.000    0.000    0.000 
#
# Total GULP energy -347202.831821 kJ/mol
# GULP energy per Si atom -12400.101136 kJ/mol
# Density = 1.781391 g / cm^3
# Si number density = 17.854548 Si / 1000 Ang^3
#
#
#
# Elastic Constant Matrix: (Units=GPa)
#
#
# Indices 1 2 3 4 5 6 
#
# 1 32.7135 23.8714 25.3707 0.0000 -10.8798 0.0000
# 2 23.8714 93.1296 48.9428 0.0000 -9.4663 0.0000
# 3 25.3707 48.9428 98.3083 0.0000 -5.4920 0.0000
# 4 0.0000 0.0000 0.0000 28.7325 0.0000 -7.3661
# 5 -10.8798 -9.4663 -5.4920 0.0000 29.9361 0.0000
# 6 0.0000 0.0000 0.0000 -7.3661 0.0000 32.1606
#
#
#
# Elastic Compliance Matrix: (Units=1/GPa)
#
#
# Indices 1 2 3 4 5 6 
#
# 1 0.045631 -0.006170 -0.007969 0.000000 0.013171 0.000000
# 2 -0.006170 0.015708 -0.006139 0.000000 0.001599 0.000000
# 3 -0.007969 -0.006139 0.015170 0.000000 -0.002054 0.000000
# 4 0.000000 0.000000 0.000000 0.036975 0.000000 0.008469
# 5 0.013171 0.001599 -0.002054 0.000000 0.038320 0.000000
# 6 0.000000 0.000000 0.000000 0.008469 0.000000 0.033034
#
#
# Mechanical properties :
#
#
# Convention : Reuss Voigt Hill
#
# Bulk Modulus (GPa) = 27.81284 46.72456 37.26870
# Shear Modulus (GPa) = 21.06365 26.56361 23.81363
#
# Velocity S-wave (km/s) = 3.43845 3.86136 3.65603
# Velocity P-wave (km/s) = 5.60136 6.79018 6.22422
#
# Compressibility (1/GPa) = 0.03595462
#
# Stress axis : x y z
#
# Youngs Moduli (GPa) = 21.91494 63.66324 65.92003
#
# Poissons Ratio (x) = 0.39278 0.52530
# Poissons Ratio (y) = 0.13521 0.40465
# Poissons Ratio (z) = 0.17463 0.39080
#
# Static dielectric constant tensor:
#      x y z
#    x 2.944070 0.000000 -0.074780 
#    y 0.000000 3.448880 0.000000 
#    z -0.074780 0.000000 3.403140 
# 
# 
# High freq. dielectric constant tensor:
#      x y z
#    x 1.676080 0.000000 -0.018890 
#    y 0.000000 1.702190 0.000000 
#    z -0.018890 0.000000 1.682530 
# 
# From -- ./inp_files/53219.got.cif
#   From: 2010.06.25/outbox.cif.g09.slc.cpg/sg11_27_cif.got.tgz:53219.got - 2010.06.27 23:14:04.
