data_PCOD8073642
_publ_section_title
;
Structure prediction by ZEFSAII (Michael W. Deem and Ramdas Pophale) SiO2 
 PCOD8073642
Probable space group: P 21/M
;
_chemical_formula_sum "Si O2"
_cell_formula_units_Z 28
_cell_length_a 9.089582
_cell_length_b 8.410953
_cell_length_c 25.318127
_cell_angle_alpha 90.000000
_cell_angle_beta 44.325645
_cell_angle_gamma 90.000000
_cell_volume 1352.488351
_symmetry_space_group_name_H-M "P 21/M"
_symmetry_group_IT_number 11
_symmetry_cell_setting 'monoclinic'
loop_
_space_group_symop_operation_xyz
x,y,z
-x,1/2+y,-z
-x,-y,-z
x,1/2-y,z
loop_
_atom_site_type_symbol
_atom_site_label
_atom_site_fract_x
_atom_site_fract_y
_atom_site_fract_z
Si Si1 0.900950 0.566973 0.135641
Si Si2 0.988362 0.433244 0.588163
Si Si3 0.689842 0.934148 0.581950
Si Si4 0.109421 0.435566 0.276137
Si Si5 0.219373 0.563774 0.724043
Si Si6 0.423420 0.936132 0.862857
Si Si7 0.658334 0.934937 0.002623
O O1 0.970076 0.750000 0.115345
O O2 0.785568 0.530539 0.220078
O O3 0.742978 0.532996 0.128538
O O4 0.105179 0.456442 0.078789
O O5 0.996077 0.250000 0.601822
O O6 0.778222 0.466655 0.608572
O O7 0.988847 0.532033 0.641669
O O8 0.193375 0.486198 0.501950
O O9 0.737438 0.750000 0.581682
O O10 0.443512 0.968561 0.638719
O O11 0.120315 0.250000 0.263641
O O12 0.344621 0.505382 0.210106
O O13 0.958545 0.506624 0.269342
O O14 0.188875 0.750000 0.743509
O O15 0.405511 0.750000 0.853766
O O16 0.374276 0.962915 0.936539
O O17 0.614895 0.750000 0.024785
O O18 0.500000 0.000000 0.000000
#
# Coordination Sequence:
#
# PCOD8073642 Si02
#       7
#     4   4   4   4   4   4   4
#     4  12  25  41  62  90 121 155 197 244 294 347
#     4  10  20  34  55  83 114 149 192 240 289 347
#     4   9  19  36  57  81 112 151 193 239 292 347
#     4  10  22  38  58  83 114 152 191 236 293 351
#     4  10  21  39  60  83 114 153 197 243 294 352
#     4  11  23  41  63  88 119 157 200 244 293 349
#     4  12  25  43  66  93 124 157 194 239 292 347
#
# _framework density 20.702584000000002
#
# number of rings (size 3 to 8) (size 9 to 14) (size 15 to 20)
#    0.000    1.429    0.000    5.571    0.000    8.000 
#    0.000    0.000    0.000    0.000    0.000    0.000 
#    0.000    0.000    0.000    0.000    0.000    0.000 
#
# Total GULP energy -347368.755083 kJ/mol
# GULP energy per Si atom -12406.026967 kJ/mol
# Density = 2.065546 g / cm^3
# Si number density = 20.702584 Si / 1000 Ang^3
#
#
#
# Elastic Constant Matrix: (Units=GPa)
#
#
# Indices 1 2 3 4 5 6 
#
# 1 133.9469 13.1183 57.1769 0.0000 -8.6050 0.0000
# 2 13.1183 45.8102 15.4245 0.0000 -5.7741 0.0000
# 3 57.1769 15.4245 112.7036 0.0000 -2.3772 0.0000
# 4 0.0000 0.0000 0.0000 32.3962 0.0000 3.9960
# 5 -8.6050 -5.7741 -2.3772 0.0000 34.5645 0.0000
# 6 0.0000 0.0000 0.0000 3.9960 0.0000 29.0039
#
#
#
# Elastic Compliance Matrix: (Units=1/GPa)
#
#
# Indices 1 2 3 4 5 6 
#
# 1 0.009713 -0.000935 -0.004759 0.000000 0.001935 0.000000
# 2 -0.000935 0.023433 -0.002659 0.000000 0.003499 0.000000
# 3 -0.004759 -0.002659 0.011633 0.000000 -0.000829 0.000000
# 4 0.000000 0.000000 0.000000 0.031401 0.000000 -0.004326
# 5 0.001935 0.003499 -0.000829 0.000000 0.029941 0.000000
# 6 0.000000 0.000000 0.000000 -0.004326 0.000000 0.035074
#
#
# Mechanical properties :
#
#
# Convention : Reuss Voigt Hill
#
# Bulk Modulus (GPa) = 35.62015 51.54447 43.58231
# Shear Modulus (GPa) = 29.89373 32.97566 31.43470
#
# Velocity S-wave (km/s) = 3.80407 3.99536 3.90089
# Velocity P-wave (km/s) = 6.04464 6.79967 6.43324
#
# Compressibility (1/GPa) = 0.02807399
#
# Stress axis : x y z
#
# Youngs Moduli (GPa) = 102.95652 42.67438 85.95921
#
# Poissons Ratio (x) = 0.03991 0.40906
# Poissons Ratio (y) = 0.09629 0.22855
# Poissons Ratio (z) = 0.48994 0.11346
#
# Static dielectric constant tensor:
#      x y z
#    x 3.818690 0.000000 -0.125920 
#    y 0.000000 3.636990 0.000000 
#    z -0.125920 0.000000 3.867440 
# 
# 
# High freq. dielectric constant tensor:
#      x y z
#    x 1.815630 0.000000 -0.001490 
#    y 0.000000 1.803100 0.000000 
#    z -0.001490 0.000000 1.822590 
# 
# From -- ./inp_files/70849.got.cif
#   From: 2010.06.25/outbox.cif.g09.slc.cpg/sg11_36_cif.got.tgz:70849.got - 2010.06.27 23:14:04.
