data_PCOD8073369
_publ_section_title
;
Structure prediction by ZEFSAII (Michael W. Deem and Ramdas Pophale) SiO2 
 PCOD8073369
Probable space group: P 21/M
;
_chemical_formula_sum "Si O2"
_cell_formula_units_Z 28
_cell_length_a 8.679977
_cell_length_b 27.614559
_cell_length_c 6.583325
_cell_angle_alpha 90.000000
_cell_angle_beta 122.566441
_cell_angle_gamma 90.000000
_cell_volume 1329.872255
_symmetry_space_group_name_H-M "P 21/M"
_symmetry_group_IT_number 11
_symmetry_cell_setting 'monoclinic'
loop_
_space_group_symop_operation_xyz
x,y,z
-x,1/2+y,-z
-x,-y,-z
x,1/2-y,z
loop_
_atom_site_type_symbol
_atom_site_label
_atom_site_fract_x
_atom_site_fract_y
_atom_site_fract_z
Si Si1 0.026926 0.376852 0.256479
Si Si2 0.336266 0.450708 0.459945
Si Si3 0.852733 0.804320 0.979602
Si Si4 0.110495 0.803768 0.515660
Si Si5 0.627204 0.396608 0.935455
Si Si6 0.542387 0.034684 0.217083
Si Si7 0.490709 0.695649 0.960749
O O1 0.152396 0.423187 0.392558
O O2 0.145004 0.342332 0.197962
O O3 0.985406 0.346354 0.427545
O O4 0.839568 0.395526 0.019933
O O5 0.316884 0.505600 0.534784
O O6 0.367908 0.451857 0.237635
O O7 0.515019 0.426817 0.691327
O O8 0.828831 0.750000 0.875864
O O9 0.683170 0.818218 0.000691
O O10 0.042836 0.808634 0.237130
O O11 0.054453 0.750000 0.559755
O O12 0.329800 0.808902 0.678314
O O13 0.619701 0.417138 0.163927
O O14 0.548732 0.341795 0.884619
O O15 0.500000 0.000000 0.000000
O O16 0.496061 0.750000 0.056419
#
# Coordination Sequence:
#
# PCOD8073369 Si02
#       7
#     4   4   4   4   4   4   4
#     4  11  22  33  55  86 110 142 185 229 277 331
#     4  10  21  39  60  82 109 141 181 229 280 329
#     4  10  20  34  52  76 109 149 190 228 268 322
#     4   9  19  36  54  77 113 151 185 226 274 322
#     4  10  21  37  58  84 113 145 181 224 274 328
#     4   9  20  41  62  80 109 145 181 228 278 328
#     4   9  18  34  56  81 112 149 184 220 267 322
#
# _framework density 21.054653999999999
#
# number of rings (size 3 to 8) (size 9 to 14) (size 15 to 20)
#    0.000    2.286    0.000    2.143    0.000    5.714 
#    0.000    7.143    0.000    7.714    0.000    0.000 
#    0.000    0.000    0.000    0.000    0.000    0.000 
#
# Total GULP energy -347031.874361 kJ/mol
# GULP energy per Si atom -12393.995513 kJ/mol
# Density = 2.100673 g / cm^3
# Si number density = 21.054654 Si / 1000 Ang^3
#
#
#
# Elastic Constant Matrix: (Units=GPa)
#
#
# Indices 1 2 3 4 5 6 
#
# 1 68.6526 27.7040 21.7992 0.0000 5.9527 0.0000
# 2 27.7040 77.0298 15.3344 0.0000 -2.1904 0.0000
# 3 21.7992 15.3344 51.0694 0.0000 -1.8722 0.0000
# 4 0.0000 0.0000 0.0000 30.1522 0.0000 -0.0017
# 5 5.9527 -2.1904 -1.8722 0.0000 29.4160 0.0000
# 6 0.0000 0.0000 0.0000 -0.0017 0.0000 29.6128
#
#
#
# Elastic Compliance Matrix: (Units=1/GPa)
#
#
# Indices 1 2 3 4 5 6 
#
# 1 0.019461 -0.005793 -0.006744 0.000000 -0.004799 0.000000
# 2 -0.005793 0.015549 -0.002115 0.000000 0.002196 0.000000
# 3 -0.006744 -0.002115 0.023193 0.000000 0.002683 0.000000
# 4 0.000000 0.000000 0.000000 0.033165 0.000000 0.000002
# 5 -0.004799 0.002196 0.002683 0.000000 0.035301 0.000000
# 6 0.000000 0.000000 0.000000 0.000002 0.000000 0.033769
#
#
# Mechanical properties :
#
#
# Convention : Reuss Voigt Hill
#
# Bulk Modulus (GPa) = 34.60326 36.26969 35.43648
# Shear Modulus (GPa) = 25.07823 26.63048 25.85435
#
# Velocity S-wave (km/s) = 3.45498 3.56030 3.50803
# Velocity P-wave (km/s) = 5.69091 5.84507 5.76850
#
# Compressibility (1/GPa) = 0.02889901
#
# Stress axis : x y z
#
# Youngs Moduli (GPa) = 51.38407 64.31222 43.11598
#
# Poissons Ratio (x) = 0.37258 0.29075
# Poissons Ratio (y) = 0.29769 0.09121
# Poissons Ratio (z) = 0.34651 0.13605
#
# Static dielectric constant tensor:
#      x y z
#    x 3.698520 0.000000 0.041300 
#    y 0.000000 4.259270 0.000000 
#    z 0.041300 0.000000 3.650940 
# 
# 
# High freq. dielectric constant tensor:
#      x y z
#    x 1.809900 0.000000 0.005660 
#    y 0.000000 1.844870 0.000000 
#    z 0.005660 0.000000 1.801690 
# 
# From -- ./inp_files/3464.got.cif
#   From: 2010.06.25/outbox.cif.g09.slc.cpg/sg11_2_cif.got.tgz:3464.got - 2010.06.27 23:14:04.
