data_PCOD8073405
_publ_section_title
;
Structure prediction by ZEFSAII (Michael W. Deem and Ramdas Pophale) SiO2 
 PCOD8073405
Probable space group: P 21/M
;
_chemical_formula_sum "Si O2"
_cell_formula_units_Z 32
_cell_length_a 8.777797
_cell_length_b 14.200390
_cell_length_c 14.915563
_cell_angle_alpha 90.000000
_cell_angle_beta 107.112529
_cell_angle_gamma 90.000000
_cell_volume 1776.888107
_symmetry_space_group_name_H-M "P 21/M"
_symmetry_group_IT_number 11
_symmetry_cell_setting 'monoclinic'
loop_
_space_group_symop_operation_xyz
x,y,z
-x,1/2+y,-z
-x,-y,-z
x,1/2-y,z
loop_
_atom_site_type_symbol
_atom_site_label
_atom_site_fract_x
_atom_site_fract_y
_atom_site_fract_z
Si Si1 0.981416 0.994411 0.101971
Si Si2 0.552350 0.640681 0.247583
Si Si3 0.305378 0.646132 0.751236
Si Si4 0.804767 0.359319 0.752417
Si Si5 0.766583 0.992771 0.393344
Si Si6 0.873239 0.492772 0.606656
Si Si7 0.620555 0.505589 0.101971
Si Si8 0.054141 0.353868 0.248763
O O1 0.068670 0.902994 0.156521
O O2 0.062374 0.088120 0.157551
O O3 0.797777 0.987552 0.095554
O O4 0.000000 0.000000 0.000000
O O5 0.595530 0.750000 0.250780
O O6 0.369194 0.622872 0.238388
O O7 0.660435 0.594947 0.343837
O O8 0.587850 0.597006 0.156521
O O9 0.381744 0.750000 0.751080
O O10 0.307645 0.589692 0.657882
O O11 0.404823 0.588120 0.842449
O O12 0.126675 0.656891 0.753349
O O13 0.844750 0.250000 0.749220
O O14 0.816598 0.405053 0.656163
O O15 0.943079 0.975839 0.386158
O O16 0.763792 1.000000 0.500000
O O17 0.850237 0.589693 0.657882
O O18 0.500000 0.500000 0.000000
O O19 0.130663 0.250000 0.248919
#
# Coordination Sequence:
#
# PCOD8073405 Si02
#       8
#     4   4   4   4   4   4   4   4
#     4  10  20  34  53  76 102 133 170 213 261 311
#     4  10  21  36  53  74 103 140 179 218 260 305
#     4   8  15  29  48  70  97 128 161 198 243 298
#     4  10  21  36  53  74 103 140 179 218 260 305
#     4   9  18  32  52  78 104 132 168 211 259 309
#     4   9  18  32  52  78 104 132 168 211 259 309
#     4  10  20  34  53  76 102 133 170 213 261 311
#     4   8  15  29  48  70  97 128 161 198 243 298
#
# _framework density 18.009012999999999
#
# number of rings (size 3 to 8) (size 9 to 14) (size 15 to 20)
#    0.000    2.750    0.000    3.000    0.000    4.500 
#    0.000    5.000    0.000   18.000    0.000    0.000 
#    0.000    0.000    0.000    0.000    0.000    0.000 
#
# Total GULP energy -396755.504993 kJ/mol
# GULP energy per Si atom -12398.609531 kJ/mol
# Density = 1.796802 g / cm^3
# Si number density = 18.009013 Si / 1000 Ang^3
#
#
#
# Elastic Constant Matrix: (Units=GPa)
#
#
# Indices 1 2 3 4 5 6 
#
# 1 58.2750 47.9352 45.7447 0.0000 3.1736 0.0000
# 2 47.9352 169.6673 91.5873 0.0000 2.8269 0.0000
# 3 45.7447 91.5873 190.4701 0.0000 5.3875 0.0000
# 4 0.0000 0.0000 0.0000 12.4765 0.0000 -0.7324
# 5 3.1736 2.8269 5.3875 0.0000 30.9111 0.0000
# 6 0.0000 0.0000 0.0000 -0.7324 0.0000 23.7858
#
#
#
# Elastic Compliance Matrix: (Units=1/GPa)
#
#
# Indices 1 2 3 4 5 6 
#
# 1 0.023910 -0.004934 -0.003330 0.000000 -0.001423 0.000000
# 2 -0.004934 0.008978 -0.003139 0.000000 0.000233 0.000000
# 3 -0.003330 -0.003139 0.007579 0.000000 -0.000692 0.000000
# 4 0.000000 0.000000 0.000000 0.080296 0.000000 0.002472
# 5 -0.001423 0.000233 -0.000692 0.000000 0.032596 0.000000
# 6 0.000000 0.000000 0.000000 0.002472 0.000000 0.042118
#
#
# Mechanical properties :
#
#
# Convention : Reuss Voigt Hill
#
# Bulk Modulus (GPa) = 56.61889 87.66077 72.13983
# Shear Modulus (GPa) = 22.30461 28.97770 25.64115
#
# Velocity S-wave (km/s) = 3.52309 4.01567 3.77742
# Velocity P-wave (km/s) = 6.93231 8.38347 7.69219
#
# Compressibility (1/GPa) = 0.01766195
#
# Stress axis : x y z
#
# Youngs Moduli (GPa) = 41.82390 111.37900 131.94916
#
# Poissons Ratio (x) = 0.54955 0.43933
# Poissons Ratio (y) = 0.20636 0.41416
# Poissons Ratio (z) = 0.13925 0.34960
#
# Static dielectric constant tensor:
#      x y z
#    x 3.158980 0.000000 0.027220 
#    y 0.000000 3.714640 0.000000 
#    z 0.027220 0.000000 3.579240 
# 
# 
# High freq. dielectric constant tensor:
#      x y z
#    x 1.680330 0.000000 0.001440 
#    y 0.000000 1.702180 0.000000 
#    z 0.001440 0.000000 1.702610 
# 
# From -- ./inp_files/47463.got.cif
#   From: 2010.06.25/outbox.cif.g09.slc.cpg/sg11_24_cif.got.tgz:47463.got - 2010.06.27 23:14:04.
