data_PCOD8073365
_publ_section_title
;
Structure prediction by ZEFSAII (Michael W. Deem and Ramdas Pophale) SiO2 
 PCOD8073365
Probable space group: P 21/M
;
_chemical_formula_sum "Si O2"
_cell_formula_units_Z 28
_cell_length_a 15.833636
_cell_length_b 8.870816
_cell_length_c 20.142313
_cell_angle_alpha 90.000000
_cell_angle_beta 147.990613
_cell_angle_gamma 90.000000
_cell_volume 1499.605838
_symmetry_space_group_name_H-M "P 21/M"
_symmetry_group_IT_number 11
_symmetry_cell_setting 'monoclinic'
loop_
_space_group_symop_operation_xyz
x,y,z
-x,1/2+y,-z
-x,-y,-z
x,1/2-y,z
loop_
_atom_site_type_symbol
_atom_site_label
_atom_site_fract_x
_atom_site_fract_y
_atom_site_fract_z
Si Si1 0.532877 0.570421 0.593981
Si Si2 0.401756 0.919764 0.019660
Si Si3 0.025646 0.074021 0.445872
Si Si4 0.644401 0.081898 0.861548
Si Si5 0.829604 0.923890 0.878819
Si Si6 0.738367 0.920109 0.193460
Si Si7 0.664831 0.921784 0.423766
O O1 0.500000 0.500000 0.500000
O O2 0.525560 0.750000 0.583856
O O3 0.708424 0.518441 0.739252
O O4 0.393941 0.516984 0.551711
O O5 0.359655 0.750000 0.967524
O O6 0.321613 0.044395 0.920300
O O7 0.334880 0.950623 0.047579
O O8 0.592628 0.939101 0.147499
O O9 0.050342 0.250000 0.474227
O O10 0.174783 0.010378 0.502412
O O11 0.871296 0.041012 0.299540
O O12 0.000000 0.000000 0.500000
O O13 0.708547 0.250000 0.886366
O O14 0.460721 0.070193 0.719439
O O15 0.743842 0.953864 0.891183
O O16 0.861459 0.750000 0.889107
O O17 0.000000 0.000000 0.000000
O O18 0.806359 0.750000 0.240952
O O19 0.691296 0.750000 0.465884
#
# Coordination Sequence:
#
# PCOD8073365 Si02
#       7
#     4   4   4   4   4   4   4
#     4  10  21  38  61  87 114 148 189 233 285 342
#     4   9  18  34  54  76 104 142 182 220 270 324
#     4  11  22  36  55  80 111 147 185 227 276 326
#     4   9  17  33  57  79 103 138 178 220 268 320
#     4  10  21  37  57  84 113 141 180 227 277 334
#     4  10  20  34  52  76 108 142 182 227 269 319
#     4   9  19  36  57  81 110 145 185 226 271 328
#
# _framework density 18.671572000000001
#
# number of rings (size 3 to 8) (size 9 to 14) (size 15 to 20)
#    0.000    2.286    0.000    2.571    0.000    6.286 
#    2.571    2.857    0.000    0.000    0.000    0.000 
#    0.000    0.000    0.000    0.000    0.000    0.000 
#
# Total GULP energy -347076.812549 kJ/mol
# GULP energy per Si atom -12395.600448 kJ/mol
# Density = 1.862907 g / cm^3
# Si number density = 18.671572 Si / 1000 Ang^3
#
#
#
# Elastic Constant Matrix: (Units=GPa)
#
#
# Indices 1 2 3 4 5 6 
#
# 1 113.9417 41.9159 61.0924 0.0000 0.2252 0.0000
# 2 41.9159 62.0623 39.0961 0.0000 1.5884 0.0000
# 3 61.0924 39.0961 102.8347 0.0000 10.9766 0.0000
# 4 0.0000 0.0000 0.0000 32.2505 0.0000 -0.0498
# 5 0.2252 1.5884 10.9766 0.0000 22.0915 0.0000
# 6 0.0000 0.0000 0.0000 -0.0498 0.0000 31.1661
#
#
#
# Elastic Compliance Matrix: (Units=1/GPa)
#
#
# Indices 1 2 3 4 5 6 
#
# 1 0.014512 -0.005545 -0.006906 0.000000 0.003682 0.000000
# 2 -0.005545 0.023450 -0.005752 0.000000 0.001229 0.000000
# 3 -0.006906 -0.005752 0.016857 0.000000 -0.007891 0.000000
# 4 0.000000 0.000000 0.000000 0.031007 0.000000 0.000050
# 5 0.003682 0.001229 -0.007891 0.000000 0.049061 0.000000
# 6 0.000000 0.000000 0.000000 0.000050 0.000000 0.032086
#
#
# Mechanical properties :
#
#
# Convention : Reuss Voigt Hill
#
# Bulk Modulus (GPa) = 54.31378 62.56083 58.43731
# Shear Modulus (GPa) = 23.86440 26.21725 25.04082
#
# Velocity S-wave (km/s) = 3.57895 3.75123 3.66610
# Velocity P-wave (km/s) = 6.79932 7.23471 7.02039
#
# Compressibility (1/GPa) = 0.01841153
#
# Stress axis : x y z
#
# Youngs Moduli (GPa) = 68.90923 42.64410 59.32413
#
# Poissons Ratio (x) = 0.23645 0.40971
# Poissons Ratio (y) = 0.38208 0.34126
# Poissons Ratio (z) = 0.47591 0.24531
#
# Static dielectric constant tensor:
#      x y z
#    x 3.399660 0.000000 0.062280 
#    y 0.000000 3.086660 0.000000 
#    z 0.062280 0.000000 3.517200 
# 
# 
# High freq. dielectric constant tensor:
#      x y z
#    x 1.722830 0.000000 -0.001060 
#    y 0.000000 1.724620 0.000000 
#    z -0.001060 0.000000 1.722230 
# 
# From -- ./inp_files/28605.got.cif
#   From: 2010.06.25/outbox.cif.g09.slc.cpg/sg11_15_cif.got.tgz:28605.got - 2010.06.27 23:14:04.
