data_PCOD8073924
_publ_section_title
;
Structure prediction by ZEFSAII (Michael W. Deem and Ramdas Pophale) SiO2 
 PCOD8073924
Probable space group: P 21/M
;
_chemical_formula_sum "Si O2"
_cell_formula_units_Z 32
_cell_length_a 12.625927
_cell_length_b 9.160621
_cell_length_c 14.048808
_cell_angle_alpha 90.000000
_cell_angle_beta 91.206274
_cell_angle_gamma 90.000000
_cell_volume 1624.543742
_symmetry_space_group_name_H-M "P 21/M"
_symmetry_group_IT_number 11
_symmetry_cell_setting 'monoclinic'
loop_
_space_group_symop_operation_xyz
x,y,z
-x,1/2+y,-z
-x,-y,-z
x,1/2-y,z
loop_
_atom_site_type_symbol
_atom_site_label
_atom_site_fract_x
_atom_site_fract_y
_atom_site_fract_z
Si Si1 0.299300 0.577874 0.564695
Si Si2 0.599507 0.575968 0.054660
Si Si3 0.104581 0.410811 0.509174
Si Si4 0.651288 0.086489 0.643378
Si Si5 0.823122 0.422321 0.018593
Si Si6 0.833446 0.592709 0.705131
Si Si7 0.028559 0.418704 0.125550
Si Si8 0.423102 0.085238 0.724403
O O1 0.285071 0.750000 0.568984
O O2 0.186046 0.501211 0.574682
O O3 0.353959 0.524640 0.465796
O O4 0.364202 0.529603 0.657464
O O5 0.597733 0.750000 0.034488
O O6 0.712234 0.508754 0.023876
O O7 0.588721 0.541686 0.166174
O O8 0.500000 0.500000 0.000000
O O9 0.086403 0.250000 0.553669
O O10 0.146615 0.395934 0.404741
O O11 0.000000 0.500000 0.500000
O O12 0.690721 0.250000 0.632340
O O13 0.543764 0.071477 0.697041
O O14 0.735271 0.014597 0.716756
O O15 0.798005 0.250000 0.007995
O O16 0.903213 0.454473 0.109362
O O17 0.891358 0.478013 0.930729
O O18 0.796512 0.750000 0.744031
O O19 0.940097 0.547736 0.764147
O O20 0.047356 0.250000 0.095985
O O21 0.381576 0.250000 0.705337
#
# Coordination Sequence:
#
# PCOD8073924 Si02
#       8
#     4   4   4   4   4   4   4   4
#     4  10  20  35  57  84 113 147 189 234 284 343
#     4  11  25  43  61  85 119 156 198 244 295 352
#     4  10  20  35  54  79 114 151 187 231 284 339
#     4   9  19  35  55  83 117 149 187 236 284 337
#     4  10  21  38  60  85 116 151 190 240 298 350
#     4   9  19  34  54  82 112 145 187 233 282 336
#     4   9  19  37  60  86 113 147 192 243 294 346
#     4  10  22  39  58  82 113 151 191 234 287 339
#
# _framework density 19.697838999999998
#
# number of rings (size 3 to 8) (size 9 to 14) (size 15 to 20)
#    0.000    2.250    0.000    1.875    1.750    4.500 
#    0.000    1.250    0.000    0.000    0.000    0.000 
#    0.000    0.000    0.000    0.000    0.000    0.000 
#
# Total GULP energy -396502.654427 kJ/mol
# GULP energy per Si atom -12390.707951 kJ/mol
# Density = 1.965301 g / cm^3
# Si number density = 19.697839 Si / 1000 Ang^3
#
#
#
# Elastic Constant Matrix: (Units=GPa)
#
#
# Indices 1 2 3 4 5 6 
#
# 1 109.0365 61.8254 30.4170 0.0000 13.5714 0.0000
# 2 61.8254 101.7387 27.6900 0.0000 9.0348 0.0000
# 3 30.4170 27.6900 54.6706 0.0000 19.3974 0.0000
# 4 0.0000 0.0000 0.0000 23.9779 0.0000 5.0708
# 5 13.5714 9.0348 19.3974 0.0000 33.0280 0.0000
# 6 0.0000 0.0000 0.0000 5.0708 0.0000 38.7920
#
#
#
# Elastic Compliance Matrix: (Units=1/GPa)
#
#
# Indices 1 2 3 4 5 6 
#
# 1 0.014891 -0.007897 -0.003639 0.000000 -0.001821 0.000000
# 2 -0.007897 0.015592 -0.003968 0.000000 0.001310 0.000000
# 3 -0.003639 -0.003968 0.027046 0.000000 -0.013303 0.000000
# 4 0.000000 0.000000 0.000000 0.042891 0.000000 -0.005607
# 5 -0.001821 0.001310 -0.013303 0.000000 0.038480 0.000000
# 6 0.000000 0.000000 0.000000 -0.005607 0.000000 0.026511
#
#
# Mechanical properties :
#
#
# Convention : Reuss Voigt Hill
#
# Bulk Modulus (GPa) = 37.70707 56.14563 46.92635
# Shear Modulus (GPa) = 24.35954 28.86048 26.61001
#
# Velocity S-wave (km/s) = 3.52043 3.83189 3.67946
# Velocity P-wave (km/s) = 5.97569 6.93853 6.47503
#
# Compressibility (1/GPa) = 0.02652023
#
# Stress axis : x y z
#
# Youngs Moduli (GPa) = 67.15652 64.13736 36.97416
#
# Poissons Ratio (x) = 0.50647 0.13454
# Poissons Ratio (y) = 0.53032 0.14673
# Poissons Ratio (z) = 0.24437 0.25452
#
# Static dielectric constant tensor:
#      x y z
#    x 3.502610 0.000000 0.247950 
#    y 0.000000 3.897010 0.000000 
#    z 0.247950 0.000000 3.560780 
# 
# 
# High freq. dielectric constant tensor:
#      x y z
#    x 1.770160 0.000000 0.015840 
#    y 0.000000 1.776020 0.000000 
#    z 0.015840 0.000000 1.759770 
# 
# From -- ./inp_files/49310.got.cif
#   From: 2010.06.25/outbox.cif.g09.slc.cpg/sg11_25_cif.got.tgz:49310.got - 2010.06.27 23:14:04.
