data_PCOD8073017
_publ_section_title
;
Structure prediction by ZEFSAII (Michael W. Deem and Ramdas Pophale) SiO2 
 PCOD8073017
Probable space group: P 21/M
;
_chemical_formula_sum "Si O2"
_cell_formula_units_Z 20
_cell_length_a 7.178330
_cell_length_b 9.007185
_cell_length_c 16.476911
_cell_angle_alpha 90.000000
_cell_angle_beta 90.779796
_cell_angle_gamma 90.000000
_cell_volume 1065.241493
_symmetry_space_group_name_H-M "P 21/M"
_symmetry_group_IT_number 11
_symmetry_cell_setting 'monoclinic'
loop_
_space_group_symop_operation_xyz
x,y,z
-x,1/2+y,-z
-x,-y,-z
x,1/2-y,z
loop_
_atom_site_type_symbol
_atom_site_label
_atom_site_fract_x
_atom_site_fract_y
_atom_site_fract_z
Si Si1 0.995658 0.577707 0.711210
Si Si2 0.300141 0.075677 0.009265
Si Si3 0.730418 0.075445 0.427161
Si Si4 0.310996 0.078982 0.413909
Si Si5 0.984200 0.423395 0.879654
O O1 0.028725 0.750000 0.734489
O O2 0.791233 0.552206 0.672153
O O3 0.021599 0.475920 0.789149
O O4 0.142037 0.519809 0.645455
O O5 0.330080 0.250000 0.022669
O O6 0.172143 0.040800 0.930524
O O7 0.500000 0.000000 0.000000
O O8 0.194748 0.010392 0.086977
O O9 0.750487 0.250000 0.436476
O O10 0.521570 0.022746 0.404487
O O11 0.792265 0.005800 0.513341
O O12 0.304094 0.250000 0.438574
O O13 0.937211 0.250000 0.881952
#
# Coordination Sequence:
#
# PCOD8073017 Si02
#       5
#     4   4   4   4   4
#     4  10  20  33  50  74 105 138 172 215 266 315
#     4  10  21  39  62  84 109 142 177 217 267 321
#     4   9  18  32  49  70  98 134 175 217 262 311
#     4   9  18  32  49  71  99 133 175 218 262 312
#     4  10  22  38  56  83 113 140 178 222 265 320
#
# _framework density 18.775086999999999
#
# number of rings (size 3 to 8) (size 9 to 14) (size 15 to 20)
#    0.000    2.400    0.000    1.800    0.000    5.600 
#    0.000    2.000    0.000    0.000    0.000    0.000 
#    0.000    0.000    0.000    0.000    0.000    0.000 
#
# Total GULP energy -248024.730473 kJ/mol
# GULP energy per Si atom -12401.236524 kJ/mol
# Density = 1.873235 g / cm^3
# Si number density = 18.775087 Si / 1000 Ang^3
#
#
#
# Elastic Constant Matrix: (Units=GPa)
#
#
# Indices 1 2 3 4 5 6 
#
# 1 90.9323 39.1636 30.0997 0.0000 -6.2455 0.0000
# 2 39.1636 70.6663 40.8668 0.0000 -2.4553 0.0000
# 3 30.0997 40.8668 105.4064 0.0000 0.6755 0.0000
# 4 0.0000 0.0000 0.0000 39.1350 0.0000 -2.0967
# 5 -6.2455 -2.4553 0.6755 0.0000 20.3976 0.0000
# 6 0.0000 0.0000 0.0000 -2.0967 0.0000 27.7392
#
#
#
# Elastic Compliance Matrix: (Units=1/GPa)
#
#
# Indices 1 2 3 4 5 6 
#
# 1 0.014864 -0.007270 -0.001450 0.000000 0.003724 0.000000
# 2 -0.007270 0.021918 -0.006426 0.000000 0.000625 0.000000
# 3 -0.001450 -0.006426 0.012403 0.000000 -0.001628 0.000000
# 4 0.000000 0.000000 0.000000 0.025656 0.000000 0.001939
# 5 0.003724 0.000625 -0.001628 0.000000 0.050295 0.000000
# 6 0.000000 0.000000 0.000000 0.001939 0.000000 0.036197
#
#
# Mechanical properties :
#
#
# Convention : Reuss Voigt Hill
#
# Bulk Modulus (GPa) = 52.92749 54.14059 53.53404
# Shear Modulus (GPa) = 25.26258 27.91268 26.58763
#
# Velocity S-wave (km/s) = 3.67214 3.85994 3.76721
# Velocity P-wave (km/s) = 6.79933 6.98316 6.89186
#
# Compressibility (1/GPa) = 0.01889377
#
# Stress axis : x y z
#
# Youngs Moduli (GPa) = 67.27694 45.62505 80.62671
#
# Poissons Ratio (x) = 0.33169 0.11689
# Poissons Ratio (y) = 0.48909 0.51809
# Poissons Ratio (z) = 0.09754 0.29317
#
# Static dielectric constant tensor:
#      x y z
#    x 3.686850 0.000000 -0.028040 
#    y 0.000000 3.404750 0.000000 
#    z -0.028040 0.000000 3.374210 
# 
# 
# High freq. dielectric constant tensor:
#      x y z
#    x 1.737350 0.000000 -0.000980 
#    y 0.000000 1.727230 0.000000 
#    z -0.000980 0.000000 1.724790 
# 
# From -- ./inp_files/46420.got.cif
#   From: 2010.06.25/outbox.cif.g09.slc.cpg/sg11_24_cif.got.tgz:46420.got - 2010.06.27 23:14:04.
