data_PCOD8073718
_publ_section_title
;
Structure prediction by ZEFSAII (Michael W. Deem and Ramdas Pophale) SiO2 
 PCOD8073718
Probable space group: P 21/M
;
_chemical_formula_sum "Si O2"
_cell_formula_units_Z 32
_cell_length_a 14.956520
_cell_length_b 9.070925
_cell_length_c 22.429556
_cell_angle_alpha 90.000000
_cell_angle_beta 32.140054
_cell_angle_gamma 90.000000
_cell_volume 1618.850743
_symmetry_space_group_name_H-M "P 21/M"
_symmetry_group_IT_number 11
_symmetry_cell_setting 'monoclinic'
loop_
_space_group_symop_operation_xyz
x,y,z
-x,1/2+y,-z
-x,-y,-z
x,1/2-y,z
loop_
_atom_site_type_symbol
_atom_site_label
_atom_site_fract_x
_atom_site_fract_y
_atom_site_fract_z
Si Si1 0.165025 0.420484 0.259046
Si Si2 0.473751 0.578124 0.143637
Si Si3 0.627841 0.581818 0.468176
Si Si4 0.626850 0.081047 0.295370
Si Si5 0.453072 0.423139 0.276562
Si Si6 0.111952 0.422446 0.768575
Si Si7 0.894337 0.078104 0.508381
Si Si8 0.186631 0.420219 0.111630
O O1 0.223526 0.250000 0.228749
O O2 0.299363 0.520573 0.216617
O O3 0.152480 0.475567 0.198123
O O4 0.986293 0.442090 0.392635
O O5 0.455746 0.750000 0.168913
O O6 0.518744 0.490477 0.178071
O O7 0.619715 0.548322 0.013303
O O8 0.500000 0.500000 0.500000
O O9 0.608028 0.750000 0.462293
O O10 0.564954 0.550507 0.570950
O O11 0.812977 0.535666 0.340200
O O12 0.677873 0.250000 0.278985
O O13 0.605645 0.049516 0.237214
O O14 0.771063 0.981786 0.243671
O O15 0.413447 0.250000 0.291755
O O16 0.286529 0.503883 0.393647
O O17 0.091110 0.250000 0.791073
O O18 0.928326 0.494540 0.871561
O O19 0.875364 0.250000 0.535177
O O20 0.000000 0.000000 0.500000
O O21 0.140749 0.250000 0.131224
#
# Coordination Sequence:
#
# PCOD8073718 Si02
#       8
#     4   4   4   4   4   4   4   4
#     4  10  22  40  62  87 118 153 192 238 292 353
#     4  11  23  40  62  85 114 153 197 246 294 346
#     4   8  15  29  48  74 106 140 178 219 272 330
#     4   9  19  36  57  80 114 157 193 234 287 348
#     4  11  23  38  60  87 119 159 199 239 290 351
#     4  10  20  34  56  86 116 149 192 244 290 340
#     4  11  22  37  59  89 123 157 191 237 293 349
#     4  10  23  41  60  85 116 154 197 241 294 349
#
# _framework density 19.767109999999999
#
# number of rings (size 3 to 8) (size 9 to 14) (size 15 to 20)
#    0.000    2.000    1.250    1.875    1.750    3.500 
#    0.000    0.625    0.000    0.000    0.000    0.000 
#    0.000    0.000    0.000    0.000    0.000    0.000 
#
# Total GULP energy -396587.029851 kJ/mol
# GULP energy per Si atom -12393.344683 kJ/mol
# Density = 1.972212 g / cm^3
# Si number density = 19.767110 Si / 1000 Ang^3
#
#
#
# Elastic Constant Matrix: (Units=GPa)
#
#
# Indices 1 2 3 4 5 6 
#
# 1 96.6555 40.6645 27.5723 0.0000 12.1072 0.0000
# 2 40.6645 84.5029 29.9770 0.0000 6.6080 0.0000
# 3 27.5723 29.9770 66.8879 0.0000 13.7726 0.0000
# 4 0.0000 0.0000 0.0000 29.2033 0.0000 -1.0316
# 5 12.1072 6.6080 13.7726 0.0000 25.9028 0.0000
# 6 0.0000 0.0000 0.0000 -1.0316 0.0000 24.7754
#
#
#
# Elastic Compliance Matrix: (Units=1/GPa)
#
#
# Indices 1 2 3 4 5 6 
#
# 1 0.013828 -0.005485 -0.002470 0.000000 -0.003751 0.000000
# 2 -0.005485 0.016248 -0.005273 0.000000 0.001222 0.000000
# 3 -0.002470 -0.005273 0.020007 0.000000 -0.008139 0.000000
# 4 0.000000 0.000000 0.000000 0.034293 0.000000 0.001428
# 5 -0.003751 0.001222 -0.008139 0.000000 0.044375 0.000000
# 6 0.000000 0.000000 0.000000 0.001428 0.000000 0.040422
#
#
# Mechanical properties :
#
#
# Convention : Reuss Voigt Hill
#
# Bulk Modulus (GPa) = 42.32061 49.38596 45.85328
# Shear Modulus (GPa) = 24.56958 25.96514 25.26736
#
# Velocity S-wave (km/s) = 3.52938 3.62823 3.57914
# Velocity P-wave (km/s) = 6.16967 6.52612 6.35039
#
# Compressibility (1/GPa) = 0.02362915
#
# Stress axis : x y z
#
# Youngs Moduli (GPa) = 72.31737 61.54525 49.98211
#
# Poissons Ratio (x) = 0.33757 0.12344
# Poissons Ratio (y) = 0.39665 0.26354
# Poissons Ratio (z) = 0.17860 0.32450
#
# Static dielectric constant tensor:
#      x y z
#    x 3.355700 0.000000 0.038070 
#    y 0.000000 3.649240 0.000000 
#    z 0.038070 0.000000 3.480690 
# 
# 
# High freq. dielectric constant tensor:
#      x y z
#    x 1.763400 0.000000 0.006470 
#    y 0.000000 1.776500 0.000000 
#    z 0.006470 0.000000 1.766360 
# 
# From -- ./inp_files/68962.got.cif
#   From: 2010.06.25/outbox.cif.g09.slc.cpg/sg11_35_cif.got.tgz:68962.got - 2010.06.27 23:14:04.
