data_PCOD8073593
_publ_section_title
;
Structure prediction by ZEFSAII (Michael W. Deem and Ramdas Pophale) SiO2 
 PCOD8073593
Probable space group: P 21/M
;
_chemical_formula_sum "Si O2"
_cell_formula_units_Z 32
_cell_length_a 13.046146
_cell_length_b 20.117721
_cell_length_c 9.411305
_cell_angle_alpha 90.000000
_cell_angle_beta 136.182535
_cell_angle_gamma 90.000000
_cell_volume 1710.191756
_symmetry_space_group_name_H-M "P 21/M"
_symmetry_group_IT_number 11
_symmetry_cell_setting 'monoclinic'
loop_
_space_group_symop_operation_xyz
x,y,z
-x,1/2+y,-z
-x,-y,-z
x,1/2-y,z
loop_
_atom_site_type_symbol
_atom_site_label
_atom_site_fract_x
_atom_site_fract_y
_atom_site_fract_z
Si Si1 0.828166 0.325678 0.715380
Si Si2 0.673201 0.826903 0.075237
Si Si3 0.174972 0.439988 0.268185
Si Si4 0.175438 0.934983 0.762406
Si Si5 0.326727 0.826907 0.728907
Si Si6 0.172057 0.325677 0.059427
Si Si7 0.825079 0.439975 0.918158
Si Si8 0.824591 0.565015 0.411421
O O1 0.792924 0.250000 0.722649
O O2 0.736634 0.348579 0.486956
O O3 0.779762 0.370365 0.800427
O O4 0.000120 0.336177 0.849777
O O5 0.710473 0.750000 0.142764
O O6 0.750253 0.869521 0.273915
O O7 0.499965 0.840921 0.902582
O O8 0.736321 0.848547 0.985771
O O9 0.220387 0.370388 0.241217
O O10 0.243263 0.500016 0.243356
O O11 0.237063 0.442741 0.490111
O O12 0.000023 0.448237 0.100211
O O13 0.249859 0.869525 0.773742
O O14 0.000015 0.924973 0.582212
O O15 0.224487 0.000003 0.724575
O O16 0.237055 0.942734 0.984186
O O17 0.289496 0.750000 0.721922
O O18 0.207245 0.250000 0.137217
#
# Coordination Sequence:
#
# PCOD8073593 Si02
#       8
#     4   4   4   4   4   4   4   4
#     4   9  17  31  52  75  98 128 168 212 256 302
#     4  10  21  36  53  75 105 140 175 211 254 305
#     4   9  17  30  50  76 103 129 163 210 258 303
#     4  10  20  34  55  81 106 135 172 213 258 308
#     4  10  21  36  53  75 105 140 175 211 254 305
#     4   9  17  31  52  75  98 128 168 212 256 302
#     4   9  17  30  50  76 103 129 163 210 258 303
#     4  10  20  34  55  81 106 135 172 213 258 308
#
# _framework density 18.711352000000002
#
# number of rings (size 3 to 8) (size 9 to 14) (size 15 to 20)
#    0.000    2.500    0.000    2.250    0.000    7.000 
#    0.000    3.750    0.000    6.000    0.000    0.000 
#    0.000    0.000    0.000    0.000    0.000    0.000 
#
# Total GULP energy -396858.790273 kJ/mol
# GULP energy per Si atom -12401.837196 kJ/mol
# Density = 1.866876 g / cm^3
# Si number density = 18.711352 Si / 1000 Ang^3
#
#
#
# Elastic Constant Matrix: (Units=GPa)
#
#
# Indices 1 2 3 4 5 6 
#
# 1 80.1651 63.6139 69.3951 0.0000 -37.0134 0.0000
# 2 63.6139 114.8785 65.3837 0.0000 -31.0852 0.0000
# 3 69.3951 65.3837 84.4701 0.0000 -38.8524 0.0000
# 4 0.0000 0.0000 0.0000 31.2427 0.0000 -10.1821
# 5 -37.0134 -31.0852 -38.8524 0.0000 37.7142 0.0000
# 6 0.0000 0.0000 0.0000 -10.1821 0.0000 30.6446
#
#
#
# Elastic Compliance Matrix: (Units=1/GPa)
#
#
# Indices 1 2 3 4 5 6 
#
# 1 0.049020 -0.007358 -0.028960 0.000000 0.012211 0.000000
# 2 -0.007358 0.016677 -0.007341 0.000000 -0.001039 0.000000
# 3 -0.028960 -0.007341 0.048382 0.000000 0.015369 0.000000
# 4 0.000000 0.000000 0.000000 0.035894 0.000000 0.011926
# 5 0.012211 -0.001039 0.015369 0.000000 0.053475 0.000000
# 6 0.000000 0.000000 0.000000 0.011926 0.000000 0.036595
#
#
# Mechanical properties :
#
#
# Convention : Reuss Voigt Hill
#
# Bulk Modulus (GPa) = 37.36971 75.14433 56.25702
# Shear Modulus (GPa) = 14.86846 25.32837 20.09841
#
# Velocity S-wave (km/s) = 2.82196 3.68317 3.28095
# Velocity P-wave (km/s) = 5.53471 7.63771 6.66962
#
# Compressibility (1/GPa) = 0.02675964
#
# Stress axis : x y z
#
# Youngs Moduli (GPa) = 20.39973 59.96396 20.66895
#
# Poissons Ratio (x) = 0.44122 0.59857
# Poissons Ratio (y) = 0.15010 0.15174
# Poissons Ratio (z) = 0.59078 0.44022
#
# Static dielectric constant tensor:
#      x y z
#    x 3.353770 0.000000 -0.244240 
#    y 0.000000 3.544370 0.000000 
#    z -0.244240 0.000000 3.367930 
# 
# 
# High freq. dielectric constant tensor:
#      x y z
#    x 1.710770 0.000000 -0.020270 
#    y 0.000000 1.738370 0.000000 
#    z -0.020270 0.000000 1.711950 
# 
# From -- ./inp_files/19362.got.cif
#   From: 2010.06.25/outbox.cif.g09.slc.cpg/sg11_10_cif.got.tgz:19362.got - 2010.06.27 23:14:04.
