data_PCOD8073836
_publ_section_title
;
Structure prediction by ZEFSAII (Michael W. Deem and Ramdas Pophale) SiO2 
 PCOD8073836
Probable space group: P 21/M
;
_chemical_formula_sum "Si O2"
_cell_formula_units_Z 28
_cell_length_a 15.790401
_cell_length_b 8.926940
_cell_length_c 11.899837
_cell_angle_alpha 90.000000
_cell_angle_beta 117.293560
_cell_angle_gamma 90.000000
_cell_volume 1490.653521
_symmetry_space_group_name_H-M "P 21/M"
_symmetry_group_IT_number 11
_symmetry_cell_setting 'monoclinic'
loop_
_space_group_symop_operation_xyz
x,y,z
-x,1/2+y,-z
-x,-y,-z
x,1/2-y,z
loop_
_atom_site_type_symbol
_atom_site_label
_atom_site_fract_x
_atom_site_fract_y
_atom_site_fract_z
Si Si1 0.909806 0.424272 0.304186
Si Si2 0.759190 0.928072 0.073884
Si Si3 0.875839 0.575006 0.514124
Si Si4 0.705383 0.573038 0.566360
Si Si5 0.668551 0.927410 0.790560
Si Si6 0.454255 0.577718 0.668578
Si Si7 0.592706 0.423505 0.106076
O O1 0.885675 0.250000 0.281182
O O2 0.863119 0.509317 0.169902
O O3 0.865044 0.484493 0.392615
O O4 0.022220 0.456403 0.366923
O O5 0.758680 0.750000 0.080444
O O6 0.685163 0.992346 0.118378
O O7 0.732359 0.987107 0.932896
O O8 0.863199 0.750000 0.478793
O O9 0.796202 0.514099 0.551805
O O10 0.700218 0.750000 0.556319
O O11 0.716062 0.520302 0.702389
O O12 0.606616 0.511041 0.459453
O O13 0.663111 0.750000 0.796059
O O14 0.560984 0.990453 0.735643
O O15 0.456886 0.750000 0.632815
O O16 0.405802 0.558003 0.759583
O O17 0.593817 0.250000 0.070965
O O18 0.500000 0.500000 0.000000
#
# Coordination Sequence:
#
# PCOD8073836 Si02
#       7
#     4   4   4   4   4   4   4
#     4  10  20  35  56  82 109 136 170 219 273 322
#     4  11  21  36  55  77 108 145 180 215 262 320
#     4   9  19  36  57  81 107 135 173 220 270 322
#     4  10  20  35  56  78 100 136 182 222 261 312
#     4   9  19  36  53  72 105 144 179 215 261 313
#     4  10  20  35  52  75 107 140 173 216 265 311
#     4  11  21  34  53  78 109 141 175 217 263 311
#
# _framework density 18.783707
#
# number of rings (size 3 to 8) (size 9 to 14) (size 15 to 20)
#    0.000    2.000    1.429    2.571    0.000    4.571 
#    0.000    2.143    0.000    0.000    0.000    0.000 
#    0.000    0.000    0.000    0.000    0.000    0.000 
#
# Total GULP energy -347254.630295 kJ/mol
# GULP energy per Si atom -12401.951082 kJ/mol
# Density = 1.874095 g / cm^3
# Si number density = 18.783707 Si / 1000 Ang^3
#
#
#
# Elastic Constant Matrix: (Units=GPa)
#
#
# Indices 1 2 3 4 5 6 
#
# 1 90.9603 25.0732 64.1611 0.0000 -3.7642 0.0000
# 2 25.0732 56.4718 43.9152 0.0000 0.7627 0.0000
# 3 64.1611 43.9152 148.6660 0.0000 4.1191 0.0000
# 4 0.0000 0.0000 0.0000 32.1190 0.0000 6.1574
# 5 -3.7642 0.7627 4.1191 0.0000 27.1753 0.0000
# 6 0.0000 0.0000 0.0000 6.1574 0.0000 23.4120
#
#
#
# Elastic Compliance Matrix: (Units=1/GPa)
#
#
# Indices 1 2 3 4 5 6 
#
# 1 0.016313 -0.002261 -0.006464 0.000000 0.003303 0.000000
# 2 -0.002261 0.023306 -0.005907 0.000000 -0.000072 0.000000
# 3 -0.006464 -0.005907 0.011329 0.000000 -0.002447 0.000000
# 4 0.000000 0.000000 0.000000 0.032787 0.000000 -0.008623
# 5 0.003303 -0.000072 -0.002447 0.000000 0.037629 0.000000
# 6 0.000000 0.000000 0.000000 -0.008623 0.000000 0.044981
#
#
# Mechanical properties :
#
#
# Convention : Reuss Voigt Hill
#
# Bulk Modulus (GPa) = 46.11517 62.48856 54.30186
# Shear Modulus (GPa) = 24.65031 27.40450 26.02740
#
# Velocity S-wave (km/s) = 3.62653 3.82376 3.72645
# Velocity P-wave (km/s) = 6.49150 7.26874 6.89109
#
# Compressibility (1/GPa) = 0.02168484
#
# Stress axis : x y z
#
# Youngs Moduli (GPa) = 61.29952 42.90712 88.26959
#
# Poissons Ratio (x) = 0.09700 0.57059
# Poissons Ratio (y) = 0.13859 0.52139
# Poissons Ratio (z) = 0.39625 0.25344
#
# Static dielectric constant tensor:
#      x y z
#    x 3.502900 0.000000 -0.074990 
#    y 0.000000 3.337820 0.000000 
#    z -0.074990 0.000000 3.595160 
# 
# 
# High freq. dielectric constant tensor:
#      x y z
#    x 1.723780 0.000000 0.004050 
#    y 0.000000 1.717610 0.000000 
#    z 0.004050 0.000000 1.737480 
# 
# From -- ./inp_files/38434.got.cif
#   From: 2010.06.25/outbox.cif.g09.slc.cpg/sg11_20_cif.got.tgz:38434.got - 2010.06.27 23:14:04.
