data_PCOD8073093
_publ_section_title
;
Structure prediction by ZEFSAII (Michael W. Deem and Ramdas Pophale) SiO2 
 PCOD8073093
Probable space group: P 21/M
;
_chemical_formula_sum "Si O2"
_cell_formula_units_Z 32
_cell_length_a 27.722146
_cell_length_b 9.006218
_cell_length_c 21.903733
_cell_angle_alpha 90.000000
_cell_angle_beta 161.201128
_cell_angle_gamma 90.000000
_cell_volume 1762.286035
_symmetry_space_group_name_H-M "P 21/M"
_symmetry_group_IT_number 11
_symmetry_cell_setting 'monoclinic'
loop_
_space_group_symop_operation_xyz
x,y,z
-x,1/2+y,-z
-x,-y,-z
x,1/2-y,z
loop_
_atom_site_type_symbol
_atom_site_label
_atom_site_fract_x
_atom_site_fract_y
_atom_site_fract_z
Si Si1 0.289724 0.920695 0.719412
Si Si2 0.964548 0.922701 0.284215
Si Si3 0.695906 0.074284 0.024075
Si Si4 0.189745 0.419102 0.023664
Si Si5 0.526041 0.921406 0.714551
Si Si6 0.078404 0.575908 0.006455
Si Si7 0.399587 0.421778 0.967577
Si Si8 0.202558 0.575304 0.284549
O O1 0.289712 0.750000 0.741794
O O2 0.424276 0.948141 0.833205
O O3 0.136920 0.962327 0.501956
O O4 0.304803 0.027343 0.795413
O O5 0.928281 0.750000 0.251887
O O6 0.926312 0.964910 0.168671
O O7 0.861151 0.014364 0.206649
O O8 0.699413 0.250000 0.026759
O O9 0.573197 0.016846 0.829246
O O10 0.649748 0.020895 0.035310
O O11 0.162127 0.250000 0.011247
O O12 0.169564 0.525897 0.056651
O O13 0.358090 0.442162 0.201807
O O14 0.519690 0.750000 0.727611
O O15 0.366850 0.979765 0.500084
O O16 0.054861 0.750000 0.976263
O O17 0.915575 0.500603 0.811672
O O18 0.171820 0.526249 0.178045
O O19 0.364148 0.250000 0.938296
O O20 0.186310 0.750000 0.272961
#
# Coordination Sequence:
#
# PCOD8073093 Si02
#       8
#     4   4   4   4   4   4   4   4
#     4   9  19  36  57  79 102 133 176 220 256 297
#     4   9  19  37  57  76 102 137 176 214 255 306
#     4  11  22  35  53  79 108 136 170 213 259 306
#     4   9  18  33  53  76 102 135 172 211 258 310
#     4   9  19  37  57  75  99 135 177 215 255 306
#     4  10  20  33  51  78 108 136 170 213 258 304
#     4  10  20  35  55  79 108 140 171 208 258 311
#     4   9  19  36  55  74 101 138 176 213 255 305
#
# _framework density 18.158232000000002
#
# number of rings (size 3 to 8) (size 9 to 14) (size 15 to 20)
#    0.000    2.500    0.000    2.625    0.000    6.000 
#    0.000    2.500    0.000    0.000    0.000    0.000 
#    0.000    0.000    0.000    0.000    0.000    0.000 
#
# Total GULP energy -396898.439844 kJ/mol
# GULP energy per Si atom -12403.076245 kJ/mol
# Density = 1.811690 g / cm^3
# Si number density = 18.158232 Si / 1000 Ang^3
#
#
#
# Elastic Constant Matrix: (Units=GPa)
#
#
# Indices 1 2 3 4 5 6 
#
# 1 50.5047 15.2813 -17.5114 0.0000 -1.6186 0.0000
# 2 15.2813 56.3269 7.6407 0.0000 -0.5497 0.0000
# 3 -17.5114 7.6407 67.1944 0.0000 3.3426 0.0000
# 4 0.0000 0.0000 0.0000 23.4386 0.0000 -2.7277
# 5 -1.6186 -0.5497 3.3426 0.0000 13.0292 0.0000
# 6 0.0000 0.0000 0.0000 -2.7277 0.0000 35.6929
#
#
#
# Elastic Compliance Matrix: (Units=1/GPa)
#
#
# Indices 1 2 3 4 5 6 
#
# 1 0.024664 -0.007667 0.007256 0.000000 0.000879 0.000000
# 2 -0.007667 0.020437 -0.004373 0.000000 0.001032 0.000000
# 3 0.007256 -0.004373 0.017458 0.000000 -0.003762 0.000000
# 4 0.000000 0.000000 0.000000 0.043048 0.000000 0.003290
# 5 0.000879 0.001032 -0.003762 0.000000 0.077869 0.000000
# 6 0.000000 0.000000 0.000000 0.003290 0.000000 0.028268
#
#
# Mechanical properties :
#
#
# Convention : Reuss Voigt Hill
#
# Bulk Modulus (GPa) = 18.87175 20.53857 19.70516
# Shear Modulus (GPa) = 20.92272 25.67315 23.29793
#
# Velocity S-wave (km/s) = 3.39815 3.76421 3.58586
# Velocity P-wave (km/s) = 5.08056 5.49798 5.29339
#
# Compressibility (1/GPa) = 0.05298925
#
# Stress axis : x y z
#
# Youngs Moduli (GPa) = 40.54520 48.93132 57.28193
#
# Poissons Ratio (x) = 0.37515 -0.41562
# Poissons Ratio (y) = 0.31086 0.25051
# Poissons Ratio (z) = -0.29418 0.21399
#
# Static dielectric constant tensor:
#      x y z
#    x 3.264690 0.000000 0.006200 
#    y 0.000000 3.303740 0.000000 
#    z 0.006200 0.000000 3.501570 
# 
# 
# High freq. dielectric constant tensor:
#      x y z
#    x 1.701760 0.000000 0.002260 
#    y 0.000000 1.701920 0.000000 
#    z 0.002260 0.000000 1.706640 
# 
# From -- ./inp_files/67177.got.cif
#   From: 2010.06.25/outbox.cif.g09.slc.cpg/sg11_34_cif.got.tgz:67177.got - 2010.06.27 23:14:04.
