data_PCOD8073922
_publ_section_title
;
Structure prediction by ZEFSAII (Michael W. Deem and Ramdas Pophale) SiO2 
 PCOD8073922
Probable space group: P 21/M
;
_chemical_formula_sum "Si O2"
_cell_formula_units_Z 32
_cell_length_a 27.789221
_cell_length_b 8.904403
_cell_length_c 22.725686
_cell_angle_alpha 90.000000
_cell_angle_beta 162.240074
_cell_angle_gamma 90.000000
_cell_volume 1715.298563
_symmetry_space_group_name_H-M "P 21/M"
_symmetry_group_IT_number 11
_symmetry_cell_setting 'monoclinic'
loop_
_space_group_symop_operation_xyz
x,y,z
-x,1/2+y,-z
-x,-y,-z
x,1/2-y,z
loop_
_atom_site_type_symbol
_atom_site_label
_atom_site_fract_x
_atom_site_fract_y
_atom_site_fract_z
Si Si1 0.357764 0.928400 0.799253
Si Si2 0.612639 0.080475 0.799245
Si Si3 0.847443 0.571579 0.794256
Si Si4 0.467879 0.570967 0.525169
Si Si5 0.723432 0.584390 0.529709
Si Si6 0.972375 0.072786 0.530478
Si Si7 0.265949 0.072442 0.950364
Si Si8 0.590400 0.426247 0.271128
O O1 0.374255 0.750000 0.820423
O O2 0.193676 0.982281 0.636531
O O3 0.366190 0.990636 0.742345
O O4 0.500000 0.000000 0.000000
O O5 0.667562 0.250000 0.848957
O O6 0.442743 0.079175 0.631067
O O7 0.603218 0.985707 0.727980
O O8 0.736484 0.004549 0.988336
O O9 0.834612 0.750000 0.791570
O O10 0.701920 0.485999 0.653038
O O11 0.852603 0.539880 0.729592
O O12 0.000000 0.500000 0.000000
O O13 0.500000 0.500000 0.500000
O O14 0.471330 0.750000 0.526195
O O15 0.757892 0.750000 0.545231
O O16 0.722923 0.475651 0.472799
O O17 0.976565 0.250000 0.527225
O O18 0.109723 0.020012 0.734534
O O19 0.000000 0.000000 0.500000
O O20 0.272149 0.250000 0.967034
O O21 0.416914 0.016426 0.088261
O O22 0.593321 0.250000 0.272040
#
# Coordination Sequence:
#
# PCOD8073922 Si02
#       8
#     4   4   4   4   4   4   4   4
#     4  10  21  36  53  76 104 136 171 211 256 306
#     4   9  17  31  51  76 103 133 173 219 263 315
#     4  10  20  35  54  79 109 143 182 224 270 321
#     4  11  21  35  55  79 108 143 182 225 270 320
#     4   8  16  30  49  73 101 131 169 214 258 306
#     4  10  21  36  54  76 105 138 175 216 261 312
#     4   9  17  31  51  74  99 131 169 212 261 315
#     4   9  17  30  50  73  97 127 167 209 255 309
#
# _framework density 18.655645
#
# number of rings (size 3 to 8) (size 9 to 14) (size 15 to 20)
#    0.000    2.500    0.000    3.375    0.000    6.000 
#    0.000    3.750    0.000    4.500    0.000    0.000 
#    0.000    0.000    0.000    0.000    0.000    0.000 
#
# Total GULP energy -396719.177051 kJ/mol
# GULP energy per Si atom -12397.474283 kJ/mol
# Density = 1.861318 g / cm^3
# Si number density = 18.655645 Si / 1000 Ang^3
#
#
#
# Elastic Constant Matrix: (Units=GPa)
#
#
# Indices 1 2 3 4 5 6 
#
# 1 136.5130 52.0057 73.2709 0.0000 -27.5556 0.0000
# 2 52.0057 77.9774 47.3641 0.0000 -13.6710 0.0000
# 3 73.2709 47.3641 143.8101 0.0000 -28.6927 0.0000
# 4 0.0000 0.0000 0.0000 31.4026 0.0000 -8.5909
# 5 -27.5556 -13.6710 -28.6927 0.0000 33.1100 0.0000
# 6 0.0000 0.0000 0.0000 -8.5909 0.0000 30.5739
#
#
#
# Elastic Compliance Matrix: (Units=1/GPa)
#
#
# Indices 1 2 3 4 5 6 
#
# 1 0.012162 -0.005099 -0.003528 0.000000 0.004960 0.000000
# 2 -0.005099 0.018338 -0.003358 0.000000 0.000418 0.000000
# 3 -0.003528 -0.003358 0.010875 0.000000 0.005101 0.000000
# 4 0.000000 0.000000 0.000000 0.034496 0.000000 0.009693
# 5 0.004960 0.000418 0.005101 0.000000 0.038923 0.000000
# 6 0.000000 0.000000 0.000000 0.009693 0.000000 0.035431
#
#
# Mechanical properties :
#
#
# Convention : Reuss Voigt Hill
#
# Bulk Modulus (GPa) = 57.45521 78.17576 67.81549
# Shear Modulus (GPa) = 27.77797 31.39460 29.58628
#
# Velocity S-wave (km/s) = 3.86292 4.10670 3.98668
# Velocity P-wave (km/s) = 7.12467 8.03008 7.59089
#
# Compressibility (1/GPa) = 0.01740486
#
# Stress axis : x y z
#
# Youngs Moduli (GPa) = 82.21994 54.53100 91.95465
#
# Poissons Ratio (x) = 0.27807 0.32440
# Poissons Ratio (y) = 0.41926 0.30881
# Poissons Ratio (z) = 0.29006 0.18313
#
# Static dielectric constant tensor:
#      x y z
#    x 3.472680 0.000000 -0.371440 
#    y 0.000000 3.486480 0.000000 
#    z -0.371440 0.000000 3.480710 
# 
# 
# High freq. dielectric constant tensor:
#      x y z
#    x 1.716950 0.000000 -0.026910 
#    y 0.000000 1.722200 0.000000 
#    z -0.026910 0.000000 1.720650 
# 
# From -- ./inp_files/67225.got.cif
#   From: 2010.06.25/outbox.cif.g09.slc.cpg/sg11_34_cif.got.tgz:67225.got - 2010.06.27 23:14:04.
