data_PCOD8073058
_publ_section_title
;
Structure prediction by ZEFSAII (Michael W. Deem and Ramdas Pophale) SiO2 
 PCOD8073058
Probable space group: P 21/M
;
_chemical_formula_sum "Si O2"
_cell_formula_units_Z 32
_cell_length_a 23.811046
_cell_length_b 9.452138
_cell_length_c 15.093290
_cell_angle_alpha 90.000000
_cell_angle_beta 150.391265
_cell_angle_gamma 90.000000
_cell_volume 1678.358812
_symmetry_space_group_name_H-M "P 21/M"
_symmetry_group_IT_number 11
_symmetry_cell_setting 'monoclinic'
loop_
_space_group_symop_operation_xyz
x,y,z
-x,1/2+y,-z
-x,-y,-z
x,1/2-y,z
loop_
_atom_site_type_symbol
_atom_site_label
_atom_site_fract_x
_atom_site_fract_y
_atom_site_fract_z
Si Si1 0.934989 0.402671 0.976315
Si Si2 0.315742 0.596260 0.401489
Si Si3 0.224835 0.083841 0.956915
Si Si4 0.030598 0.583622 0.778884
Si Si5 0.401755 0.916405 0.711078
Si Si6 0.385188 0.414477 0.341708
Si Si7 0.232153 0.415610 0.604704
Si Si8 0.342254 0.415855 0.939323
O O1 0.997382 0.250000 0.068984
O O2 0.928252 0.464120 0.066765
O O3 0.816418 0.380828 0.765009
O O4 0.000000 0.500000 0.000000
O O5 0.368133 0.750000 0.442211
O O6 0.375211 0.548751 0.572973
O O7 0.319426 0.470187 0.336652
O O8 0.196193 0.250000 0.911685
O O9 0.280731 0.023814 0.942936
O O10 0.315356 0.051362 0.157736
O O11 0.107174 0.001336 0.813364
O O12 0.049528 0.750000 0.788047
O O13 0.898866 0.540587 0.587516
O O14 0.389978 0.750000 0.715959
O O15 0.313135 0.999103 0.650177
O O16 0.530007 0.974653 0.901995
O O17 0.500000 0.500000 0.500000
O O18 0.409926 0.250000 0.385999
O O19 0.250645 0.250000 0.611406
O O20 0.264960 0.455870 0.749870
O O21 0.355021 0.250000 0.971302
#
# Coordination Sequence:
#
# PCOD8073058 Si02
#       8
#     4   4   4   4   4   4   4   4
#     4  10  20  33  51  75 108 143 178 223 270 322
#     4  10  20  35  54  78 109 146 181 219 272 326
#     4  10  21  38  59  82 111 150 193 232 274 335
#     4  10  21  37  55  80 115 150 184 232 285 329
#     4  10  20  36  59  84 113 146 186 236 284 337
#     4  11  22  35  55  82 111 146 184 226 272 327
#     4  10  21  37  58  82 112 149 187 232 288 340
#     4   9  19  37  58  81 111 147 186 235 289 334
#
# _framework density 19.066246
#
# number of rings (size 3 to 8) (size 9 to 14) (size 15 to 20)
#    0.000    2.000    1.250    2.250    0.000    5.000 
#    0.000    1.250    0.000    0.000    0.000    0.000 
#    0.000    0.000    0.000    0.000    0.000    0.000 
#
# Total GULP energy -396693.368597 kJ/mol
# GULP energy per Si atom -12396.667769 kJ/mol
# Density = 1.902285 g / cm^3
# Si number density = 19.066246 Si / 1000 Ang^3
#
#
#
# Elastic Constant Matrix: (Units=GPa)
#
#
# Indices 1 2 3 4 5 6 
#
# 1 107.6137 53.1789 38.3181 0.0000 12.4208 0.0000
# 2 53.1789 65.3765 33.6643 0.0000 5.9782 0.0000
# 3 38.3181 33.6643 107.9878 0.0000 7.1985 0.0000
# 4 0.0000 0.0000 0.0000 19.7534 0.0000 4.6593
# 5 12.4208 5.9782 7.1985 0.0000 33.8427 0.0000
# 6 0.0000 0.0000 0.0000 4.6593 0.0000 36.1073
#
#
#
# Elastic Compliance Matrix: (Units=1/GPa)
#
#
# Indices 1 2 3 4 5 6 
#
# 1 0.016252 -0.011974 -0.001803 0.000000 -0.003466 0.000000
# 2 -0.011974 0.027184 -0.004259 0.000000 0.000499 0.000000
# 3 -0.001803 -0.004259 0.011293 0.000000 -0.000988 0.000000
# 4 0.000000 0.000000 0.000000 0.052213 0.000000 -0.006738
# 5 -0.003466 0.000499 -0.000988 0.000000 0.030943 0.000000
# 6 0.000000 0.000000 0.000000 -0.006738 0.000000 0.028565
#
#
# Mechanical properties :
#
#
# Convention : Reuss Voigt Hill
#
# Bulk Modulus (GPa) = 53.59811 59.03341 56.31576
# Shear Modulus (GPa) = 23.95325 28.32846 26.14086
#
# Velocity S-wave (km/s) = 3.54830 3.85878 3.70679
# Velocity P-wave (km/s) = 6.70521 7.13323 6.92253
#
# Compressibility (1/GPa) = 0.01865737
#
# Stress axis : x y z
#
# Youngs Moduli (GPa) = 61.53169 36.78697 88.54702
#
# Poissons Ratio (x) = 0.44050 0.15963
# Poissons Ratio (y) = 0.73680 0.37708
# Poissons Ratio (z) = 0.11093 0.15666
#
# Static dielectric constant tensor:
#      x y z
#    x 3.809190 0.000000 -0.375200 
#    y 0.000000 4.311830 0.000000 
#    z -0.375200 0.000000 3.940100 
# 
# 
# High freq. dielectric constant tensor:
#      x y z
#    x 1.743450 0.000000 0.001040 
#    y 0.000000 1.724430 0.000000 
#    z 0.001040 0.000000 1.753950 
# 
# From -- ./inp_files/51726.got.cif
#   From: 2010.06.25/outbox.cif.g09.slc.cpg/sg11_26_cif.got.tgz:51726.got - 2010.06.27 23:14:04.
