data_PCOD8073668
_publ_section_title
;
Structure prediction by ZEFSAII (Michael W. Deem and Ramdas Pophale) SiO2 
 PCOD8073668
Probable space group: P 21/M
;
_chemical_formula_sum "Si O2"
_cell_formula_units_Z 28
_cell_length_a 13.396694
_cell_length_b 8.809398
_cell_length_c 19.496634
_cell_angle_alpha 90.000000
_cell_angle_beta 35.868169
_cell_angle_gamma 90.000000
_cell_volume 1348.166381
_symmetry_space_group_name_H-M "P 21/M"
_symmetry_group_IT_number 11
_symmetry_cell_setting 'monoclinic'
loop_
_space_group_symop_operation_xyz
x,y,z
-x,1/2+y,-z
-x,-y,-z
x,1/2-y,z
loop_
_atom_site_type_symbol
_atom_site_label
_atom_site_fract_x
_atom_site_fract_y
_atom_site_fract_z
Si Si1 0.003082 0.928818 0.180307
Si Si2 0.142267 0.069779 0.970475
Si Si3 0.166798 0.427993 0.372808
Si Si4 0.942141 0.427078 0.693212
Si Si5 0.328770 0.585341 0.611577
Si Si6 0.274586 0.915452 0.489281
Si Si7 0.504306 0.071564 0.269784
O O1 0.012608 0.750000 0.162475
O O2 0.067844 0.971975 0.220795
O O3 0.808391 0.981150 0.272682
O O4 0.120508 0.015418 0.060823
O O5 0.129575 0.250000 0.973141
O O6 0.328564 0.015233 0.846115
O O7 0.000000 0.000000 0.000000
O O8 0.141161 0.250000 0.386207
O O9 0.195008 0.486107 0.278123
O O10 0.341394 0.473401 0.314155
O O11 0.000000 0.500000 0.500000
O O12 0.915479 0.250000 0.699692
O O13 0.120048 0.472099 0.556877
O O14 0.500000 0.500000 0.500000
O O15 0.355622 0.750000 0.634012
O O16 0.249999 0.618984 0.582057
O O17 0.265085 0.750000 0.456673
O O18 0.452047 0.004403 0.373738
O O19 0.541046 0.250000 0.251733
#
# Coordination Sequence:
#
# PCOD8073668 Si02
#       7
#     4   4   4   4   4   4   4
#     4  10  22  42  64  88 122 161 208 260 312 374
#     4  12  27  47  70  92 121 165 214 265 318 376
#     4  11  22  36  61  95 133 169 207 257 315 380
#     4  10  20  36  61  92 127 166 203 249 311 372
#     4  10  21  35  55  85 119 156 202 254 314 375
#     4  10  20  34  55  85 122 162 203 251 307 370
#     4  11  24  41  62  91 127 166 212 262 313 373
#
# _framework density 20.768948999999999
#
# number of rings (size 3 to 8) (size 9 to 14) (size 15 to 20)
#    0.000    1.429    1.429    3.857    2.000    5.143 
#    0.000    0.714    0.000    0.000    0.000    0.000 
#    0.000    0.000    0.000    0.000    0.000    0.000 
#
# Total GULP energy -346975.869584 kJ/mol
# GULP energy per Si atom -12391.995342 kJ/mol
# Density = 2.072168 g / cm^3
# Si number density = 20.768949 Si / 1000 Ang^3
#
#
#
# Elastic Constant Matrix: (Units=GPa)
#
#
# Indices 1 2 3 4 5 6 
#
# 1 59.6730 38.7678 34.8579 0.0000 -4.0591 0.0000
# 2 38.7678 145.2314 47.9866 0.0000 -0.0939 0.0000
# 3 34.8579 47.9866 119.3903 0.0000 1.7889 0.0000
# 4 0.0000 0.0000 0.0000 38.4485 0.0000 -0.4893
# 5 -4.0591 -0.0939 1.7889 0.0000 26.7172 0.0000
# 6 0.0000 0.0000 0.0000 -0.4893 0.0000 34.0896
#
#
#
# Elastic Compliance Matrix: (Units=1/GPa)
#
#
# Indices 1 2 3 4 5 6 
#
# 1 0.022781 -0.004454 -0.004918 0.000000 0.003775 0.000000
# 2 -0.004454 0.008812 -0.002234 0.000000 -0.000496 0.000000
# 3 -0.004918 -0.002234 0.010732 0.000000 -0.001474 0.000000
# 4 0.000000 0.000000 0.000000 0.026014 0.000000 0.000373
# 5 0.003775 -0.000496 -0.001474 0.000000 0.038099 0.000000
# 6 0.000000 0.000000 0.000000 0.000373 0.000000 0.029340
#
#
# Mechanical properties :
#
#
# Convention : Reuss Voigt Hill
#
# Bulk Modulus (GPa) = 52.31845 63.05772 57.68809
# Shear Modulus (GPa) = 30.23699 33.36322 31.80010
#
# Velocity S-wave (km/s) = 3.81973 4.01234 3.91722
# Velocity P-wave (km/s) = 6.68575 7.20365 6.94953
#
# Compressibility (1/GPa) = 0.01911372
#
# Stress axis : x y z
#
# Youngs Moduli (GPa) = 43.89635 113.47746 93.18142
#
# Poissons Ratio (x) = 0.50540 0.45824
# Poissons Ratio (y) = 0.19550 0.20818
# Poissons Ratio (z) = 0.21587 0.25353
#
# Static dielectric constant tensor:
#      x y z
#    x 4.302480 0.000000 0.177070 
#    y 0.000000 3.682560 0.000000 
#    z 0.177070 0.000000 3.659180 
# 
# 
# High freq. dielectric constant tensor:
#      x y z
#    x 1.817420 0.000000 0.010060 
#    y 0.000000 1.833020 0.000000 
#    z 0.010060 0.000000 1.792750 
# 
# From -- ./inp_files/54632.got.cif
#   From: 2010.06.25/outbox.cif.g09.slc.cpg/sg11_28_cif.got.tgz:54632.got - 2010.06.27 23:14:04.
