data_PCOD8073844
_publ_section_title
;
Structure prediction by ZEFSAII (Michael W. Deem and Ramdas Pophale) SiO2 
 PCOD8073844
Probable space group: P 21/M
;
_chemical_formula_sum "Si O2"
_cell_formula_units_Z 32
_cell_length_a 10.951265
_cell_length_b 13.660081
_cell_length_c 9.762899
_cell_angle_alpha 90.000000
_cell_angle_beta 89.089252
_cell_angle_gamma 90.000000
_cell_volume 1460.298001
_symmetry_space_group_name_H-M "P 21/M"
_symmetry_group_IT_number 11
_symmetry_cell_setting 'monoclinic'
loop_
_space_group_symop_operation_xyz
x,y,z
-x,1/2+y,-z
-x,-y,-z
x,1/2-y,z
loop_
_atom_site_type_symbol
_atom_site_label
_atom_site_fract_x
_atom_site_fract_y
_atom_site_fract_z
Si Si1 0.772646 0.028366 0.130506
Si Si2 0.429969 0.365969 0.500060
Si Si3 0.469942 0.638770 0.788833
Si Si4 0.419942 0.864816 0.243227
Si Si5 0.626815 0.639101 0.042311
Si Si6 0.945315 0.363472 0.597299
Si Si7 0.830436 0.137326 0.874036
Si Si8 0.181347 0.020814 0.569282
O O1 0.644911 0.084733 0.145415
O O2 0.835740 0.020201 0.276453
O O3 0.858136 0.083088 0.017368
O O4 0.749807 0.920851 0.067606
O O5 0.397501 0.250000 0.497546
O O6 0.481844 0.405792 0.355035
O O7 0.540405 0.389189 0.602517
O O8 0.310582 0.427104 0.544265
O O9 0.428301 0.750000 0.766075
O O10 0.586018 0.632456 0.886358
O O11 0.412689 0.750000 0.220387
O O12 0.289528 0.908223 0.199980
O O13 0.521943 0.908448 0.140137
O O14 0.655036 0.750000 0.086437
O O15 0.923663 0.250000 0.557520
O O16 0.939623 0.376493 0.762762
O O17 0.837695 0.427363 0.528968
O O18 0.076798 0.398697 0.541891
O O19 0.810817 0.250000 0.911897
#
# Coordination Sequence:
#
# PCOD8073844 Si02
#       8
#     4   4   4   4   4   4   4   4
#     4  12  23  35  62  92 125 159 200 257 299 359
#     4  10  21  37  61  92 131 166 201 249 296 361
#     4  10  22  36  54  90 133 168 200 241 303 365
#     4   9  17  33  56  87 124 162 199 234 290 362
#     4  10  20  35  52  83 128 171 203 234 294 364
#     4  10  25  48  68  85 116 160 207 260 311 362
#     4  10  22  40  64  90 123 164 200 243 302 366
#     4  11  25  42  65  94 117 156 212 257 307 359
#
# _framework density 21.913336999999999
#
# number of rings (size 3 to 8) (size 9 to 14) (size 15 to 20)
#    0.000    1.750    2.500    1.125    3.500    2.500 
#    0.000    0.000    0.000    0.000    0.000    0.000 
#    0.000    0.000    0.000    0.000    0.000    0.000 
#
# Total GULP energy -396767.703128 kJ/mol
# GULP energy per Si atom -12398.990723 kJ/mol
# Density = 2.186346 g / cm^3
# Si number density = 21.913337 Si / 1000 Ang^3
#
#
#
# Elastic Constant Matrix: (Units=GPa)
#
#
# Indices 1 2 3 4 5 6 
#
# 1 26.3443 13.7777 -2.8812 0.0000 -4.8342 0.0000
# 2 13.7777 77.9613 21.2612 0.0000 -9.1718 0.0000
# 3 -2.8812 21.2612 130.1875 0.0000 -3.8099 0.0000
# 4 0.0000 0.0000 0.0000 30.9301 0.0000 -0.0770
# 5 -4.8342 -9.1718 -3.8099 0.0000 23.3993 0.0000
# 6 0.0000 0.0000 0.0000 -0.0770 0.0000 17.0751
#
#
#
# Elastic Compliance Matrix: (Units=1/GPa)
#
#
# Indices 1 2 3 4 5 6 
#
# 1 0.043343 -0.007558 0.002380 0.000000 0.006379 0.000000
# 2 -0.007558 0.015333 -0.002553 0.000000 0.004033 0.000000
# 3 0.002380 -0.002553 0.008175 0.000000 0.000822 0.000000
# 4 0.000000 0.000000 0.000000 0.032331 0.000000 0.000146
# 5 0.006379 0.004033 0.000822 0.000000 0.045769 0.000000
# 6 0.000000 0.000000 0.000000 0.000146 0.000000 0.058565
#
#
# Mechanical properties :
#
#
# Convention : Reuss Voigt Hill
#
# Bulk Modulus (GPa) = 19.45972 33.20094 26.33033
# Shear Modulus (GPa) = 21.17667 27.76995 24.47331
#
# Velocity S-wave (km/s) = 3.11204 3.56372 3.34551
# Velocity P-wave (km/s) = 4.67040 5.66722 5.19279
#
# Compressibility (1/GPa) = 0.05138819
#
# Stress axis : x y z
#
# Youngs Moduli (GPa) = 23.07192 65.21705 122.32477
#
# Poissons Ratio (x) = 0.49293 -0.29117
# Poissons Ratio (y) = 0.17439 0.31234
# Poissons Ratio (z) = -0.05492 0.16652
#
# Static dielectric constant tensor:
#      x y z
#    x 3.590750 0.000000 -0.022040 
#    y 0.000000 4.036130 0.000000 
#    z -0.022040 0.000000 4.075010 
# 
# 
# High freq. dielectric constant tensor:
#      x y z
#    x 1.825180 0.000000 -0.002370 
#    y 0.000000 1.872830 0.000000 
#    z -0.002370 0.000000 1.871520 
# 
# From -- ./inp_files/18030.got.cif
#   From: 2010.06.25/outbox.cif.g09.slc.cpg/sg11_10_cif.got.tgz:18030.got - 2010.06.27 23:14:04.
