data_PCOD8073801
_publ_section_title
;
Structure prediction by ZEFSAII (Michael W. Deem and Ramdas Pophale) SiO2 
 PCOD8073801
Probable space group: P 21/M
;
_chemical_formula_sum "Si O2"
_cell_formula_units_Z 26
_cell_length_a 12.272975
_cell_length_b 14.791118
_cell_length_c 8.184029
_cell_angle_alpha 90.000000
_cell_angle_beta 123.294799
_cell_angle_gamma 90.000000
_cell_volume 1241.795542
_symmetry_space_group_name_H-M "P 21/M"
_symmetry_group_IT_number 11
_symmetry_cell_setting 'monoclinic'
loop_
_space_group_symop_operation_xyz
x,y,z
-x,1/2+y,-z
-x,-y,-z
x,1/2-y,z
loop_
_atom_site_type_symbol
_atom_site_label
_atom_site_fract_x
_atom_site_fract_y
_atom_site_fract_z
Si Si1 0.312425 0.487352 0.746860
Si Si2 0.455430 0.855694 0.055283
Si Si3 0.150033 0.909241 0.384106
Si Si4 0.036138 0.750000 0.823465
Si Si5 0.149649 0.438269 0.916520
Si Si6 0.763660 0.384056 0.883773
Si Si7 0.057109 0.750000 0.478171
Si Si8 0.129689 0.250000 0.991270
O O1 0.404609 0.400710 0.795376
O O2 0.239360 0.507268 0.515932
O O3 0.199263 0.457783 0.776662
O O4 0.386212 0.579152 0.865144
O O5 0.468090 0.750000 0.007446
O O6 0.377197 0.857342 0.162296
O O7 0.221268 0.856625 0.293174
O O8 0.142941 0.840924 0.533690
O O9 0.007279 0.942202 0.208538
O O10 0.981540 0.750000 0.590902
O O11 0.126465 0.837678 0.914755
O O12 0.926238 0.750000 0.870901
O O13 0.208522 0.342566 0.030360
O O14 0.211328 0.508999 0.092257
O O15 0.972404 0.750000 0.243225
#
# Coordination Sequence:
#
# PCOD8073801 Si02
#       8
#     4   4   4   2   4   4   2   2
#     4  10  23  38  62  91 118 162 211 249 307 368
#     4  10  22  41  62  86 116 166 210 253 307 357
#     4  11  21  37  61  96 126 154 208 253 307 374
#     4  12  20  36  59  91 122 161 206 250 303 360
#     4  10  21  39  60  89 128 164 194 254 313 367
#     4  11  21  38  64  86 126 164 205 256 303 361
#     4  10  20  34  58  91 122 163 204 242 295 368
#     4  10  22  38  55  92 126 164 202 244 310 368
#
# _framework density 20.937422999999999
#
# number of rings (size 3 to 8) (size 9 to 14) (size 15 to 20)
#    0.000    1.538    3.846    2.769    2.154    1.846 
#    0.000    0.000    3.385    0.000    0.000    0.000 
#    0.000    0.000    0.000    0.000    0.000    0.000 
#
# Total GULP energy -322177.052787 kJ/mol
# GULP energy per Si atom -12391.425107 kJ/mol
# Density = 2.088977 g / cm^3
# Si number density = 20.937423 Si / 1000 Ang^3
#
#
#
# Elastic Constant Matrix: (Units=GPa)
#
#
# Indices 1 2 3 4 5 6 
#
# 1 76.4443 21.4602 28.1067 0.0000 -15.2694 0.0000
# 2 21.4602 150.6368 20.7344 0.0000 0.5252 0.0000
# 3 28.1067 20.7344 57.1408 0.0000 -24.4187 0.0000
# 4 0.0000 0.0000 0.0000 87.9440 0.0000 103.8227
# 5 -15.2694 0.5252 -24.4187 0.0000 34.4976 0.0000
# 6 0.0000 0.0000 0.0000 103.8227 0.0000 198.3556
#
#
#
# Elastic Compliance Matrix: (Units=1/GPa)
#
#
# Indices 1 2 3 4 5 6 
#
# 1 0.016380 -0.001472 -0.006330 0.000000 0.002792 0.000000
# 2 -0.001472 0.007303 -0.003229 0.000000 -0.003048 0.000000
# 3 -0.006330 -0.003229 0.029547 0.000000 0.018162 0.000000
# 4 0.000000 0.000000 0.000000 0.029761 0.000000 -0.015577
# 5 0.002792 -0.003048 0.018162 0.000000 0.043126 0.000000
# 6 0.000000 0.000000 0.000000 -0.015577 0.000000 0.013195
#
#
# Mechanical properties :
#
#
# Convention : Reuss Voigt Hill
#
# Bulk Modulus (GPa) = 32.08263 47.20272 39.64268
# Shear Modulus (GPa) = 29.11026 78.42081 53.76553
#
# Velocity S-wave (km/s) = 3.73278 6.12668 5.07296
# Velocity P-wave (km/s) = 5.82534 8.52302 7.29988
#
# Compressibility (1/GPa) = 0.03116951
#
# Stress axis : x y z
#
# Youngs Moduli (GPa) = 61.05167 136.92601 33.84443
#
# Poissons Ratio (x) = 0.20155 0.21422
# Poissons Ratio (y) = 0.08987 0.10927
# Poissons Ratio (z) = 0.38643 0.44208
#
# Static dielectric constant tensor:
#      x y z
#    x 3.787820 0.000000 -0.161680 
#    y 0.000000 4.425390 0.000000 
#    z -0.161680 0.000000 3.355940 
# 
# 
# High freq. dielectric constant tensor:
#      x y z
#    x 1.813250 0.000000 -0.022220 
#    y 0.000000 1.840300 0.000000 
#    z -0.022220 0.000000 1.782800 
# 
# From -- ./inp_files/17890.got.cif
#   From: 2010.06.25/outbox.cif.g09.slc.cpg/sg11_9_cif.got.tgz:17890.got - 2010.06.27 23:14:04.
