data_PCOD8073556
_publ_section_title
;
Structure prediction by ZEFSAII (Michael W. Deem and Ramdas Pophale) SiO2 
 PCOD8073556
Probable space group: P 21/M
;
_chemical_formula_sum "Si O2"
_cell_formula_units_Z 28
_cell_length_a 9.075965
_cell_length_b 8.853273
_cell_length_c 25.476855
_cell_angle_alpha 90.000000
_cell_angle_beta 135.755634
_cell_angle_gamma 90.000000
_cell_volume 1428.313922
_symmetry_space_group_name_H-M "P 21/M"
_symmetry_group_IT_number 11
_symmetry_cell_setting 'monoclinic'
loop_
_space_group_symop_operation_xyz
x,y,z
-x,1/2+y,-z
-x,-y,-z
x,1/2-y,z
loop_
_atom_site_type_symbol
_atom_site_label
_atom_site_fract_x
_atom_site_fract_y
_atom_site_fract_z
Si Si1 0.789728 0.928683 0.225631
Si Si2 0.992242 0.424948 0.081360
Si Si3 0.361602 0.927346 0.509596
Si Si4 0.470572 0.571289 0.653852
Si Si5 0.886052 0.928995 0.366945
Si Si6 0.089490 0.929004 0.210854
Si Si7 0.683409 0.425817 0.910547
O O1 0.801730 0.750000 0.227785
O O2 0.843270 0.988689 0.297179
O O3 0.557327 0.982314 0.148895
O O4 0.961059 0.992565 0.228237
O O5 0.017285 0.250000 0.101999
O O6 0.963722 0.520634 0.126908
O O7 0.200863 0.477152 0.104073
O O8 0.785369 0.455578 0.993410
O O9 0.377597 0.750000 0.506643
O O10 0.449632 0.980596 0.588184
O O11 0.120165 0.979666 0.442680
O O12 0.500000 0.000000 0.500000
O O13 0.481413 0.750000 0.661804
O O14 0.269563 0.512207 0.633617
O O15 0.679131 0.499929 0.731692
O O16 0.851689 0.750000 0.362658
O O17 0.109800 0.750000 0.217179
O O18 0.701515 0.250000 0.899321
#
# Coordination Sequence:
#
# PCOD8073556 Si02
#       7
#     4   4   4   4   4   4   4
#     4   9  19  35  56  80 105 139 186 230 268 321
#     4  10  20  34  54  82 113 143 181 229 276 327
#     4  10  22  38  58  85 117 150 186 228 274 326
#     4  11  23  38  56  83 115 145 183 231 278 324
#     4  10  20  37  60  84 110 145 188 229 272 327
#     4  11  22  37  57  79 107 146 187 227 277 334
#     4   9  18  35  57  80 109 146 185 225 273 330
#
# _framework density 19.603534
#
# number of rings (size 3 to 8) (size 9 to 14) (size 15 to 20)
#    0.000    2.000    0.000    3.429    0.000    5.143 
#    0.000    2.857    0.000    0.000    0.000    0.000 
#    0.000    0.000    0.000    0.000    0.000    0.000 
#
# Total GULP energy -347314.507775 kJ/mol
# GULP energy per Si atom -12404.089563 kJ/mol
# Density = 1.955892 g / cm^3
# Si number density = 19.603534 Si / 1000 Ang^3
#
#
#
# Elastic Constant Matrix: (Units=GPa)
#
#
# Indices 1 2 3 4 5 6 
#
# 1 112.5055 39.5170 36.1570 0.0000 -12.7916 0.0000
# 2 39.5170 53.6886 32.4421 0.0000 -3.7845 0.0000
# 3 36.1570 32.4421 99.1278 0.0000 -7.0847 0.0000
# 4 0.0000 0.0000 0.0000 23.7447 0.0000 -1.6260
# 5 -12.7916 -3.7845 -7.0847 0.0000 36.8009 0.0000
# 6 0.0000 0.0000 0.0000 -1.6260 0.0000 31.6203
#
#
#
# Elastic Compliance Matrix: (Units=1/GPa)
#
#
# Indices 1 2 3 4 5 6 
#
# 1 0.012633 -0.008010 -0.001756 0.000000 0.003230 0.000000
# 2 -0.008010 0.028328 -0.006429 0.000000 -0.001109 0.000000
# 3 -0.001756 -0.006429 0.012919 0.000000 0.001216 0.000000
# 4 0.000000 0.000000 0.000000 0.042263 0.000000 0.002173
# 5 0.003230 -0.001109 0.001216 0.000000 0.028416 0.000000
# 6 0.000000 0.000000 0.000000 0.002173 0.000000 0.031737
#
#
# Mechanical properties :
#
#
# Convention : Reuss Voigt Hill
#
# Bulk Modulus (GPa) = 46.52940 53.50603 50.01772
# Shear Modulus (GPa) = 25.52972 28.91357 27.22164
#
# Velocity S-wave (km/s) = 3.61266 3.84463 3.73045
# Velocity P-wave (km/s) = 6.41782 6.86014 6.64267
#
# Compressibility (1/GPa) = 0.02149179
#
# Stress axis : x y z
#
# Youngs Moduli (GPa) = 79.15512 35.30049 77.40398
#
# Poissons Ratio (x) = 0.28276 0.13590
# Poissons Ratio (y) = 0.63405 0.49760
# Poissons Ratio (z) = 0.13897 0.22694
#
# Static dielectric constant tensor:
#      x y z
#    x 3.649830 0.000000 -0.076160 
#    y 0.000000 3.392240 0.000000 
#    z -0.076160 0.000000 3.828160 
# 
# 
# High freq. dielectric constant tensor:
#      x y z
#    x 1.770210 0.000000 -0.003440 
#    y 0.000000 1.748410 0.000000 
#    z -0.003440 0.000000 1.780790 
# 
# From -- ./inp_files/70930.got.cif
#   From: 2010.06.25/outbox.cif.g09.slc.cpg/sg11_36_cif.got.tgz:70930.got - 2010.06.27 23:14:04.
