data_PCOD8073694
_publ_section_title
;
Structure prediction by ZEFSAII (Michael W. Deem and Ramdas Pophale) SiO2 
 PCOD8073694
Probable space group: P 21/M
;
_chemical_formula_sum "Si O2"
_cell_formula_units_Z 32
_cell_length_a 11.687310
_cell_length_b 8.786495
_cell_length_c 21.442306
_cell_angle_alpha 90.000000
_cell_angle_beta 52.239273
_cell_angle_gamma 90.000000
_cell_volume 1740.783505
_symmetry_space_group_name_H-M "P 21/M"
_symmetry_group_IT_number 11
_symmetry_cell_setting 'monoclinic'
loop_
_space_group_symop_operation_xyz
x,y,z
-x,1/2+y,-z
-x,-y,-z
x,1/2-y,z
loop_
_atom_site_type_symbol
_atom_site_label
_atom_site_fract_x
_atom_site_fract_y
_atom_site_fract_z
Si Si1 0.360159 0.929887 0.766784
Si Si2 0.870364 0.426345 0.733254
Si Si3 0.846075 0.930206 0.534274
Si Si4 0.052932 0.581628 0.161721
Si Si5 0.648302 0.426742 0.703155
Si Si6 0.048024 0.573102 0.920158
Si Si7 0.161405 0.570111 0.593294
Si Si8 0.732477 0.921503 0.322724
O O1 0.381802 0.750000 0.761080
O O2 0.209825 0.980243 0.849014
O O3 0.485094 0.013276 0.764072
O O4 0.366814 0.986372 0.692921
O O5 0.921900 0.250000 0.712180
O O6 0.843538 0.470671 0.815282
O O7 0.721763 0.452268 0.745971
O O8 0.994083 0.529434 0.661408
O O9 0.862623 0.750000 0.524279
O O10 0.729288 0.973434 0.624855
O O11 0.789230 0.996234 0.488012
O O12 0.000000 0.000000 0.500000
O O13 0.094786 0.750000 0.124237
O O14 0.062114 0.471932 0.098953
O O15 0.894482 0.579756 0.243813
O O16 0.652114 0.250000 0.682556
O O17 0.039285 0.750000 0.932216
O O18 0.000000 0.500000 0.000000
O O19 0.177938 0.750000 0.584462
O O20 0.269121 0.505852 0.610273
O O21 0.672134 0.750000 0.350032
#
# Coordination Sequence:
#
# PCOD8073694 Si02
#       8
#     4   4   4   4   4   4   4   4
#     4  10  21  37  55  80 111 141 177 218 265 322
#     4   9  18  32  51  75 105 140 180 222 264 313
#     4  12  23  36  52  75 106 141 183 231 276 318
#     4   8  15  29  50  77 106 135 169 214 261 308
#     4  11  22  36  55  78 107 145 183 220 268 323
#     4  10  20  34  56  84 111 139 171 214 261 313
#     4  11  20  31  51  77 104 137 178 228 278 318
#     4   9  17  32  53  75 102 138 177 220 268 319
#
# _framework density 18.382525999999999
#
# number of rings (size 3 to 8) (size 9 to 14) (size 15 to 20)
#    0.000    2.000    1.250    4.500    0.000    5.000 
#    0.000    0.625    0.000    0.750    0.000    0.000 
#    0.000    0.000    0.000    0.000    0.000    0.000 
#
# Total GULP energy -396793.032639 kJ/mol
# GULP energy per Si atom -12399.782270 kJ/mol
# Density = 1.834069 g / cm^3
# Si number density = 18.382526 Si / 1000 Ang^3
#
#
#
# Elastic Constant Matrix: (Units=GPa)
#
#
# Indices 1 2 3 4 5 6 
#
# 1 119.4413 41.6804 52.4031 0.0000 23.1782 0.0000
# 2 41.6804 106.0485 41.7414 0.0000 12.2473 0.0000
# 3 52.4031 41.7414 81.7543 0.0000 26.6533 0.0000
# 4 0.0000 0.0000 0.0000 27.3965 0.0000 4.6607
# 5 23.1782 12.2473 26.6533 0.0000 28.4289 0.0000
# 6 0.0000 0.0000 0.0000 4.6607 0.0000 32.1364
#
#
#
# Elastic Compliance Matrix: (Units=1/GPa)
#
#
# Indices 1 2 3 4 5 6 
#
# 1 0.012317 -0.002233 -0.005465 0.000000 -0.003956 0.000000
# 2 -0.002233 0.012219 -0.005307 0.000000 0.001532 0.000000
# 3 -0.005465 -0.005307 0.023398 0.000000 -0.015195 0.000000
# 4 0.000000 0.000000 0.000000 0.037424 0.000000 -0.005428
# 5 -0.003956 0.001532 -0.015195 0.000000 0.051987 0.000000
# 6 0.000000 0.000000 0.000000 -0.005428 0.000000 0.031905
#
#
# Mechanical properties :
#
#
# Convention : Reuss Voigt Hill
#
# Bulk Modulus (GPa) = 45.61119 64.32156 54.96637
# Shear Modulus (GPa) = 24.68307 29.02030 26.85169
#
# Velocity S-wave (km/s) = 3.66833 3.97758 3.82608
# Velocity P-wave (km/s) = 6.54280 7.49409 7.03455
#
# Compressibility (1/GPa) = 0.02192445
#
# Stress axis : x y z
#
# Youngs Moduli (GPa) = 81.18857 81.83854 42.73863
#
# Poissons Ratio (x) = 0.18274 0.23357
# Poissons Ratio (y) = 0.18129 0.22681
# Poissons Ratio (z) = 0.44370 0.43431
#
# Static dielectric constant tensor:
#      x y z
#    x 3.744870 0.000000 0.336840 
#    y 0.000000 3.494610 0.000000 
#    z 0.336840 0.000000 3.204850 
# 
# 
# High freq. dielectric constant tensor:
#      x y z
#    x 1.715950 0.000000 0.029770 
#    y 0.000000 1.724410 0.000000 
#    z 0.029770 0.000000 1.675130 
# 
# From -- ./inp_files/64374.got.cif
#   From: 2010.06.25/outbox.cif.g09.slc.cpg/sg11_33_cif.got.tgz:64374.got - 2010.06.27 23:14:04.
