data_PCOD8073007
_publ_section_title
;
Structure prediction by ZEFSAII (Michael W. Deem and Ramdas Pophale) SiO2 
 PCOD8073007
Probable space group: P 21/M
;
_chemical_formula_sum "Si O2"
_cell_formula_units_Z 20
_cell_length_a 13.498111
_cell_length_b 8.984323
_cell_length_c 22.282055
_cell_angle_alpha 90.000000
_cell_angle_beta 24.567269
_cell_angle_gamma 90.000000
_cell_volume 1123.460137
_symmetry_space_group_name_H-M "P 21/M"
_symmetry_group_IT_number 11
_symmetry_cell_setting 'monoclinic'
loop_
_space_group_symop_operation_xyz
x,y,z
-x,1/2+y,-z
-x,-y,-z
x,1/2-y,z
loop_
_atom_site_type_symbol
_atom_site_label
_atom_site_fract_x
_atom_site_fract_y
_atom_site_fract_z
Si Si1 0.618953 0.573722 0.491884
Si Si2 0.442403 0.920401 0.946065
Si Si3 0.262775 0.575033 0.790072
Si Si4 0.777070 0.077830 0.054565
Si Si5 0.119555 0.077787 0.216860
O O1 0.500000 0.500000 0.500000
O O2 0.614500 0.750000 0.485915
O O3 0.475003 0.521205 0.630176
O O4 0.887017 0.520500 0.353391
O O5 0.370849 0.750000 0.000533
O O6 0.424300 0.952424 0.884782
O O7 0.713284 0.950540 0.817204
O O8 0.260776 0.029050 0.079748
O O9 0.233397 0.750000 0.801976
O O10 0.318335 0.522783 0.827941
O O11 0.016345 0.505724 0.903093
O O12 0.844623 0.250000 0.021066
O O13 0.047860 0.250000 0.249465
#
# Coordination Sequence:
#
# PCOD8073007 Si02
#       5
#     4   4   4   4   4
#     4  11  22  35  51  72 100 131 162 199 245 292
#     4   9  18  33  53  74  97 129 165 201 242 288
#     4   9  19  33  49  72  99 126 159 200 243 287
#     4   9  17  32  53  73  95 125 161 200 241 286
#     4  10  20  33  50  74 102 129 162 202 242 288
#
# _framework density 17.802143999999998
#
# number of rings (size 3 to 8) (size 9 to 14) (size 15 to 20)
#    0.000    2.400    0.000    2.400    0.000    6.400 
#    0.000    1.000    0.000    0.000    0.000    0.000 
#    0.000    0.000    0.000    0.000    0.000    0.000 
#
# Total GULP energy -247993.232500 kJ/mol
# GULP energy per Si atom -12399.661625 kJ/mol
# Density = 1.776163 g / cm^3
# Si number density = 17.802144 Si / 1000 Ang^3
#
#
#
# Elastic Constant Matrix: (Units=GPa)
#
#
# Indices 1 2 3 4 5 6 
#
# 1 143.2147 37.6110 62.8491 0.0000 -3.1692 0.0000
# 2 37.6110 49.9207 40.8099 0.0000 1.9259 0.0000
# 3 62.8491 40.8099 115.5468 0.0000 -2.2925 0.0000
# 4 0.0000 0.0000 0.0000 29.6215 0.0000 -3.5260
# 5 -3.1692 1.9259 -2.2925 0.0000 20.1900 0.0000
# 6 0.0000 0.0000 0.0000 -3.5260 0.0000 25.5653
#
#
#
# Elastic Compliance Matrix: (Units=1/GPa)
#
#
# Indices 1 2 3 4 5 6 
#
# 1 0.009818 -0.004380 -0.003763 0.000000 0.001532 0.000000
# 2 -0.004380 0.030415 -0.008450 0.000000 -0.004548 0.000000
# 3 -0.003763 -0.008450 0.013721 0.000000 0.001773 0.000000
# 4 0.000000 0.000000 0.000000 0.034323 0.000000 0.004734
# 5 0.001532 -0.004548 0.001773 0.000000 0.050405 0.000000
# 6 0.000000 0.000000 0.000000 0.004734 0.000000 0.039768
#
#
# Mechanical properties :
#
#
# Convention : Reuss Voigt Hill
#
# Bulk Modulus (GPa) = 48.15100 65.69134 56.92117
# Shear Modulus (GPa) = 22.87708 26.23616 24.55662
#
# Velocity S-wave (km/s) = 3.58868 3.84313 3.71808
# Velocity P-wave (km/s) = 6.65418 7.52820 7.10464
#
# Compressibility (1/GPa) = 0.02076800
#
# Stress axis : x y z
#
# Youngs Moduli (GPa) = 101.85338 32.87837 72.88111
#
# Poissons Ratio (x) = 0.14401 0.27425
# Poissons Ratio (y) = 0.44611 0.61586
# Poissons Ratio (z) = 0.38327 0.27783
#
# Static dielectric constant tensor:
#      x y z
#    x 3.616310 0.000000 0.085570 
#    y 0.000000 3.346390 0.000000 
#    z 0.085570 0.000000 3.257480 
# 
# 
# High freq. dielectric constant tensor:
#      x y z
#    x 1.700200 0.000000 0.000300 
#    y 0.000000 1.693090 0.000000 
#    z 0.000300 0.000000 1.670330 
# 
# From -- ./inp_files/16077.got.cif
#   From: 2010.06.25/outbox.cif.g09.slc.cpg/sg11_9_cif.got.tgz:16077.got - 2010.06.27 23:14:04.
