data_PCOD8073071
_publ_section_title
;
Structure prediction by ZEFSAII (Michael W. Deem and Ramdas Pophale) SiO2 
 PCOD8073071
Probable space group: P 21/M
;
_chemical_formula_sum "Si O2"
_cell_formula_units_Z 24
_cell_length_a 10.257814
_cell_length_b 13.139097
_cell_length_c 16.973332
_cell_angle_alpha 90.000000
_cell_angle_beta 146.193202
_cell_angle_gamma 90.000000
_cell_volume 1272.828947
_symmetry_space_group_name_H-M "P 21/M"
_symmetry_group_IT_number 11
_symmetry_cell_setting 'monoclinic'
loop_
_space_group_symop_operation_xyz
x,y,z
-x,1/2+y,-z
-x,-y,-z
x,1/2-y,z
loop_
_atom_site_type_symbol
_atom_site_label
_atom_site_fract_x
_atom_site_fract_y
_atom_site_fract_z
Si Si1 0.443566 0.501423 0.164040
Si Si2 0.826250 0.633870 0.429895
Si Si3 0.720630 0.462948 0.158720
Si Si4 0.904777 0.135822 0.107738
Si Si5 0.596694 0.867182 0.705776
Si Si6 0.113608 0.552080 0.437825
O O1 0.585044 0.596918 0.269580
O O2 0.616012 0.435787 0.192702
O O3 0.360126 0.427137 0.191080
O O4 0.223232 0.549492 0.007993
O O5 0.802314 0.750000 0.444525
O O6 0.878173 0.566926 0.533100
O O7 0.036940 0.621653 0.473088
O O8 0.836289 0.372345 0.166045
O O9 0.920738 0.552375 0.270508
O O10 0.500000 0.500000 0.000000
O O11 0.840464 0.250000 0.046804
O O12 0.181503 0.115855 0.239176
O O13 0.562560 0.750000 0.710523
O O14 0.370842 0.907991 0.543241
#
# Coordination Sequence:
#
# PCOD8073071 Si02
#       6
#     4   4   4   4   4   4
#     4   9  18  34  53  75 100 130 170 212 252 294
#     4   9  16  28  49  74  98 125 163 212 255 292
#     4   9  19  34  50  70  98 130 167 207 251 297
#     4  10  20  33  51  76 105 136 168 204 251 308
#     4  10  20  33  52  76 102 135 170 207 254 304
#     4   9  18  30  47  73 101 131 166 208 254 302
#
# _framework density 18.855637999999999
#
# number of rings (size 3 to 8) (size 9 to 14) (size 15 to 20)
#    0.000    2.667    0.000    2.500    0.000    2.000 
#    0.000    0.833    0.000    2.000    0.000    4.667 
#    0.000    0.000    0.000    0.000    0.000    0.000 
#
# Total GULP energy -297366.586849 kJ/mol
# GULP energy per Si atom -12390.274452 kJ/mol
# Density = 1.881272 g / cm^3
# Si number density = 18.855638 Si / 1000 Ang^3
#
#
#
# Elastic Constant Matrix: (Units=GPa)
#
#
# Indices 1 2 3 4 5 6 
#
# 1 95.6722 44.0698 37.0729 0.0000 17.0860 0.0000
# 2 44.0698 106.9779 33.9912 0.0000 10.6408 0.0000
# 3 37.0729 33.9912 112.4842 0.0000 17.4920 0.0000
# 4 0.0000 0.0000 0.0000 21.0309 0.0000 1.3490
# 5 17.0860 10.6408 17.4920 0.0000 28.0150 0.0000
# 6 0.0000 0.0000 0.0000 1.3490 0.0000 21.1972
#
#
#
# Elastic Compliance Matrix: (Units=1/GPa)
#
#
# Indices 1 2 3 4 5 6 
#
# 1 0.014562 -0.004643 -0.002536 0.000000 -0.005534 0.000000
# 2 -0.004643 0.011943 -0.002009 0.000000 -0.000451 0.000000
# 3 -0.002536 -0.002009 0.011046 0.000000 -0.004588 0.000000
# 4 0.000000 0.000000 0.000000 0.047744 0.000000 -0.003038
# 5 -0.005534 -0.000451 -0.004588 0.000000 0.042106 0.000000
# 6 0.000000 0.000000 0.000000 -0.003038 0.000000 0.047369
#
#
# Mechanical properties :
#
#
# Convention : Reuss Voigt Hill
#
# Bulk Modulus (GPa) = 52.14577 60.60023 56.37300
# Shear Modulus (GPa) = 25.05787 27.38197 26.21992
#
# Velocity S-wave (km/s) = 3.64941 3.81490 3.73307
# Velocity P-wave (km/s) = 6.74336 7.18425 6.96729
#
# Compressibility (1/GPa) = 0.01917701
#
# Stress axis : x y z
#
# Youngs Moduli (GPa) = 68.67235 83.72828 90.52768
#
# Poissons Ratio (x) = 0.38872 0.22956
# Poissons Ratio (y) = 0.31882 0.18186
# Poissons Ratio (z) = 0.17414 0.16820
#
# Static dielectric constant tensor:
#      x y z
#    x 3.570880 0.000000 0.072220 
#    y 0.000000 3.214550 0.000000 
#    z 0.072220 0.000000 3.701860 
# 
# 
# High freq. dielectric constant tensor:
#      x y z
#    x 1.720050 0.000000 0.017880 
#    y 0.000000 1.707340 0.000000 
#    z 0.017880 0.000000 1.743860 
# 
# From -- ./inp_files/34455.got.cif
#   From: 2010.06.25/outbox.cif.g09.slc.cpg/sg11_18_cif.got.tgz:34455.got - 2010.06.27 23:14:04.
