data_PCOD8073973
_publ_section_title
;
Structure prediction by ZEFSAII (Michael W. Deem and Ramdas Pophale) SiO2 
 PCOD8073973
Probable space group: P 21/M
;
_chemical_formula_sum "Si O2"
_cell_formula_units_Z 28
_cell_length_a 9.540993
_cell_length_b 8.876256
_cell_length_c 26.151948
_cell_angle_alpha 90.000000
_cell_angle_beta 140.561667
_cell_angle_gamma 90.000000
_cell_volume 1406.922932
_symmetry_space_group_name_H-M "P 21/M"
_symmetry_group_IT_number 11
_symmetry_cell_setting 'monoclinic'
loop_
_space_group_symop_operation_xyz
x,y,z
-x,1/2+y,-z
-x,-y,-z
x,1/2-y,z
loop_
_atom_site_type_symbol
_atom_site_label
_atom_site_fract_x
_atom_site_fract_y
_atom_site_fract_z
Si Si1 0.720296 0.425679 0.081995
Si Si2 0.844388 0.422444 0.823663
Si Si3 0.041051 0.572847 0.566351
Si Si4 0.628539 0.428231 0.489794
Si Si5 0.147777 0.925891 0.766387
Si Si6 0.567762 0.425456 0.250441
Si Si7 0.287383 0.577256 0.329365
O O1 0.709257 0.250000 0.068450
O O2 0.740748 0.462801 0.147832
O O3 0.925518 0.489565 0.107266
O O4 0.500000 0.500000 0.000000
O O5 0.890283 0.250000 0.850469
O O6 0.663379 0.487005 0.811716
O O7 0.749780 0.443248 0.740648
O O8 0.998517 0.750000 0.550128
O O9 0.871170 0.498997 0.558183
O O10 0.000000 0.500000 0.500000
O O11 0.282206 0.538317 0.657512
O O12 0.500000 0.500000 0.500000
O O13 0.643398 0.250000 0.498478
O O14 0.500730 0.476191 0.402157
O O15 0.088102 0.750000 0.744554
O O16 0.311355 0.977669 0.767475
O O17 0.922194 0.019180 0.697407
O O18 0.512856 0.250000 0.232368
O O19 0.331255 0.750000 0.357144
#
# Coordination Sequence:
#
# PCOD8073973 Si02
#       7
#     4   4   4   4   4   4   4
#     4  10  20  37  62  88 115 144 178 221 271 328
#     4  10  21  36  57  84 112 143 181 222 267 324
#     4  11  23  38  56  80 112 151 193 238 287 339
#     4  12  24  37  54  77 107 144 189 241 292 340
#     4   9  19  36  58  83 111 146 185 228 278 330
#     4  10  21  37  56  79 109 145 186 229 275 327
#     4  10  20  35  55  79 107 141 185 233 279 334
#
# _framework density 19.901588
#
# number of rings (size 3 to 8) (size 9 to 14) (size 15 to 20)
#    0.000    1.714    0.000    4.714    0.000    7.429 
#    0.000    0.714    0.000    0.000    0.000    0.000 
#    0.000    0.000    0.000    0.000    0.000    0.000 
#
# Total GULP energy -347295.336120 kJ/mol
# GULP energy per Si atom -12403.404861 kJ/mol
# Density = 1.985629 g / cm^3
# Si number density = 19.901588 Si / 1000 Ang^3
#
#
#
# Elastic Constant Matrix: (Units=GPa)
#
#
# Indices 1 2 3 4 5 6 
#
# 1 105.8390 34.3965 17.1438 0.0000 19.8937 0.0000
# 2 34.3965 108.6613 39.8615 0.0000 16.5774 0.0000
# 3 17.1438 39.8615 69.2322 0.0000 20.3953 0.0000
# 4 0.0000 0.0000 0.0000 35.0764 0.0000 6.9486
# 5 19.8937 16.5774 20.3953 0.0000 29.7262 0.0000
# 6 0.0000 0.0000 0.0000 6.9486 0.0000 36.9808
#
#
#
# Elastic Compliance Matrix: (Units=1/GPa)
#
#
# Indices 1 2 3 4 5 6 
#
# 1 0.011514 -0.002922 0.000778 0.000000 -0.006610 0.000000
# 2 -0.002922 0.012544 -0.006285 0.000000 -0.000728 0.000000
# 3 0.000778 -0.006285 0.021295 0.000000 -0.011627 0.000000
# 4 0.000000 0.000000 0.000000 0.029611 0.000000 -0.005564
# 5 -0.006610 -0.000728 -0.011627 0.000000 0.046448 0.000000
# 6 0.000000 0.000000 0.000000 -0.005564 0.000000 0.028087
#
#
# Mechanical properties :
#
#
# Convention : Reuss Voigt Hill
#
# Bulk Modulus (GPa) = 35.09055 51.83734 43.46394
# Shear Modulus (GPa) = 28.43259 33.17871 30.80565
#
# Velocity S-wave (km/s) = 3.78386 4.08749 3.93860
# Velocity P-wave (km/s) = 6.06304 6.95558 6.52459
#
# Compressibility (1/GPa) = 0.02849770
#
# Stress axis : x y z
#
# Youngs Moduli (GPa) = 86.84840 79.71698 46.95944
#
# Poissons Ratio (x) = 0.23293 -0.03656
# Poissons Ratio (y) = 0.25376 0.29512
# Poissons Ratio (z) = -0.06761 0.50098
#
# Static dielectric constant tensor:
#      x y z
#    x 4.275850 0.000000 -0.108910 
#    y 0.000000 4.595940 0.000000 
#    z -0.108910 0.000000 3.738130 
# 
# 
# High freq. dielectric constant tensor:
#      x y z
#    x 1.782390 0.000000 0.009720 
#    y 0.000000 1.783680 0.000000 
#    z 0.009720 0.000000 1.764880 
# 
# From -- ./inp_files/28417.got.cif
#   From: 2010.06.25/outbox.cif.g09.slc.cpg/sg11_15_cif.got.tgz:28417.got - 2010.06.27 23:14:04.
