data_PCOD8073785
_publ_section_title
;
Structure prediction by ZEFSAII (Michael W. Deem and Ramdas Pophale) SiO2 
 PCOD8073785
Probable space group: P 21/M
;
_chemical_formula_sum "Si O2"
_cell_formula_units_Z 24
_cell_length_a 14.309901
_cell_length_b 14.165062
_cell_length_c 11.545237
_cell_angle_alpha 90.000000
_cell_angle_beta 150.916282
_cell_angle_gamma 90.000000
_cell_volume 1137.553992
_symmetry_space_group_name_H-M "P 21/M"
_symmetry_group_IT_number 11
_symmetry_cell_setting 'monoclinic'
loop_
_space_group_symop_operation_xyz
x,y,z
-x,1/2+y,-z
-x,-y,-z
x,1/2-y,z
loop_
_atom_site_type_symbol
_atom_site_label
_atom_site_fract_x
_atom_site_fract_y
_atom_site_fract_z
Si Si1 0.569853 0.952997 0.797830
Si Si2 0.608692 0.145773 0.939442
Si Si3 0.977018 0.448566 0.748972
Si Si4 0.733106 0.141995 0.674718
Si Si5 0.666314 0.140099 0.265066
Si Si6 0.059536 0.852027 0.865973
O O1 0.453455 0.920947 0.557712
O O2 0.507248 0.888008 0.837926
O O3 0.508794 0.061653 0.758950
O O4 0.795883 0.939368 0.023690
O O5 0.508803 0.250000 0.815699
O O6 0.608446 0.113574 0.072402
O O7 0.828248 0.154110 0.133942
O O8 0.916815 0.558904 0.705683
O O9 0.915465 0.388741 0.794325
O O10 0.862243 0.414134 0.511848
O O11 0.683894 0.250000 0.592991
O O12 0.783229 0.127800 0.863069
O O13 0.709248 0.250000 0.323153
O O14 0.955293 0.750000 0.775657
#
# Coordination Sequence:
#
# PCOD8073785 Si02
#       6
#     4   4   4   4   4   4
#     4  10  20  34  58  82 105 139 180 219 263 315
#     4   9  19  36  56  78 108 143 176 217 267 314
#     4  10  20  34  58  82 105 139 180 219 263 315
#     4  10  21  37  55  79 111 140 174 222 266 310
#     4  10  21  37  55  79 111 140 174 222 266 310
#     4   9  19  36  56  78 108 143 176 217 267 314
#
# _framework density 21.097901
#
# number of rings (size 3 to 8) (size 9 to 14) (size 15 to 20)
#    0.000    2.333    0.000    3.000    0.000    8.000 
#    0.000    3.333    0.000   28.000    0.000    0.000 
#    0.000    0.000    0.000    0.000    0.000    0.000 
#
# Total GULP energy -297412.337928 kJ/mol
# GULP energy per Si atom -12392.180747 kJ/mol
# Density = 2.104988 g / cm^3
# Si number density = 21.097901 Si / 1000 Ang^3
#
#
#
# Elastic Constant Matrix: (Units=GPa)
#
#
# Indices 1 2 3 4 5 6 
#
# 1 64.1293 4.3620 27.7459 0.0000 3.1732 0.0000
# 2 4.3620 163.6814 53.6521 0.0000 -6.3858 0.0000
# 3 27.7459 53.6521 68.6151 0.0000 23.4134 0.0000
# 4 0.0000 0.0000 0.0000 30.6332 0.0000 -5.0622
# 5 3.1732 -6.3858 23.4134 0.0000 27.6408 0.0000
# 6 0.0000 0.0000 0.0000 -5.0622 0.0000 24.2123
#
#
#
# Elastic Compliance Matrix: (Units=1/GPa)
#
#
# Indices 1 2 3 4 5 6 
#
# 1 0.022796 0.006344 -0.019390 0.000000 0.015273 0.000000
# 2 0.006344 0.012791 -0.018745 0.000000 0.018105 0.000000
# 3 -0.019390 -0.018745 0.053154 0.000000 -0.047129 0.000000
# 4 0.000000 0.000000 0.000000 0.033813 0.000000 0.007069
# 5 0.015273 0.018105 -0.047129 0.000000 0.078529 0.000000
# 6 0.000000 0.000000 0.000000 0.007069 0.000000 0.042779
#
#
# Mechanical properties :
#
#
# Convention : Reuss Voigt Hill
#
# Bulk Modulus (GPa) = 39.74825 51.99399 45.87112
# Shear Modulus (GPa) = 15.83135 30.54163 23.18649
#
# Velocity S-wave (km/s) = 2.74227 3.80888 3.31871
# Velocity P-wave (km/s) = 5.37657 6.63635 6.03940
#
# Compressibility (1/GPa) = 0.02515834
#
# Stress axis : x y z
#
# Youngs Moduli (GPa) = 43.86816 78.18025 18.81334
#
# Poissons Ratio (x) = -0.49599 0.36480
# Poissons Ratio (y) = -0.27831 0.35265
# Poissons Ratio (z) = 0.85062 1.46548
#
# Static dielectric constant tensor:
#      x y z
#    x 3.851850 0.000000 -0.183730 
#    y 0.000000 4.382080 0.000000 
#    z -0.183730 0.000000 3.388790 
# 
# 
# High freq. dielectric constant tensor:
#      x y z
#    x 1.827180 0.000000 -0.015210 
#    y 0.000000 1.855740 0.000000 
#    z -0.015210 0.000000 1.791640 
# 
# From -- ./inp_files/39731.got.cif
#   From: 2010.06.25/outbox.cif.g09.slc.cpg/sg11_20_cif.got.tgz:39731.got - 2010.06.27 23:14:04.
