data_PCOD8073604
_publ_section_title
;
Structure prediction by ZEFSAII (Michael W. Deem and Ramdas Pophale) SiO2 
 PCOD8073604
Probable space group: P 21/M
;
_chemical_formula_sum "Si O2"
_cell_formula_units_Z 32
_cell_length_a 11.903394
_cell_length_b 8.899706
_cell_length_c 30.517562
_cell_angle_alpha 90.000000
_cell_angle_beta 29.526335
_cell_angle_gamma 90.000000
_cell_volume 1593.264057
_symmetry_space_group_name_H-M "P 21/M"
_symmetry_group_IT_number 11
_symmetry_cell_setting 'monoclinic'
loop_
_space_group_symop_operation_xyz
x,y,z
-x,1/2+y,-z
-x,-y,-z
x,1/2-y,z
loop_
_atom_site_type_symbol
_atom_site_label
_atom_site_fract_x
_atom_site_fract_y
_atom_site_fract_z
Si Si1 0.871685 0.074211 0.761641
Si Si2 0.841427 0.081473 0.991598
Si Si3 0.680257 0.923413 0.619835
Si Si4 0.746164 0.070687 0.423468
Si Si5 0.448510 0.076499 0.843254
Si Si6 0.892838 0.073029 0.469538
Si Si7 0.418743 0.419112 0.070874
Si Si8 0.289716 0.923108 0.815390
O O1 0.922490 0.250000 0.750031
O O2 0.675498 0.042611 0.792928
O O3 0.791844 0.007737 0.835473
O O4 0.096186 0.988850 0.669398
O O5 0.892878 0.250000 0.990985
O O6 0.632540 0.082530 0.029866
O O7 0.060204 0.019174 0.891861
O O8 0.778988 0.974830 0.053600
O O9 0.731883 0.750000 0.592813
O O10 0.424802 0.947739 0.724232
O O11 0.863471 0.982269 0.593975
O O12 0.697169 0.011662 0.568426
O O13 0.731189 0.250000 0.426259
O O14 0.849882 0.013355 0.434781
O O15 0.500000 0.000000 0.500000
O O16 0.422137 0.250000 0.840223
O O17 0.460430 0.978079 0.795493
O O18 0.874701 0.250000 0.474815
O O19 0.337447 0.250000 0.087651
O O20 0.500000 0.500000 0.000000
O O21 0.228248 0.750000 0.843582
#
# Coordination Sequence:
#
# PCOD8073604 Si02
#       8
#     4   4   4   4   4   4   4   4
#     4  10  21  38  61  88 114 146 192 239 286 345
#     4  10  21  36  53  77 110 146 184 228 278 332
#     4   9  19  35  56  82 110 145 187 230 281 340
#     4  11  23  40  61  87 119 155 194 243 298 349
#     4  10  20  34  55  81 111 147 185 229 278 333
#     4   9  19  37  59  81 109 145 186 234 285 339
#     4  10  21  39  62  85 111 149 192 238 287 340
#     4  11  21  33  51  79 114 149 184 226 276 334
#
# _framework density 20.084555000000002
#
# number of rings (size 3 to 8) (size 9 to 14) (size 15 to 20)
#    0.000    2.000    0.000    3.375    0.000    6.000 
#    2.250    2.500    0.000    0.000    0.000    0.000 
#    0.000    0.000    0.000    0.000    0.000    0.000 
#
# Total GULP energy -396837.418578 kJ/mol
# GULP energy per Si atom -12401.169331 kJ/mol
# Density = 2.003884 g / cm^3
# Si number density = 20.084555 Si / 1000 Ang^3
#
#
#
# Elastic Constant Matrix: (Units=GPa)
#
#
# Indices 1 2 3 4 5 6 
#
# 1 42.2843 25.8173 32.8003 0.0000 14.3152 0.0000
# 2 25.8173 89.9807 50.7174 0.0000 3.8965 0.0000
# 3 32.8003 50.7174 141.3323 0.0000 9.3719 0.0000
# 4 0.0000 0.0000 0.0000 39.8487 0.0000 2.9580
# 5 14.3152 3.8965 9.3719 0.0000 31.1120 0.0000
# 6 0.0000 0.0000 0.0000 2.9580 0.0000 30.4414
#
#
#
# Elastic Compliance Matrix: (Units=1/GPa)
#
#
# Indices 1 2 3 4 5 6 
#
# 1 0.036803 -0.007094 -0.005032 0.000000 -0.014530 0.000000
# 2 -0.007094 0.015301 -0.004014 0.000000 0.002557 0.000000
# 3 -0.005032 -0.004014 0.009690 0.000000 -0.000101 0.000000
# 4 0.000000 0.000000 0.000000 0.025277 0.000000 -0.002456
# 5 -0.014530 0.002557 -0.000101 0.000000 0.038537 0.000000
# 6 0.000000 0.000000 0.000000 -0.002456 0.000000 0.033089
#
#
# Mechanical properties :
#
#
# Convention : Reuss Voigt Hill
#
# Bulk Modulus (GPa) = 33.88188 54.69638 44.28913
# Shear Modulus (GPa) = 24.89845 31.23123 28.06484
#
# Velocity S-wave (km/s) = 3.52473 3.94761 3.74215
# Velocity P-wave (km/s) = 5.78543 6.93328 6.38520
#
# Compressibility (1/GPa) = 0.02951430
#
# Stress axis : x y z
#
# Youngs Moduli (GPa) = 27.17152 65.35702 103.19459
#
# Poissons Ratio (x) = 0.46365 0.51928
# Poissons Ratio (y) = 0.19276 0.41420
# Poissons Ratio (z) = 0.13673 0.26233
#
# Static dielectric constant tensor:
#      x y z
#    x 3.371180 0.000000 0.017520 
#    y 0.000000 3.808460 0.000000 
#    z 0.017520 0.000000 3.670590 
# 
# 
# High freq. dielectric constant tensor:
#      x y z
#    x 1.764810 0.000000 0.005710 
#    y 0.000000 1.791640 0.000000 
#    z 0.005710 0.000000 1.792880 
# 
# From -- ./inp_files/73047.got.cif
#   From: 2010.06.25/outbox.cif.g09.slc.cpg/sg11_37_cif.got.tgz:73047.got - 2010.06.27 23:14:04.
