data_PCOD8073235
_publ_section_title
;
Structure prediction by ZEFSAII (Michael W. Deem and Ramdas Pophale) SiO2 
 PCOD8073235
Probable space group: P 21/M
;
_chemical_formula_sum "Si O2"
_cell_formula_units_Z 28
_cell_length_a 21.711656
_cell_length_b 8.782508
_cell_length_c 14.844094
_cell_angle_alpha 90.000000
_cell_angle_beta 146.560090
_cell_angle_gamma 90.000000
_cell_volume 1559.788683
_symmetry_space_group_name_H-M "P 21/M"
_symmetry_group_IT_number 11
_symmetry_cell_setting 'monoclinic'
loop_
_space_group_symop_operation_xyz
x,y,z
-x,1/2+y,-z
-x,-y,-z
x,1/2-y,z
loop_
_atom_site_type_symbol
_atom_site_label
_atom_site_fract_x
_atom_site_fract_y
_atom_site_fract_z
Si Si1 0.395926 0.425177 0.171773
Si Si2 0.407965 0.572604 0.001645
Si Si3 0.364890 0.928538 0.464608
Si Si4 0.658173 0.927807 0.256560
Si Si5 0.984599 0.070879 0.078832
Si Si6 0.196142 0.928337 0.417783
Si Si7 0.755362 0.574684 0.844099
O O1 0.408565 0.250000 0.157421
O O2 0.512331 0.482058 0.356213
O O3 0.296848 0.448397 0.121400
O O4 0.364850 0.524968 0.047115
O O5 0.387876 0.750000 0.960552
O O6 0.337213 0.480136 0.841445
O O7 0.538386 0.529457 0.152786
O O8 0.360672 0.750000 0.437228
O O9 0.278367 0.973010 0.437067
O O10 0.334945 0.022420 0.339393
O O11 0.683543 0.750000 0.294125
O O12 0.752487 0.018763 0.425285
O O13 0.991821 0.250000 0.077221
O O14 0.079165 0.013101 0.262067
O O15 0.865394 0.027017 0.973990
O O16 0.000000 0.000000 0.000000
O O17 0.173421 0.750000 0.393197
O O18 0.786247 0.750000 0.864005
#
# Coordination Sequence:
#
# PCOD8073235 Si02
#       7
#     4   4   4   4   4   4   4
#     4  10  21  37  55  80 114 151 185 225 275 331
#     4  10  20  33  54  82 112 147 185 227 273 327
#     4  10  20  34  54  80 113 150 184 223 274 326
#     4  10  20  34  54  82 114 147 183 226 277 329
#     4  12  24  39  58  79 108 145 189 234 277 323
#     4  11  21  35  58  84 113 144 183 230 277 328
#     4  11  23  37  56  80 111 149 190 229 273 329
#
# _framework density 17.951149000000001
#
# number of rings (size 3 to 8) (size 9 to 14) (size 15 to 20)
#    0.000    1.429    2.857    3.429    0.000    3.429 
#    0.000    0.000    0.000    0.857    0.000    0.000 
#    0.000    0.000    0.000    0.000    0.000    0.000 
#
# Total GULP energy -347389.845556 kJ/mol
# GULP energy per Si atom -12406.780198 kJ/mol
# Density = 1.791029 g / cm^3
# Si number density = 17.951149 Si / 1000 Ang^3
#
#
#
# Elastic Constant Matrix: (Units=GPa)
#
#
# Indices 1 2 3 4 5 6 
#
# 1 84.2873 38.4504 42.2766 0.0000 -9.5844 0.0000
# 2 38.4504 90.4582 41.1988 0.0000 -5.3165 0.0000
# 3 42.2766 41.1988 92.1320 0.0000 -10.5730 0.0000
# 4 0.0000 0.0000 0.0000 34.9443 0.0000 -4.6142
# 5 -9.5844 -5.3165 -10.5730 0.0000 27.2677 0.0000
# 6 0.0000 0.0000 0.0000 -4.6142 0.0000 28.2922
#
#
#
# Elastic Compliance Matrix: (Units=1/GPa)
#
#
# Indices 1 2 3 4 5 6 
#
# 1 0.017012 -0.004592 -0.005410 0.000000 0.002987 0.000000
# 2 -0.004592 0.015124 -0.004713 0.000000 -0.000492 0.000000
# 3 -0.005410 -0.004713 0.015824 0.000000 0.003315 0.000000
# 4 0.000000 0.000000 0.000000 0.029247 0.000000 0.004770
# 5 0.002987 -0.000492 0.003315 0.000000 0.038913 0.000000
# 6 0.000000 0.000000 0.000000 0.004770 0.000000 0.036123
#
#
# Mechanical properties :
#
#
# Convention : Reuss Voigt Hill
#
# Bulk Modulus (GPa) = 53.96233 56.74767 55.35500
# Shear Modulus (GPa) = 26.61706 27.76429 27.19067
#
# Velocity S-wave (km/s) = 3.85483 3.93702 3.89614
# Velocity P-wave (km/s) = 7.06674 7.23518 7.15145
#
# Compressibility (1/GPa) = 0.01853145
#
# Stress axis : x y z
#
# Youngs Moduli (GPa) = 58.78166 66.12052 63.19337
#
# Poissons Ratio (x) = 0.30360 0.34190
# Poissons Ratio (y) = 0.26990 0.29780
# Poissons Ratio (z) = 0.31803 0.31160
#
# Static dielectric constant tensor:
#      x y z
#    x 3.195550 0.000000 -0.035400 
#    y 0.000000 3.379940 0.000000 
#    z -0.035400 0.000000 3.341200 
# 
# 
# High freq. dielectric constant tensor:
#      x y z
#    x 1.681010 0.000000 -0.010770 
#    y 0.000000 1.706600 0.000000 
#    z -0.010770 0.000000 1.691100 
# 
# From -- ./inp_files/37405.got.cif
#   From: 2010.06.25/outbox.cif.g09.slc.cpg/sg11_19_cif.got.tgz:37405.got - 2010.06.27 23:14:04.
