data_PCOD8073832
_publ_section_title
;
Structure prediction by ZEFSAII (Michael W. Deem and Ramdas Pophale) SiO2 
 PCOD8073832
Probable space group: P 21/M
;
_chemical_formula_sum "Si O2"
_cell_formula_units_Z 28
_cell_length_a 14.182140
_cell_length_b 9.146386
_cell_length_c 13.500897
_cell_angle_alpha 90.000000
_cell_angle_beta 121.127084
_cell_angle_gamma 90.000000
_cell_volume 1499.129881
_symmetry_space_group_name_H-M "P 21/M"
_symmetry_group_IT_number 11
_symmetry_cell_setting 'monoclinic'
loop_
_space_group_symop_operation_xyz
x,y,z
-x,1/2+y,-z
-x,-y,-z
x,1/2-y,z
loop_
_atom_site_type_symbol
_atom_site_label
_atom_site_fract_x
_atom_site_fract_y
_atom_site_fract_z
Si Si1 0.169494 0.581598 0.554582
Si Si2 0.268476 0.419525 0.322650
Si Si3 0.058934 0.078209 0.322614
Si Si4 0.387028 0.583652 0.551383
Si Si5 0.598982 0.075110 0.995079
Si Si6 0.180541 0.922023 0.781869
Si Si7 0.599041 0.579865 0.788412
O O1 0.132304 0.750000 0.534464
O O2 0.082205 0.493452 0.441548
O O3 0.290984 0.560932 0.578258
O O4 0.172559 0.514427 0.666509
O O5 0.277121 0.250000 0.351546
O O6 0.146286 0.478255 0.286928
O O7 0.364037 0.492291 0.440044
O O8 0.290999 0.447863 0.218303
O O9 0.069942 0.250000 0.343905
O O10 0.933553 0.037708 0.222552
O O11 0.397368 0.750000 0.522424
O O12 0.497694 0.531564 0.664720
O O13 0.586965 0.250000 0.994548
O O14 0.713551 0.015191 0.103564
O O15 0.500000 0.000000 0.000000
O O16 0.600231 0.025190 0.882580
O O17 0.197049 0.750000 0.783198
O O18 0.589044 0.750000 0.815658
#
# Coordination Sequence:
#
# PCOD8073832 Si02
#       7
#     4   4   4   4   4   4   4
#     4   9  16  28  47  72  99 129 163 203 250 299
#     4   9  18  31  50  76 105 133 167 210 251 291
#     4   9  17  31  50  74 102 132 165 203 245 294
#     4   9  17  29  48  72 102 136 168 205 254 305
#     4  11  23  39  57  76  98 129 168 209 250 299
#     4   9  18  33  52  71  98 135 169 200 247 303
#     4  10  20  35  52  73 103 138 170 206 252 297
#
# _framework density 18.677499999999998
#
# number of rings (size 3 to 8) (size 9 to 14) (size 15 to 20)
#    0.000    2.571    0.000    2.143    0.000    3.429 
#    0.000    6.429    0.000    0.000    0.000    0.000 
#    0.000    0.000    0.000    0.000    0.000    0.000 
#
# Total GULP energy -347089.437011 kJ/mol
# GULP energy per Si atom -12396.051322 kJ/mol
# Density = 1.863499 g / cm^3
# Si number density = 18.677500 Si / 1000 Ang^3
#
#
#
# Elastic Constant Matrix: (Units=GPa)
#
#
# Indices 1 2 3 4 5 6 
#
# 1 119.8986 37.6398 81.0411 0.0000 7.7334 0.0000
# 2 37.6398 45.0507 40.2936 0.0000 -0.0094 0.0000
# 3 81.0411 40.2936 96.6631 0.0000 -0.9608 0.0000
# 4 0.0000 0.0000 0.0000 28.8478 0.0000 -2.9851
# 5 7.7334 -0.0094 -0.9608 0.0000 30.8081 0.0000
# 6 0.0000 0.0000 0.0000 -2.9851 0.0000 22.2163
#
#
#
# Elastic Compliance Matrix: (Units=1/GPa)
#
#
# Indices 1 2 3 4 5 6 
#
# 1 0.020371 -0.002704 -0.016007 0.000000 -0.005614 0.000000
# 2 -0.002704 0.035758 -0.012636 0.000000 0.000296 0.000000
# 3 -0.016007 -0.012636 0.029082 0.000000 0.004921 0.000000
# 4 0.000000 0.000000 0.000000 0.035153 0.000000 0.004723
# 5 -0.005614 0.000296 0.004921 0.000000 0.034022 0.000000
# 6 0.000000 0.000000 0.000000 0.004723 0.000000 0.045647
#
#
# Mechanical properties :
#
#
# Convention : Reuss Voigt Hill
#
# Bulk Modulus (GPa) = 44.41199 64.39572 54.40386
# Shear Modulus (GPa) = 18.50269 23.21698 20.85983
#
# Velocity S-wave (km/s) = 3.15086 3.52951 3.34555
# Velocity P-wave (km/s) = 6.08828 7.15279 6.64190
#
# Compressibility (1/GPa) = 0.02251644
#
# Stress axis : x y z
#
# Youngs Moduli (GPa) = 49.08963 27.96600 34.38609
#
# Poissons Ratio (x) = 0.07562 0.55043
# Poissons Ratio (y) = 0.13274 0.43449
# Poissons Ratio (z) = 0.78579 0.35336
#
# Static dielectric constant tensor:
#      x y z
#    x 3.873910 0.000000 0.055870 
#    y 0.000000 3.265390 0.000000 
#    z 0.055870 0.000000 3.386440 
# 
# 
# High freq. dielectric constant tensor:
#      x y z
#    x 1.746980 0.000000 -0.001150 
#    y 0.000000 1.703730 0.000000 
#    z -0.001150 0.000000 1.703320 
# 
# From -- ./inp_files/37894.got.cif
#   From: 2010.06.25/outbox.cif.g09.slc.cpg/sg11_19_cif.got.tgz:37894.got - 2010.06.27 23:14:04.
