data_PCOD8073974
_publ_section_title
;
Structure prediction by ZEFSAII (Michael W. Deem and Ramdas Pophale) SiO2 
 PCOD8073974
Probable space group: P 21/M
;
_chemical_formula_sum "Si O2"
_cell_formula_units_Z 28
_cell_length_a 16.752342
_cell_length_b 10.079867
_cell_length_c 14.760335
_cell_angle_alpha 90.000000
_cell_angle_beta 35.092555
_cell_angle_gamma 90.000000
_cell_volume 1432.907159
_symmetry_space_group_name_H-M "P 21/M"
_symmetry_group_IT_number 11
_symmetry_cell_setting 'monoclinic'
loop_
_space_group_symop_operation_xyz
x,y,z
-x,1/2+y,-z
-x,-y,-z
x,1/2-y,z
loop_
_atom_site_type_symbol
_atom_site_label
_atom_site_fract_x
_atom_site_fract_y
_atom_site_fract_z
Si Si1 0.500531 0.903514 0.208680
Si Si2 0.309183 0.398172 0.802758
Si Si3 0.719035 0.599265 0.657765
Si Si4 0.964778 0.487074 0.893209
Si Si5 0.263752 0.402160 0.151509
Si Si6 0.972602 0.399408 0.685958
Si Si7 0.185661 0.895246 0.802897
O O1 0.456647 0.750000 0.237715
O O2 0.562532 0.929973 0.250715
O O3 0.367939 0.997441 0.322261
O O4 0.612672 0.944751 0.029400
O O5 0.321147 0.250000 0.752557
O O6 0.306888 0.501173 0.720068
O O7 0.165349 0.410505 0.994266
O O8 0.685351 0.750000 0.658255
O O9 0.681061 0.579006 0.798033
O O10 0.880176 0.566782 0.494753
O O11 0.983671 0.406839 0.783946
O O12 0.109414 0.562116 0.780919
O O13 0.930700 0.387880 0.008758
O O14 0.217675 0.250000 0.176800
O O15 0.133590 0.496352 0.256307
O O16 0.925853 0.250000 0.703696
O O17 0.252504 0.750000 0.727084
#
# Coordination Sequence:
#
# PCOD8073974 Si02
#       7
#     4   4   4   4   4   4   4
#     4  10  20  35  55  79 107 142 182 219 263 317
#     4   9  17  30  50  76 106 134 167 215 263 307
#     4  10  23  38  53  77 110 144 179 221 269 318
#     4   9  18  28  50  74 109 133 168 215 262 309
#     4  10  20  37  58  80 105 137 180 228 271 314
#     4  11  22  36  54  80 110 142 179 219 268 322
#     4   9  17  28  49  80 107 133 170 216 265 313
#
# _framework density 19.540693999999998
#
# number of rings (size 3 to 8) (size 9 to 14) (size 15 to 20)
#    0.857    1.429    1.429    1.714    0.000    3.429 
#    0.000    0.000    0.000    0.857    0.000    0.000 
#    0.000    0.000    0.000    0.000    0.000    0.000 
#
# Total GULP energy -347085.282695 kJ/mol
# GULP energy per Si atom -12395.902953 kJ/mol
# Density = 1.949622 g / cm^3
# Si number density = 19.540694 Si / 1000 Ang^3
#
#
#
# Elastic Constant Matrix: (Units=GPa)
#
#
# Indices 1 2 3 4 5 6 
#
# 1 77.2923 53.5367 3.0734 0.0000 -18.2820 0.0000
# 2 53.5367 124.5594 18.5485 0.0000 -29.5338 0.0000
# 3 3.0734 18.5485 19.9328 0.0000 -10.5755 0.0000
# 4 0.0000 0.0000 0.0000 24.3163 0.0000 -10.1593
# 5 -18.2820 -29.5338 -10.5755 0.0000 17.5266 0.0000
# 6 0.0000 0.0000 0.0000 -10.1593 0.0000 32.8810
#
#
#
# Elastic Compliance Matrix: (Units=1/GPa)
#
#
# Indices 1 2 3 4 5 6 
#
# 1 0.021563 -0.006680 0.013021 0.000000 0.019093 0.000000
# 2 -0.006680 0.015447 -0.004752 0.000000 0.016194 0.000000
# 3 0.013021 -0.004752 0.081695 0.000000 0.054869 0.000000
# 4 0.000000 0.000000 0.000000 0.047220 0.000000 0.014590
# 5 0.019093 0.016194 0.054869 0.000000 0.137368 0.000000
# 6 0.000000 0.000000 0.000000 0.014590 0.000000 0.034920
#
#
# Mechanical properties :
#
#
# Convention : Reuss Voigt Hill
#
# Bulk Modulus (GPa) = 8.20461 41.34462 24.77461
# Shear Modulus (GPa) = 13.30983 24.71984 19.01483
#
# Velocity S-wave (km/s) = 2.61269 3.56060 3.12282
# Velocity P-wave (km/s) = 3.64820 6.17317 5.07037
#
# Compressibility (1/GPa) = 0.12188276
#
# Stress axis : x y z
#
# Youngs Moduli (GPa) = 46.37539 64.73886 12.24073
#
# Poissons Ratio (x) = 0.43245 -0.15939
# Poissons Ratio (y) = 0.30978 0.05817
# Poissons Ratio (z) = -0.60388 0.30766
#
# Static dielectric constant tensor:
#      x y z
#    x 3.455450 0.000000 0.054680 
#    y 0.000000 3.478280 0.000000 
#    z 0.054680 0.000000 3.157080 
# 
# 
# High freq. dielectric constant tensor:
#      x y z
#    x 1.763220 0.000000 0.001260 
#    y 0.000000 1.761610 0.000000 
#    z 0.001260 0.000000 1.724960 
# 
# From -- ./inp_files/61257.got.cif
#   From: 2010.06.25/outbox.cif.g09.slc.cpg/sg11_31_cif.got.tgz:61257.got - 2010.06.27 23:14:04.
