data_PCOD8073069
_publ_section_title
;
Structure prediction by ZEFSAII (Michael W. Deem and Ramdas Pophale) SiO2 
 PCOD8073069
Probable space group: P 21/M
;
_chemical_formula_sum "Si O2"
_cell_formula_units_Z 24
_cell_length_a 11.530608
_cell_length_b 9.360187
_cell_length_c 22.997621
_cell_angle_alpha 90.000000
_cell_angle_beta 30.649027
_cell_angle_gamma 90.000000
_cell_volume 1265.320438
_symmetry_space_group_name_H-M "P 21/M"
_symmetry_group_IT_number 11
_symmetry_cell_setting 'monoclinic'
loop_
_space_group_symop_operation_xyz
x,y,z
-x,1/2+y,-z
-x,-y,-z
x,1/2-y,z
loop_
_atom_site_type_symbol
_atom_site_label
_atom_site_fract_x
_atom_site_fract_y
_atom_site_fract_z
Si Si1 0.837672 0.919915 0.460037
Si Si2 0.577576 0.582517 0.329503
Si Si3 0.348149 0.918054 0.239561
Si Si4 0.785112 0.917792 0.119368
Si Si5 0.344557 0.917311 0.110263
Si Si6 0.838036 0.581201 0.328871
O O1 0.818008 0.750000 0.475916
O O2 0.770608 0.967964 0.422917
O O3 0.093732 0.974886 0.364907
O O4 0.659634 0.999059 0.579342
O O5 0.521419 0.750000 0.356668
O O6 0.758642 0.552957 0.199732
O O7 0.678981 0.520429 0.346229
O O8 0.333627 0.750000 0.252869
O O9 0.549873 0.978082 0.192975
O O10 0.413030 0.959723 0.146050
O O11 0.818006 0.750000 0.091903
O O12 0.000000 0.000000 0.000000
O O13 0.371561 0.750000 0.088083
O O14 0.091472 0.971287 0.206309
O O15 0.500000 0.000000 0.000000
O O16 0.832641 0.750000 0.328808
#
# Coordination Sequence:
#
# PCOD8073069 Si02
#       6
#     4   4   4   4   4   4
#     4   9  17  33  56  76  98 133 171 205 248 309
#     4  10  20  33  51  76 105 134 164 209 260 297
#     4   8  17  35  53  71 101 137 168 205 255 304
#     4  10  22  38  54  73 102 139 174 210 254 302
#     4   9  17  30  50  72  97 132 170 207 248 297
#     4   8  16  31  49  72 103 134 162 199 256 309
#
# _framework density 18.967525999999999
#
# number of rings (size 3 to 8) (size 9 to 14) (size 15 to 20)
#    0.000    3.000    0.000    2.500    2.333    1.333 
#    0.000    5.000    0.000    0.000    0.000    0.000 
#    0.000    0.000    0.000    0.000    0.000    0.000 
#
# Total GULP energy -297404.904539 kJ/mol
# GULP energy per Si atom -12391.871022 kJ/mol
# Density = 1.892436 g / cm^3
# Si number density = 18.967526 Si / 1000 Ang^3
#
#
#
# Elastic Constant Matrix: (Units=GPa)
#
#
# Indices 1 2 3 4 5 6 
#
# 1 91.0766 24.8901 39.8604 0.0000 -17.2250 0.0000
# 2 24.8901 56.8047 44.0406 0.0000 2.1208 0.0000
# 3 39.8604 44.0406 135.3415 0.0000 -5.0513 0.0000
# 4 0.0000 0.0000 0.0000 39.3766 0.0000 -1.2984
# 5 -17.2250 2.1208 -5.0513 0.0000 20.7146 0.0000
# 6 0.0000 0.0000 0.0000 -1.2984 0.0000 16.2533
#
#
#
# Elastic Compliance Matrix: (Units=1/GPa)
#
#
# Indices 1 2 3 4 5 6 
#
# 1 0.016123 -0.005713 -0.002389 0.000000 0.013409 0.000000
# 2 -0.005713 0.025957 -0.007105 0.000000 -0.009141 0.000000
# 3 -0.002389 -0.007105 0.010452 0.000000 0.001290 0.000000
# 4 0.000000 0.000000 0.000000 0.025463 0.000000 0.002034
# 5 0.013409 -0.009141 0.001290 0.000000 0.060676 0.000000
# 6 0.000000 0.000000 0.000000 0.002034 0.000000 0.061689
#
#
# Mechanical properties :
#
#
# Convention : Reuss Voigt Hill
#
# Bulk Modulus (GPa) = 45.21141 55.64500 50.42821
# Shear Modulus (GPa) = 20.99550 26.89767 23.94659
#
# Velocity S-wave (km/s) = 3.33065 3.76984 3.55703
# Velocity P-wave (km/s) = 6.21924 6.95339 6.59653
#
# Compressibility (1/GPa) = 0.02211831
#
# Stress axis : x y z
#
# Youngs Moduli (GPa) = 62.02498 38.52475 95.67093
#
# Poissons Ratio (x) = 0.22009 0.22855
# Poissons Ratio (y) = 0.35434 0.67976
# Poissons Ratio (z) = 0.14817 0.27373
#
# Static dielectric constant tensor:
#      x y z
#    x 4.159400 0.000000 -0.083470 
#    y 0.000000 2.919830 0.000000 
#    z -0.083470 0.000000 3.416030 
# 
# 
# High freq. dielectric constant tensor:
#      x y z
#    x 1.741210 0.000000 -0.004170 
#    y 0.000000 1.693200 0.000000 
#    z -0.004170 0.000000 1.745530 
# 
# From -- ./inp_files/27564.got.cif
#   From: 2010.06.25/outbox.cif.g09.slc.cpg/sg11_14_cif.got.tgz:27564.got - 2010.06.27 23:14:04.
