data_PCOD8073827
_publ_section_title
;
Structure prediction by ZEFSAII (Michael W. Deem and Ramdas Pophale) SiO2 
 PCOD8073827
Probable space group: P 21/M
;
_chemical_formula_sum "Si O2"
_cell_formula_units_Z 32
_cell_length_a 14.934899
_cell_length_b 8.866612
_cell_length_c 14.553918
_cell_angle_alpha 90.000000
_cell_angle_beta 73.503539
_cell_angle_gamma 90.000000
_cell_volume 1847.927069
_symmetry_space_group_name_H-M "P 21/M"
_symmetry_group_IT_number 11
_symmetry_cell_setting 'monoclinic'
loop_
_space_group_symop_operation_xyz
x,y,z
-x,1/2+y,-z
-x,-y,-z
x,1/2-y,z
loop_
_atom_site_type_symbol
_atom_site_label
_atom_site_fract_x
_atom_site_fract_y
_atom_site_fract_z
Si Si1 0.739215 0.571857 0.739006
Si Si2 0.259397 0.572627 0.640590
Si Si3 0.636770 0.428948 0.212258
Si Si4 0.072701 0.572674 0.795347
Si Si5 0.819543 0.071517 0.058885
Si Si6 0.707064 0.078156 0.570280
Si Si7 0.440971 0.579216 0.247756
Si Si8 0.878016 0.071168 0.842791
O O1 0.740639 0.750000 0.745558
O O2 0.766982 0.518240 0.627168
O O3 0.634986 0.509150 0.793435
O O4 0.812303 0.503163 0.787438
O O5 0.274149 0.750000 0.632773
O O6 0.330738 0.509966 0.696976
O O7 0.153113 0.534432 0.698093
O O8 0.283356 0.503525 0.533463
O O9 0.625120 0.250000 0.216715
O O10 0.714842 0.480612 0.115670
O O11 0.540396 0.502117 0.210861
O O12 0.049194 0.750000 0.802410
O O13 0.106712 0.516028 0.885816
O O14 0.983394 0.477560 0.791363
O O15 0.822145 0.250000 0.058463
O O16 0.847933 0.007115 0.951509
O O17 0.745097 0.250000 0.559161
O O18 0.598217 0.074973 0.635340
O O19 0.449027 0.750000 0.209328
O O20 0.868517 0.250000 0.840047
#
# Coordination Sequence:
#
# PCOD8073827 Si02
#       8
#     4   4   4   4   4   4   4   4
#     4  10  20  35  52  71  93 126 171 211 241 283
#     4   8  15  30  52  75 102 133 161 195 240 289
#     4   9  16  30  52  76 101 131 165 196 234 289
#     4   9  17  32  53  77 102 129 163 198 235 288
#     4   8  17  32  51  75 103 132 161 196 239 290
#     4   8  16  32  51  71 100 131 160 199 247 286
#     4   9  18  32  50  72 102 131 160 201 247 286
#     4  11  20  33  52  73  99 131 163 201 251 292
#
# _framework density 17.316700999999998
#
# number of rings (size 3 to 8) (size 9 to 14) (size 15 to 20)
#    0.750    2.250    0.000    3.375    0.000    0.500 
#    0.000    6.875    0.000    0.000    0.000    0.000 
#    0.000    0.000    0.000    0.000    0.000    0.000 
#
# Total GULP energy -396516.378075 kJ/mol
# GULP energy per Si atom -12391.136815 kJ/mol
# Density = 1.727729 g / cm^3
# Si number density = 17.316701 Si / 1000 Ang^3
#
#
#
# Elastic Constant Matrix: (Units=GPa)
#
#
# Indices 1 2 3 4 5 6 
#
# 1 **********-4716.8035-6911.8875 0.0000-1142.6898 0.0000
# 2 -4716.8035-2020.0039-3034.9229 0.0000 -501.4386 0.0000
# 3 -6911.8875-3034.9229-4416.0073 0.0000 -735.8997 0.0000
# 4 0.0000 0.0000 0.0000 5.7996 0.0000 -13.7540
# 5 -1142.6898 -501.4386 -735.8997 0.0000 -102.5611 0.0000
# 6 0.0000 0.0000 0.0000 -13.7540 0.0000 11.5531
#
#
#
# Elastic Compliance Matrix: (Units=1/GPa)
#
#
# Indices 1 2 3 4 5 6 
#
# 1 0.010504 -0.005098 -0.012324 0.000000 -0.003684 0.000000
# 2 -0.005098 0.017897 -0.004067 0.000000 -0.001526 0.000000
# 3 -0.012324 -0.004067 0.022162 0.000000 -0.001821 0.000000
# 4 0.000000 0.000000 0.000000 -0.094567 0.000000 -0.112582
# 5 -0.003684 -0.001526 -0.001821 0.000000 0.051825 0.000000
# 6 0.000000 0.000000 0.000000 -0.112582 0.000000 -0.047472
#
#
# Mechanical properties :
#
#
# Convention : Reuss Voigt Hill
#
# Bulk Modulus (GPa) = 131.82288 -5163.00332 -2515.59022
# Shear Modulus (GPa) = 853.90346 -182.12090 335.89128
#
# Velocity S-wave (km/s) = 22.23017 -10.26640 13.94240
# Velocity P-wave (km/s) = 27.11452 55.93319 34.59280
#
# Compressibility (1/GPa) = 0.00758594
#
# Stress axis : x y z
#
# Youngs Moduli (GPa) = 95.19764 55.87400 45.12265
#
# Poissons Ratio (x) = 0.28482 0.55610
# Poissons Ratio (y) = 0.48528 0.18352
# Poissons Ratio (z) = 1.17323 0.22725
#
# Static dielectric constant tensor:
#      x y z
#    x 3.115540 0.000000 0.010010 
#    y 0.000000 3.000540 0.000000 
#    z 0.010010 0.000000 3.463540 
# 
# 
# High freq. dielectric constant tensor:
#      x y z
#    x 1.662790 0.000000 -0.001160 
#    y 0.000000 1.648920 0.000000 
#    z -0.001160 0.000000 1.658960 
# 
# From -- ./inp_files/51202.got.cif
#   From: 2010.06.25/outbox.cif.g09.slc.cpg/sg11_26_cif.got.tgz:51202.got - 2010.06.27 23:14:04.
