data_PCOD8073001
_publ_section_title
;
Structure prediction by ZEFSAII (Michael W. Deem and Ramdas Pophale) SiO2 
 PCOD8073001
Probable space group: P 21/M
;
_chemical_formula_sum "Si O2"
_cell_formula_units_Z 32
_cell_length_a 21.953769
_cell_length_b 8.316915
_cell_length_c 12.201139
_cell_angle_alpha 90.000000
_cell_angle_beta 133.461331
_cell_angle_gamma 90.000000
_cell_volume 1617.006979
_symmetry_space_group_name_H-M "P 21/M"
_symmetry_group_IT_number 11
_symmetry_cell_setting 'monoclinic'
loop_
_space_group_symop_operation_xyz
x,y,z
-x,1/2+y,-z
-x,-y,-z
x,1/2-y,z
loop_
_atom_site_type_symbol
_atom_site_label
_atom_site_fract_x
_atom_site_fract_y
_atom_site_fract_z
Si Si1 0.349543 0.441402 0.446446
Si Si2 0.718596 0.565204 0.268884
Si Si3 0.443342 0.934287 0.835860
Si Si4 0.700431 0.437767 0.009563
Si Si5 0.519970 0.431606 0.724424
Si Si6 0.093733 0.939879 0.106840
Si Si7 0.217942 0.562582 0.448549
Si Si8 0.776891 0.937649 0.895998
O O1 0.343494 0.250000 0.456389
O O2 0.448246 0.496741 0.549699
O O3 0.307849 0.526697 0.501139
O O4 0.299631 0.495432 0.276347
O O5 0.691076 0.750000 0.238603
O O6 0.650386 0.445797 0.235652
O O7 0.735477 0.519360 0.163631
O O8 0.794197 0.531292 0.449450
O O9 0.464126 0.750000 0.829858
O O10 0.463304 0.055192 0.762514
O O11 0.500000 0.000000 0.000000
O O12 0.688686 0.250000 0.019042
O O13 0.610668 0.517153 0.856387
O O14 0.769176 0.468523 0.001168
O O15 0.541826 0.250000 0.721544
O O16 0.098002 0.750000 0.099635
O O17 0.144266 0.998794 0.276731
O O18 0.134681 0.018491 0.049524
O O19 0.000000 0.000000 0.000000
O O20 0.209053 0.750000 0.460263
O O21 0.772573 0.750000 0.915172
#
# Coordination Sequence:
#
# PCOD8073001 Si02
#       8
#     4   4   4   4   4   4   4   4
#     4   9  18  33  53  76 106 146 191 239 286 331
#     4  12  23  35  53  77 110 150 192 237 284 335
#     4  12  22  32  48  72 103 143 192 246 290 330
#     4  11  23  37  53  75 110 154 199 241 281 333
#     4  10  20  33  50  73 104 147 196 243 287 328
#     4  10  21  39  66  96 121 144 176 220 274 335
#     4  10  20  34  55  86 117 144 181 230 280 331
#     4  10  21  38  58  82 114 149 188 231 279 338
#
# _framework density 19.789648
#
# number of rings (size 3 to 8) (size 9 to 14) (size 15 to 20)
#    0.000    1.500    2.500    3.750    0.000    3.000 
#    0.000    0.000    0.000    0.750    0.000    0.000 
#    0.000    0.000    0.000    0.000    0.000    0.000 
#
# Total GULP energy -396521.484133 kJ/mol
# GULP energy per Si atom -12391.296379 kJ/mol
# Density = 1.974461 g / cm^3
# Si number density = 19.789648 Si / 1000 Ang^3
#
#
#
# Elastic Constant Matrix: (Units=GPa)
#
#
# Indices 1 2 3 4 5 6 
#
# 1 94.8533 13.1592 57.1331 0.0000 -5.6752 0.0000
# 2 13.1592 58.6455 18.3340 0.0000 -2.6637 0.0000
# 3 57.1331 18.3340 87.8841 0.0000 -2.6755 0.0000
# 4 0.0000 0.0000 0.0000 23.7541 0.0000 -2.8610
# 5 -5.6752 -2.6637 -2.6755 0.0000 30.5607 0.0000
# 6 0.0000 0.0000 0.0000 -2.8610 0.0000 27.0282
#
#
#
# Elastic Compliance Matrix: (Units=1/GPa)
#
#
# Indices 1 2 3 4 5 6 
#
# 1 0.017487 -0.000310 -0.011235 0.000000 0.002237 0.000000
# 2 -0.000310 0.018295 -0.003578 0.000000 0.001224 0.000000
# 3 -0.011235 -0.003578 0.019408 0.000000 -0.000699 0.000000
# 4 0.000000 0.000000 0.000000 0.042642 0.000000 0.004514
# 5 0.002237 0.001224 -0.000699 0.000000 0.033183 0.000000
# 6 0.000000 0.000000 0.000000 0.004514 0.000000 0.037476
#
#
# Mechanical properties :
#
#
# Convention : Reuss Voigt Hill
#
# Bulk Modulus (GPa) = 40.09051 46.51505 43.30278
# Shear Modulus (GPa) = 24.14861 26.45239 25.30050
#
# Velocity S-wave (km/s) = 3.49702 3.66003 3.57945
# Velocity P-wave (km/s) = 6.05044 6.43559 6.24598
#
# Compressibility (1/GPa) = 0.02494356
#
# Stress axis : x y z
#
# Youngs Moduli (GPa) = 57.18583 54.65893 51.52543
#
# Poissons Ratio (x) = 0.01693 0.57891
# Poissons Ratio (y) = 0.01771 0.18436
# Poissons Ratio (z) = 0.64251 0.19557
#
# Static dielectric constant tensor:
#      x y z
#    x 3.258900 0.000000 -0.112120 
#    y 0.000000 3.593050 0.000000 
#    z -0.112120 0.000000 3.837380 
# 
# 
# High freq. dielectric constant tensor:
#      x y z
#    x 1.733220 0.000000 -0.015100 
#    y 0.000000 1.769800 0.000000 
#    z -0.015100 0.000000 1.778320 
# 
# From -- ./inp_files/43805.got.cif
#   From: 2010.06.25/outbox.cif.g09.slc.cpg/sg11_22_cif.got.tgz:43805.got - 2010.06.27 23:14:04.
