data_PCOD8073575
_publ_section_title
;
Structure prediction by ZEFSAII (Michael W. Deem and Ramdas Pophale) SiO2 
 PCOD8073575
Probable space group: P 21/M
;
_chemical_formula_sum "Si O2"
_cell_formula_units_Z 28
_cell_length_a 10.997988
_cell_length_b 9.097697
_cell_length_c 14.865040
_cell_angle_alpha 90.000000
_cell_angle_beta 69.048569
_cell_angle_gamma 90.000000
_cell_volume 1389.004552
_symmetry_space_group_name_H-M "P 21/M"
_symmetry_group_IT_number 11
_symmetry_cell_setting 'monoclinic'
loop_
_space_group_symop_operation_xyz
x,y,z
-x,1/2+y,-z
-x,-y,-z
x,1/2-y,z
loop_
_atom_site_type_symbol
_atom_site_label
_atom_site_fract_x
_atom_site_fract_y
_atom_site_fract_z
Si Si1 0.095688 0.420564 0.228585
Si Si2 0.267037 0.585889 0.776511
Si Si3 0.673024 0.416066 0.874725
Si Si4 0.576726 0.087745 0.085938
Si Si5 0.636997 0.421076 0.445621
Si Si6 0.023172 0.422169 0.900471
Si Si7 0.916612 0.077408 0.443839
O O1 0.091735 0.250000 0.206179
O O2 0.241856 0.474681 0.211870
O O3 0.078731 0.519491 0.144686
O O4 0.990618 0.460359 0.331732
O O5 0.202508 0.750000 0.785923
O O6 0.369740 0.582880 0.828311
O O7 0.335809 0.546223 0.665380
O O8 0.163100 0.461094 0.823547
O O9 0.701414 0.250000 0.836288
O O10 0.524209 0.455573 0.893839
O O11 0.688889 0.435147 0.979733
O O12 0.513753 0.250000 0.085857
O O13 0.500000 0.500000 0.500000
O O14 0.616186 0.250000 0.470316
O O15 0.764413 0.474109 0.471884
O O16 0.006785 0.250000 0.918169
O O17 0.000000 0.500000 0.000000
O O18 0.921699 0.250000 0.462207
O O19 0.000000 0.000000 0.500000
#
# Coordination Sequence:
#
# PCOD8073575 Si02
#       7
#     4   4   4   4   4   4   4
#     4  11  22  40  62  85 120 160 202 252 311 371
#     4  10  20  39  62  84 118 157 203 258 311 369
#     4  10  20  34  54  85 122 158 202 251 300 366
#     4   9  19  35  56  81 115 161 203 245 304 368
#     4  10  22  42  65  91 124 162 209 269 331 387
#     4  12  24  37  59  91 125 161 202 246 303 370
#     4  10  23  43  66  92 125 164 210 266 327 388
#
# _framework density 20.158321000000001
#
# number of rings (size 3 to 8) (size 9 to 14) (size 15 to 20)
#    0.000    1.714    1.429    3.000    0.000    5.714 
#    0.000    4.286    0.000    0.000    0.000    0.000 
#    0.000    0.000    0.000    0.000    0.000    0.000 
#
# Total GULP energy -346965.196427 kJ/mol
# GULP energy per Si atom -12391.614158 kJ/mol
# Density = 2.011244 g / cm^3
# Si number density = 20.158321 Si / 1000 Ang^3
#
#
#
# Elastic Constant Matrix: (Units=GPa)
#
#
# Indices 1 2 3 4 5 6 
#
# 1 106.5148 49.6118 55.2423 0.0000 -10.2484 0.0000
# 2 49.6118 110.2936 59.5405 0.0000 -6.9224 0.0000
# 3 55.2423 59.5405 88.2799 0.0000 -14.0915 0.0000
# 4 0.0000 0.0000 0.0000 34.6523 0.0000 -5.3003
# 5 -10.2484 -6.9224 -14.0915 0.0000 34.6333 0.0000
# 6 0.0000 0.0000 0.0000 -5.3003 0.0000 36.6969
#
#
#
# Elastic Compliance Matrix: (Units=1/GPa)
#
#
# Indices 1 2 3 4 5 6 
#
# 1 0.014355 -0.002559 -0.007123 0.000000 0.000838 0.000000
# 2 -0.002559 0.014756 -0.008557 0.000000 -0.001289 0.000000
# 3 -0.007123 -0.008557 0.022401 0.000000 0.005297 0.000000
# 4 0.000000 0.000000 0.000000 0.029510 0.000000 0.004262
# 5 0.000838 -0.001289 0.005297 0.000000 0.031019 0.000000
# 6 0.000000 0.000000 0.000000 0.004262 0.000000 0.027866
#
#
# Mechanical properties :
#
#
# Convention : Reuss Voigt Hill
#
# Bulk Modulus (GPa) = 66.51204 70.43085 68.47144
# Shear Modulus (GPa) = 27.56368 30.57607 29.06988
#
# Velocity S-wave (km/s) = 3.70179 3.89883 3.80159
# Velocity P-wave (km/s) = 7.16502 7.43522 7.30137
#
# Compressibility (1/GPa) = 0.01503487
#
# Stress axis : x y z
#
# Youngs Moduli (GPa) = 69.66022 67.76813 44.63992
#
# Poissons Ratio (x) = 0.17344 0.31798
# Poissons Ratio (y) = 0.17829 0.38197
# Poissons Ratio (z) = 0.49620 0.57987
#
# Static dielectric constant tensor:
#      x y z
#    x 3.778310 0.000000 -0.005950 
#    y 0.000000 3.569940 0.000000 
#    z -0.005950 0.000000 3.671480 
# 
# 
# High freq. dielectric constant tensor:
#      x y z
#    x 1.791840 0.000000 -0.004920 
#    y 0.000000 1.784640 0.000000 
#    z -0.004920 0.000000 1.786370 
# 
# From -- ./inp_files/37686.got.cif
#   From: 2010.06.25/outbox.cif.g09.slc.cpg/sg11_19_cif.got.tgz:37686.got - 2010.06.27 23:14:04.
