data_PCOD8073467
_publ_section_title
;
Structure prediction by ZEFSAII (Michael W. Deem and Ramdas Pophale) SiO2 
 PCOD8073467
Probable space group: P 21/M
;
_chemical_formula_sum "Si O2"
_cell_formula_units_Z 32
_cell_length_a 7.020287
_cell_length_b 16.740505
_cell_length_c 13.884824
_cell_angle_alpha 90.000000
_cell_angle_beta 95.786286
_cell_angle_gamma 90.000000
_cell_volume 1623.474073
_symmetry_space_group_name_H-M "P 21/M"
_symmetry_group_IT_number 11
_symmetry_cell_setting 'monoclinic'
loop_
_space_group_symop_operation_xyz
x,y,z
-x,1/2+y,-z
-x,-y,-z
x,1/2-y,z
loop_
_atom_site_type_symbol
_atom_site_label
_atom_site_fract_x
_atom_site_fract_y
_atom_site_fract_z
Si Si1 0.435333 0.550234 0.372342
Si Si2 0.933643 0.659215 0.866173
Si Si3 0.434586 0.451635 0.904716
Si Si4 0.077945 0.340626 0.916891
Si Si5 0.201968 0.531651 0.545417
Si Si6 0.209361 0.659340 0.708062
Si Si7 0.429401 0.422110 0.229641
Si Si8 0.316358 0.841277 0.194947
O O1 0.321379 0.569968 0.463687
O O2 0.664667 0.539100 0.403042
O O3 0.357419 0.466126 0.323494
O O4 0.393845 0.622925 0.298529
O O5 0.870344 0.750000 0.843463
O O6 0.748808 0.603354 0.843742
O O7 0.098292 0.634217 0.799995
O O8 0.006369 0.647855 0.979220
O O9 0.229784 0.409878 0.904831
O O10 0.434134 0.513034 0.815894
O O11 0.587361 0.382203 0.892505
O O12 0.500000 0.500000 0.000000
O O13 0.162501 0.250000 0.911996
O O14 0.911344 0.352341 0.829688
O O15 0.152242 0.600614 0.619200
O O16 0.000000 0.500000 0.500000
O O17 0.160421 0.750000 0.675669
O O18 0.437005 0.653459 0.739740
O O19 0.377704 0.750000 0.197782
#
# Coordination Sequence:
#
# PCOD8073467 Si02
#       8
#     4   4   4   4   4   4   4   4
#     4   9  21  38  59  88 111 145 191 232 297 358
#     4  10  20  34  53  80 115 154 194 234 283 339
#     4  11  22  36  55  84 113 154 204 244 285 339
#     4  10  22  38  57  83 118 161 203 243 287 341
#     4  10  20  39  64  85 115 147 183 242 300 354
#     4  10  22  37  57  85 113 147 191 236 290 351
#     4  10  20  36  56  81 116 149 187 241 289 337
#     4  10  23  41  59  83 121 160 198 245 292 349
#
# _framework density 19.710816000000001
#
# number of rings (size 3 to 8) (size 9 to 14) (size 15 to 20)
#    0.000    2.000    1.250    1.500    1.750    6.000 
#    0.000    0.625    0.000    0.000    0.000    0.000 
#    0.000    0.000    0.000    0.000    0.000    0.000 
#
# Total GULP energy -396688.568151 kJ/mol
# GULP energy per Si atom -12396.517755 kJ/mol
# Density = 1.966595 g / cm^3
# Si number density = 19.710816 Si / 1000 Ang^3
#
#
#
# Elastic Constant Matrix: (Units=GPa)
#
#
# Indices 1 2 3 4 5 6 
#
# 1 80.6269 49.0247 32.9224 0.0000 10.2918 0.0000
# 2 49.0247 101.8554 43.1150 0.0000 0.8781 0.0000
# 3 32.9224 43.1150 94.2554 0.0000 2.2642 0.0000
# 4 0.0000 0.0000 0.0000 34.1979 0.0000 -2.3907
# 5 10.2918 0.8781 2.2642 0.0000 38.8167 0.0000
# 6 0.0000 0.0000 0.0000 -2.3907 0.0000 31.3335
#
#
#
# Elastic Compliance Matrix: (Units=1/GPa)
#
#
# Indices 1 2 3 4 5 6 
#
# 1 0.018968 -0.007853 -0.002921 0.000000 -0.004681 0.000000
# 2 -0.007853 0.015427 -0.004361 0.000000 0.001988 0.000000
# 3 -0.002921 -0.004361 0.013623 0.000000 0.000078 0.000000
# 4 0.000000 0.000000 0.000000 0.029398 0.000000 0.002243
# 5 -0.004681 0.001988 0.000078 0.000000 0.026954 0.000000
# 6 0.000000 0.000000 0.000000 0.002243 0.000000 0.032086
#
#
# Mechanical properties :
#
#
# Convention : Reuss Voigt Hill
#
# Bulk Modulus (GPa) = 56.34650 58.54020 57.44335
# Shear Modulus (GPa) = 28.96187 30.98133 29.97160
#
# Velocity S-wave (km/s) = 3.83735 3.96889 3.90367
# Velocity P-wave (km/s) = 6.94855 7.12508 7.03737
#
# Compressibility (1/GPa) = 0.01774733
#
# Stress axis : x y z
#
# Youngs Moduli (GPa) = 52.72076 64.82321 73.40651
#
# Poissons Ratio (x) = 0.50905 0.21440
# Poissons Ratio (y) = 0.41401 0.32015
# Poissons Ratio (z) = 0.15398 0.28272
#
# Static dielectric constant tensor:
#      x y z
#    x 3.526950 0.000000 -0.058030 
#    y 0.000000 3.560830 0.000000 
#    z -0.058030 0.000000 3.818520 
# 
# 
# High freq. dielectric constant tensor:
#      x y z
#    x 1.762620 0.000000 -0.000110 
#    y 0.000000 1.765420 0.000000 
#    z -0.000110 0.000000 1.774470 
# 
# From -- ./inp_files/46040.got.cif
#   From: 2010.06.25/outbox.cif.g09.slc.cpg/sg11_24_cif.got.tgz:46040.got - 2010.06.27 23:14:04.
