data_PCOD8073117
_publ_section_title
;
Structure prediction by ZEFSAII (Michael W. Deem and Ramdas Pophale) SiO2 
 PCOD8073117
Probable space group: P 21/M
;
_chemical_formula_sum "Si O2"
_cell_formula_units_Z 20
_cell_length_a 10.976033
_cell_length_b 13.806454
_cell_length_c 7.202425
_cell_angle_alpha 90.000000
_cell_angle_beta 63.673478
_cell_angle_gamma 90.000000
_cell_volume 978.251685
_symmetry_space_group_name_H-M "P 21/M"
_symmetry_group_IT_number 11
_symmetry_cell_setting 'monoclinic'
loop_
_space_group_symop_operation_xyz
x,y,z
-x,1/2+y,-z
-x,-y,-z
x,1/2-y,z
loop_
_atom_site_type_symbol
_atom_site_label
_atom_site_fract_x
_atom_site_fract_y
_atom_site_fract_z
Si Si1 0.040011 0.523099 0.181923
Si Si2 0.570628 0.859191 0.770583
Si Si3 0.230193 0.139565 0.042360
Si Si4 0.748451 0.537739 0.360374
Si Si5 0.730550 0.360271 0.121504
O O1 0.894375 0.548877 0.373251
O O2 0.111212 0.426379 0.215429
O O3 0.148974 0.610891 0.104033
O O4 0.000000 0.500000 0.000000
O O5 0.603814 0.750000 0.679420
O O6 0.630965 0.934565 0.581912
O O7 0.409688 0.875519 0.895072
O O8 0.632380 0.875832 0.932864
O O9 0.179836 0.250000 0.079602
O O10 0.260690 0.107647 0.811803
O O11 0.729973 0.426627 0.306683
O O12 0.750623 0.250000 0.173070
#
# Coordination Sequence:
#
# PCOD8073117 Si02
#       5
#     4   4   4   4   4
#     4   8  18  31  50  76  97 128 166 201 244 294
#     4  10  20  33  52  76 100 130 168 206 246 296
#     4   9  18  33  52  74 102 132 163 204 251 295
#     4  10  20  33  53  77 100 131 168 205 246 296
#     4   9  18  33  51  73 102 133 165 205 250 292
#
# _framework density 20.444635999999999
#
# number of rings (size 3 to 8) (size 9 to 14) (size 15 to 20)
#    0.000    3.200    0.000    1.200    0.000   12.000 
#    0.000    0.000    0.000    4.800    0.000    0.000 
#    0.000    0.000    0.000    0.000    0.000    0.000 
#
# Total GULP energy -247821.171145 kJ/mol
# GULP energy per Si atom -12391.058557 kJ/mol
# Density = 2.039810 g / cm^3
# Si number density = 20.444636 Si / 1000 Ang^3
#
#
#
# Elastic Constant Matrix: (Units=GPa)
#
#
# Indices 1 2 3 4 5 6 
#
# 1 141.5213 63.4970 33.6656 0.0000 -26.3636 0.0000
# 2 63.4970 146.3211 31.8656 0.0000 -5.7067 0.0000
# 3 33.6656 31.8656 41.2316 0.0000 -6.5073 0.0000
# 4 0.0000 0.0000 0.0000 5.4735 0.0000 -1.8216
# 5 -26.3636 -5.7067 -6.5073 0.0000 21.6163 0.0000
# 6 0.0000 0.0000 0.0000 -1.8216 0.0000 33.1039
#
#
#
# Elastic Compliance Matrix: (Units=1/GPa)
#
#
# Indices 1 2 3 4 5 6 
#
# 1 0.012287 -0.003715 -0.005198 0.000000 0.012439 0.000000
# 2 -0.003715 0.009342 -0.004738 0.000000 -0.003490 0.000000
# 3 -0.005198 -0.004738 0.032505 0.000000 0.002195 0.000000
# 4 0.000000 0.000000 0.000000 0.186108 0.000000 0.010241
# 5 0.012439 -0.003490 0.002195 0.000000 0.061172 0.000000
# 6 0.000000 0.000000 0.000000 0.010241 0.000000 0.030771
#
#
# Mechanical properties :
#
#
# Convention : Reuss Voigt Hill
#
# Bulk Modulus (GPa) = 37.26725 65.23672 51.25198
# Shear Modulus (GPa) = 13.57110 25.37513 19.47311
#
# Velocity S-wave (km/s) = 2.57922 3.52684 3.08958
# Velocity P-wave (km/s) = 5.20940 6.96872 6.15227
#
# Compressibility (1/GPa) = 0.02683321
#
# Stress axis : x y z
#
# Youngs Moduli (GPa) = 81.38973 107.04422 30.76435
#
# Poissons Ratio (x) = 0.39764 0.15991
# Poissons Ratio (y) = 0.30234 0.14575
# Poissons Ratio (z) = 0.42305 0.50714
#
# Static dielectric constant tensor:
#      x y z
#    x 4.546020 0.000000 -0.554770 
#    y 0.000000 3.862160 0.000000 
#    z -0.554770 0.000000 3.413190 
# 
# 
# High freq. dielectric constant tensor:
#      x y z
#    x 1.820870 0.000000 -0.014920 
#    y 0.000000 1.801280 0.000000 
#    z -0.014920 0.000000 1.752830 
# 
# From -- ./inp_files/12387.got.cif
#   From: 2010.06.25/outbox.cif.g09.slc.cpg/sg11_7_cif.got.tgz:12387.got - 2010.06.27 23:14:04.
