data_PCOD8073465
_publ_section_title
;
Structure prediction by ZEFSAII (Michael W. Deem and Ramdas Pophale) SiO2 
 PCOD8073465
Probable space group: P 21/M
;
_chemical_formula_sum "Si O2"
_cell_formula_units_Z 28
_cell_length_a 21.131079
_cell_length_b 8.980915
_cell_length_c 15.667781
_cell_angle_alpha 90.000000
_cell_angle_beta 151.186007
_cell_angle_gamma 90.000000
_cell_volume 1433.070855
_symmetry_space_group_name_H-M "P 21/M"
_symmetry_group_IT_number 11
_symmetry_cell_setting 'monoclinic'
loop_
_space_group_symop_operation_xyz
x,y,z
-x,1/2+y,-z
-x,-y,-z
x,1/2-y,z
loop_
_atom_site_type_symbol
_atom_site_label
_atom_site_fract_x
_atom_site_fract_y
_atom_site_fract_z
Si Si1 0.856071 0.075485 0.079910
Si Si2 0.017576 0.075648 0.429587
Si Si3 0.598418 0.074247 0.549864
Si Si4 0.527489 0.918977 0.900974
Si Si5 0.435387 0.923265 0.224082
Si Si6 0.312750 0.418150 0.741019
Si Si7 0.894924 0.426381 0.938080
O O1 0.878916 0.250000 0.114547
O O2 0.921187 0.006096 0.242659
O O3 0.701761 0.038822 0.891673
O O4 0.920370 0.020434 0.066437
O O5 0.993250 0.250000 0.415114
O O6 0.160864 0.041771 0.562400
O O7 0.000000 0.000000 0.500000
O O8 0.586072 0.250000 0.545549
O O9 0.748403 0.022554 0.739089
O O10 0.500000 0.000000 0.500000
O O11 0.552806 0.020178 0.402795
O O12 0.520285 0.750000 0.858800
O O13 0.579320 0.030814 0.891004
O O14 0.382808 0.967592 0.760151
O O15 0.632356 0.937251 0.099401
O O16 0.469667 0.750000 0.272742
O O17 0.337311 0.250000 0.737385
O O18 0.909042 0.250000 0.946788
O O19 0.000000 0.500000 0.000000
#
# Coordination Sequence:
#
# PCOD8073465 Si02
#       7
#     4   4   4   4   4   4   4
#     4   9  19  37  58  81 113 152 190 235 288 350
#     4  10  20  35  57  82 112 149 190 234 286 346
#     4  11  22  39  62  87 118 151 193 243 291 348
#     4  10  20  34  53  80 113 147 189 242 291 340
#     4  11  21  36  59  85 113 148 194 239 293 354
#     4   9  19  35  53  77 112 152 192 233 286 350
#     4  10  22  41  61  87 122 157 198 244 295 358
#
# _framework density 19.538461000000002
#
# number of rings (size 3 to 8) (size 9 to 14) (size 15 to 20)
#    0.000    2.000    1.429    2.143    0.000    3.429 
#    0.000    2.857    0.000    0.000    0.000    0.000 
#    0.000    0.000    0.000    0.000    0.000    0.000 
#
# Total GULP energy -347171.962373 kJ/mol
# GULP energy per Si atom -12398.998656 kJ/mol
# Density = 1.949399 g / cm^3
# Si number density = 19.538461 Si / 1000 Ang^3
#
#
#
# Elastic Constant Matrix: (Units=GPa)
#
#
# Indices 1 2 3 4 5 6 
#
# 1 121.5275 40.1177 53.8792 0.0000 -7.2398 0.0000
# 2 40.1177 53.8832 44.6866 0.0000 5.3485 0.0000
# 3 53.8792 44.6866 110.3862 0.0000 -0.1651 0.0000
# 4 0.0000 0.0000 0.0000 27.3559 0.0000 -1.2909
# 5 -7.2398 5.3485 -0.1651 0.0000 23.8126 0.0000
# 6 0.0000 0.0000 0.0000 -1.2909 0.0000 38.8002
#
#
#
# Elastic Compliance Matrix: (Units=1/GPa)
#
#
# Indices 1 2 3 4 5 6 
#
# 1 0.012258 -0.007070 -0.003113 0.000000 0.005293 0.000000
# 2 -0.007070 0.033012 -0.009927 0.000000 -0.009633 0.000000
# 3 -0.003113 -0.009927 0.014599 0.000000 0.001385 0.000000
# 4 0.000000 0.000000 0.000000 0.036613 0.000000 0.001218
# 5 0.005293 -0.009633 0.001385 0.000000 0.045777 0.000000
# 6 0.000000 0.000000 0.000000 0.001218 0.000000 0.025814
#
#
# Mechanical properties :
#
#
# Convention : Reuss Voigt Hill
#
# Bulk Modulus (GPa) = 50.89535 62.57377 56.73456
# Shear Modulus (GPa) = 23.27277 27.80130 25.53703
#
# Velocity S-wave (km/s) = 3.45501 3.77623 3.61919
# Velocity P-wave (km/s) = 6.48240 7.14903 6.82386
#
# Compressibility (1/GPa) = 0.01964816
#
# Stress axis : x y z
#
# Youngs Moduli (GPa) = 81.57901 30.29213 68.49580
#
# Poissons Ratio (x) = 0.21417 0.21323
# Poissons Ratio (y) = 0.57678 0.67998
# Poissons Ratio (z) = 0.25396 0.30072
#
# Static dielectric constant tensor:
#      x y z
#    x 3.610660 0.000000 -0.084220 
#    y 0.000000 3.456440 0.000000 
#    z -0.084220 0.000000 3.831840 
# 
# 
# High freq. dielectric constant tensor:
#      x y z
#    x 1.766160 0.000000 -0.005260 
#    y 0.000000 1.744450 0.000000 
#    z -0.005260 0.000000 1.767980 
# 
# From -- ./inp_files/54576.got.cif
#   From: 2010.06.25/outbox.cif.g09.slc.cpg/sg11_28_cif.got.tgz:54576.got - 2010.06.27 23:14:04.
