data_PCOD8073126
_publ_section_title
;
Structure prediction by ZEFSAII (Michael W. Deem and Ramdas Pophale) SiO2 
 PCOD8073126
Probable space group: P 21/M
;
_chemical_formula_sum "Si O2"
_cell_formula_units_Z 32
_cell_length_a 28.114099
_cell_length_b 8.798850
_cell_length_c 21.976969
_cell_angle_alpha 90.000000
_cell_angle_beta 17.329337
_cell_angle_gamma 90.000000
_cell_volume 1619.330356
_symmetry_space_group_name_H-M "P 21/M"
_symmetry_group_IT_number 11
_symmetry_cell_setting 'monoclinic'
loop_
_space_group_symop_operation_xyz
x,y,z
-x,1/2+y,-z
-x,-y,-z
x,1/2-y,z
loop_
_atom_site_type_symbol
_atom_site_label
_atom_site_fract_x
_atom_site_fract_y
_atom_site_fract_z
Si Si1 0.934055 0.571243 0.898759
Si Si2 0.802674 0.081953 0.730287
Si Si3 0.595439 0.575762 0.597951
Si Si4 0.061529 0.068200 0.862669
Si Si5 0.756053 0.927729 0.524601
Si Si6 0.458254 0.416002 0.110528
Si Si7 0.942903 0.575509 0.671377
Si Si8 0.752770 0.431205 0.012494
O O1 0.905500 0.750000 0.941855
O O2 0.945066 0.492228 0.951397
O O3 0.097797 0.539310 0.663758
O O4 0.793666 0.500327 0.028789
O O5 0.870441 0.250000 0.664952
O O6 0.874556 0.039701 0.574682
O O7 0.844019 0.959639 0.730934
O O8 0.613840 0.088980 0.961897
O O9 0.584545 0.750000 0.592717
O O10 0.755265 0.509333 0.369954
O O11 0.619690 0.552453 0.640145
O O12 0.424883 0.503016 0.786857
O O13 0.053716 0.250000 0.871792
O O14 0.000000 0.000000 0.000000
O O15 0.810897 0.750000 0.458830
O O16 0.683184 0.987823 0.676828
O O17 0.401395 0.250000 0.160828
O O18 0.500000 0.500000 0.000000
O O19 0.919798 0.750000 0.718705
O O20 0.883360 0.477627 0.801720
O O21 0.754792 0.250000 0.013804
#
# Coordination Sequence:
#
# PCOD8073126 Si02
#       8
#     4   4   4   4   4   4   4   4
#     4  11  23  38  57  86 120 153 191 235 281 332
#     4   9  19  36  51  68  99 139 182 229 286 344
#     4   8  17  35  61  86 111 145 188 229 272 331
#     4  10  20  40  67  94 121 152 188 224 271 331
#     4   9  18  36  57  78 105 145 194 240 288 346
#     4  10  21  34  50  72 101 139 186 237 289 341
#     4  10  20  33  52  77 104 137 180 231 282 338
#     4  11  21  36  58  83 114 151 188 231 285 335
#
# _framework density 19.761254000000001
#
# number of rings (size 3 to 8) (size 9 to 14) (size 15 to 20)
#    0.000    2.250    0.000    3.750    1.750    3.500 
#    0.000    9.375    0.000    0.000    0.000    0.000 
#    0.000    0.000    0.000    0.000    0.000    0.000 
#
# Total GULP energy -396486.150406 kJ/mol
# GULP energy per Si atom -12390.192200 kJ/mol
# Density = 1.971628 g / cm^3
# Si number density = 19.761254 Si / 1000 Ang^3
#
#
#
# Elastic Constant Matrix: (Units=GPa)
#
#
# Indices 1 2 3 4 5 6 
#
# 1 98.2714 29.5734 35.2018 0.0000 14.6692 0.0000
# 2 29.5734 76.1286 19.2662 0.0000 5.4837 0.0000
# 3 35.2018 19.2662 56.5540 0.0000 16.7204 0.0000
# 4 0.0000 0.0000 0.0000 23.5490 0.0000 5.4771
# 5 14.6692 5.4837 16.7204 0.0000 38.9536 0.0000
# 6 0.0000 0.0000 0.0000 5.4771 0.0000 33.9812
#
#
#
# Elastic Compliance Matrix: (Units=1/GPa)
#
#
# Indices 1 2 3 4 5 6 
#
# 1 0.014012 -0.003547 -0.006988 0.000000 -0.001778 0.000000
# 2 -0.003547 0.015273 -0.003155 0.000000 0.000540 0.000000
# 3 -0.006988 -0.003155 0.025424 0.000000 -0.007837 0.000000
# 4 0.000000 0.000000 0.000000 0.044119 0.000000 -0.007111
# 5 -0.001778 0.000540 -0.007837 0.000000 0.029629 0.000000
# 6 0.000000 0.000000 0.000000 -0.007111 0.000000 0.030574
#
#
# Mechanical properties :
#
#
# Convention : Reuss Voigt Hill
#
# Bulk Modulus (GPa) = 36.59034 44.33742 40.46388
# Shear Modulus (GPa) = 25.57302 29.09092 27.33197
#
# Velocity S-wave (km/s) = 3.60126 3.84098 3.72305
# Velocity P-wave (km/s) = 5.98736 6.49277 6.24518
#
# Compressibility (1/GPa) = 0.02732961
#
# Stress axis : x y z
#
# Youngs Moduli (GPa) = 71.36923 65.47512 39.33353
#
# Poissons Ratio (x) = 0.23221 0.27485
# Poissons Ratio (y) = 0.25312 0.12410
# Poissons Ratio (z) = 0.49870 0.20658
#
# Static dielectric constant tensor:
#      x y z
#    x 3.705370 0.000000 -0.242170 
#    y 0.000000 3.517760 0.000000 
#    z -0.242170 0.000000 4.082600 
# 
# 
# High freq. dielectric constant tensor:
#      x y z
#    x 1.766820 0.000000 -0.000870 
#    y 0.000000 1.756490 0.000000 
#    z -0.000870 0.000000 1.766500 
# 
# From -- ./inp_files/67075.got.cif
#   From: 2010.06.25/outbox.cif.g09.slc.cpg/sg11_34_cif.got.tgz:67075.got - 2010.06.27 23:14:04.
