data_PCOD8073750
_publ_section_title
;
Structure prediction by ZEFSAII (Michael W. Deem and Ramdas Pophale) SiO2 
 PCOD8073750
Probable space group: P 21/M
;
_chemical_formula_sum "Si O2"
_cell_formula_units_Z 24
_cell_length_a 7.551836
_cell_length_b 8.926726
_cell_length_c 20.256174
_cell_angle_alpha 90.000000
_cell_angle_beta 113.153900
_cell_angle_gamma 90.000000
_cell_volume 1255.541980
_symmetry_space_group_name_H-M "P 21/M"
_symmetry_group_IT_number 11
_symmetry_cell_setting 'monoclinic'
loop_
_space_group_symop_operation_xyz
x,y,z
-x,1/2+y,-z
-x,-y,-z
x,1/2-y,z
loop_
_atom_site_type_symbol
_atom_site_label
_atom_site_fract_x
_atom_site_fract_y
_atom_site_fract_z
Si Si1 0.826938 0.925932 0.333167
Si Si2 0.781332 0.574865 0.573076
Si Si3 0.377531 0.924911 0.577308
Si Si4 0.934971 0.575625 0.086143
Si Si5 0.721478 0.574389 0.924393
Si Si6 0.328551 0.422889 0.833377
O O1 0.862902 0.750000 0.348787
O O2 0.733475 0.962101 0.249365
O O3 0.676957 0.986372 0.364955
O O4 0.028536 0.012638 0.364694
O O5 0.803536 0.750000 0.560185
O O6 0.753501 0.486488 0.500975
O O7 0.602225 0.545550 0.595644
O O8 0.332305 0.750000 0.579688
O O9 0.977738 0.750000 0.084892
O O10 0.846841 0.535459 0.144023
O O11 0.138065 0.491740 0.110841
O O12 0.790306 0.521051 0.007049
O O13 0.726092 0.750000 0.918388
O O14 0.507513 0.521019 0.880731
O O15 0.386099 0.250000 0.849718
#
# Coordination Sequence:
#
# PCOD8073750 Si02
#       6
#     4   4   4   4   4   4
#     4  11  23  37  55  80 111 147 183 221 268 322
#     4  10  21  38  60  83 108 141 181 225 269 317
#     4  10  21  38  60  84 110 141 179 224 271 320
#     4   9  19  37  58  80 108 143 183 224 269 323
#     4  10  20  34  57  85 109 138 179 229 277 319
#     4  10  22  38  55  77 109 149 185 219 266 324
#
# _framework density 19.115248999999999
#
# number of rings (size 3 to 8) (size 9 to 14) (size 15 to 20)
#    0.000    2.000    0.000    3.000    0.000    6.000 
#    0.000    5.000    0.000    0.000    0.000    0.000 
#    0.000    0.000    0.000    0.000    0.000    0.000 
#
# Total GULP energy -297711.867834 kJ/mol
# GULP energy per Si atom -12404.661160 kJ/mol
# Density = 1.907174 g / cm^3
# Si number density = 19.115249 Si / 1000 Ang^3
#
#
#
# Elastic Constant Matrix: (Units=GPa)
#
#
# Indices 1 2 3 4 5 6 
#
# 1 48.0669 18.7042 6.8990 0.0000 -23.1668 0.0000
# 2 18.7042 44.5112 12.2765 0.0000 -6.1691 0.0000
# 3 6.8990 12.2765 44.7479 0.0000 -23.0569 0.0000
# 4 0.0000 0.0000 0.0000 24.1872 0.0000 7.1659
# 5 -23.1668 -6.1691 -23.0569 0.0000 22.3188 0.0000
# 6 0.0000 0.0000 0.0000 7.1659 0.0000 35.9356
#
#
#
# Elastic Compliance Matrix: (Units=1/GPa)
#
#
# Indices 1 2 3 4 5 6 
#
# 1 0.328557 -0.136608 0.305951 0.000000 0.619351 0.000000
# 2 -0.136608 0.081106 -0.134065 0.000000 -0.257879 0.000000
# 3 0.305951 -0.134065 0.334617 0.000000 0.626202 0.000000
# 4 0.000000 0.000000 0.000000 0.043940 0.000000 -0.008762
# 5 0.619351 -0.257879 0.626202 0.000000 1.263320 0.000000
# 6 0.000000 0.000000 0.000000 -0.008762 0.000000 0.029575
#
#
# Mechanical properties :
#
#
# Convention : Reuss Voigt Hill
#
# Bulk Modulus (GPa) = 1.22724 23.67616 12.45170
# Shear Modulus (GPa) = 2.19090 23.11808 12.65449
#
# Velocity S-wave (km/s) = 1.07175 3.48142 2.57575
# Velocity P-wave (km/s) = 1.47477 5.34540 3.92098
#
# Compressibility (1/GPa) = 0.81483544
#
# Stress axis : x y z
#
# Youngs Moduli (GPa) = 3.04361 12.32957 2.98849
#
# Poissons Ratio (x) = 1.68432 -0.91433
# Poissons Ratio (y) = 0.41578 0.40065
# Poissons Ratio (z) = -0.93120 1.65297
#
# Static dielectric constant tensor:
#      x y z
#    x 3.575120 0.000000 -0.096720 
#    y 0.000000 3.570790 0.000000 
#    z -0.096720 0.000000 3.428370 
# 
# 
# High freq. dielectric constant tensor:
#      x y z
#    x 1.756060 0.000000 -0.003660 
#    y 0.000000 1.752230 0.000000 
#    z -0.003660 0.000000 1.735640 
# 
# From -- ./inp_files/63098.got.cif
#   From: 2010.06.25/outbox.cif.g09.slc.cpg/sg11_32_cif.got.tgz:63098.got - 2010.06.27 23:14:04.
