data_PCOD8073908
_publ_section_title
;
Structure prediction by ZEFSAII (Michael W. Deem and Ramdas Pophale) SiO2 
 PCOD8073908
Probable space group: P 21/M
;
_chemical_formula_sum "Si O2"
_cell_formula_units_Z 32
_cell_length_a 28.145013
_cell_length_b 8.962131
_cell_length_c 22.041975
_cell_angle_alpha 90.000000
_cell_angle_beta 161.317863
_cell_angle_gamma 90.000000
_cell_volume 1780.918875
_symmetry_space_group_name_H-M "P 21/M"
_symmetry_group_IT_number 11
_symmetry_cell_setting 'monoclinic'
loop_
_space_group_symop_operation_xyz
x,y,z
-x,1/2+y,-z
-x,-y,-z
x,1/2-y,z
loop_
_atom_site_type_symbol
_atom_site_label
_atom_site_fract_x
_atom_site_fract_y
_atom_site_fract_z
Si Si1 0.053883 0.422369 0.504961
Si Si2 0.683075 0.423306 0.482957
Si Si3 0.349050 0.427018 0.795969
Si Si4 0.415738 0.576305 0.215278
Si Si5 0.806360 0.426573 0.502515
Si Si6 0.156818 0.926333 0.200727
Si Si7 0.428987 0.425876 0.472266
Si Si8 0.086444 0.925741 0.790163
O O1 0.047763 0.250000 0.511886
O O2 0.221182 0.469929 0.689620
O O3 0.000000 0.500000 0.500000
O O4 0.944405 0.464168 0.317394
O O5 0.648297 0.250000 0.441562
O O6 0.524822 0.502555 0.298526
O O7 0.759052 0.473684 0.512724
O O8 0.793005 0.467406 0.670516
O O9 0.366404 0.250000 0.810809
O O10 0.307031 0.493117 0.679952
O O11 0.500000 0.500000 0.000000
O O12 0.421249 0.750000 0.208797
O O13 0.464074 0.537209 0.341962
O O14 0.249780 0.516117 0.004346
O O15 0.799835 0.250000 0.484132
O O16 0.973169 0.484664 0.695549
O O17 0.149054 0.750000 0.180303
O O18 0.269778 0.998671 0.289546
O O19 0.000000 0.000000 0.000000
O O20 0.500000 0.500000 0.500000
O O21 0.408415 0.250000 0.437766
O O22 0.064633 0.750000 0.776105
#
# Coordination Sequence:
#
# PCOD8073908 Si02
#       8
#     4   4   4   4   4   4   4   4
#     4   9  19  34  52  74 102 132 166 206 249 296
#     4   9  20  36  53  76 107 137 171 215 262 309
#     4  10  21  37  55  78 106 137 172 213 257 305
#     4   9  19  35  55  77 102 134 176 217 256 306
#     4  10  20  35  54  78 105 136 173 212 255 308
#     4  10  20  36  55  77 106 140 176 219 267 316
#     4  10  20  35  54  78 106 138 175 217 263 315
#     4   9  19  36  53  74 103 134 170 213 254 299
#
# _framework density 17.968252
#
# number of rings (size 3 to 8) (size 9 to 14) (size 15 to 20)
#    0.000    2.500    0.000    2.250    0.000    7.000 
#    0.000    5.000    0.000    0.000    0.000    0.000 
#    0.000    0.000    0.000    0.000    0.000    0.000 
#
# Total GULP energy -396862.160139 kJ/mol
# GULP energy per Si atom -12401.942504 kJ/mol
# Density = 1.792736 g / cm^3
# Si number density = 17.968252 Si / 1000 Ang^3
#
#
#
# Elastic Constant Matrix: (Units=GPa)
#
#
# Indices 1 2 3 4 5 6 
#
# 1 158.0346 63.0486 76.4471 0.0000 13.3617 0.0000
# 2 63.0486 75.6683 59.0996 0.0000 7.7359 0.0000
# 3 76.4471 59.0996 167.6504 0.0000 18.8388 0.0000
# 4 0.0000 0.0000 0.0000 32.3028 0.0000 5.7838
# 5 13.3617 7.7359 18.8388 0.0000 15.8312 0.0000
# 6 0.0000 0.0000 0.0000 5.7838 0.0000 34.5969
#
#
#
# Elastic Compliance Matrix: (Units=1/GPa)
#
#
# Indices 1 2 3 4 5 6 
#
# 1 0.010182 -0.006643 -0.001963 0.000000 -0.003012 0.000000
# 2 -0.006643 0.022600 -0.004995 0.000000 0.000507 0.000000
# 3 -0.001963 -0.004995 0.009420 0.000000 -0.007112 0.000000
# 4 0.000000 0.000000 0.000000 0.031912 0.000000 -0.005335
# 5 -0.003012 0.000507 -0.007112 0.000000 0.073924 0.000000
# 6 0.000000 0.000000 0.000000 -0.005335 0.000000 0.029796
#
#
# Mechanical properties :
#
#
# Convention : Reuss Voigt Hill
#
# Bulk Modulus (GPa) = 66.66289 88.72710 77.69500
# Shear Modulus (GPa) = 23.80553 30.06339 26.93446
#
# Velocity S-wave (km/s) = 3.64382 4.09484 3.87590
# Velocity P-wave (km/s) = 7.40838 8.47609 7.96016
#
# Compressibility (1/GPa) = 0.01500085
#
# Stress axis : x y z
#
# Youngs Moduli (GPa) = 98.21141 44.24796 106.16155
#
# Poissons Ratio (x) = 0.29394 0.20836
# Poissons Ratio (y) = 0.65243 0.53023
# Poissons Ratio (z) = 0.19276 0.22100
#
# Static dielectric constant tensor:
#      x y z
#    x 3.344350 0.000000 -0.025090 
#    y 0.000000 3.372870 0.000000 
#    z -0.025090 0.000000 3.469180 
# 
# 
# High freq. dielectric constant tensor:
#      x y z
#    x 1.698000 0.000000 0.004130 
#    y 0.000000 1.701970 0.000000 
#    z 0.004130 0.000000 1.700520 
# 
# From -- ./inp_files/67197.got.cif
#   From: 2010.06.25/outbox.cif.g09.slc.cpg/sg11_34_cif.got.tgz:67197.got - 2010.06.27 23:14:04.
