data_PCOD8073676
_publ_section_title
;
Structure prediction by ZEFSAII (Michael W. Deem and Ramdas Pophale) SiO2 
 PCOD8073676
Probable space group: P 21/M
;
_chemical_formula_sum "Si O2"
_cell_formula_units_Z 32
_cell_length_a 16.544944
_cell_length_b 16.709709
_cell_length_c 12.412667
_cell_angle_alpha 90.000000
_cell_angle_beta 27.106242
_cell_angle_gamma 90.000000
_cell_volume 1563.590183
_symmetry_space_group_name_H-M "P 21/M"
_symmetry_group_IT_number 11
_symmetry_cell_setting 'monoclinic'
loop_
_space_group_symop_operation_xyz
x,y,z
-x,1/2+y,-z
-x,-y,-z
x,1/2-y,z
loop_
_atom_site_type_symbol
_atom_site_label
_atom_site_fract_x
_atom_site_fract_y
_atom_site_fract_z
Si Si1 0.260148 0.654704 0.708041
Si Si2 0.891875 0.159875 0.892324
Si Si3 0.371509 0.345041 0.643831
Si Si4 0.994430 0.154723 0.178001
Si Si5 0.121888 0.904429 0.456550
Si Si6 0.492961 0.659066 0.744910
Si Si7 0.496249 0.409114 0.041032
Si Si8 0.878766 0.592681 0.557050
O O1 0.262843 0.750000 0.713147
O O2 0.464057 0.623065 0.476665
O O3 0.165146 0.626329 0.711225
O O4 0.144182 0.622621 0.946594
O O5 0.963129 0.250000 0.818849
O O6 0.042631 0.109479 0.654170
O O7 0.714295 0.157156 0.033703
O O8 0.374060 0.250000 0.643062
O O9 0.397495 0.372522 0.489090
O O10 0.183886 0.377468 0.909920
O O11 0.995476 0.250000 0.188917
O O12 0.965419 0.113832 0.326360
O O13 0.997185 0.867467 0.510764
O O14 0.135681 0.997724 0.415446
O O15 0.320610 0.866234 0.214041
O O16 0.549927 0.750000 0.707521
O O17 0.527704 0.598499 0.801640
O O18 0.319912 0.369857 0.197164
O O19 0.500000 0.500000 0.000000
#
# Coordination Sequence:
#
# PCOD8073676 Si02
#       8
#     4   4   4   4   4   4   4   4
#     4   8  16  31  51  78 108 137 168 215 275 322
#     4   9  17  32  58  85 107 132 174 230 278 319
#     4   8  16  31  52  81 110 139 173 217 277 326
#     4  10  20  34  56  79 109 146 178 216 265 330
#     4  10  22  39  52  76 110 149 185 217 274 322
#     4   9  17  32  57  85 112 136 175 235 276 314
#     4  10  21  36  55  78 107 149 186 220 272 328
#     4  10  21  37  57  75 105 149 182 226 268 320
#
# _framework density 20.465720999999998
#
# number of rings (size 3 to 8) (size 9 to 14) (size 15 to 20)
#    0.000    2.750    1.250    1.500    1.750    2.500 
#    0.000    0.625    0.000    1.500    0.000    0.000 
#    0.000    0.000    0.000    0.000    0.000    0.000 
#
# Total GULP energy -396561.064645 kJ/mol
# GULP energy per Si atom -12392.533270 kJ/mol
# Density = 2.041914 g / cm^3
# Si number density = 20.465721 Si / 1000 Ang^3
#
#
#
# Elastic Constant Matrix: (Units=GPa)
#
#
# Indices 1 2 3 4 5 6 
#
# 1 130.0355 22.2977 78.4558 0.0000 2.3421 0.0000
# 2 22.2977 11.8667 13.3839 0.0000 -1.3812 0.0000
# 3 78.4558 13.3839 169.6770 0.0000 -6.9759 0.0000
# 4 0.0000 0.0000 0.0000 16.1237 0.0000 3.6207
# 5 2.3421 -1.3812 -6.9759 0.0000 32.4833 0.0000
# 6 0.0000 0.0000 0.0000 3.6207 0.0000 14.9075
#
#
#
# Elastic Compliance Matrix: (Units=1/GPa)
#
#
# Indices 1 2 3 4 5 6 
#
# 1 0.014638 -0.022051 -0.005157 0.000000 -0.003100 0.000000
# 2 -0.022051 0.125898 0.000555 0.000000 0.007062 0.000000
# 3 -0.005157 0.000555 0.008324 0.000000 0.002183 0.000000
# 4 0.000000 0.000000 0.000000 0.065598 0.000000 -0.015932
# 5 -0.003100 0.007062 0.002183 0.000000 0.031778 0.000000
# 6 0.000000 0.000000 0.000000 -0.015932 0.000000 0.070950
#
#
# Mechanical properties :
#
#
# Convention : Reuss Voigt Hill
#
# Bulk Modulus (GPa) = 10.46496 59.98377 35.22437
# Shear Modulus (GPa) = 12.42722 25.86568 19.14645
#
# Velocity S-wave (km/s) = 2.46686 3.55893 3.06197
# Velocity P-wave (km/s) = 3.63846 6.80154 5.45433
#
# Compressibility (1/GPa) = 0.09555696
#
# Stress axis : x y z
#
# Youngs Moduli (GPa) = 68.31347 7.94291 120.13665
#
# Poissons Ratio (x) = 0.17515 0.61951
# Poissons Ratio (y) = 1.50635 -0.06673
# Poissons Ratio (z) = 0.35227 -0.00441
#
# Static dielectric constant tensor:
#      x y z
#    x 3.947530 0.000000 -0.367120 
#    y 0.000000 3.166050 0.000000 
#    z -0.367120 0.000000 4.182100 
# 
# 
# High freq. dielectric constant tensor:
#      x y z
#    x 1.804990 0.000000 -0.009920 
#    y 0.000000 1.743430 0.000000 
#    z -0.009920 0.000000 1.813630 
# 
# From -- ./inp_files/39991.got.cif
#   From: 2010.06.25/outbox.cif.g09.slc.cpg/sg11_20_cif.got.tgz:39991.got - 2010.06.27 23:14:04.
