data_PCOD8073325
_publ_section_title
;
Structure prediction by ZEFSAII (Michael W. Deem and Ramdas Pophale) SiO2 
 PCOD8073325
Probable space group: P 21/M
;
_chemical_formula_sum "Si O2"
_cell_formula_units_Z 28
_cell_length_a 9.475854
_cell_length_b 12.437167
_cell_length_c 12.211374
_cell_angle_alpha 90.000000
_cell_angle_beta 67.901351
_cell_angle_gamma 90.000000
_cell_volume 1333.421217
_symmetry_space_group_name_H-M "P 21/M"
_symmetry_group_IT_number 11
_symmetry_cell_setting 'monoclinic'
loop_
_space_group_symop_operation_xyz
x,y,z
-x,1/2+y,-z
-x,-y,-z
x,1/2-y,z
loop_
_atom_site_type_symbol
_atom_site_label
_atom_site_fract_x
_atom_site_fract_y
_atom_site_fract_z
Si Si1 0.072674 0.377055 0.022848
Si Si2 0.614442 0.627347 0.185887
Si Si3 0.850056 0.451503 0.492668
Si Si4 0.293547 0.551296 0.252148
Si Si5 0.774561 0.626228 0.363448
Si Si6 0.925583 0.628821 0.733746
Si Si7 0.930484 0.373859 0.848748
O O1 0.043943 0.250000 0.044009
O O2 0.050414 0.426884 0.152018
O O3 0.951497 0.425085 0.966468
O O4 0.243272 0.400413 0.932009
O O5 0.561675 0.750000 0.182803
O O6 0.476058 0.548860 0.192084
O O7 0.654488 0.609488 0.301328
O O8 0.755406 0.391745 0.617437
O O9 0.740466 0.544989 0.473416
O O10 0.000000 0.500000 0.500000
O O11 0.914232 0.371656 0.379567
O O12 0.217071 0.432913 0.280217
O O13 0.233277 0.611850 0.160470
O O14 0.773598 0.750000 0.404695
O O15 0.942518 0.587408 0.275288
O O16 0.869248 0.750000 0.763504
O O17 0.969036 0.250000 0.859427
#
# Coordination Sequence:
#
# PCOD8073325 Si02
#       7
#     4   4   4   4   4   4   4
#     4   8  17  35  56  77 104 140 181 218 264 326
#     4   9  19  35  56  81 107 134 172 227 274 313
#     4  10  20  34  51  82 109 134 180 221 258 314
#     4  11  21  33  52  87 110 137 178 225 265 313
#     4   9  17  34  56  78 105 141 177 214 268 319
#     4  10  21  36  53  75 110 150 180 215 266 316
#     4   9  16  30  54  81 104 130 175 229 267 303
#
# _framework density 20.998615999999998
#
# number of rings (size 3 to 8) (size 9 to 14) (size 15 to 20)
#    0.000    2.571    2.857    2.143    0.000    5.143 
#    0.000    0.000    0.000    0.857    0.000    0.000 
#    0.000    0.000    0.000    0.000    0.000    0.000 
#
# Total GULP energy -347004.752470 kJ/mol
# GULP energy per Si atom -12393.026874 kJ/mol
# Density = 2.095082 g / cm^3
# Si number density = 20.998616 Si / 1000 Ang^3
#
#
#
# Elastic Constant Matrix: (Units=GPa)
#
#
# Indices 1 2 3 4 5 6 
#
# 1 120.8708 27.1587 51.9342 0.0000 8.8711 0.0000
# 2 27.1587 48.6367 25.3794 0.0000 8.0275 0.0000
# 3 51.9342 25.3794 117.8322 0.0000 19.6003 0.0000
# 4 0.0000 0.0000 0.0000 17.9970 0.0000 6.4351
# 5 8.8711 8.0275 19.6003 0.0000 26.2960 0.0000
# 6 0.0000 0.0000 0.0000 6.4351 0.0000 26.9253
#
#
#
# Elastic Compliance Matrix: (Units=1/GPa)
#
#
# Indices 1 2 3 4 5 6 
#
# 1 0.010868 -0.004071 -0.004007 0.000000 0.000563 0.000000
# 2 -0.004071 0.025031 -0.002916 0.000000 -0.004095 0.000000
# 3 -0.004007 -0.002916 0.011995 0.000000 -0.006699 0.000000
# 4 0.000000 0.000000 0.000000 0.060757 0.000000 -0.014521
# 5 0.000563 -0.004095 -0.006699 0.000000 0.044082 0.000000
# 6 0.000000 0.000000 0.000000 -0.014521 0.000000 0.040610
#
#
# Mechanical properties :
#
#
# Convention : Reuss Voigt Hill
#
# Bulk Modulus (GPa) = 38.59998 55.14271 46.87134
# Shear Modulus (GPa) = 22.32468 26.43480 24.37974
#
# Velocity S-wave (km/s) = 3.26414 3.55192 3.41107
# Velocity P-wave (km/s) = 5.71211 6.56801 6.15495
#
# Compressibility (1/GPa) = 0.02590675
#
# Stress axis : x y z
#
# Youngs Moduli (GPa) = 92.01015 39.95013 83.36728
#
# Poissons Ratio (x) = 0.16263 0.33406
# Poissons Ratio (y) = 0.37456 0.24310
# Poissons Ratio (z) = 0.36869 0.11650
#
# Static dielectric constant tensor:
#      x y z
#    x 3.548500 0.000000 0.391730 
#    y 0.000000 3.767240 0.000000 
#    z 0.391730 0.000000 4.233220 
# 
# 
# High freq. dielectric constant tensor:
#      x y z
#    x 1.800580 0.000000 0.035400 
#    y 0.000000 1.828260 0.000000 
#    z 0.035400 0.000000 1.819810 
# 
# From -- ./inp_files/31799.got.cif
#   From: 2010.06.25/outbox.cif.g09.slc.cpg/sg11_16_cif.got.tgz:31799.got - 2010.06.27 23:14:04.
