data_PCOD8073340
_publ_section_title
;
Structure prediction by ZEFSAII (Michael W. Deem and Ramdas Pophale) SiO2 
 PCOD8073340
Probable space group: P 21/M
;
_chemical_formula_sum "Si O2"
_cell_formula_units_Z 32
_cell_length_a 15.885912
_cell_length_b 9.186631
_cell_length_c 28.186176
_cell_angle_alpha 90.000000
_cell_angle_beta 153.861629
_cell_angle_gamma 90.000000
_cell_volume 1812.134403
_symmetry_space_group_name_H-M "P 21/M"
_symmetry_group_IT_number 11
_symmetry_cell_setting 'monoclinic'
loop_
_space_group_symop_operation_xyz
x,y,z
-x,1/2+y,-z
-x,-y,-z
x,1/2-y,z
loop_
_atom_site_type_symbol
_atom_site_label
_atom_site_fract_x
_atom_site_fract_y
_atom_site_fract_z
Si Si1 0.520265 0.079913 0.438483
Si Si2 0.198446 0.080473 0.593287
Si Si3 0.522940 0.418463 0.331613
Si Si4 0.784144 0.420024 0.145677
Si Si5 0.533267 0.920410 0.089009
Si Si6 0.522983 0.081091 0.832208
Si Si7 0.215365 0.079594 0.360557
Si Si8 0.801291 0.920042 0.906557
O O1 0.559014 0.250000 0.462841
O O2 0.487006 0.034052 0.367455
O O3 0.333188 0.032401 0.373482
O O4 0.705400 0.999047 0.552583
O O5 0.160282 0.250000 0.564907
O O6 0.327054 0.054123 0.704819
O O7 0.305073 0.014973 0.601608
O O8 0.000000 0.000000 0.500000
O O9 0.583294 0.250000 0.357672
O O10 0.326375 0.448554 0.204554
O O11 0.770285 0.250000 0.149061
O O12 0.715221 0.500606 0.158248
O O13 0.998438 0.469607 0.242285
O O14 0.656940 0.464516 0.036054
O O15 0.573495 0.750000 0.107172
O O16 0.509489 0.973193 0.130780
O O17 0.584132 0.250000 0.861092
O O18 0.695033 0.986157 0.898353
O O19 0.231689 0.250000 0.378087
O O20 0.837490 0.750000 0.933572
O O21 0.000000 0.000000 0.000000
#
# Coordination Sequence:
#
# PCOD8073340 Si02
#       8
#     4   4   4   4   4   4   4   4
#     4   9  18  33  52  72  96 128 165 203 241 285
#     4  10  20  34  52  74 101 131 164 205 249 294
#     4   9  19  35  53  73  98 131 169 205 243 290
#     4   9  18  32  50  72  99 129 161 199 242 290
#     4   9  18  33  52  72  96 128 164 202 243 287
#     4   9  19  35  53  73  98 130 168 207 245 289
#     4   9  18  32  49  72 100 128 160 199 244 290
#     4  10  20  34  53  76 102 131 163 202 246 293
#
# _framework density 17.658735
#
# number of rings (size 3 to 8) (size 9 to 14) (size 15 to 20)
#    0.000    2.750    0.000    0.750    0.000    4.500 
#    0.000    7.500    0.000    3.000    0.000    0.000 
#    0.000    0.000    0.000    0.000    0.000    0.000 
#
# Total GULP energy -396874.599659 kJ/mol
# GULP energy per Si atom -12402.331239 kJ/mol
# Density = 1.761854 g / cm^3
# Si number density = 17.658735 Si / 1000 Ang^3
#
#
#
# Elastic Constant Matrix: (Units=GPa)
#
#
# Indices 1 2 3 4 5 6 
#
# 1 147.0109 59.6206 78.5380 0.0000 -7.1999 0.0000
# 2 59.6206 68.7946 50.9367 0.0000 9.2915 0.0000
# 3 78.5380 50.9367 101.8258 0.0000 15.4602 0.0000
# 4 0.0000 0.0000 0.0000 30.7766 0.0000 3.8974
# 5 -7.1999 9.2915 15.4602 0.0000 33.0267 0.0000
# 6 0.0000 0.0000 0.0000 3.8974 0.0000 32.9802
#
#
#
# Elastic Compliance Matrix: (Units=1/GPa)
#
#
# Indices 1 2 3 4 5 6 
#
# 1 0.015621 -0.007697 -0.009736 0.000000 0.010128 0.000000
# 2 -0.007697 0.026922 -0.006594 0.000000 -0.006165 0.000000
# 3 -0.009736 -0.006594 0.022251 0.000000 -0.010683 0.000000
# 4 0.000000 0.000000 0.000000 0.032986 0.000000 -0.003898
# 5 0.010128 -0.006165 -0.010683 0.000000 0.039222 0.000000
# 6 0.000000 0.000000 0.000000 -0.003898 0.000000 0.030782
#
#
# Mechanical properties :
#
#
# Convention : Reuss Voigt Hill
#
# Bulk Modulus (GPa) = 59.74135 77.31352 68.52744
# Shear Modulus (GPa) = 22.58168 27.92577 25.25373
#
# Velocity S-wave (km/s) = 3.57989 3.98101 3.78577
# Velocity P-wave (km/s) = 7.14086 8.06278 7.61578
#
# Compressibility (1/GPa) = 0.01673882
#
# Stress axis : x y z
#
# Youngs Moduli (GPa) = 64.01570 37.14407 44.94250
#
# Poissons Ratio (x) = 0.28591 0.43755
# Poissons Ratio (y) = 0.49275 0.29637
# Poissons Ratio (z) = 0.62325 0.24494
#
# Static dielectric constant tensor:
#      x y z
#    x 3.383320 0.000000 -0.014560 
#    y 0.000000 3.282600 0.000000 
#    z -0.014560 0.000000 3.324700 
# 
# 
# High freq. dielectric constant tensor:
#      x y z
#    x 1.685820 0.000000 0.001390 
#    y 0.000000 1.682530 0.000000 
#    z 0.001390 0.000000 1.681630 
# 
# From -- ./inp_files/71637.got.cif
#   From: 2010.06.25/outbox.cif.g09.slc.cpg/sg11_36_cif.got.tgz:71637.got - 2010.06.27 23:14:04.
