data_PCOD8073342
_publ_section_title
;
Structure prediction by ZEFSAII (Michael W. Deem and Ramdas Pophale) SiO2 
 PCOD8073342
Probable space group: P 21/M
;
_chemical_formula_sum "Si O2"
_cell_formula_units_Z 32
_cell_length_a 11.517092
_cell_length_b 9.101441
_cell_length_c 17.645363
_cell_angle_alpha 90.000000
_cell_angle_beta 90.838940
_cell_angle_gamma 90.000000
_cell_volume 1849.426321
_symmetry_space_group_name_H-M "P 21/M"
_symmetry_group_IT_number 11
_symmetry_cell_setting 'monoclinic'
loop_
_space_group_symop_operation_xyz
x,y,z
-x,1/2+y,-z
-x,-y,-z
x,1/2-y,z
loop_
_atom_site_type_symbol
_atom_site_label
_atom_site_fract_x
_atom_site_fract_y
_atom_site_fract_z
Si Si1 0.117378 0.076328 0.524402
Si Si2 0.346572 0.411544 0.054974
Si Si3 0.231893 0.424012 0.681907
Si Si4 0.465027 0.089287 0.611064
Si Si5 0.234644 0.574520 0.834072
Si Si6 0.117318 0.425656 0.974172
Si Si7 0.547539 0.586680 0.109679
Si Si8 0.656347 0.588839 0.550842
O O1 0.106737 0.250000 0.514685
O O2 0.146993 0.037565 0.611518
O O3 0.219349 0.016647 0.469438
O O4 0.000000 0.000000 0.500000
O O5 0.347889 0.250000 0.092710
O O6 0.415938 0.522948 0.110414
O O7 0.214176 0.462815 0.039084
O O8 0.410381 0.402794 0.975478
O O9 0.229204 0.250000 0.699487
O O10 0.363318 0.476384 0.662959
O O11 0.187911 0.519424 0.752416
O O12 0.497588 0.250000 0.641602
O O13 0.418768 0.100085 0.525603
O O14 0.584882 0.998225 0.614448
O O15 0.227986 0.750000 0.841261
O O16 0.153048 0.498945 0.895444
O O17 0.367616 0.520329 0.843103
O O18 0.104843 0.250000 0.963238
O O19 0.000000 0.500000 0.000000
O O20 0.547383 0.750000 0.146269
O O21 0.677088 0.750000 0.585080
#
# Coordination Sequence:
#
# PCOD8073342 Si02
#       8
#     4   4   4   4   4   4   4   4
#     4   9  18  31  48  70  97 130 166 205 246 291
#     4   8  15  27  44  68  95 121 151 189 231 277
#     4   9  18  33  49  68  97 128 159 201 252 300
#     4   8  14  25  43  65  88 116 147 181 227 281
#     4  11  21  32  49  73  99 128 164 206 253 302
#     4  10  20  34  52  74 101 133 169 208 248 293
#     4   9  16  27  45  68  94 123 152 187 235 286
#     4   8  14  25  41  64  92 117 144 183 230 274
#
# _framework density 17.302662999999999
#
# number of rings (size 3 to 8) (size 9 to 14) (size 15 to 20)
#    0.000    3.000    0.000    4.125    0.000    5.000 
#    0.000    2.500    0.000    1.500    0.000    7.000 
#    0.000    0.000    0.000    0.000    0.000    0.000 
#
# Total GULP energy -396535.276458 kJ/mol
# GULP energy per Si atom -12391.727389 kJ/mol
# Density = 1.726328 g / cm^3
# Si number density = 17.302663 Si / 1000 Ang^3
#
#
#
# Elastic Constant Matrix: (Units=GPa)
#
#
# Indices 1 2 3 4 5 6 
#
# 1 138.1935 62.6891 43.8934 0.0000 0.7020 0.0000
# 2 62.6891 102.0678 41.0099 0.0000 -0.5900 0.0000
# 3 43.8934 41.0099 61.3588 0.0000 -1.6946 0.0000
# 4 0.0000 0.0000 0.0000 22.1649 0.0000 -0.5166
# 5 0.7020 -0.5900 -1.6946 0.0000 14.9077 0.0000
# 6 0.0000 0.0000 0.0000 -0.5166 0.0000 32.3218
#
#
#
# Elastic Compliance Matrix: (Units=1/GPa)
#
#
# Indices 1 2 3 4 5 6 
#
# 1 0.010904 -0.004862 -0.004585 0.000000 -0.001227 0.000000
# 2 -0.004862 0.015566 -0.006924 0.000000 0.000058 0.000000
# 3 -0.004585 -0.006924 0.024279 0.000000 0.002702 0.000000
# 4 0.000000 0.000000 0.000000 0.045133 0.000000 0.000721
# 5 -0.001227 0.000058 0.002702 0.000000 0.067447 0.000000
# 6 0.000000 0.000000 0.000000 0.000721 0.000000 0.030950
#
#
# Mechanical properties :
#
#
# Convention : Reuss Voigt Hill
#
# Bulk Modulus (GPa) = 55.52998 66.31167 60.92082
# Shear Modulus (GPa) = 21.45696 24.14739 22.80218
#
# Velocity S-wave (km/s) = 3.52532 3.73981 3.63415
# Velocity P-wave (km/s) = 6.98094 7.55354 7.27288
#
# Compressibility (1/GPa) = 0.01800829
#
# Stress axis : x y z
#
# Youngs Moduli (GPa) = 91.70631 64.24210 41.18722
#
# Poissons Ratio (x) = 0.31237 0.18882
# Poissons Ratio (y) = 0.44592 0.28517
# Poissons Ratio (z) = 0.42043 0.44480
#
# Static dielectric constant tensor:
#      x y z
#    x 3.343890 0.000000 -0.019200 
#    y 0.000000 3.503920 0.000000 
#    z -0.019200 0.000000 2.935160 
# 
# 
# High freq. dielectric constant tensor:
#      x y z
#    x 1.658810 0.000000 -0.001820 
#    y 0.000000 1.669830 0.000000 
#    z -0.001820 0.000000 1.629260 
# 
# From -- ./inp_files/58713.got.cif
#   From: 2010.06.25/outbox.cif.g09.slc.cpg/sg11_30_cif.got.tgz:58713.got - 2010.06.27 23:14:04.
