data_PCOD8073097
_publ_section_title
;
Structure prediction by ZEFSAII (Michael W. Deem and Ramdas Pophale) SiO2 
 PCOD8073097
Probable space group: P 21/M
;
_chemical_formula_sum "Si O2"
_cell_formula_units_Z 32
_cell_length_a 13.940656
_cell_length_b 16.774446
_cell_length_c 17.340604
_cell_angle_alpha 90.000000
_cell_angle_beta 156.472996
_cell_angle_gamma 90.000000
_cell_volume 1618.697676
_symmetry_space_group_name_H-M "P 21/M"
_symmetry_group_IT_number 11
_symmetry_cell_setting 'monoclinic'
loop_
_space_group_symop_operation_xyz
x,y,z
-x,1/2+y,-z
-x,-y,-z
x,1/2-y,z
loop_
_atom_site_type_symbol
_atom_site_label
_atom_site_fract_x
_atom_site_fract_y
_atom_site_fract_z
Si Si1 0.017331 0.160175 0.928885
Si Si2 0.984297 0.449165 0.206729
Si Si3 0.644258 0.918623 0.936450
Si Si4 0.809895 0.840757 0.777848
Si Si5 0.282438 0.156659 0.849607
Si Si6 0.859296 0.342372 0.422896
Si Si7 0.357273 0.933161 0.437057
Si Si8 0.824081 0.159050 0.221642
O O1 0.000137 0.250000 0.886810
O O2 0.252253 0.122398 0.063428
O O3 0.780353 0.114366 0.730296
O O4 0.020276 0.154892 0.023119
O O5 0.071126 0.393699 0.200914
O O6 0.170363 0.523462 0.357606
O O7 0.722202 0.487689 0.993436
O O8 0.976279 0.397649 0.278265
O O9 0.765181 0.883365 0.103234
O O10 0.359385 0.903304 0.723020
O O11 0.783326 0.750000 0.728614
O O12 0.549786 0.872774 0.616237
O O13 0.273299 0.250000 0.857366
O O14 0.082506 0.129997 0.640053
O O15 0.545455 0.131969 0.012836
O O16 0.784155 0.250000 0.384614
O O17 0.932814 0.349909 0.387542
O O18 0.500000 0.000000 0.500000
O O19 0.849125 0.250000 0.211322
#
# Coordination Sequence:
#
# PCOD8073097 Si02
#       8
#     4   4   4   4   4   4   4   4
#     4  10  20  35  57  82 106 139 185 229 269 320
#     4  10  21  36  54  80 113 143 174 219 274 327
#     4  10  20  33  51  78 112 141 170 220 275 317
#     4  10  21  39  61  80 104 144 187 226 271 324
#     4   9  18  34  55  78 106 142 184 223 260 310
#     4   9  18  34  56  80 106 142 184 221 260 310
#     4   9  20  36  54  78 109 140 173 220 273 322
#     4   9  18  36  57  76 105 142 181 222 261 312
#
# _framework density 19.768979000000002
#
# number of rings (size 3 to 8) (size 9 to 14) (size 15 to 20)
#    0.000    2.500    0.000    2.625    0.000    8.500 
#    0.000   11.250    0.000    7.500    0.000    0.000 
#    0.000    0.000    0.000    0.000    0.000    0.000 
#
# Total GULP energy -396617.691953 kJ/mol
# GULP energy per Si atom -12394.302874 kJ/mol
# Density = 1.972398 g / cm^3
# Si number density = 19.768979 Si / 1000 Ang^3
#
#
#
# Elastic Constant Matrix: (Units=GPa)
#
#
# Indices 1 2 3 4 5 6 
#
# 1 85.3658 33.4616 22.3846 0.0000 -7.4026 0.0000
# 2 33.4616 79.0663 19.4772 0.0000 -3.9006 0.0000
# 3 22.3846 19.4772 95.2990 0.0000 -14.4809 0.0000
# 4 0.0000 0.0000 0.0000 17.2239 0.0000 18.1494
# 5 -7.4026 -3.9006 -14.4809 0.0000 17.0940 0.0000
# 6 0.0000 0.0000 0.0000 18.1494 0.0000 15.5930
#
#
#
# Elastic Compliance Matrix: (Units=1/GPa)
#
#
# Indices 1 2 3 4 5 6 
#
# 1 0.014683 -0.005604 -0.001758 0.000000 0.003591 0.000000
# 2 -0.005604 0.015467 -0.001925 0.000000 -0.000528 0.000000
# 3 -0.001758 -0.001925 0.012760 0.000000 0.009609 0.000000
# 4 0.000000 0.000000 0.000000 -0.256343 0.000000 0.298370
# 5 0.003591 -0.000528 0.009609 0.000000 0.068074 0.000000
# 6 0.000000 0.000000 0.000000 0.298370 0.000000 -0.283155
#
#
# Mechanical properties :
#
#
# Convention : Reuss Voigt Hill
#
# Bulk Modulus (GPa) = 41.09098 45.59753 43.34426
# Shear Modulus (GPa) = -12.44315 22.27603 4.91644
#
# Velocity S-wave (km/s) = -2.51156 3.36045 1.57872
# Velocity P-wave (km/s) = 3.52422 6.17836 5.02952
#
# Compressibility (1/GPa) = 0.02433624
#
# Stress axis : x y z
#
# Youngs Moduli (GPa) = 68.10479 64.65196 78.37161
#
# Poissons Ratio (x) = 0.36230 0.13778
# Poissons Ratio (y) = 0.38165 0.15088
# Poissons Ratio (z) = 0.11973 0.12447
#
# Static dielectric constant tensor:
#      x y z
#    x 3.500500 0.000000 0.206820 
#    y 0.000000 3.760170 0.000000 
#    z 0.206820 0.000000 3.820640 
# 
# 
# High freq. dielectric constant tensor:
#      x y z
#    x 1.763170 0.000000 0.002050 
#    y 0.000000 1.776450 0.000000 
#    z 0.002050 0.000000 1.761670 
# 
# From -- ./inp_files/50720.got.cif
#   From: 2010.06.25/outbox.cif.g09.slc.cpg/sg11_26_cif.got.tgz:50720.got - 2010.06.27 23:14:04.
