data_PCOD8073396
_publ_section_title
;
Structure prediction by ZEFSAII (Michael W. Deem and Ramdas Pophale) SiO2 
 PCOD8073396
Probable space group: P 21/M
;
_chemical_formula_sum "Si O2"
_cell_formula_units_Z 32
_cell_length_a 21.463517
_cell_length_b 9.223013
_cell_length_c 14.283070
_cell_angle_alpha 90.000000
_cell_angle_beta 35.129504
_cell_angle_gamma 90.000000
_cell_volume 1626.990856
_symmetry_space_group_name_H-M "P 21/M"
_symmetry_group_IT_number 11
_symmetry_cell_setting 'monoclinic'
loop_
_space_group_symop_operation_xyz
x,y,z
-x,1/2+y,-z
-x,-y,-z
x,1/2-y,z
loop_
_atom_site_type_symbol
_atom_site_label
_atom_site_fract_x
_atom_site_fract_y
_atom_site_fract_z
Si Si1 0.928691 0.923567 0.801005
Si Si2 0.726574 0.588058 0.383362
Si Si3 0.691724 0.419913 0.597236
Si Si4 0.933325 0.910309 0.008050
Si Si5 0.769093 0.076947 0.860892
Si Si6 0.149394 0.919651 0.437933
Si Si7 0.446751 0.085316 0.852413
Si Si8 0.530886 0.086863 0.551883
O O1 0.914113 0.750000 0.812033
O O2 0.931722 0.976091 0.905496
O O3 0.038546 0.983941 0.617534
O O4 0.826004 0.000076 0.878837
O O5 0.679848 0.750000 0.458284
O O6 0.763238 0.517579 0.437205
O O7 0.641075 0.473551 0.454443
O O8 0.813548 0.596598 0.195247
O O9 0.705645 0.250000 0.555204
O O10 0.743212 0.459203 0.634380
O O11 0.563987 0.462196 0.750764
O O12 0.984805 0.750000 0.939493
O O13 0.000000 0.000000 0.000000
O O14 0.768752 0.250000 0.874156
O O15 0.833867 0.026144 0.688458
O O16 0.645717 0.023329 0.998718
O O17 0.133343 0.750000 0.458548
O O18 0.421107 0.250000 0.915860
O O19 0.444355 0.076329 0.742147
O O20 0.548239 0.250000 0.497667
O O21 0.500000 0.000000 0.500000
#
# Coordination Sequence:
#
# PCOD8073396 Si02
#       8
#     4   4   4   4   4   4   4   4
#     4  10  21  39  60  81 112 154 191 230 286 349
#     4  10  20  34  52  82 117 145 181 231 278 329
#     4   9  18  37  62  84 110 150 193 232 284 351
#     4  10  22  37  57  84 113 148 188 231 278 335
#     4  11  23  37  56  85 116 148 191 244 287 332
#     4   9  19  37  61  84 109 145 193 243 292 343
#     4   9  20  37  56  81 114 150 187 228 280 345
#     4  10  21  36  56  80 109 148 188 226 273 333
#
# _framework density 19.668210999999999
#
# number of rings (size 3 to 8) (size 9 to 14) (size 15 to 20)
#    0.000    2.250    0.000    3.000    1.750    5.500 
#    0.000    2.500    0.000    0.000    0.000    0.000 
#    0.000    0.000    0.000    0.000    0.000    0.000 
#
# Total GULP energy -396633.833536 kJ/mol
# GULP energy per Si atom -12394.807298 kJ/mol
# Density = 1.962345 g / cm^3
# Si number density = 19.668211 Si / 1000 Ang^3
#
#
#
# Elastic Constant Matrix: (Units=GPa)
#
#
# Indices 1 2 3 4 5 6 
#
# 1 106.4739 36.6118 39.2864 0.0000 12.0680 0.0000
# 2 36.6118 83.7052 35.9195 0.0000 4.3631 0.0000
# 3 39.2864 35.9195 90.8898 0.0000 1.6033 0.0000
# 4 0.0000 0.0000 0.0000 29.1204 0.0000 -1.5203
# 5 12.0680 4.3631 1.6033 0.0000 28.7507 0.0000
# 6 0.0000 0.0000 0.0000 -1.5203 0.0000 29.4181
#
#
#
# Elastic Compliance Matrix: (Units=1/GPa)
#
#
# Indices 1 2 3 4 5 6 
#
# 1 0.012592 -0.003577 -0.003949 0.000000 -0.004522 0.000000
# 2 -0.003577 0.015504 -0.004570 0.000000 -0.000596 0.000000
# 3 -0.003949 -0.004570 0.014488 0.000000 0.001543 0.000000
# 4 0.000000 0.000000 0.000000 0.034433 0.000000 0.001779
# 5 -0.004522 -0.000596 0.001543 0.000000 0.036684 0.000000
# 6 0.000000 0.000000 0.000000 0.001779 0.000000 0.034085
#
#
# Mechanical properties :
#
#
# Convention : Reuss Voigt Hill
#
# Bulk Modulus (GPa) = 54.37634 56.07827 55.22730
# Shear Modulus (GPa) = 28.07268 28.74125 28.40696
#
# Velocity S-wave (km/s) = 3.78208 3.82685 3.80453
# Velocity P-wave (km/s) = 6.83952 6.93544 6.88765
#
# Compressibility (1/GPa) = 0.01839035
#
# Stress axis : x y z
#
# Youngs Moduli (GPa) = 79.41734 64.50127 69.02115
#
# Poissons Ratio (x) = 0.23073 0.27258
# Poissons Ratio (y) = 0.28408 0.31545
# Poissons Ratio (z) = 0.31364 0.29479
#
# Static dielectric constant tensor:
#      x y z
#    x 3.490930 0.000000 0.052160 
#    y 0.000000 3.501730 0.000000 
#    z 0.052160 0.000000 4.041720 
# 
# 
# High freq. dielectric constant tensor:
#      x y z
#    x 1.771790 0.000000 0.004290 
#    y 0.000000 1.755390 0.000000 
#    z 0.004290 0.000000 1.764670 
# 
# From -- ./inp_files/55542.got.cif
#   From: 2010.06.25/outbox.cif.g09.slc.cpg/sg11_28_cif.got.tgz:55542.got - 2010.06.27 23:14:04.
