data_PCOD8073471
_publ_section_title
;
Structure prediction by ZEFSAII (Michael W. Deem and Ramdas Pophale) SiO2 
 PCOD8073471
Probable space group: P 21/M
;
_chemical_formula_sum "Si O2"
_cell_formula_units_Z 32
_cell_length_a 12.268419
_cell_length_b 10.736303
_cell_length_c 23.890109
_cell_angle_alpha 90.000000
_cell_angle_beta 148.402714
_cell_angle_gamma 90.000000
_cell_volume 1648.722845
_symmetry_space_group_name_H-M "P 21/M"
_symmetry_group_IT_number 11
_symmetry_cell_setting 'monoclinic'
loop_
_space_group_symop_operation_xyz
x,y,z
-x,1/2+y,-z
-x,-y,-z
x,1/2-y,z
loop_
_atom_site_type_symbol
_atom_site_label
_atom_site_fract_x
_atom_site_fract_y
_atom_site_fract_z
Si Si1 0.555878 0.473651 0.176437
Si Si2 0.648379 0.608035 0.723679
Si Si3 0.565925 0.107250 0.984954
Si Si4 0.781920 0.614847 0.370270
Si Si5 0.977392 0.892152 0.785182
Si Si6 0.183143 0.396381 0.083758
Si Si7 0.200697 0.977961 0.513705
Si Si8 0.024441 0.610184 0.682811
O O1 0.520900 0.581305 0.115080
O O2 0.650869 0.521926 0.275669
O O3 0.339438 0.406466 0.098619
O O4 0.731841 0.382947 0.227981
O O5 0.717665 0.750000 0.752881
O O6 0.799164 0.539538 0.744307
O O7 0.688647 0.562843 0.804639
O O8 0.413455 0.596813 0.599575
O O9 0.500018 0.250000 0.974237
O O10 0.812847 0.098492 0.087484
O O11 0.500000 0.000000 0.000000
O O12 0.693140 0.750000 0.318356
O O13 0.751988 0.590182 0.422931
O O14 0.027938 0.611698 0.464861
O O15 0.918123 0.750000 0.746955
O O16 0.004551 0.953245 0.735560
O O17 0.105003 0.250000 0.051546
O O18 0.000000 0.500000 0.000000
O O19 0.120695 0.026888 0.419623
O O20 0.938579 0.750000 0.643138
#
# Coordination Sequence:
#
# PCOD8073471 Si02
#       8
#     4   4   4   4   4   4   4   4
#     4  11  21  37  61  89 117 156 197 248 303 362
#     4  10  20  38  59  81 115 156 200 240 296 361
#     4  11  22  38  63  91 122 159 204 252 305 362
#     4  10  20  34  53  82 119 150 190 245 300 352
#     4   9  19  36  58  82 112 154 195 243 294 356
#     4  11  24  41  62  90 123 162 205 253 308 370
#     4  10  20  34  54  84 111 153 196 241 298 349
#     4  10  20  35  57  86 116 151 197 245 299 357
#
# _framework density 19.408963
#
# number of rings (size 3 to 8) (size 9 to 14) (size 15 to 20)
#    0.000    1.750    2.500    2.250    0.000    3.000 
#    0.000    0.000    0.000    1.500    0.000    0.000 
#    0.000    0.000    0.000    0.000    0.000    0.000 
#
# Total GULP energy -396492.830159 kJ/mol
# GULP energy per Si atom -12390.400942 kJ/mol
# Density = 1.936479 g / cm^3
# Si number density = 19.408963 Si / 1000 Ang^3
#
#
#
# Elastic Constant Matrix: (Units=GPa)
#
#
# Indices 1 2 3 4 5 6 
#
# 1 114.3151 23.0068 38.8002 0.0000 -0.0124 0.0000
# 2 23.0068 74.2393 19.1108 0.0000 -0.0864 0.0000
# 3 38.8002 19.1108 97.0107 0.0000 -5.8284 0.0000
# 4 0.0000 0.0000 0.0000 23.4894 0.0000 0.4207
# 5 -0.0124 -0.0864 -5.8284 0.0000 33.5827 0.0000
# 6 0.0000 0.0000 0.0000 0.4207 0.0000 19.0838
#
#
#
# Elastic Compliance Matrix: (Units=1/GPa)
#
#
# Indices 1 2 3 4 5 6 
#
# 1 0.010491 -0.002277 -0.003787 0.000000 -0.000659 0.000000
# 2 -0.002277 0.014691 -0.002002 0.000000 -0.000310 0.000000
# 3 -0.003787 -0.002002 0.012346 0.000000 0.002136 0.000000
# 4 0.000000 0.000000 0.000000 0.042589 0.000000 -0.000939
# 5 -0.000659 -0.000310 0.002136 0.000000 0.030147 0.000000
# 6 0.000000 0.000000 0.000000 -0.000939 0.000000 0.052421
#
#
# Mechanical properties :
#
#
# Convention : Reuss Voigt Hill
#
# Bulk Modulus (GPa) = 46.73951 49.71119 48.22535
# Shear Modulus (GPa) = 26.88911 28.87434 27.88173
#
# Velocity S-wave (km/s) = 3.72613 3.86123 3.79428
# Velocity P-wave (km/s) = 6.53037 6.74884 6.64051
#
# Compressibility (1/GPa) = 0.02139517
#
# Stress axis : x y z
#
# Youngs Moduli (GPa) = 95.31632 68.07069 81.00101
#
# Poissons Ratio (x) = 0.15501 0.30676
# Poissons Ratio (y) = 0.21705 0.16215
# Poissons Ratio (z) = 0.36098 0.13627
#
# Static dielectric constant tensor:
#      x y z
#    x 3.826990 0.000000 -0.053290 
#    y 0.000000 3.303220 0.000000 
#    z -0.053290 0.000000 3.484630 
# 
# 
# High freq. dielectric constant tensor:
#      x y z
#    x 1.762910 0.000000 -0.006830 
#    y 0.000000 1.726570 0.000000 
#    z -0.006830 0.000000 1.758240 
# 
# From -- ./inp_files/35106.got.cif
#   From: 2010.06.25/outbox.cif.g09.slc.cpg/sg11_18_cif.got.tgz:35106.got - 2010.06.27 23:14:04.
