data_PCOD8073942
_publ_section_title
;
Structure prediction by ZEFSAII (Michael W. Deem and Ramdas Pophale) SiO2 
 PCOD8073942
Probable space group: P 21/M
;
_chemical_formula_sum "Si O2"
_cell_formula_units_Z 32
_cell_length_a 9.247943
_cell_length_b 14.107195
_cell_length_c 24.779007
_cell_angle_alpha 90.000000
_cell_angle_beta 32.065628
_cell_angle_gamma 90.000000
_cell_volume 1716.226074
_symmetry_space_group_name_H-M "P 21/M"
_symmetry_group_IT_number 11
_symmetry_cell_setting 'monoclinic'
loop_
_space_group_symop_operation_xyz
x,y,z
-x,1/2+y,-z
-x,-y,-z
x,1/2-y,z
loop_
_atom_site_type_symbol
_atom_site_label
_atom_site_fract_x
_atom_site_fract_y
_atom_site_fract_z
Si Si1 0.611900 0.855029 0.535155
Si Si2 0.995374 0.641199 0.104681
Si Si3 0.028083 0.855543 0.742482
Si Si4 0.550309 0.356164 0.122849
Si Si5 0.858650 0.946424 0.255174
Si Si6 0.491648 0.480246 0.785622
Si Si7 0.315100 0.017527 0.391682
Si Si8 0.973664 0.135986 0.683331
O O1 0.724994 0.750000 0.500431
O O2 0.632727 0.888217 0.590489
O O3 0.802708 0.904601 0.430149
O O4 0.293407 0.862345 0.619269
O O5 0.906836 0.750000 0.131351
O O6 0.028060 0.608401 0.156072
O O7 0.763670 0.583274 0.148070
O O8 0.284060 0.624099 0.984422
O O9 0.021811 0.750000 0.772628
O O10 0.768768 0.868482 0.786910
O O11 0.045937 0.942924 0.778865
O O12 0.615275 0.250000 0.123519
O O13 0.630318 0.432104 0.142389
O O14 0.925668 0.898503 0.290501
O O15 0.530499 0.939355 0.347498
O O16 0.634768 0.526087 0.687919
O O17 0.691180 0.414189 0.757582
O O18 0.000000 0.000000 0.500000
O O19 0.939943 0.250000 0.694373
#
# Coordination Sequence:
#
# PCOD8073942 Si02
#       8
#     4   4   4   4   4   4   4   4
#     4   9  19  34  54  80 115 150 184 228 281 335
#     4  10  22  40  59  82 116 151 188 237 290 340
#     4   9  18  35  56  82 112 146 186 233 283 331
#     4  10  21  38  61  84 111 148 192 239 291 338
#     4  10  21  36  58  83 112 152 188 237 278 340
#     4  11  21  37  59  85 114 151 191 237 285 340
#     4  10  20  35  54  82 113 149 187 224 282 338
#     4  11  21  35  56  84 115 151 192 232 277 338
#
# _framework density 18.645562000000002
#
# number of rings (size 3 to 8) (size 9 to 14) (size 15 to 20)
#    0.000    2.000    2.500    1.125    0.000    4.000 
#    0.000    2.500    0.000    0.750    0.000    0.000 
#    0.000    0.000    0.000    0.000    0.000    0.000 
#
# Total GULP energy -396502.341678 kJ/mol
# GULP energy per Si atom -12390.698177 kJ/mol
# Density = 1.860312 g / cm^3
# Si number density = 18.645562 Si / 1000 Ang^3
#
#
#
# Elastic Constant Matrix: (Units=GPa)
#
#
# Indices 1 2 3 4 5 6 
#
# 1 96.5002 45.7898 35.1031 0.0000 13.4611 0.0000
# 2 45.7898 111.2177 53.9088 0.0000 14.5575 0.0000
# 3 35.1031 53.9088 70.2028 0.0000 12.1137 0.0000
# 4 0.0000 0.0000 0.0000 26.5261 0.0000 5.0775
# 5 13.4611 14.5575 12.1137 0.0000 28.0737 0.0000
# 6 0.0000 0.0000 0.0000 5.0775 0.0000 26.4834
#
#
#
# Elastic Compliance Matrix: (Units=1/GPa)
#
#
# Indices 1 2 3 4 5 6 
#
# 1 0.013799 -0.003479 -0.003671 0.000000 -0.003228 0.000000
# 2 -0.003479 0.015421 -0.009735 0.000000 -0.002128 0.000000
# 3 -0.003671 -0.009735 0.024181 0.000000 -0.003626 0.000000
# 4 0.000000 0.000000 0.000000 0.039135 0.000000 -0.007503
# 5 -0.003228 -0.002128 -0.003626 0.000000 0.039836 0.000000
# 6 0.000000 0.000000 0.000000 -0.007503 0.000000 0.039198
#
#
# Mechanical properties :
#
#
# Convention : Reuss Voigt Hill
#
# Bulk Modulus (GPa) = 50.94046 60.83601 55.88824
# Shear Modulus (GPa) = 23.59765 25.75791 24.67778
#
# Velocity S-wave (km/s) = 3.56137 3.72082 3.64197
# Velocity P-wave (km/s) = 6.65514 7.15247 6.90828
#
# Compressibility (1/GPa) = 0.01963076
#
# Stress axis : x y z
#
# Youngs Moduli (GPa) = 72.46679 64.84649 41.35438
#
# Poissons Ratio (x) = 0.22563 0.15182
# Poissons Ratio (y) = 0.25214 0.40258
# Poissons Ratio (z) = 0.26604 0.63128
#
# Static dielectric constant tensor:
#      x y z
#    x 3.507290 0.000000 -0.063140 
#    y 0.000000 3.652190 0.000000 
#    z -0.063140 0.000000 3.609020 
# 
# 
# High freq. dielectric constant tensor:
#      x y z
#    x 1.714380 0.000000 -0.009850 
#    y 0.000000 1.727970 0.000000 
#    z -0.009850 0.000000 1.728940 
# 
# From -- ./inp_files/18093.got.cif
#   From: 2010.06.25/outbox.cif.g09.slc.cpg/sg11_10_cif.got.tgz:18093.got - 2010.06.27 23:14:04.
