data_PCOD8073962
_publ_section_title
;
Structure prediction by ZEFSAII (Michael W. Deem and Ramdas Pophale) SiO2 
 PCOD8073962
Probable space group: P 21/M
;
_chemical_formula_sum "Si O2"
_cell_formula_units_Z 32
_cell_length_a 20.690536
_cell_length_b 8.843697
_cell_length_c 14.269136
_cell_angle_alpha 90.000000
_cell_angle_beta 137.216445
_cell_angle_gamma 90.000000
_cell_volume 1773.456615
_symmetry_space_group_name_H-M "P 21/M"
_symmetry_group_IT_number 11
_symmetry_cell_setting 'monoclinic'
loop_
_space_group_symop_operation_xyz
x,y,z
-x,1/2+y,-z
-x,-y,-z
x,1/2-y,z
loop_
_atom_site_type_symbol
_atom_site_label
_atom_site_fract_x
_atom_site_fract_y
_atom_site_fract_z
Si Si1 0.483105 0.572398 0.582716
Si Si2 0.143606 0.072370 0.414909
Si Si3 0.731532 0.073026 0.596848
Si Si4 0.797525 0.575000 0.132492
Si Si5 0.795474 0.574397 0.847223
Si Si6 0.659159 0.428223 0.851431
Si Si7 0.097903 0.426890 0.573586
Si Si8 0.958899 0.922720 0.158187
O O1 0.500000 0.500000 0.500000
O O2 0.499061 0.750000 0.590822
O O3 0.378562 0.531987 0.508282
O O4 0.555423 0.503511 0.735678
O O5 0.162148 0.250000 0.430398
O O6 0.131975 0.013017 0.508989
O O7 0.234143 0.986439 0.467637
O O8 0.049115 0.032520 0.255381
O O9 0.750538 0.250000 0.626733
O O10 0.794826 0.986499 0.741326
O O11 0.770956 0.750000 0.089153
O O12 0.818756 0.535050 0.263142
O O13 0.891630 0.535023 0.173839
O O14 0.708897 0.476663 0.001707
O O15 0.766298 0.750000 0.820479
O O16 0.719380 0.481227 0.826163
O O17 0.901212 0.550392 0.000661
O O18 0.647959 0.250000 0.835880
O O19 0.078284 0.250000 0.548832
O O20 0.000000 0.500000 0.500000
O O21 0.994313 0.750000 0.203784
#
# Coordination Sequence:
#
# PCOD8073962 Si02
#       8
#     4   4   4   4   4   4   4   4
#     4  11  22  37  59  84 109 143 185 230 279 327
#     4  11  23  36  54  81 112 148 186 228 279 329
#     4  11  24  39  56  79 109 147 188 227 274 332
#     4   9  18  34  55  80 112 146 182 228 277 323
#     4  10  20  35  55  78 110 148 186 227 271 321
#     4  11  21  33  54  85 115 143 179 225 277 332
#     4  10  20  35  57  84 111 145 187 231 278 326
#     4   9  18  33  53  77 108 148 185 222 271 323
#
# _framework density 18.043858
#
# number of rings (size 3 to 8) (size 9 to 14) (size 15 to 20)
#    0.000    1.750    2.500    3.375    0.000    5.500 
#    0.000    0.000    0.000    0.750    0.000    0.000 
#    0.000    0.000    0.000    0.000    0.000    0.000 
#
# Total GULP energy -396904.238691 kJ/mol
# GULP energy per Si atom -12403.257459 kJ/mol
# Density = 1.800279 g / cm^3
# Si number density = 18.043858 Si / 1000 Ang^3
#
#
#
# Elastic Constant Matrix: (Units=GPa)
#
#
# Indices 1 2 3 4 5 6 
#
# 1 111.8546 47.8854 66.0601 0.0000 -3.2945 0.0000
# 2 47.8854 88.1293 50.4283 0.0000 5.0599 0.0000
# 3 66.0601 50.4283 108.7815 0.0000 -0.9910 0.0000
# 4 0.0000 0.0000 0.0000 30.1189 0.0000 1.6232
# 5 -3.2945 5.0599 -0.9910 0.0000 23.6320 0.0000
# 6 0.0000 0.0000 0.0000 1.6232 0.0000 27.0175
#
#
#
# Elastic Compliance Matrix: (Units=1/GPa)
#
#
# Indices 1 2 3 4 5 6 
#
# 1 0.015063 -0.004246 -0.007154 0.000000 0.002709 0.000000
# 2 -0.004246 0.016954 -0.005321 0.000000 -0.004445 0.000000
# 3 -0.007154 -0.005321 0.016012 0.000000 0.000813 0.000000
# 4 0.000000 0.000000 0.000000 0.033310 0.000000 -0.002001
# 5 0.002709 -0.004445 0.000813 0.000000 0.043679 0.000000
# 6 0.000000 0.000000 0.000000 -0.002001 0.000000 0.037133
#
#
# Mechanical properties :
#
#
# Convention : Reuss Voigt Hill
#
# Bulk Modulus (GPa) = 68.56337 70.83478 69.69907
# Shear Modulus (GPa) = 24.94306 25.77981 25.36143
#
# Velocity S-wave (km/s) = 3.72204 3.78396 3.75313
# Velocity P-wave (km/s) = 7.52011 7.64417 7.58240
#
# Compressibility (1/GPa) = 0.01458505
#
# Stress axis : x y z
#
# Youngs Moduli (GPa) = 66.38762 58.98150 62.45490
#
# Poissons Ratio (x) = 0.25046 0.44681
# Poissons Ratio (y) = 0.28191 0.33235
# Poissons Ratio (z) = 0.47495 0.31387
#
# Static dielectric constant tensor:
#      x y z
#    x 3.219680 0.000000 -0.090250 
#    y 0.000000 3.338910 0.000000 
#    z -0.090250 0.000000 3.555660 
# 
# 
# High freq. dielectric constant tensor:
#      x y z
#    x 1.674160 0.000000 -0.003240 
#    y 0.000000 1.706220 0.000000 
#    z -0.003240 0.000000 1.701930 
# 
# From -- ./inp_files/54363.got.cif
#   From: 2010.06.25/outbox.cif.g09.slc.cpg/sg11_28_cif.got.tgz:54363.got - 2010.06.27 23:14:04.
