data_PCOD8073684
_publ_section_title
;
Structure prediction by ZEFSAII (Michael W. Deem and Ramdas Pophale) SiO2 
 PCOD8073684
Probable space group: P 21/M
;
_chemical_formula_sum "Si O2"
_cell_formula_units_Z 28
_cell_length_a 20.977414
_cell_length_b 9.621818
_cell_length_c 15.482764
_cell_angle_alpha 90.000000
_cell_angle_beta 151.257627
_cell_angle_gamma 90.000000
_cell_volume 1502.751339
_symmetry_space_group_name_H-M "P 21/M"
_symmetry_group_IT_number 11
_symmetry_cell_setting 'monoclinic'
loop_
_space_group_symop_operation_xyz
x,y,z
-x,1/2+y,-z
-x,-y,-z
x,1/2-y,z
loop_
_atom_site_type_symbol
_atom_site_label
_atom_site_fract_x
_atom_site_fract_y
_atom_site_fract_z
Si Si1 0.845187 0.088926 0.065267
Si Si2 0.018331 0.087097 0.434484
Si Si3 0.599500 0.093213 0.564183
Si Si4 0.514161 0.910446 0.891621
Si Si5 0.394383 0.093515 0.182163
Si Si6 0.314091 0.408629 0.738840
Si Si7 0.900607 0.411628 0.940462
O O1 0.808942 0.250000 0.030345
O O2 0.919542 0.038882 0.240651
O O3 0.929896 0.064147 0.077831
O O4 0.708673 0.005560 0.891403
O O5 0.002080 0.250000 0.437625
O O6 0.161188 0.054577 0.565126
O O7 0.000000 0.000000 0.500000
O O8 0.598926 0.250000 0.601632
O O9 0.540443 0.090067 0.397550
O O10 0.750219 0.037967 0.741698
O O11 0.500000 0.000000 0.500000
O O12 0.473727 0.750000 0.838039
O O13 0.588925 0.960911 0.895084
O O14 0.378632 0.996060 0.741935
O O15 0.617676 0.943192 0.089526
O O16 0.336369 0.250000 0.115299
O O17 0.336693 0.250000 0.738393
O O18 0.918951 0.250000 0.937900
O O19 0.000000 0.500000 0.000000
#
# Coordination Sequence:
#
# PCOD8073684 Si02
#       7
#     4   4   4   4   4   4   4
#     4  10  21  37  56  80 112 147 185 232 280 334
#     4  10  21  36  55  79 109 145 184 226 275 332
#     4  10  20  36  58  82 110 143 183 229 276 331
#     4   9  18  32  50  74 103 134 172 221 268 315
#     4  10  20  34  56  83 108 139 183 229 276 329
#     4   9  18  33  50  70 102 139 175 216 264 319
#     4  10  22  39  57  82 117 153 191 236 286 342
#
# _framework density 18.632491000000002
#
# number of rings (size 3 to 8) (size 9 to 14) (size 15 to 20)
#    0.000    2.286    1.429    0.857    0.000    5.143 
#    0.000    2.857    0.000    0.000    0.000    0.000 
#    0.000    0.000    0.000    0.000    0.000    0.000 
#
# Total GULP energy -347145.396083 kJ/mol
# GULP energy per Si atom -12398.049860 kJ/mol
# Density = 1.859008 g / cm^3
# Si number density = 18.632491 Si / 1000 Ang^3
#
#
#
# Elastic Constant Matrix: (Units=GPa)
#
#
# Indices 1 2 3 4 5 6 
#
# 1 117.2389 59.9329 47.5004 0.0000 3.8520 0.0000
# 2 59.9329 65.4120 39.7581 0.0000 6.5725 0.0000
# 3 47.5004 39.7581 101.1592 0.0000 8.2677 0.0000
# 4 0.0000 0.0000 0.0000 26.2673 0.0000 5.7572
# 5 3.8520 6.5725 8.2677 0.0000 28.0521 0.0000
# 6 0.0000 0.0000 0.0000 5.7572 0.0000 38.9128
#
#
#
# Elastic Compliance Matrix: (Units=1/GPa)
#
#
# Indices 1 2 3 4 5 6 
#
# 1 0.016543 -0.013825 -0.002473 0.000000 0.001696 0.000000
# 2 -0.013825 0.031803 -0.005691 0.000000 -0.003876 0.000000
# 3 -0.002473 -0.005691 0.013471 0.000000 -0.002297 0.000000
# 4 0.000000 0.000000 0.000000 0.039346 0.000000 -0.005821
# 5 0.001696 -0.003876 -0.002297 0.000000 0.037000 0.000000
# 6 0.000000 0.000000 0.000000 -0.005821 0.000000 0.026560
#
#
# Mechanical properties :
#
#
# Convention : Reuss Voigt Hill
#
# Bulk Modulus (GPa) = 56.05571 64.24365 60.14968
# Shear Modulus (GPa) = 23.29403 27.75436 25.52419
#
# Velocity S-wave (km/s) = 3.53963 3.86368 3.70520
# Velocity P-wave (km/s) = 6.84511 7.37958 7.11737
#
# Compressibility (1/GPa) = 0.01783940
#
# Stress axis : x y z
#
# Youngs Moduli (GPa) = 60.44826 31.44371 74.23232
#
# Poissons Ratio (x) = 0.43470 0.18359
# Poissons Ratio (y) = 0.83567 0.42246
# Poissons Ratio (z) = 0.14950 0.17895
#
# Static dielectric constant tensor:
#      x y z
#    x 3.468670 0.000000 -0.121950 
#    y 0.000000 3.391130 0.000000 
#    z -0.121950 0.000000 3.628460 
# 
# 
# High freq. dielectric constant tensor:
#      x y z
#    x 1.719850 0.000000 -0.007540 
#    y 0.000000 1.717940 0.000000 
#    z -0.007540 0.000000 1.727740 
# 
# From -- ./inp_files/54577.got.cif
#   From: 2010.06.25/outbox.cif.g09.slc.cpg/sg11_28_cif.got.tgz:54577.got - 2010.06.27 23:14:04.
