data_PCOD8073661
_publ_section_title
;
Structure prediction by ZEFSAII (Michael W. Deem and Ramdas Pophale) SiO2 
 PCOD8073661
Probable space group: P 21/M
;
_chemical_formula_sum "Si O2"
_cell_formula_units_Z 32
_cell_length_a 26.919575
_cell_length_b 8.396894
_cell_length_c 21.473824
_cell_angle_alpha 90.000000
_cell_angle_beta 19.364902
_cell_angle_gamma 90.000000
_cell_volume 1609.492195
_symmetry_space_group_name_H-M "P 21/M"
_symmetry_group_IT_number 11
_symmetry_cell_setting 'monoclinic'
loop_
_space_group_symop_operation_xyz
x,y,z
-x,1/2+y,-z
-x,-y,-z
x,1/2-y,z
loop_
_atom_site_type_symbol
_atom_site_label
_atom_site_fract_x
_atom_site_fract_y
_atom_site_fract_z
Si Si1 0.864563 0.438180 0.119828
Si Si2 0.236155 0.566733 0.495793
Si Si3 0.452917 0.436152 0.489115
Si Si4 0.064615 0.566066 0.104170
Si Si5 0.439242 0.562691 0.863714
Si Si6 0.668649 0.062666 0.749525
Si Si7 0.644894 0.070205 0.908516
Si Si8 0.676196 0.566974 0.124546
O O1 0.845071 0.250000 0.149674
O O2 0.720352 0.527336 0.317730
O O3 0.889393 0.489430 0.019154
O O4 0.000000 0.500000 0.000000
O O5 0.206938 0.750000 0.546615
O O6 0.398937 0.521261 0.329773
O O7 0.219284 0.536709 0.440985
O O8 0.111326 0.462733 0.677922
O O9 0.500000 0.500000 0.500000
O O10 0.487005 0.250000 0.444320
O O11 0.547852 0.525072 0.325040
O O12 0.102905 0.750000 0.068003
O O13 0.160356 0.467430 0.040782
O O14 0.467543 0.750000 0.839072
O O15 0.340941 0.491366 0.039128
O O16 0.346110 0.533167 0.911746
O O17 0.620126 0.250000 0.809427
O O18 0.529195 0.947416 0.903029
O O19 0.736301 0.009896 0.738248
O O20 0.693297 0.250000 0.860928
O O21 0.664637 0.750000 0.120081
#
# Coordination Sequence:
#
# PCOD8073661 Si02
#       8
#     4   4   4   4   4   4   4   4
#     4  11  25  43  64  89 118 151 188 235 285 335
#     4  10  20  34  55  84 118 152 190 235 283 337
#     4  12  24  42  66  90 117 149 189 233 278 335
#     4  11  24  42  61  82 114 152 190 232 284 343
#     4  10  20  35  56  84 117 151 190 236 284 335
#     4   8  14  26  46  75 109 145 184 228 277 329
#     4   8  14  26  47  75 108 145 184 228 278 329
#     4  12  25  41  62  85 113 151 192 235 284 338
#
# _framework density 19.882048000000001
#
# number of rings (size 3 to 8) (size 9 to 14) (size 15 to 20)
#    0.000    1.750    1.250    3.750    1.750    2.500 
#    0.000    0.000    0.000    0.750    0.000    0.000 
#    0.000    0.000    0.000    0.000    0.000    0.000 
#
# Total GULP energy -396533.801190 kJ/mol
# GULP energy per Si atom -12391.681287 kJ/mol
# Density = 1.983680 g / cm^3
# Si number density = 19.882048 Si / 1000 Ang^3
#
#
#
# Elastic Constant Matrix: (Units=GPa)
#
#
# Indices 1 2 3 4 5 6 
#
# 1 119.2461 11.9758 14.0279 0.0000 7.0706 0.0000
# 2 11.9758 43.1270 14.4003 0.0000 4.2244 0.0000
# 3 14.0279 14.4003 34.2175 0.0000 -6.3289 0.0000
# 4 0.0000 0.0000 0.0000 25.3761 0.0000 -2.7702
# 5 7.0706 4.2244 -6.3289 0.0000 30.1565 0.0000
# 6 0.0000 0.0000 0.0000 -2.7702 0.0000 28.2282
#
#
#
# Elastic Compliance Matrix: (Units=1/GPa)
#
#
# Indices 1 2 3 4 5 6 
#
# 1 0.009102 -0.000970 -0.003842 0.000000 -0.002804 0.000000
# 2 -0.000970 0.028328 -0.012709 0.000000 -0.006408 0.000000
# 3 -0.003842 -0.012709 0.038124 0.000000 0.010682 0.000000
# 4 0.000000 0.000000 0.000000 0.039834 0.000000 0.003909
# 5 -0.002804 -0.006408 0.010682 0.000000 0.036957 0.000000
# 6 0.000000 0.000000 0.000000 0.003909 0.000000 0.035809
#
#
# Mechanical properties :
#
#
# Convention : Reuss Voigt Hill
#
# Bulk Modulus (GPa) = 24.68420 30.82206 27.75313
# Shear Modulus (GPa) = 21.12372 27.16460 24.14416
#
# Velocity S-wave (km/s) = 3.26306 3.70034 3.48856
# Velocity P-wave (km/s) = 5.16130 5.81316 5.49690
#
# Compressibility (1/GPa) = 0.04051174
#
# Stress axis : x y z
#
# Youngs Moduli (GPa) = 109.87002 35.30070 26.22998
#
# Poissons Ratio (x) = 0.03424 0.10077
# Poissons Ratio (y) = 0.10656 0.33337
# Poissons Ratio (z) = 0.42211 0.44865
#
# Static dielectric constant tensor:
#      x y z
#    x 3.928730 0.000000 0.504310 
#    y 0.000000 3.865020 0.000000 
#    z 0.504310 0.000000 3.640890 
# 
# 
# High freq. dielectric constant tensor:
#      x y z
#    x 1.783730 0.000000 0.030320 
#    y 0.000000 1.777630 0.000000 
#    z 0.030320 0.000000 1.752860 
# 
# From -- ./inp_files/66925.got.cif
#   From: 2010.06.25/outbox.cif.g09.slc.cpg/sg11_34_cif.got.tgz:66925.got - 2010.06.27 23:14:04.
