data_PCOD8073234
_publ_section_title
;
Structure prediction by ZEFSAII (Michael W. Deem and Ramdas Pophale) SiO2 
 PCOD8073234
Probable space group: P 21/M
;
_chemical_formula_sum "Si O2"
_cell_formula_units_Z 32
_cell_length_a 24.143393
_cell_length_b 9.013545
_cell_length_c 16.386588
_cell_angle_alpha 90.000000
_cell_angle_beta 27.107835
_cell_angle_gamma 90.000000
_cell_volume 1624.911457
_symmetry_space_group_name_H-M "P 21/M"
_symmetry_group_IT_number 11
_symmetry_cell_setting 'monoclinic'
loop_
_space_group_symop_operation_xyz
x,y,z
-x,1/2+y,-z
-x,-y,-z
x,1/2-y,z
loop_
_atom_site_type_symbol
_atom_site_label
_atom_site_fract_x
_atom_site_fract_y
_atom_site_fract_z
Si Si1 0.629480 0.573766 0.314957
Si Si2 0.675439 0.081383 0.822650
Si Si3 0.255716 0.921662 0.444471
Si Si4 0.482349 0.080494 0.851538
Si Si5 0.903958 0.579200 0.226803
Si Si6 0.175469 0.578359 0.829078
Si Si7 0.706128 0.925104 0.034001
Si Si8 0.880429 0.420381 0.688135
O O1 0.500000 0.500000 0.500000
O O2 0.615155 0.750000 0.339222
O O3 0.722185 0.518092 0.261689
O O4 0.681654 0.524275 0.158571
O O5 0.636103 0.250000 0.861230
O O6 0.715295 0.015861 0.683402
O O7 0.785267 0.062522 0.740703
O O8 0.558206 0.999385 0.012153
O O9 0.213976 0.750000 0.496406
O O10 0.373602 0.942153 0.348210
O O11 0.147316 0.023247 0.619850
O O12 0.448282 0.250000 0.909823
O O13 0.411724 0.022178 0.863942
O O14 0.870878 0.750000 0.253448
O O15 0.841118 0.478067 0.240947
O O16 0.048357 0.556558 0.042548
O O17 0.215824 0.750000 0.773890
O O18 0.727076 0.750000 0.001125
O O19 0.826885 0.004178 0.840498
O O20 0.909579 0.250000 0.670149
O O21 0.000000 0.500000 0.500000
#
# Coordination Sequence:
#
# PCOD8073234 Si02
#       8
#     4   4   4   4   4   4   4   4
#     4  11  24  40  62  91 122 157 200 248 301 356
#     4   9  19  34  50  76 110 144 183 227 278 331
#     4  10  20  33  54  82 112 147 184 227 283 343
#     4   9  18  33  54  78 108 147 185 223 278 337
#     4  10  22  39  60  87 113 148 194 239 293 351
#     4  10  22  42  63  83 116 152 190 242 296 351
#     4   9  20  38  56  80 114 150 190 236 288 345
#     4  10  20  35  56  80 110 148 191 237 286 343
#
# _framework density 19.693380000000001
#
# number of rings (size 3 to 8) (size 9 to 14) (size 15 to 20)
#    0.000    2.250    0.000    1.875    1.750    5.000 
#    0.000    3.750    0.000    0.000    0.000    0.000 
#    0.000    0.000    0.000    0.000    0.000    0.000 
#
# Total GULP energy -396851.413473 kJ/mol
# GULP energy per Si atom -12401.606671 kJ/mol
# Density = 1.964856 g / cm^3
# Si number density = 19.693380 Si / 1000 Ang^3
#
#
#
# Elastic Constant Matrix: (Units=GPa)
#
#
# Indices 1 2 3 4 5 6 
#
# 1 60.4406 25.5019 27.7179 0.0000 2.0663 0.0000
# 2 25.5019 78.5709 53.1008 0.0000 -0.4444 0.0000
# 3 27.7179 53.1008 115.2177 0.0000 4.2064 0.0000
# 4 0.0000 0.0000 0.0000 38.6633 0.0000 2.2177
# 5 2.0663 -0.4444 4.2064 0.0000 22.0307 0.0000
# 6 0.0000 0.0000 0.0000 2.2177 0.0000 28.9070
#
#
#
# Elastic Compliance Matrix: (Units=1/GPa)
#
#
# Indices 1 2 3 4 5 6 
#
# 1 0.019740 -0.004709 -0.002525 0.000000 -0.001464 0.000000
# 2 -0.004709 0.019697 -0.008032 0.000000 0.002372 0.000000
# 3 -0.002525 -0.008032 0.013077 0.000000 -0.002422 0.000000
# 4 0.000000 0.000000 0.000000 0.025979 0.000000 -0.001993
# 5 -0.001464 0.002372 -0.002422 0.000000 0.046039 0.000000
# 6 0.000000 0.000000 0.000000 -0.001993 0.000000 0.034747
#
#
# Mechanical properties :
#
#
# Convention : Reuss Voigt Hill
#
# Bulk Modulus (GPa) = 45.49059 51.87450 48.68254
# Shear Modulus (GPa) = 25.36304 27.78076 26.57190
#
# Velocity S-wave (km/s) = 3.59262 3.75996 3.67724
# Velocity P-wave (km/s) = 6.35286 6.72666 6.54243
#
# Compressibility (1/GPa) = 0.02198257
#
# Stress axis : x y z
#
# Youngs Moduli (GPa) = 50.65838 50.76859 76.47138
#
# Poissons Ratio (x) = 0.23905 0.19311
# Poissons Ratio (y) = 0.23853 0.61420
# Poissons Ratio (z) = 0.12793 0.40776
#
# Static dielectric constant tensor:
#      x y z
#    x 3.791910 0.000000 0.038440 
#    y 0.000000 3.604530 0.000000 
#    z 0.038440 0.000000 3.624420 
# 
# 
# High freq. dielectric constant tensor:
#      x y z
#    x 1.764240 0.000000 0.002600 
#    y 0.000000 1.766680 0.000000 
#    z 0.002600 0.000000 1.773410 
# 
# From -- ./inp_files/55597.got.cif
#   From: 2010.06.25/outbox.cif.g09.slc.cpg/sg11_28_cif.got.tgz:55597.got - 2010.06.27 23:14:04.
