data_PCOD8073751
_publ_section_title
;
Structure prediction by ZEFSAII (Michael W. Deem and Ramdas Pophale) SiO2 
 PCOD8073751
Probable space group: P 21/M
;
_chemical_formula_sum "Si O2"
_cell_formula_units_Z 28
_cell_length_a 15.785689
_cell_length_b 9.083332
_cell_length_c 21.258535
_cell_angle_alpha 90.000000
_cell_angle_beta 151.562658
_cell_angle_gamma 90.000000
_cell_volume 1451.540283
_symmetry_space_group_name_H-M "P 21/M"
_symmetry_group_IT_number 11
_symmetry_cell_setting 'monoclinic'
loop_
_space_group_symop_operation_xyz
x,y,z
-x,1/2+y,-z
-x,-y,-z
x,1/2-y,z
loop_
_atom_site_type_symbol
_atom_site_label
_atom_site_fract_x
_atom_site_fract_y
_atom_site_fract_z
Si Si1 0.437112 0.918745 0.545369
Si Si2 0.068126 0.082692 0.605000
Si Si3 0.232639 0.918137 0.290951
Si Si4 0.305846 0.583097 0.593698
Si Si5 0.059549 0.925188 0.973468
Si Si6 0.443540 0.423214 0.898972
Si Si7 0.424181 0.922453 0.147568
O O1 0.508061 0.750000 0.590773
O O2 0.268630 0.933175 0.388730
O O3 0.374954 0.972143 0.572267
O O4 0.590330 0.032708 0.629084
O O5 0.107210 0.250000 0.610730
O O6 0.247096 0.016376 0.752274
O O7 0.907164 0.069101 0.549388
O O8 0.000000 0.000000 0.500000
O O9 0.188543 0.750000 0.242890
O O10 0.073028 0.025209 0.168057
O O11 0.364073 0.750000 0.644944
O O12 0.393706 0.487287 0.705913
O O13 0.053067 0.750000 0.977755
O O14 0.252869 0.980472 0.075013
O O15 0.000000 0.000000 0.000000
O O16 0.438851 0.250000 0.909001
O O17 0.578696 0.461422 0.929206
O O18 0.500000 0.500000 0.000000
O O19 0.435200 0.750000 0.163197
#
# Coordination Sequence:
#
# PCOD8073751 Si02
#       7
#     4   4   4   4   4   4   4
#     4   9  19  35  54  79 112 146 184 232 281 335
#     4  10  20  36  59  84 112 145 184 231 280 336
#     4  10  20  35  55  79 110 147 188 231 282 336
#     4  10  20  34  57  86 110 141 188 234 280 335
#     4  11  23  38  57  81 113 150 191 235 284 343
#     4  10  22  40  60  85 119 155 193 238 290 346
#     4  10  22  39  57  81 114 151 189 236 288 343
#
# _framework density 19.289853000000001
#
# number of rings (size 3 to 8) (size 9 to 14) (size 15 to 20)
#    0.000    2.000    1.429    1.714    0.000    6.857 
#    0.000    1.429    0.000    0.000    0.000    0.000 
#    0.000    0.000    0.000    0.000    0.000    0.000 
#
# Total GULP energy -347116.627230 kJ/mol
# GULP energy per Si atom -12397.022401 kJ/mol
# Density = 1.924595 g / cm^3
# Si number density = 19.289853 Si / 1000 Ang^3
#
#
#
# Elastic Constant Matrix: (Units=GPa)
#
#
# Indices 1 2 3 4 5 6 
#
# 1 123.3062 37.8272 52.9463 0.0000 -10.5735 0.0000
# 2 37.8272 49.9743 36.8611 0.0000 -5.6014 0.0000
# 3 52.9463 36.8611 123.0617 0.0000 -3.5747 0.0000
# 4 0.0000 0.0000 0.0000 34.5714 0.0000 -4.0079
# 5 -10.5735 -5.6014 -3.5747 0.0000 29.5185 0.0000
# 6 0.0000 0.0000 0.0000 -4.0079 0.0000 26.2239
#
#
#
# Elastic Compliance Matrix: (Units=1/GPa)
#
#
# Indices 1 2 3 4 5 6 
#
# 1 0.011537 -0.006209 -0.003029 0.000000 0.002588 0.000000
# 2 -0.006209 0.029495 -0.006087 0.000000 0.002636 0.000000
# 3 -0.003029 -0.006087 0.011227 0.000000 -0.000880 0.000000
# 4 0.000000 0.000000 0.000000 0.029447 0.000000 0.004501
# 5 0.002588 0.002636 -0.000880 0.000000 0.035198 0.000000
# 6 0.000000 0.000000 0.000000 0.004501 0.000000 0.038821
#
#
# Mechanical properties :
#
#
# Convention : Reuss Voigt Hill
#
# Bulk Modulus (GPa) = 46.27501 61.29014 53.78257
# Shear Modulus (GPa) = 25.82954 29.30992 27.56973
#
# Velocity S-wave (km/s) = 3.66324 3.90224 3.78462
# Velocity P-wave (km/s) = 6.47563 7.22118 6.85854
#
# Compressibility (1/GPa) = 0.02160994
#
# Stress axis : x y z
#
# Youngs Moduli (GPa) = 86.67781 33.90409 89.07250
#
# Poissons Ratio (x) = 0.21050 0.26979
# Poissons Ratio (y) = 0.53815 0.54218
# Poissons Ratio (z) = 0.26253 0.20637
#
# Static dielectric constant tensor:
#      x y z
#    x 3.810920 0.000000 0.166740 
#    y 0.000000 3.410590 0.000000 
#    z 0.166740 0.000000 3.702550 
# 
# 
# High freq. dielectric constant tensor:
#      x y z
#    x 1.758660 0.000000 0.001260 
#    y 0.000000 1.745650 0.000000 
#    z 0.001260 0.000000 1.749750 
# 
# From -- ./inp_files/65465.got.cif
#   From: 2010.06.25/outbox.cif.g09.slc.cpg/sg11_33_cif.got.tgz:65465.got - 2010.06.27 23:14:04.
