data_PCOD8073349
_publ_section_title
;
Structure prediction by ZEFSAII (Michael W. Deem and Ramdas Pophale) SiO2 
 PCOD8073349
Probable space group: P 21/M
;
_chemical_formula_sum "Si O2"
_cell_formula_units_Z 32
_cell_length_a 22.669535
_cell_length_b 19.300577
_cell_length_c 9.927615
_cell_angle_alpha 90.000000
_cell_angle_beta 154.455273
_cell_angle_gamma 90.000000
_cell_volume 1873.062411
_symmetry_space_group_name_H-M "P 21/M"
_symmetry_group_IT_number 11
_symmetry_cell_setting 'monoclinic'
loop_
_space_group_symop_operation_xyz
x,y,z
-x,1/2+y,-z
-x,-y,-z
x,1/2-y,z
loop_
_atom_site_type_symbol
_atom_site_label
_atom_site_fract_x
_atom_site_fract_y
_atom_site_fract_z
Si Si1 0.948757 0.603768 0.217470
Si Si2 0.985503 0.382161 0.360347
Si Si3 0.817637 0.509116 0.326198
Si Si4 0.677712 0.557523 0.297513
Si Si5 0.104176 0.330493 0.168624
Si Si6 0.754734 0.007050 0.909834
Si Si7 0.625996 0.439270 0.396728
Si Si8 0.855148 0.172778 0.842518
O O1 0.989051 0.647085 0.436197
O O2 0.067680 0.550048 0.419767
O O3 0.925335 0.657776 0.049464
O O4 0.803645 0.566737 0.950814
O O5 0.121406 0.413927 0.572177
O O6 0.890549 0.448281 0.179314
O O7 0.919088 0.325491 0.125193
O O8 0.729654 0.511402 0.280105
O O9 0.716259 0.494732 0.989318
O O10 0.769958 0.623716 0.519833
O O11 0.675365 0.507306 0.420264
O O12 0.525828 0.584970 0.952227
O O13 0.139626 0.250000 0.266706
O O14 0.969650 0.353130 0.973920
O O15 0.633851 0.040804 0.571825
O O16 0.725240 0.376477 0.563592
O O17 0.806099 0.250000 0.705992
#
# Coordination Sequence:
#
# PCOD8073349 Si02
#       8
#     4   4   4   4   4   4   4   4
#     4   9  16  29  50  74 102 127 157 201 250 294
#     4   8  15  28  49  76  99 124 156 199 253 290
#     4   9  16  28  51  76 100 127 154 206 255 283
#     4  11  21  33  50  74 103 132 166 208 247 294
#     4  11  22  33  49  74 100 131 169 206 244 292
#     4   8  15  29  49  75  99 123 160 200 245 298
#     4  10  21  34  51  74 100 133 168 201 249 298
#     4  10  20  34  52  74  99 129 167 205 244 294
#
# _framework density 17.084320999999999
#
# number of rings (size 3 to 8) (size 9 to 14) (size 15 to 20)
#    0.000    2.500    2.500    2.250    0.000    2.500 
#    0.000    0.000    0.000    0.000    0.000    0.000 
#    0.000    0.000    0.000    0.000    0.000    0.000 
#
# Total GULP energy -396576.458498 kJ/mol
# GULP energy per Si atom -12393.014328 kJ/mol
# Density = 1.704544 g / cm^3
# Si number density = 17.084321 Si / 1000 Ang^3
#
#
#
# Elastic Constant Matrix: (Units=GPa)
#
#
# Indices 1 2 3 4 5 6 
#
# 1 51.4585 6.3967 31.5530 0.0000 -11.9897 0.0000
# 2 6.3967 52.5535 37.3179 0.0000 4.1694 0.0000
# 3 31.5530 37.3179 95.5774 0.0000 -8.7643 0.0000
# 4 0.0000 0.0000 0.0000 15.6346 0.0000 0.5113
# 5 -11.9897 4.1694 -8.7643 0.0000 24.7512 0.0000
# 6 0.0000 0.0000 0.0000 0.5113 0.0000 19.4950
#
#
#
# Elastic Compliance Matrix: (Units=1/GPa)
#
#
# Indices 1 2 3 4 5 6 
#
# 1 0.026790 0.002289 -0.008871 0.000000 0.009451 0.000000
# 2 0.002289 0.028304 -0.012550 0.000000 -0.008103 0.000000
# 3 -0.008871 -0.012550 0.018698 0.000000 0.004438 0.000000
# 4 0.000000 0.000000 0.000000 0.064015 0.000000 -0.001679
# 5 0.009451 -0.008103 0.004438 0.000000 0.047917 0.000000
# 6 0.000000 0.000000 0.000000 -0.001679 0.000000 0.051339
#
#
# Mechanical properties :
#
#
# Convention : Reuss Voigt Hill
#
# Bulk Modulus (GPa) = 28.14683 38.90273 33.52478
# Shear Modulus (GPa) = 17.41120 20.26429 18.83775
#
# Velocity S-wave (km/s) = 3.19585 3.44777 3.32420
# Velocity P-wave (km/s) = 5.48898 6.21851 5.86510
#
# Compressibility (1/GPa) = 0.03552798
#
# Stress axis : x y z
#
# Youngs Moduli (GPa) = 37.32703 35.33052 53.48042
#
# Poissons Ratio (x) = -0.08087 0.47444
# Poissons Ratio (y) = -0.08543 0.67117
# Poissons Ratio (z) = 0.33114 0.44340
#
# Static dielectric constant tensor:
#      x y z
#    x 3.304390 0.000000 -0.311520 
#    y 0.000000 2.900080 0.000000 
#    z -0.311520 0.000000 3.194720 
# 
# 
# High freq. dielectric constant tensor:
#      x y z
#    x 1.662200 0.000000 -0.023340 
#    y 0.000000 1.631290 0.000000 
#    z -0.023340 0.000000 1.651550 
# 
# From -- ./inp_files/19436.got.cif
#   From: 2010.06.25/outbox.cif.g09.slc.cpg/sg11_10_cif.got.tgz:19436.got - 2010.06.27 23:14:04.
