data_PCOD8073559
_publ_section_title
;
Structure prediction by ZEFSAII (Michael W. Deem and Ramdas Pophale) SiO2 
 PCOD8073559
Probable space group: P 21/M
;
_chemical_formula_sum "Si O2"
_cell_formula_units_Z 32
_cell_length_a 15.116681
_cell_length_b 8.886831
_cell_length_c 12.273863
_cell_angle_alpha 90.000000
_cell_angle_beta 87.698977
_cell_angle_gamma 90.000000
_cell_volume 1647.533746
_symmetry_space_group_name_H-M "P 21/M"
_symmetry_group_IT_number 11
_symmetry_cell_setting 'monoclinic'
loop_
_space_group_symop_operation_xyz
x,y,z
-x,1/2+y,-z
-x,-y,-z
x,1/2-y,z
loop_
_atom_site_type_symbol
_atom_site_label
_atom_site_fract_x
_atom_site_fract_y
_atom_site_fract_z
Si Si1 0.566708 0.928678 0.910893
Si Si2 0.086887 0.573713 0.945740
Si Si3 0.940982 0.572335 0.272665
Si Si4 0.625936 0.423891 0.471422
Si Si5 0.534103 0.572570 0.667381
Si Si6 0.137888 0.572121 0.303277
Si Si7 0.752442 0.073242 0.904410
Si Si8 0.174703 0.575075 0.544230
O O1 0.559582 0.750000 0.918417
O O2 0.542723 0.988343 0.790344
O O3 0.665062 0.980574 0.937668
O O4 0.500000 0.000000 0.000000
O O5 0.069982 0.750000 0.942820
O O6 0.106040 0.510193 0.825162
O O7 0.173374 0.534376 0.010641
O O8 0.000000 0.500000 0.000000
O O9 0.938188 0.750000 0.254610
O O10 0.889161 0.530037 0.383956
O O11 0.040972 0.510041 0.277378
O O12 0.609673 0.250000 0.498522
O O13 0.611548 0.508742 0.586572
O O14 0.559831 0.480250 0.379541
O O15 0.724643 0.452125 0.422952
O O16 0.542963 0.750000 0.668074
O O17 0.133503 0.750000 0.296863
O O18 0.210825 0.514897 0.213795
O O19 0.165611 0.518125 0.421069
O O20 0.729903 0.250000 0.904279
O O21 0.147495 0.750000 0.557897
#
# Coordination Sequence:
#
# PCOD8073559 Si02
#       8
#     4   4   4   4   4   4   4   4
#     4  11  24  40  58  85 120 156 194 242 292 347
#     4  11  22  39  63  87 115 150 193 242 292 349
#     4  11  22  37  55  80 117 155 193 239 289 340
#     4   9  18  34  58  83 109 146 188 232 283 345
#     4   9  19  36  57  82 112 143 184 235 286 338
#     4   9  18  35  57  81 113 150 191 238 288 343
#     4  10  21  40  64  87 113 151 194 242 296 348
#     4  10  20  34  54  82 114 150 194 234 283 346
#
# _framework density 19.422971
#
# number of rings (size 3 to 8) (size 9 to 14) (size 15 to 20)
#    0.000    2.000    1.250    2.250    0.000    4.500 
#    0.000    3.750    0.000    0.000    0.000    0.000 
#    0.000    0.000    0.000    0.000    0.000    0.000 
#
# Total GULP energy -396866.032956 kJ/mol
# GULP energy per Si atom -12402.063530 kJ/mol
# Density = 1.937876 g / cm^3
# Si number density = 19.422971 Si / 1000 Ang^3
#
#
#
# Elastic Constant Matrix: (Units=GPa)
#
#
# Indices 1 2 3 4 5 6 
#
# 1 125.7632 42.9878 62.2311 0.0000 -7.3178 0.0000
# 2 42.9878 50.0734 37.4015 0.0000 4.3066 0.0000
# 3 62.2311 37.4015 111.7149 0.0000 1.1132 0.0000
# 4 0.0000 0.0000 0.0000 33.3608 0.0000 -4.9674
# 5 -7.3178 4.3066 1.1132 0.0000 31.5264 0.0000
# 6 0.0000 0.0000 0.0000 -4.9674 0.0000 30.6647
#
#
#
# Elastic Compliance Matrix: (Units=1/GPa)
#
#
# Indices 1 2 3 4 5 6 
#
# 1 0.013397 -0.008366 -0.004706 0.000000 0.004419 0.000000
# 2 -0.008366 0.032208 -0.006061 0.000000 -0.006128 0.000000
# 3 -0.004706 -0.006061 0.013609 0.000000 -0.000745 0.000000
# 4 0.000000 0.000000 0.000000 0.030716 0.000000 0.004976
# 5 0.004419 -0.006128 -0.000745 0.000000 0.033608 0.000000
# 6 0.000000 0.000000 0.000000 0.004976 0.000000 0.033417
#
#
# Mechanical properties :
#
#
# Convention : Reuss Voigt Hill
#
# Bulk Modulus (GPa) = 47.73959 63.64359 55.69159
# Shear Modulus (GPa) = 24.72743 28.77245 26.74994
#
# Velocity S-wave (km/s) = 3.57193 3.85302 3.71513
# Velocity P-wave (km/s) = 6.45320 7.25484 6.86573
#
# Compressibility (1/GPa) = 0.02094698
#
# Stress axis : x y z
#
# Youngs Moduli (GPa) = 74.64452 31.04861 73.47818
#
# Poissons Ratio (x) = 0.25976 0.34577
# Poissons Ratio (y) = 0.62449 0.44538
# Poissons Ratio (z) = 0.35126 0.18820
#
# Static dielectric constant tensor:
#      x y z
#    x 3.635850 0.000000 0.134860 
#    y 0.000000 3.365100 0.000000 
#    z 0.134860 0.000000 3.793590 
# 
# 
# High freq. dielectric constant tensor:
#      x y z
#    x 1.763250 0.000000 0.005520 
#    y 0.000000 1.740230 0.000000 
#    z 0.005520 0.000000 1.764360 
# 
# From -- ./inp_files/38226.got.cif
#   From: 2010.06.25/outbox.cif.g09.slc.cpg/sg11_20_cif.got.tgz:38226.got - 2010.06.27 23:14:04.
