data_PCOD8073807
_publ_section_title
;
Structure prediction by ZEFSAII (Michael W. Deem and Ramdas Pophale) SiO2 
 PCOD8073807
Probable space group: P 21/M
;
_chemical_formula_sum "Si O2"
_cell_formula_units_Z 24
_cell_length_a 14.938906
_cell_length_b 8.551510
_cell_length_c 14.610703
_cell_angle_alpha 90.000000
_cell_angle_beta 139.593616
_cell_angle_gamma 90.000000
_cell_volume 1209.887316
_symmetry_space_group_name_H-M "P 21/M"
_symmetry_group_IT_number 11
_symmetry_cell_setting 'monoclinic'
loop_
_space_group_symop_operation_xyz
x,y,z
-x,1/2+y,-z
-x,-y,-z
x,1/2-y,z
loop_
_atom_site_type_symbol
_atom_site_label
_atom_site_fract_x
_atom_site_fract_y
_atom_site_fract_z
Si Si1 0.705576 0.069575 0.104124
Si Si2 0.270403 0.567870 0.179677
Si Si3 0.818868 0.568318 0.702919
Si Si4 0.580432 0.566946 0.380027
Si Si5 0.431363 0.568380 0.818023
Si Si6 0.105134 0.069865 0.886638
O O1 0.743089 0.250000 0.119961
O O2 0.681635 0.027581 0.192143
O O3 0.832417 0.967080 0.164966
O O4 0.568062 0.033759 0.939209
O O5 0.263670 0.750000 0.199637
O O6 0.202098 0.469011 0.207246
O O7 0.427501 0.511340 0.288726
O O8 0.183643 0.537469 0.020981
O O9 0.853741 0.750000 0.718689
O O10 0.681588 0.520329 0.541066
O O11 0.943837 0.468594 0.759191
O O12 0.584071 0.750000 0.361573
O O13 0.631096 0.475420 0.329032
O O14 0.472205 0.750000 0.855285
O O15 0.128046 0.250000 0.929502
#
# Coordination Sequence:
#
# PCOD8073807 Si02
#       6
#     4   4   4   4   4   4
#     4  10  20  36  58  87 119 151 191 240 288 341
#     4  11  22  39  62  88 116 153 196 245 291 343
#     4  11  24  41  59  84 119 159 196 241 292 346
#     4  10  22  39  61  87 119 156 195 238 292 345
#     4  10  20  34  59  90 118 150 191 238 288 342
#     4  12  24  39  60  88 117 155 198 242 292 346
#
# _framework density 19.836559000000001
#
# number of rings (size 3 to 8) (size 9 to 14) (size 15 to 20)
#    0.000    1.333    1.667    4.500    0.000    4.000 
#    0.000    0.833    0.000    0.000    0.000    0.000 
#    0.000    0.000    0.000    0.000    0.000    0.000 
#
# Total GULP energy -297763.667003 kJ/mol
# GULP energy per Si atom -12406.819458 kJ/mol
# Density = 1.979141 g / cm^3
# Si number density = 19.836559 Si / 1000 Ang^3
#
#
#
# Elastic Constant Matrix: (Units=GPa)
#
#
# Indices 1 2 3 4 5 6 
#
# 1 131.2130 34.0053 29.7886 0.0000 4.8077 0.0000
# 2 34.0053 54.7834 19.3654 0.0000 0.1715 0.0000
# 3 29.7886 19.3654 52.7811 0.0000 15.6383 0.0000
# 4 0.0000 0.0000 0.0000 25.9519 0.0000 -1.4630
# 5 4.8077 0.1715 15.6383 0.0000 27.3548 0.0000
# 6 0.0000 0.0000 0.0000 -1.4630 0.0000 36.6635
#
#
#
# Elastic Compliance Matrix: (Units=1/GPa)
#
#
# Indices 1 2 3 4 5 6 
#
# 1 0.009694 -0.004624 -0.003947 0.000000 0.000582 0.000000
# 2 -0.004624 0.023797 -0.007606 0.000000 0.005012 0.000000
# 3 -0.003947 -0.007606 0.028587 0.000000 -0.015601 0.000000
# 4 0.000000 0.000000 0.000000 0.038620 0.000000 0.001541
# 5 0.000582 0.005012 -0.015601 0.000000 0.045342 0.000000
# 6 0.000000 0.000000 0.000000 0.001541 0.000000 0.027337
#
#
# Mechanical properties :
#
#
# Convention : Reuss Voigt Hill
#
# Bulk Modulus (GPa) = 33.64348 45.01068 39.32708
# Shear Modulus (GPa) = 23.18682 28.36859 25.77770
#
# Velocity S-wave (km/s) = 3.42262 3.78579 3.60878
# Velocity P-wave (km/s) = 5.71106 6.46913 6.10188
#
# Compressibility (1/GPa) = 0.02972344
#
# Stress axis : x y z
#
# Youngs Moduli (GPa) = 103.15292 42.02197 34.98082
#
# Poissons Ratio (x) = 0.19431 0.13807
# Poissons Ratio (y) = 0.47699 0.26608
# Poissons Ratio (z) = 0.40715 0.31964
#
# Static dielectric constant tensor:
#      x y z
#    x 3.794060 0.000000 -0.014410 
#    y 0.000000 3.542620 0.000000 
#    z -0.014410 0.000000 3.409460 
# 
# 
# High freq. dielectric constant tensor:
#      x y z
#    x 1.787540 0.000000 -0.005220 
#    y 0.000000 1.779850 0.000000 
#    z -0.005220 0.000000 1.750720 
# 
# From -- ./inp_files/20352.got.cif
#   From: 2010.06.25/outbox.cif.g09.slc.cpg/sg11_11_cif.got.tgz:20352.got - 2010.06.27 23:14:04.
