data_PCOD8073185
_publ_section_title
;
Structure prediction by ZEFSAII (Michael W. Deem and Ramdas Pophale) SiO2 
 PCOD8073185
Probable space group: P 21/M
;
_chemical_formula_sum "Si O2"
_cell_formula_units_Z 32
_cell_length_a 25.758579
_cell_length_b 8.849801
_cell_length_c 15.918681
_cell_angle_alpha 90.000000
_cell_angle_beta 150.949162
_cell_angle_gamma 90.000000
_cell_volume 1762.090338
_symmetry_space_group_name_H-M "P 21/M"
_symmetry_group_IT_number 11
_symmetry_cell_setting 'monoclinic'
loop_
_space_group_symop_operation_xyz
x,y,z
-x,1/2+y,-z
-x,-y,-z
x,1/2-y,z
loop_
_atom_site_type_symbol
_atom_site_label
_atom_site_fract_x
_atom_site_fract_y
_atom_site_fract_z
Si Si1 0.960040 0.574009 0.858977
Si Si2 0.455056 0.071918 0.352760
Si Si3 0.690969 0.929102 0.088626
Si Si4 0.788899 0.425521 0.388648
Si Si5 0.023206 0.072805 0.781395
Si Si6 0.775090 0.927128 0.032326
Si Si7 0.516494 0.572327 0.269025
Si Si8 0.728105 0.575189 0.468161
O O1 0.982573 0.750000 0.895653
O O2 0.834888 0.536886 0.671038
O O3 0.027218 0.508002 0.876648
O O4 0.000000 0.500000 0.000000
O O5 0.473820 0.250000 0.380168
O O6 0.500000 0.000000 0.500000
O O7 0.516935 0.004360 0.360690
O O8 0.329602 0.030919 0.169766
O O9 0.674265 0.750000 0.062020
O O10 0.760365 0.986546 0.106773
O O11 0.751693 0.976328 0.257798
O O12 0.574990 0.006266 0.920872
O O13 0.767940 0.250000 0.341167
O O14 0.722088 0.474642 0.375829
O O15 0.913544 0.462182 0.577892
O O16 0.037297 0.250000 0.817769
O O17 0.119618 0.002652 0.862035
O O18 0.791930 0.750000 0.059717
O O19 0.499608 0.750000 0.255822
O O20 0.629211 0.532308 0.386643
O O21 0.726023 0.750000 0.437814
#
# Coordination Sequence:
#
# PCOD8073185 Si02
#       8
#     4   4   4   4   4   4   4   4
#     4  10  20  35  53  76 104 134 169 207 253 304
#     4  10  20  35  54  77 106 139 172 209 255 304
#     4  10  20  35  54  76 105 139 170 205 253 308
#     4  10  20  33  53  79 104 132 169 214 256 297
#     4   9  18  35  55  75 101 133 171 212 252 297
#     4   8  17  34  54  74 100 136 172 206 251 303
#     4  10  20  36  56  77 101 132 173 217 257 299
#     4   9  20  37  55  74 101 137 172 209 256 308
#
# _framework density 18.160247999999999
#
# number of rings (size 3 to 8) (size 9 to 14) (size 15 to 20)
#    0.000    2.500    0.000    2.625    0.000    4.000 
#    0.000    8.750    0.000    0.000    0.000    0.000 
#    0.000    0.000    0.000    0.000    0.000    0.000 
#
# Total GULP energy -396846.617084 kJ/mol
# GULP energy per Si atom -12401.456784 kJ/mol
# Density = 1.811891 g / cm^3
# Si number density = 18.160248 Si / 1000 Ang^3
#
#
#
# Elastic Constant Matrix: (Units=GPa)
#
#
# Indices 1 2 3 4 5 6 
#
# 1 143.8069 59.8252 88.9020 0.0000 8.2992 0.0000
# 2 59.8252 74.9065 50.0875 0.0000 -4.2785 0.0000
# 3 88.9020 50.0875 104.8859 0.0000 -9.8935 0.0000
# 4 0.0000 0.0000 0.0000 31.2452 0.0000 -5.9806
# 5 8.2992 -4.2785 -9.8935 0.0000 37.4052 0.0000
# 6 0.0000 0.0000 0.0000 -5.9806 0.0000 31.8862
#
#
#
# Elastic Compliance Matrix: (Units=1/GPa)
#
#
# Indices 1 2 3 4 5 6 
#
# 1 0.018169 -0.006118 -0.013255 0.000000 -0.008237 0.000000
# 2 -0.006118 0.021675 -0.004926 0.000000 0.002534 0.000000
# 3 -0.013255 -0.004926 0.023944 0.000000 0.008711 0.000000
# 4 0.000000 0.000000 0.000000 0.033197 0.000000 0.006226
# 5 -0.008237 0.002534 0.008711 0.000000 0.031155 0.000000
# 6 0.000000 0.000000 0.000000 0.006226 0.000000 0.032529
#
#
# Mechanical properties :
#
#
# Convention : Reuss Voigt Hill
#
# Bulk Modulus (GPa) = 65.83964 80.13652 72.98808
# Shear Modulus (GPa) = 23.32851 28.42629 25.87740
#
# Velocity S-wave (km/s) = 3.58801 3.96068 3.77894
# Velocity P-wave (km/s) = 7.31427 8.07089 7.70188
#
# Compressibility (1/GPa) = 0.01518842
#
# Stress axis : x y z
#
# Youngs Moduli (GPa) = 55.03958 46.13676 41.76474
#
# Poissons Ratio (x) = 0.28225 0.55361
# Poissons Ratio (y) = 0.33672 0.20574
# Poissons Ratio (z) = 0.72957 0.22728
#
# Static dielectric constant tensor:
#      x y z
#    x 3.533900 0.000000 0.102080 
#    y 0.000000 3.336130 0.000000 
#    z 0.102080 0.000000 3.343190 
# 
# 
# High freq. dielectric constant tensor:
#      x y z
#    x 1.710230 0.000000 -0.000730 
#    y 0.000000 1.703400 0.000000 
#    z -0.000730 0.000000 1.703510 
# 
# From -- ./inp_files/55640.got.cif
#   From: 2010.06.25/outbox.cif.g09.slc.cpg/sg11_28_cif.got.tgz:55640.got - 2010.06.27 23:14:04.
