data_PCOD8073371
_publ_section_title
;
Structure prediction by ZEFSAII (Michael W. Deem and Ramdas Pophale) SiO2 
 PCOD8073371
Probable space group: P 21/M
;
_chemical_formula_sum "Si O2"
_cell_formula_units_Z 28
_cell_length_a 9.586791
_cell_length_b 9.085311
_cell_length_c 17.891886
_cell_angle_alpha 90.000000
_cell_angle_beta 89.767498
_cell_angle_gamma 90.000000
_cell_volume 1558.352150
_symmetry_space_group_name_H-M "P 21/M"
_symmetry_group_IT_number 11
_symmetry_cell_setting 'monoclinic'
loop_
_space_group_symop_operation_xyz
x,y,z
-x,1/2+y,-z
-x,-y,-z
x,1/2-y,z
loop_
_atom_site_type_symbol
_atom_site_label
_atom_site_fract_x
_atom_site_fract_y
_atom_site_fract_z
Si Si1 0.645346 0.076689 0.131779
Si Si2 0.333468 0.079167 0.715637
Si Si3 0.845266 0.578170 0.423267
Si Si4 0.651470 0.080238 0.705953
Si Si5 0.642273 0.074712 0.871878
Si Si6 0.147735 0.578105 0.000822
Si Si7 0.833405 0.422881 0.572232
O O1 0.618338 0.250000 0.136746
O O2 0.766648 0.037396 0.073321
O O3 0.697385 0.016180 0.211106
O O4 0.503421 0.999590 0.104400
O O5 0.306885 0.250000 0.735373
O O6 0.232880 0.022159 0.650505
O O7 0.490346 0.054353 0.686674
O O8 0.820301 0.750000 0.435456
O O9 0.782585 0.496637 0.495505
O O10 0.006569 0.538201 0.412014
O O11 0.691955 0.250000 0.706813
O O12 0.684584 0.017781 0.788752
O O13 0.745268 0.006417 0.641013
O O14 0.617599 0.250000 0.873170
O O15 0.763430 0.024600 0.927704
O O16 0.119141 0.750000 0.006577
O O17 0.000000 0.500000 0.000000
O O18 0.807699 0.250000 0.564002
#
# Coordination Sequence:
#
# PCOD8073371 Si02
#       7
#     4   4   4   4   4   4   4
#     4  10  20  34  52  77 105 131 165 209 254 297
#     4   9  18  33  51  70  94 127 165 201 240 292
#     4   9  18  31  47  68  93 124 163 199 235 289
#     4   8  15  29  49  70  91 119 159 200 235 283
#     4   9  18  35  56  75  98 133 172 205 245 301
#     4  10  22  36  52  77 106 135 169 208 248 294
#     4   9  17  30  47  67  93 124 156 196 246 291
#
# _framework density 17.967699
#
# number of rings (size 3 to 8) (size 9 to 14) (size 15 to 20)
#    0.000    2.857    0.000    1.714    0.000    4.000 
#    0.000    5.714    0.000    0.000    0.000    0.000 
#    0.000    0.000    0.000    0.000    0.000    0.000 
#
# Total GULP energy -347168.626472 kJ/mol
# GULP energy per Si atom -12398.879517 kJ/mol
# Density = 1.792680 g / cm^3
# Si number density = 17.967699 Si / 1000 Ang^3
#
#
#
# Elastic Constant Matrix: (Units=GPa)
#
#
# Indices 1 2 3 4 5 6 
#
# 1 114.8523 43.5816 92.9104 0.0000 5.4429 0.0000
# 2 43.5816 43.1600 47.6649 0.0000 -1.3977 0.0000
# 3 92.9104 47.6649 149.9422 0.0000 6.3244 0.0000
# 4 0.0000 0.0000 0.0000 27.3633 0.0000 -0.2276
# 5 5.4429 -1.3977 6.3244 0.0000 36.9454 0.0000
# 6 0.0000 0.0000 0.0000 -0.2276 0.0000 25.8781
#
#
#
# Elastic Compliance Matrix: (Units=1/GPa)
#
#
# Indices 1 2 3 4 5 6 
#
# 1 0.020021 -0.010258 -0.009069 0.000000 -0.001785 0.000000
# 2 -0.010258 0.041368 -0.006974 0.000000 0.004270 0.000000
# 3 -0.009069 -0.006974 0.014566 0.000000 -0.001421 0.000000
# 4 0.000000 0.000000 0.000000 0.036548 0.000000 0.000321
# 5 -0.001785 0.004270 -0.001421 0.000000 0.027735 0.000000
# 6 0.000000 0.000000 0.000000 0.000321 0.000000 0.038646
#
#
# Mechanical properties :
#
#
# Convention : Reuss Voigt Hill
#
# Bulk Modulus (GPa) = 42.82375 75.14092 58.98234
# Shear Modulus (GPa) = 20.89682 26.29054 23.59368
#
# Velocity S-wave (km/s) = 3.41401 3.82934 3.62763
# Velocity P-wave (km/s) = 6.27902 7.83981 7.10242
#
# Compressibility (1/GPa) = 0.02335153
#
# Stress axis : x y z
#
# Youngs Moduli (GPa) = 49.94838 24.17304 68.65263
#
# Poissons Ratio (x) = 0.24797 0.62264
# Poissons Ratio (y) = 0.51237 0.47881
# Poissons Ratio (z) = 0.45301 0.16859
#
# Static dielectric constant tensor:
#      x y z
#    x 3.302690 0.000000 -0.009640 
#    y 0.000000 3.113290 0.000000 
#    z -0.009640 0.000000 3.641780 
# 
# 
# High freq. dielectric constant tensor:
#      x y z
#    x 1.691130 0.000000 0.000580 
#    y 0.000000 1.673100 0.000000 
#    z 0.000580 0.000000 1.709620 
# 
# From -- ./inp_files/57517.got.cif
#   From: 2010.06.25/outbox.cif.g09.slc.cpg/sg11_29_cif.got.tgz:57517.got - 2010.06.27 23:14:04.
