data_PCOD8073518
_publ_section_title
;
Structure prediction by ZEFSAII (Michael W. Deem and Ramdas Pophale) SiO2 
 PCOD8073518
Probable space group: P 21/M
;
_chemical_formula_sum "Si O2"
_cell_formula_units_Z 24
_cell_length_a 9.522788
_cell_length_b 17.428862
_cell_length_c 12.276864
_cell_angle_alpha 90.000000
_cell_angle_beta 38.712442
_cell_angle_gamma 90.000000
_cell_volume 1274.344597
_symmetry_space_group_name_H-M "P 21/M"
_symmetry_group_IT_number 11
_symmetry_cell_setting 'monoclinic'
loop_
_space_group_symop_operation_xyz
x,y,z
-x,1/2+y,-z
-x,-y,-z
x,1/2-y,z
loop_
_atom_site_type_symbol
_atom_site_label
_atom_site_fract_x
_atom_site_fract_y
_atom_site_fract_z
Si Si1 0.680872 0.158635 0.321781
Si Si2 0.187827 0.158962 0.016024
Si Si3 0.558475 0.340482 0.629364
Si Si4 0.613170 0.658993 0.701824
Si Si5 0.874663 0.340448 0.629264
Si Si6 0.505868 0.090509 0.998330
O O1 0.676376 0.250000 0.327164
O O2 0.584147 0.123642 0.493459
O O3 0.529984 0.128622 0.314085
O O4 0.935340 0.129305 0.153091
O O5 0.199826 0.250000 0.024034
O O6 0.294827 0.123249 0.059435
O O7 0.326668 0.132051 0.825389
O O8 0.557653 0.250000 0.617660
O O9 0.767388 0.365370 0.578676
O O10 0.597266 0.750000 0.726589
O O11 0.509910 0.618888 0.868991
O O12 0.868344 0.632739 0.526550
O O13 0.850660 0.250000 0.662635
O O14 0.743264 0.381350 0.806670
O O15 0.500000 0.000000 0.000000
#
# Coordination Sequence:
#
# PCOD8073518 Si02
#       6
#     4   4   4   4   4   4
#     4   9  17  29  50  79 103 126 163 215 269 312
#     4   9  17  32  54  75  98 133 176 216 255 308
#     4   8  14  26  46  72  96 121 159 205 251 298
#     4  10  20  34  54  80 107 133 168 219 271 314
#     4   9  18  34  57  79 100 132 175 220 261 306
#     4  11  22  35  53  77 108 144 180 217 258 310
#
# _framework density 18.833209
#
# number of rings (size 3 to 8) (size 9 to 14) (size 15 to 20)
#    0.000    2.667    0.000    3.500    0.000    4.667 
#    0.000    5.833    0.000    5.000    0.000    0.000 
#    0.000    0.000    0.000    0.000    0.000    0.000 
#
# Total GULP energy -297571.093730 kJ/mol
# GULP energy per Si atom -12398.795572 kJ/mol
# Density = 1.879034 g / cm^3
# Si number density = 18.833209 Si / 1000 Ang^3
#
#
#
# Elastic Constant Matrix: (Units=GPa)
#
#
# Indices 1 2 3 4 5 6 
#
# 1 156.4601 23.9032 106.2840 0.0000 16.7113 0.0000
# 2 23.9032 35.5638 23.3875 0.0000 7.7745 0.0000
# 3 106.2840 23.3875 144.9319 0.0000 15.7445 0.0000
# 4 0.0000 0.0000 0.0000 6.1918 0.0000 -0.3237
# 5 16.7113 7.7745 15.7445 0.0000 23.4935 0.0000
# 6 0.0000 0.0000 0.0000 -0.3237 0.0000 6.3104
#
#
#
# Elastic Compliance Matrix: (Units=1/GPa)
#
#
# Indices 1 2 3 4 5 6 
#
# 1 0.013106 -0.002366 -0.008954 0.000000 -0.002539 0.000000
# 2 -0.002366 0.033179 -0.002814 0.000000 -0.007411 0.000000
# 3 -0.008954 -0.002814 0.014158 0.000000 -0.002188 0.000000
# 4 0.000000 0.000000 0.000000 0.161937 0.000000 0.008306
# 5 -0.002539 -0.007411 -0.002188 0.000000 0.048290 0.000000
# 6 0.000000 0.000000 0.000000 0.008306 0.000000 0.158895
#
#
# Mechanical properties :
#
#
# Convention : Reuss Voigt Hill
#
# Bulk Modulus (GPa) = 31.07903 71.56725 51.32314
# Shear Modulus (GPa) = 10.67102 19.42455 15.04778
#
# Velocity S-wave (km/s) = 2.38293 3.21502 2.82973
# Velocity P-wave (km/s) = 4.91011 7.20173 6.16336
#
# Compressibility (1/GPa) = 0.03217604
#
# Stress axis : x y z
#
# Youngs Moduli (GPa) = 76.29845 30.13933 70.63277
#
# Poissons Ratio (x) = 0.07130 0.63243
# Poissons Ratio (y) = 0.18050 0.19877
# Poissons Ratio (z) = 0.68316 0.08482
#
# Static dielectric constant tensor:
#      x y z
#    x 3.723070 0.000000 0.011130 
#    y 0.000000 2.922750 0.000000 
#    z 0.011130 0.000000 3.767300 
# 
# 
# High freq. dielectric constant tensor:
#      x y z
#    x 1.732780 0.000000 0.002420 
#    y 0.000000 1.681600 0.000000 
#    z 0.002420 0.000000 1.748430 
# 
# From -- ./inp_files/19059.got.cif
#   From: 2010.06.25/outbox.cif.g09.slc.cpg/sg11_10_cif.got.tgz:19059.got - 2010.06.27 23:14:04.
