data_PCOD8073609
_publ_section_title
;
Structure prediction by ZEFSAII (Michael W. Deem and Ramdas Pophale) SiO2 
 PCOD8073609
Probable space group: P 21/M
;
_chemical_formula_sum "Si O2"
_cell_formula_units_Z 28
_cell_length_a 14.659195
_cell_length_b 9.025616
_cell_length_c 21.744462
_cell_angle_alpha 90.000000
_cell_angle_beta 148.639408
_cell_angle_gamma 90.000000
_cell_volume 1497.240800
_symmetry_space_group_name_H-M "P 21/M"
_symmetry_group_IT_number 11
_symmetry_cell_setting 'monoclinic'
loop_
_space_group_symop_operation_xyz
x,y,z
-x,1/2+y,-z
-x,-y,-z
x,1/2-y,z
loop_
_atom_site_type_symbol
_atom_site_label
_atom_site_fract_x
_atom_site_fract_y
_atom_site_fract_z
Si Si1 0.162844 0.923450 0.362759
Si Si2 0.495063 0.423122 0.901509
Si Si3 0.947508 0.579135 0.032156
Si Si4 0.238401 0.077601 0.862003
Si Si5 0.464674 0.419912 0.197281
Si Si6 0.782310 0.573628 0.729908
Si Si7 0.459284 0.923890 0.625241
O O1 0.179950 0.750000 0.356445
O O2 0.273656 0.963164 0.487495
O O3 0.963169 0.970003 0.260639
O O4 0.245195 0.018399 0.355206
O O5 0.523655 0.250000 0.911483
O O6 0.333459 0.463463 0.853001
O O7 0.448685 0.489257 0.808336
O O8 0.674674 0.490962 0.031442
O O9 0.004985 0.750000 0.061768
O O10 0.040618 0.499663 0.142813
O O11 0.742852 0.563262 0.925177
O O12 0.000000 0.500000 0.000000
O O13 0.257729 0.250000 0.888582
O O14 0.522931 0.250000 0.223688
O O15 0.534274 0.489030 0.301867
O O16 0.798932 0.750000 0.740907
O O17 0.619121 0.514061 0.676209
O O18 0.489736 0.750000 0.648397
#
# Coordination Sequence:
#
# PCOD8073609 Si02
#       7
#     4   4   4   4   4   4   4
#     4  10  20  36  57  77 100 139 184 220 260 311
#     4  10  20  34  55  82 107 133 168 216 267 314
#     4  11  21  34  53  77 107 139 174 214 258 308
#     4   9  19  36  56  79 106 134 170 216 265 315
#     4  10  20  36  54  75 106 143 175 208 258 317
#     4  11  21  35  53  78 110 140 176 221 264 310
#     4   9  19  36  54  73 104 144 181 214 256 313
#
# _framework density 18.701066999999998
#
# number of rings (size 3 to 8) (size 9 to 14) (size 15 to 20)
#    0.000    2.000    1.429    2.571    0.000    5.714 
#    0.000    2.143    0.000    0.000    0.000    0.000 
#    0.000    0.000    0.000    0.000    0.000    0.000 
#
# Total GULP energy -347277.944899 kJ/mol
# GULP energy per Si atom -12402.783746 kJ/mol
# Density = 1.865850 g / cm^3
# Si number density = 18.701067 Si / 1000 Ang^3
#
#
#
# Elastic Constant Matrix: (Units=GPa)
#
#
# Indices 1 2 3 4 5 6 
#
# 1 118.5220 42.9429 63.8795 0.0000 -22.6827 0.0000
# 2 42.9429 62.8908 37.7218 0.0000 -9.4786 0.0000
# 3 63.8795 37.7218 130.6682 0.0000 -16.5352 0.0000
# 4 0.0000 0.0000 0.0000 23.5314 0.0000 -6.7256
# 5 -22.6827 -9.4786 -16.5352 0.0000 28.3778 0.0000
# 6 0.0000 0.0000 0.0000 -6.7256 0.0000 32.2824
#
#
#
# Elastic Compliance Matrix: (Units=1/GPa)
#
#
# Indices 1 2 3 4 5 6 
#
# 1 0.014323 -0.006128 -0.004365 0.000000 0.006858 0.000000
# 2 -0.006128 0.022169 -0.003333 0.000000 0.000565 0.000000
# 3 -0.004365 -0.003333 0.010976 0.000000 0.001793 0.000000
# 4 0.000000 0.000000 0.000000 0.045187 0.000000 0.009414
# 5 0.006858 0.000565 0.001793 0.000000 0.041954 0.000000
# 6 0.000000 0.000000 0.000000 0.009414 0.000000 0.032938
#
#
# Mechanical properties :
#
#
# Convention : Reuss Voigt Hill
#
# Bulk Modulus (GPa) = 50.46357 66.79660 58.63009
# Shear Modulus (GPa) = 24.77665 28.00744 26.39204
#
# Velocity S-wave (km/s) = 3.64384 3.87413 3.76075
# Velocity P-wave (km/s) = 6.68927 7.47044 7.09062
#
# Compressibility (1/GPa) = 0.01981628
#
# Stress axis : x y z
#
# Youngs Moduli (GPa) = 69.81969 45.10829 91.10905
#
# Poissons Ratio (x) = 0.27642 0.39769
# Poissons Ratio (y) = 0.42786 0.30363
# Poissons Ratio (z) = 0.30476 0.15033
#
# Static dielectric constant tensor:
#      x y z
#    x 3.628370 0.000000 -0.128200 
#    y 0.000000 3.331530 0.000000 
#    z -0.128200 0.000000 3.599740 
# 
# 
# High freq. dielectric constant tensor:
#      x y z
#    x 1.728720 0.000000 -0.010040 
#    y 0.000000 1.713580 0.000000 
#    z -0.010040 0.000000 1.724220 
# 
# From -- ./inp_files/37395.got.cif
#   From: 2010.06.25/outbox.cif.g09.slc.cpg/sg11_19_cif.got.tgz:37395.got - 2010.06.27 23:14:04.
