data_PCOD8073950
_publ_section_title
;
Structure prediction by ZEFSAII (Michael W. Deem and Ramdas Pophale) SiO2 
 PCOD8073950
Probable space group: P 21/M
;
_chemical_formula_sum "Si O2"
_cell_formula_units_Z 24
_cell_length_a 15.444484
_cell_length_b 9.029339
_cell_length_c 18.170165
_cell_angle_alpha 90.000000
_cell_angle_beta 149.977738
_cell_angle_gamma 90.000000
_cell_volume 1267.798920
_symmetry_space_group_name_H-M "P 21/M"
_symmetry_group_IT_number 11
_symmetry_cell_setting 'monoclinic'
loop_
_space_group_symop_operation_xyz
x,y,z
-x,1/2+y,-z
-x,-y,-z
x,1/2-y,z
loop_
_atom_site_type_symbol
_atom_site_label
_atom_site_fract_x
_atom_site_fract_y
_atom_site_fract_z
Si Si1 0.158342 0.077809 0.655945
Si Si2 0.682835 0.425445 0.832354
Si Si3 0.332316 0.077607 0.640616
Si Si4 0.001907 0.922978 0.837809
Si Si5 0.027090 0.921904 0.688139
Si Si6 0.671799 0.425452 0.655925
O O1 0.119703 0.250000 0.637094
O O2 0.322413 0.051966 0.722129
O O3 0.176744 0.004727 0.750462
O O4 0.000000 0.000000 0.500000
O O5 0.677611 0.250000 0.836954
O O6 0.507473 0.496372 0.737833
O O7 0.700820 0.475160 0.761424
O O8 0.848734 0.485217 0.998816
O O9 0.339489 0.250000 0.626896
O O10 0.162827 0.013763 0.473863
O O11 0.961008 0.750000 0.821267
O O12 0.065292 0.950591 0.801443
O O13 0.830390 0.017027 0.724504
O O14 0.037395 0.750000 0.675160
O O15 0.500000 0.500000 0.500000
O O16 0.654845 0.250000 0.636089
#
# Coordination Sequence:
#
# PCOD8073950 Si02
#       6
#     4   4   4   4   4   4
#     4   9  16  27  47  73 100 131 170 216 260 300
#     4   9  18  33  53  76 103 136 172 210 257 314
#     4   8  14  27  47  70  96 129 168 207 248 297
#     4  10  20  35  55  77 103 137 173 210 258 314
#     4   9  17  30  49  72 100 135 173 212 255 305
#     4  11  22  36  56  80 105 134 171 215 259 306
#
# _framework density 18.930447000000001
#
# number of rings (size 3 to 8) (size 9 to 14) (size 15 to 20)
#    0.000    2.667    0.000    3.500    0.000    3.333 
#    0.000    1.667    0.000    8.000    0.000    0.000 
#    0.000    0.000    0.000    0.000    0.000    0.000 
#
# Total GULP energy -297482.871670 kJ/mol
# GULP energy per Si atom -12395.119653 kJ/mol
# Density = 1.888736 g / cm^3
# Si number density = 18.930447 Si / 1000 Ang^3
#
#
#
# Elastic Constant Matrix: (Units=GPa)
#
#
# Indices 1 2 3 4 5 6 
#
# 1 99.4893 41.2844 25.2414 0.0000 -18.7780 0.0000
# 2 41.2844 56.6947 21.4571 0.0000 -8.7634 0.0000
# 3 25.2414 21.4571 83.3921 0.0000 -20.3121 0.0000
# 4 0.0000 0.0000 0.0000 18.4639 0.0000 -1.1193
# 5 -18.7780 -8.7634 -20.3121 0.0000 26.1103 0.0000
# 6 0.0000 0.0000 0.0000 -1.1193 0.0000 30.7121
#
#
#
# Elastic Compliance Matrix: (Units=1/GPa)
#
#
# Indices 1 2 3 4 5 6 
#
# 1 0.015823 -0.010222 -0.000275 0.000000 0.007735 0.000000
# 2 -0.010222 0.026374 -0.004104 0.000000 -0.001693 0.000000
# 3 -0.000275 -0.004104 0.015727 0.000000 0.010659 0.000000
# 4 0.000000 0.000000 0.000000 0.054280 0.000000 0.001978
# 5 0.007735 -0.001693 0.010659 0.000000 0.051586 0.000000
# 6 0.000000 0.000000 0.000000 0.001978 0.000000 0.032633
#
#
# Mechanical properties :
#
#
# Convention : Reuss Voigt Hill
#
# Bulk Modulus (GPa) = 34.81849 46.17132 40.49491
# Shear Modulus (GPa) = 21.25863 25.16349 23.21106
#
# Velocity S-wave (km/s) = 3.35473 3.64986 3.50540
# Velocity P-wave (km/s) = 5.78260 6.49653 6.14993
#
# Compressibility (1/GPa) = 0.02872037
#
# Stress axis : x y z
#
# Youngs Moduli (GPa) = 63.19963 37.91647 63.58412
#
# Poissons Ratio (x) = 0.38759 0.01749
# Poissons Ratio (y) = 0.64605 0.26097
# Poissons Ratio (z) = 0.01739 0.15562
#
# Static dielectric constant tensor:
#      x y z
#    x 3.703860 0.000000 0.287910 
#    y 0.000000 3.266320 0.000000 
#    z 0.287910 0.000000 3.077320 
# 
# 
# High freq. dielectric constant tensor:
#      x y z
#    x 1.756870 0.000000 -0.004700 
#    y 0.000000 1.701600 0.000000 
#    z -0.004700 0.000000 1.713990 
# 
# From -- ./inp_files/20469.got.cif
#   From: 2010.06.25/outbox.cif.g09.slc.cpg/sg11_11_cif.got.tgz:20469.got - 2010.06.27 23:14:04.
