data_PCOD8073478
_publ_section_title
;
Structure prediction by ZEFSAII (Michael W. Deem and Ramdas Pophale) SiO2 
 PCOD8073478
Probable space group: P 21/M
;
_chemical_formula_sum "Si O2"
_cell_formula_units_Z 20
_cell_length_a 6.992945
_cell_length_b 18.035040
_cell_length_c 8.584281
_cell_angle_alpha 90.000000
_cell_angle_beta 72.871734
_cell_angle_gamma 90.000000
_cell_volume 1034.615617
_symmetry_space_group_name_H-M "P 21/M"
_symmetry_group_IT_number 11
_symmetry_cell_setting 'monoclinic'
loop_
_space_group_symop_operation_xyz
x,y,z
-x,1/2+y,-z
-x,-y,-z
x,1/2-y,z
loop_
_atom_site_type_symbol
_atom_site_label
_atom_site_fract_x
_atom_site_fract_y
_atom_site_fract_z
Si Si1 0.398109 0.165076 0.915458
Si Si2 0.818370 0.835004 0.347941
Si Si3 0.225478 0.588414 0.329958
Si Si4 0.547470 0.418526 0.432987
Si Si5 0.593654 0.549937 0.845676
O O1 0.429342 0.250000 0.954421
O O2 0.232854 0.155541 0.821467
O O3 0.611053 0.133071 0.809220
O O4 0.316450 0.121857 0.088310
O O5 0.866021 0.750000 0.378159
O O6 0.633977 0.861711 0.496103
O O7 0.006537 0.885952 0.339018
O O8 0.262253 0.605392 0.506473
O O9 0.241797 0.499905 0.286096
O O10 0.500000 0.500000 0.500000
O O11 0.576698 0.422369 0.238404
O O12 0.500000 0.500000 0.000000
#
# Coordination Sequence:
#
# PCOD8073478 Si02
#       5
#     4   4   4   4   4
#     4   9  18  33  51  73 104 137 170 212 260 308
#     4  10  20  34  54  78 102 134 174 213 256 306
#     4   9  18  34  55  75 101 136 175 214 255 304
#     4   9  19  35  54  76 101 132 172 213 254 302
#     4   9  18  33  53  76 102 135 170 207 255 307
#
# _framework density 19.330852
#
# number of rings (size 3 to 8) (size 9 to 14) (size 15 to 20)
#    0.000    2.800    0.000    1.800    0.000    5.600 
#    0.000    4.000    0.000    0.000    0.000    0.000 
#    0.000    0.000    0.000    0.000    0.000    0.000 
#
# Total GULP energy -247781.780721 kJ/mol
# GULP energy per Si atom -12389.089036 kJ/mol
# Density = 1.928685 g / cm^3
# Si number density = 19.330852 Si / 1000 Ang^3
#
#
#
# Elastic Constant Matrix: (Units=GPa)
#
#
# Indices 1 2 3 4 5 6 
#
# 1 68.1871 21.7710 27.8635 0.0000 19.1811 0.0000
# 2 21.7710 102.0314 42.1009 0.0000 20.6319 0.0000
# 3 27.8635 42.1009 110.4266 0.0000 37.1524 0.0000
# 4 0.0000 0.0000 0.0000 30.4524 0.0000 1.3058
# 5 19.1811 20.6319 37.1524 0.0000 22.9037 0.0000
# 6 0.0000 0.0000 0.0000 1.3058 0.0000 28.6845
#
#
#
# Elastic Compliance Matrix: (Units=1/GPa)
#
#
# Indices 1 2 3 4 5 6 
#
# 1 0.019379 -0.001195 0.001461 0.000000 -0.017524 0.000000
# 2 -0.001195 0.012275 -0.002190 0.000000 -0.006504 0.000000
# 3 0.001461 -0.002190 0.020407 0.000000 -0.032354 0.000000
# 4 0.000000 0.000000 0.000000 0.032902 0.000000 -0.001498
# 5 -0.017524 -0.006504 -0.032354 0.000000 0.116678 0.000000
# 6 0.000000 0.000000 0.000000 -0.001498 0.000000 0.034930
#
#
# Mechanical properties :
#
#
# Convention : Reuss Voigt Hill
#
# Bulk Modulus (GPa) = 20.74044 51.56846 36.15445
# Shear Modulus (GPa) = 19.49390 29.00209 24.24799
#
# Velocity S-wave (km/s) = 3.17903 3.87757 3.54555
# Velocity P-wave (km/s) = 4.92214 6.83974 5.95859
#
# Compressibility (1/GPa) = 0.04821498
#
# Stress axis : x y z
#
# Youngs Moduli (GPa) = 51.60152 81.46824 49.00172
#
# Poissons Ratio (x) = 0.09732 -0.07161
# Poissons Ratio (y) = 0.06164 0.10732
# Poissons Ratio (z) = -0.07541 0.17842
#
# Static dielectric constant tensor:
#      x y z
#    x 2.905380 0.000000 0.096070 
#    y 0.000000 4.068450 0.000000 
#    z 0.096070 0.000000 3.441010 
# 
# 
# High freq. dielectric constant tensor:
#      x y z
#    x 1.724460 0.000000 0.038650 
#    y 0.000000 1.763810 0.000000 
#    z 0.038650 0.000000 1.744230 
# 
# From -- ./inp_files/1877.got.cif
#   From: 2010.06.25/outbox.cif.g09.slc.cpg/sg11_1_cif.got.tgz:1877.got - 2010.06.27 23:14:04.
