data_PCOD8073274
_publ_section_title
;
Structure prediction by ZEFSAII (Michael W. Deem and Ramdas Pophale) SiO2 
 PCOD8073274
Probable space group: P 21/M
;
_chemical_formula_sum "Si O2"
_cell_formula_units_Z 32
_cell_length_a 21.179337
_cell_length_b 9.250352
_cell_length_c 11.542576
_cell_angle_alpha 90.000000
_cell_angle_beta 121.486402
_cell_angle_gamma 90.000000
_cell_volume 1928.422964
_symmetry_space_group_name_H-M "P 21/M"
_symmetry_group_IT_number 11
_symmetry_cell_setting 'monoclinic'
loop_
_space_group_symop_operation_xyz
x,y,z
-x,1/2+y,-z
-x,-y,-z
x,1/2-y,z
loop_
_atom_site_type_symbol
_atom_site_label
_atom_site_fract_x
_atom_site_fract_y
_atom_site_fract_z
Si Si1 0.592072 0.584512 0.974904
Si Si2 0.725919 0.414482 0.378892
Si Si3 0.732149 0.080636 0.118129
Si Si4 0.127023 0.581188 0.896050
Si Si5 0.849129 0.918950 0.619602
Si Si6 0.921324 0.921535 0.930911
Si Si7 0.433239 0.914330 0.820977
Si Si8 0.012589 0.418003 0.394571
O O1 0.617523 0.750000 0.998780
O O2 0.512680 0.563747 0.831204
O O3 0.660286 0.492772 0.988568
O O4 0.574792 0.534326 0.088337
O O5 0.752761 0.250000 0.414935
O O6 0.739050 0.468685 0.258932
O O7 0.772030 0.505982 0.515018
O O8 0.638867 0.431268 0.330513
O O9 0.719663 0.250000 0.098715
O O10 0.804771 0.032005 0.118660
O O11 0.132120 0.750000 0.934753
O O12 0.052156 0.546689 0.756800
O O13 0.127325 0.483000 0.010412
O O14 0.836877 0.750000 0.596215
O O15 0.874331 0.960234 0.772335
O O16 0.911296 0.972542 0.589001
O O17 0.934393 0.750000 0.955338
O O18 0.000000 0.000000 0.000000
O O19 0.431454 0.750000 0.872058
O O20 0.014823 0.250000 0.425909
O O21 0.000000 0.500000 0.500000
#
# Coordination Sequence:
#
# PCOD8073274 Si02
#       8
#     4   4   4   4   4   4   4   4
#     4   9  15  24  42  66  94 128 164 196 229 278
#     4   9  17  30  48  70  97 130 163 190 230 289
#     4   9  18  31  47  69 102 133 157 194 240 286
#     4  10  20  36  53  70  96 128 161 200 244 284
#     4  10  21  35  49  68  96 123 153 200 246 278
#     4  11  22  38  56  72  92 121 161 207 248 288
#     4   8  15  27  41  62  95 131 162 194 233 278
#     4  10  20  34  49  68  96 126 156 190 232 284
#
# _framework density 16.593869999999999
#
# number of rings (size 3 to 8) (size 9 to 14) (size 15 to 20)
#    0.000    2.500    1.250    2.250    0.000    6.000 
#    0.000    0.000    0.000    0.000    0.000    0.875 
#    0.000    0.000    0.000    0.000    0.000    0.000 
#
# Total GULP energy -396605.795879 kJ/mol
# GULP energy per Si atom -12393.931121 kJ/mol
# Density = 1.655610 g / cm^3
# Si number density = 16.593870 Si / 1000 Ang^3
#
#
#
# Elastic Constant Matrix: (Units=GPa)
#
#
# Indices 1 2 3 4 5 6 
#
# 1 54.2230 31.7360 48.2998 0.0000 24.6203 0.0000
# 2 31.7360 52.8110 46.1861 0.0000 6.6109 0.0000
# 3 48.2998 46.1861 96.4407 0.0000 13.1285 0.0000
# 4 0.0000 0.0000 0.0000 28.6369 0.0000 2.6471
# 5 24.6203 6.6109 13.1285 0.0000 31.1370 0.0000
# 6 0.0000 0.0000 0.0000 2.6471 0.0000 28.6193
#
#
#
# Elastic Compliance Matrix: (Units=1/GPa)
#
#
# Indices 1 2 3 4 5 6 
#
# 1 0.060111 -0.016465 -0.017213 0.000000 -0.036777 0.000000
# 2 -0.016465 0.037095 -0.010842 0.000000 0.009714 0.000000
# 3 -0.017213 -0.010842 0.023356 0.000000 0.006065 0.000000
# 4 0.000000 0.000000 0.000000 0.035221 0.000000 -0.003258
# 5 -0.036777 0.009714 0.006065 0.000000 0.056576 0.000000
# 6 0.000000 0.000000 0.000000 -0.003258 0.000000 0.035243
#
#
# Mechanical properties :
#
#
# Convention : Reuss Voigt Hill
#
# Bulk Modulus (GPa) = 31.72306 50.65762 41.19034
# Shear Modulus (GPa) = 14.40299 22.82882 18.61591
#
# Velocity S-wave (km/s) = 2.94933 3.71312 3.35304
# Velocity P-wave (km/s) = 5.54589 6.99837 6.31404
#
# Compressibility (1/GPa) = 0.03152281
#
# Stress axis : x y z
#
# Youngs Moduli (GPa) = 16.63596 26.95753 42.81488
#
# Poissons Ratio (x) = 0.44386 0.73698
# Poissons Ratio (y) = 0.27391 0.46418
# Poissons Ratio (z) = 0.28636 0.29226
#
# Static dielectric constant tensor:
#      x y z
#    x 3.339470 0.000000 0.306130 
#    y 0.000000 3.125700 0.000000 
#    z 0.306130 0.000000 2.998990 
# 
# 
# High freq. dielectric constant tensor:
#      x y z
#    x 1.635260 0.000000 0.030340 
#    y 0.000000 1.642750 0.000000 
#    z 0.030340 0.000000 1.611920 
# 
# From -- ./inp_files/40643.got.cif
#   From: 2010.06.25/outbox.cif.g09.slc.cpg/sg11_21_cif.got.tgz:40643.got - 2010.06.27 23:14:04.
