data_PCOD8073490
_publ_section_title
;
Structure prediction by ZEFSAII (Michael W. Deem and Ramdas Pophale) SiO2 
 PCOD8073490
Probable space group: P 21/M
;
_chemical_formula_sum "Si O2"
_cell_formula_units_Z 32
_cell_length_a 19.085631
_cell_length_b 8.804094
_cell_length_c 24.543641
_cell_angle_alpha 90.000000
_cell_angle_beta 156.536058
_cell_angle_gamma 90.000000
_cell_volume 1642.104318
_symmetry_space_group_name_H-M "P 21/M"
_symmetry_group_IT_number 11
_symmetry_cell_setting 'monoclinic'
loop_
_space_group_symop_operation_xyz
x,y,z
-x,1/2+y,-z
-x,-y,-z
x,1/2-y,z
loop_
_atom_site_type_symbol
_atom_site_label
_atom_site_fract_x
_atom_site_fract_y
_atom_site_fract_z
Si Si1 0.169663 0.418718 0.881837
Si Si2 0.979179 0.425481 0.124578
Si Si3 0.995221 0.428405 0.649309
Si Si4 0.635648 0.429728 0.444004
Si Si5 0.545772 0.080756 0.192993
Si Si6 0.330311 0.928355 0.405611
Si Si7 0.614307 0.430124 0.816017
Si Si8 0.862564 0.570020 0.362116
O O1 0.083692 0.250000 0.831865
O O2 0.092632 0.545759 0.866313
O O3 0.128591 0.473956 0.792084
O O4 0.376201 0.405832 0.034639
O O5 0.023679 0.250000 0.147819
O O6 0.160973 0.517853 0.249336
O O7 0.821849 0.477377 0.970739
O O8 0.980902 0.250000 0.631999
O O9 0.079720 0.498721 0.655226
O O10 0.799364 0.488355 0.524019
O O11 0.607479 0.250000 0.420340
O O12 0.675694 0.478244 0.535032
O O13 0.459204 0.510090 0.294476
O O14 0.622241 0.250000 0.259578
O O15 0.504647 0.002994 0.221355
O O16 0.672514 0.982902 0.245734
O O17 0.343241 0.750000 0.409284
O O18 0.500000 0.000000 0.500000
O O19 0.597150 0.250000 0.807797
O O20 0.867797 0.750000 0.366110
O O21 0.000000 0.500000 0.500000
#
# Coordination Sequence:
#
# PCOD8073490 Si02
#       8
#     4   4   4   4   4   4   4   4
#     4   9  17  34  57  79 105 145 190 233 285 341
#     4  10  20  36  58  87 120 152 189 235 284 338
#     4   9  18  34  55  78 105 141 187 236 285 336
#     4  10  20  37  61  87 115 148 192 238 287 344
#     4  10  20  34  54  78 110 149 191 235 286 347
#     4  11  23  40  64  91 120 153 188 231 283 344
#     4  10  21  36  58  87 118 152 195 243 286 333
#     4  11  22  35  52  73 105 146 188 238 293 345
#
# _framework density 19.487190999999999
#
# number of rings (size 3 to 8) (size 9 to 14) (size 15 to 20)
#    0.000    2.000    1.250    2.625    0.000    4.500 
#    0.000    2.500    0.000    0.000    0.000    0.000 
#    0.000    0.000    0.000    0.000    0.000    0.000 
#
# Total GULP energy -396641.252867 kJ/mol
# GULP energy per Si atom -12395.039152 kJ/mol
# Density = 1.944284 g / cm^3
# Si number density = 19.487191 Si / 1000 Ang^3
#
#
#
# Elastic Constant Matrix: (Units=GPa)
#
#
# Indices 1 2 3 4 5 6 
#
# 1 49.9784 25.1693 33.8433 0.0000 9.4566 0.0000
# 2 25.1693 68.9637 37.5784 0.0000 2.1849 0.0000
# 3 33.8433 37.5784 111.1261 0.0000 -1.5777 0.0000
# 4 0.0000 0.0000 0.0000 32.7203 0.0000 2.7218
# 5 9.4566 2.1849 -1.5777 0.0000 35.4517 0.0000
# 6 0.0000 0.0000 0.0000 2.7218 0.0000 26.8135
#
#
#
# Elastic Compliance Matrix: (Units=1/GPa)
#
#
# Indices 1 2 3 4 5 6 
#
# 1 0.029510 -0.006825 -0.006789 0.000000 -0.007753 0.000000
# 2 -0.006825 0.019420 -0.004483 0.000000 0.000424 0.000000
# 3 -0.006789 -0.004483 0.012620 0.000000 0.002649 0.000000
# 4 0.000000 0.000000 0.000000 0.030822 0.000000 -0.003129
# 5 -0.007753 0.000424 0.002649 0.000000 0.030367 0.000000
# 6 0.000000 0.000000 0.000000 -0.003129 0.000000 0.037612
#
#
# Mechanical properties :
#
#
# Convention : Reuss Voigt Hill
#
# Bulk Modulus (GPa) = 39.43763 47.02781 43.23272
# Shear Modulus (GPa) = 24.39037 27.89558 26.14297
#
# Velocity S-wave (km/s) = 3.54165 3.78760 3.66669
# Velocity P-wave (km/s) = 6.08326 6.58126 6.33715
#
# Compressibility (1/GPa) = 0.02535650
#
# Stress axis : x y z
#
# Youngs Moduli (GPa) = 33.88646 51.49222 79.23951
#
# Poissons Ratio (x) = 0.35143 0.53799
# Poissons Ratio (y) = 0.23127 0.35520
# Poissons Ratio (z) = 0.23007 0.23082
#
# Static dielectric constant tensor:
#      x y z
#    x 3.420020 0.000000 -0.182790 
#    y 0.000000 3.287620 0.000000 
#    z -0.182790 0.000000 3.724120 
# 
# 
# High freq. dielectric constant tensor:
#      x y z
#    x 1.739610 0.000000 -0.004630 
#    y 0.000000 1.749320 0.000000 
#    z -0.004630 0.000000 1.777020 
# 
# From -- ./inp_files/67126.got.cif
#   From: 2010.06.25/outbox.cif.g09.slc.cpg/sg11_34_cif.got.tgz:67126.got - 2010.06.27 23:14:04.
