data_PCOD8073589
_publ_section_title
;
Structure prediction by ZEFSAII (Michael W. Deem and Ramdas Pophale) SiO2 
 PCOD8073589
Probable space group: P 21/M
;
_chemical_formula_sum "Si O2"
_cell_formula_units_Z 28
_cell_length_a 18.847960
_cell_length_b 9.121072
_cell_length_c 14.856785
_cell_angle_alpha 90.000000
_cell_angle_beta 37.890184
_cell_angle_gamma 90.000000
_cell_volume 1568.590328
_symmetry_space_group_name_H-M "P 21/M"
_symmetry_group_IT_number 11
_symmetry_cell_setting 'monoclinic'
loop_
_space_group_symop_operation_xyz
x,y,z
-x,1/2+y,-z
-x,-y,-z
x,1/2-y,z
loop_
_atom_site_type_symbol
_atom_site_label
_atom_site_fract_x
_atom_site_fract_y
_atom_site_fract_z
Si Si1 0.040713 0.579587 0.548088
Si Si2 0.881169 0.919815 0.877318
Si Si3 0.583713 0.923997 0.600486
Si Si4 0.676198 0.424239 0.156949
Si Si5 0.777659 0.912999 0.530313
Si Si6 0.941774 0.588389 0.194846
Si Si7 0.734030 0.577044 0.283807
O O1 0.054124 0.750000 0.514739
O O2 0.166260 0.519135 0.451551
O O3 0.000000 0.500000 0.500000
O O4 0.946217 0.547507 0.719323
O O5 0.854231 0.750000 0.917966
O O6 0.957397 0.971771 0.886717
O O7 0.761327 0.009355 0.996098
O O8 0.591983 0.750000 0.590556
O O9 0.452563 0.979769 0.737834
O O10 0.654249 0.977419 0.618956
O O11 0.642153 0.981131 0.449796
O O12 0.683803 0.250000 0.148714
O O13 0.712952 0.484222 0.216495
O O14 0.764231 0.750000 0.586141
O O15 0.856918 0.903509 0.363889
O O16 0.997236 0.750000 0.124892
O O17 0.865064 0.542519 0.185458
O O18 0.718621 0.750000 0.280252
#
# Coordination Sequence:
#
# PCOD8073589 Si02
#       7
#     4   4   4   4   4   4   4
#     4  10  20  34  55  81 102 120 148 189 238 292
#     4  10  21  35  49  69  98 128 158 194 240 290
#     4   8  16  31  50  71  96 130 169 204 239 279
#     4  11  21  31  46  69  98 133 170 203 237 281
#     4   8  14  29  52  74  97 124 155 194 239 283
#     4   8  15  29  49  69  91 124 162 200 243 288
#     4   9  17  31  49  69  95 127 167 211 248 280
#
# _framework density 17.850422999999999
#
# number of rings (size 3 to 8) (size 9 to 14) (size 15 to 20)
#    0.000    2.857    0.000    3.429    0.000    2.857 
#    0.000    4.286    0.000    0.857    0.000    0.000 
#    0.000    0.000    0.000    0.000    0.000    0.000 
#
# Total GULP energy -347086.319855 kJ/mol
# GULP energy per Si atom -12395.939995 kJ/mol
# Density = 1.780979 g / cm^3
# Si number density = 17.850423 Si / 1000 Ang^3
#
#
#
# Elastic Constant Matrix: (Units=GPa)
#
#
# Indices 1 2 3 4 5 6 
#
# 1 124.5961 52.5951 43.7919 0.0000 -1.8454 0.0000
# 2 52.5951 82.0046 36.9806 0.0000 0.9464 0.0000
# 3 43.7919 36.9806 65.5816 0.0000 -14.4118 0.0000
# 4 0.0000 0.0000 0.0000 22.7791 0.0000 1.3904
# 5 -1.8454 0.9464 -14.4118 0.0000 17.2946 0.0000
# 6 0.0000 0.0000 0.0000 1.3904 0.0000 27.4503
#
#
#
# Elastic Compliance Matrix: (Units=1/GPa)
#
#
# Indices 1 2 3 4 5 6 
#
# 1 0.012257 -0.005075 -0.006090 0.000000 -0.003489 0.000000
# 2 -0.005075 0.020176 -0.010222 0.000000 -0.010164 0.000000
# 3 -0.006090 -0.010222 0.030676 0.000000 0.025472 0.000000
# 4 0.000000 0.000000 0.000000 0.044036 0.000000 -0.002230
# 5 -0.003489 -0.010164 0.025472 0.000000 0.079232 0.000000
# 6 0.000000 0.000000 0.000000 -0.002230 0.000000 0.036542
#
#
# Mechanical properties :
#
#
# Convention : Reuss Voigt Hill
#
# Bulk Modulus (GPa) = 49.17241 59.87973 54.52607
# Shear Modulus (GPa) = 18.35061 22.75911 20.55486
#
# Velocity S-wave (km/s) = 3.20975 3.57457 3.39707
# Velocity P-wave (km/s) = 6.42988 7.11722 6.78227
#
# Compressibility (1/GPa) = 0.02033661
#
# Stress axis : x y z
#
# Youngs Moduli (GPa) = 81.58807 49.56351 32.59860
#
# Poissons Ratio (x) = 0.25152 0.19851
# Poissons Ratio (y) = 0.41403 0.33322
# Poissons Ratio (z) = 0.49683 0.50664
#
# Static dielectric constant tensor:
#      x y z
#    x 3.541410 0.000000 -0.373640 
#    y 0.000000 3.309220 0.000000 
#    z -0.373640 0.000000 3.315110 
# 
# 
# High freq. dielectric constant tensor:
#      x y z
#    x 1.687720 0.000000 -0.017760 
#    y 0.000000 1.681490 0.000000 
#    z -0.017760 0.000000 1.667280 
# 
# From -- ./inp_files/42579.got.cif
#   From: 2010.06.25/outbox.cif.g09.slc.cpg/sg11_22_cif.got.tgz:42579.got - 2010.06.27 23:14:04.
