data_PCOD8073945
_publ_section_title
;
Structure prediction by ZEFSAII (Michael W. Deem and Ramdas Pophale) SiO2 
 PCOD8073945
Probable space group: P 21/M
;
_chemical_formula_sum "Si O2"
_cell_formula_units_Z 32
_cell_length_a 15.935661
_cell_length_b 16.346639
_cell_length_c 12.968257
_cell_angle_alpha 90.000000
_cell_angle_beta 28.475339
_cell_angle_gamma 90.000000
_cell_volume 1610.640482
_symmetry_space_group_name_H-M "P 21/M"
_symmetry_group_IT_number 11
_symmetry_cell_setting 'monoclinic'
loop_
_space_group_symop_operation_xyz
x,y,z
-x,1/2+y,-z
-x,-y,-z
x,1/2-y,z
loop_
_atom_site_type_symbol
_atom_site_label
_atom_site_fract_x
_atom_site_fract_y
_atom_site_fract_z
Si Si1 0.967169 0.658357 0.557287
Si Si2 0.359318 0.510754 0.838310
Si Si3 0.890278 0.340632 0.232789
Si Si4 0.790662 0.841310 0.964853
Si Si5 0.326960 0.422399 0.236493
Si Si6 0.301969 0.566985 0.118022
Si Si7 0.745749 0.508172 0.467694
Si Si8 0.063951 0.932875 0.009879
O O1 0.036367 0.750000 0.474680
O O2 0.816510 0.647061 0.632838
O O3 0.900657 0.638027 0.743405
O O4 0.131817 0.601478 0.356865
O O5 0.565080 0.534015 0.604558
O O6 0.272764 0.559675 0.027396
O O7 0.250417 0.540935 0.857326
O O8 0.352306 0.412295 0.862891
O O9 0.806993 0.250000 0.342456
O O10 0.083643 0.343948 0.072198
O O11 0.778093 0.412615 0.407221
O O12 0.906515 0.351548 0.090443
O O13 0.704314 0.750000 0.048521
O O14 0.336461 0.476071 0.122788
O O15 0.274428 0.481014 0.388368
O O16 0.518854 0.381512 0.050787
O O17 0.904416 0.570101 0.264612
O O18 0.000000 0.000000 0.000000
#
# Coordination Sequence:
#
# PCOD8073945 Si02
#       8
#     4   4   4   4   4   4   4   4
#     4  11  22  35  56  82 117 156 186 229 284 333
#     4  11  20  36  58  85 111 143 185 236 270 326
#     4  10  21  39  59  82 113 142 178 230 287 339
#     4  10  20  35  54  84 116 143 179 229 285 330
#     4  10  20  36  57  86 114 150 192 232 270 334
#     4  10  21  34  58  84 114 151 194 229 271 330
#     4  10  21  35  61  85 108 146 188 226 278 327
#     4  10  20  36  56  80 109 142 182 227 273 330
#
# _framework density 19.867872999999999
#
# number of rings (size 3 to 8) (size 9 to 14) (size 15 to 20)
#    0.000    1.750    3.750    1.875    0.000    3.000 
#    0.000    2.500    0.000    1.500    0.000    0.000 
#    0.000    0.000    0.000    0.000    0.000    0.000 
#
# Total GULP energy -396562.784480 kJ/mol
# GULP energy per Si atom -12392.587015 kJ/mol
# Density = 1.982265 g / cm^3
# Si number density = 19.867873 Si / 1000 Ang^3
#
#
#
# Elastic Constant Matrix: (Units=GPa)
#
#
# Indices 1 2 3 4 5 6 
#
# 1 100.6939 21.2191 15.4612 0.0000 -7.5865 0.0000
# 2 21.2191 49.6291 7.8772 0.0000 0.6488 0.0000
# 3 15.4612 7.8772 52.7545 0.0000 -7.6260 0.0000
# 4 0.0000 0.0000 0.0000 14.2235 0.0000 6.2048
# 5 -7.5865 0.6488 -7.6260 0.0000 29.9553 0.0000
# 6 0.0000 0.0000 0.0000 6.2048 0.0000 23.5899
#
#
#
# Elastic Compliance Matrix: (Units=1/GPa)
#
#
# Indices 1 2 3 4 5 6 
#
# 1 0.011427 -0.004548 -0.002323 0.000000 0.002401 0.000000
# 2 -0.004548 0.022496 -0.002349 0.000000 -0.002237 0.000000
# 3 -0.002323 -0.002349 0.020670 0.000000 0.004725 0.000000
# 4 0.000000 0.000000 0.000000 0.079419 0.000000 -0.020889
# 5 0.002401 -0.002237 0.004725 0.000000 0.035243 0.000000
# 6 0.000000 0.000000 0.000000 -0.020889 0.000000 0.047886
#
#
# Mechanical properties :
#
#
# Convention : Reuss Voigt Hill
#
# Bulk Modulus (GPa) = 27.66069 32.46584 30.06326
# Shear Modulus (GPa) = 20.19119 24.12173 22.15646
#
# Velocity S-wave (km/s) = 3.19136 3.48818 3.34307
# Velocity P-wave (km/s) = 5.24712 5.70960 5.48324
#
# Compressibility (1/GPa) = 0.03615239
#
# Stress axis : x y z
#
# Youngs Moduli (GPa) = 87.51088 44.45167 48.37861
#
# Poissons Ratio (x) = 0.20219 0.11237
# Poissons Ratio (y) = 0.39804 0.11367
# Poissons Ratio (z) = 0.20327 0.10444
#
# Static dielectric constant tensor:
#      x y z
#    x 3.960460 0.000000 0.174530 
#    y 0.000000 3.819730 0.000000 
#    z 0.174530 0.000000 4.117260 
# 
# 
# High freq. dielectric constant tensor:
#      x y z
#    x 1.790370 0.000000 -0.001310 
#    y 0.000000 1.742360 0.000000 
#    z -0.001310 0.000000 1.767120 
# 
# From -- ./inp_files/39984.got.cif
#   From: 2010.06.25/outbox.cif.g09.slc.cpg/sg11_20_cif.got.tgz:39984.got - 2010.06.27 23:14:04.
