data_PCOD8074969
_publ_section_title
;
Structure prediction by ZEFSAII (Michael W. Deem and Ramdas Pophale) SiO2 
 PCOD8074969
Probable space group: P 21/M
;
_chemical_formula_sum "Si O2"
_cell_formula_units_Z 32
_cell_length_a 9.421856
_cell_length_b 13.942953
_cell_length_c 25.766226
_cell_angle_alpha 90.000000
_cell_angle_beta 27.575656
_cell_angle_gamma 90.000000
_cell_volume 1566.922352
_symmetry_space_group_name_H-M "P 21/M"
_symmetry_group_IT_number 11
_symmetry_cell_setting 'monoclinic'
loop_
_space_group_symop_operation_xyz
x,y,z
-x,1/2+y,-z
-x,-y,-z
x,1/2-y,z
loop_
_atom_site_type_symbol
_atom_site_label
_atom_site_fract_x
_atom_site_fract_y
_atom_site_fract_z
Si Si1 0.267223 0.143592 0.169090
Si Si2 0.126019 0.466983 0.831324
Si Si3 0.849011 0.640630 0.967556
Si Si4 0.421214 0.858060 0.582262
Si Si5 0.378071 0.363041 0.597164
Si Si6 0.795721 0.063544 0.841829
Si Si7 0.670667 0.011733 0.581324
Si Si8 0.926741 0.141257 0.994952
O O1 0.286014 0.250000 0.134877
O O2 0.557300 0.133623 0.113510
O O3 0.947508 0.136925 0.303373
O O4 0.290708 0.050036 0.124837
O O5 0.465050 0.469083 0.698586
O O6 0.012238 0.577172 0.871038
O O7 0.908215 0.406916 0.862682
O O8 0.107304 0.416799 0.892612
O O9 0.945896 0.750000 0.926870
O O10 0.961683 0.600457 0.986366
O O11 0.483703 0.629822 0.084034
O O12 0.529720 0.750000 0.558089
O O13 0.549827 0.892993 0.485158
O O14 0.555522 0.919282 0.586350
O O15 0.337121 0.250000 0.617389
O O16 0.648400 0.398517 0.548575
O O17 0.067361 0.419773 0.712409
O O18 0.000000 0.000000 0.500000
O O19 0.038183 0.250000 0.952931
#
# Coordination Sequence:
#
# PCOD8074969 Si02
#       8
#     4   4   4   4   4   4   4   4
#     4  10  20  36  63  92 121 155 200 249 294 354
#     4  11  23  40  59  89 119 161 198 243 306 363
#     4  11  24  40  60  90 124 159 203 249 297 358
#     4  10  21  41  66  90 118 163 211 249 298 361
#     4  10  22  41  64  90 123 164 208 251 297 360
#     4  11  22  38  62  93 122 157 204 246 302 354
#     4  11  25  41  61  94 125 157 200 255 316 362
#     4  10  23  41  61  88 122 161 201 245 301 359
#
# _framework density 20.422198999999999
#
# number of rings (size 3 to 8) (size 9 to 14) (size 15 to 20)
#    0.000    1.500    3.750    1.500    0.000    6.000 
#    0.000    2.500    0.000    0.000    0.000    0.000 
#    0.000    0.000    0.000    0.000    0.000    0.000 
#
# Total GULP energy -396627.008347 kJ/mol
# GULP energy per Si atom -12394.594011 kJ/mol
# Density = 2.037572 g / cm^3
# Si number density = 20.422199 Si / 1000 Ang^3
#
#
#
# Elastic Constant Matrix: (Units=GPa)
#
#
# Indices 1 2 3 4 5 6 
#
# 1 115.5668 26.3418 59.2416 0.0000 -17.2925 0.0000
# 2 26.3418 84.4521 20.0039 0.0000 1.3203 0.0000
# 3 59.2416 20.0039 86.5384 0.0000 -7.7619 0.0000
# 4 0.0000 0.0000 0.0000 26.8470 0.0000 0.9794
# 5 -17.2925 1.3203 -7.7619 0.0000 31.0946 0.0000
# 6 0.0000 0.0000 0.0000 0.9794 0.0000 32.4772
#
#
#
# Elastic Compliance Matrix: (Units=1/GPa)
#
#
# Indices 1 2 3 4 5 6 
#
# 1 0.014734 -0.002571 -0.008948 0.000000 0.006070 0.000000
# 2 -0.002571 0.013026 -0.001461 0.000000 -0.002348 0.000000
# 3 -0.008948 -0.001461 0.017981 0.000000 -0.000426 0.000000
# 4 0.000000 0.000000 0.000000 0.037289 0.000000 -0.001125
# 5 0.006070 -0.002348 -0.000426 0.000000 0.035529 0.000000
# 6 0.000000 0.000000 0.000000 -0.001125 0.000000 0.030825
#
#
# Mechanical properties :
#
#
# Convention : Reuss Voigt Hill
#
# Bulk Modulus (GPa) = 50.55677 55.30355 52.93016
# Shear Modulus (GPa) = 27.48201 30.14842 28.81521
#
# Velocity S-wave (km/s) = 3.67235 3.84638 3.76037
# Velocity P-wave (km/s) = 6.54149 6.84581 6.69538
#
# Compressibility (1/GPa) = 0.01977975
#
# Stress axis : x y z
#
# Youngs Moduli (GPa) = 67.87000 76.77011 55.61571
#
# Poissons Ratio (x) = 0.19739 0.49763
# Poissons Ratio (y) = 0.17451 0.08128
# Poissons Ratio (z) = 0.60728 0.11219
#
# Static dielectric constant tensor:
#      x y z
#    x 3.646530 0.000000 -0.029420 
#    y 0.000000 3.980810 0.000000 
#    z -0.029420 0.000000 3.629650 
# 
# 
# High freq. dielectric constant tensor:
#      x y z
#    x 1.791730 0.000000 0.001350 
#    y 0.000000 1.815160 0.000000 
#    z 0.001350 0.000000 1.792810 
# 
# From -- ./inp_files/68137.got.cif
#   From: 2010.06.25/outbox.cif.g09.slc.cpg/sg11_35_cif.got.tgz:68137.got - 2010.06.27 23:14:04.
