data_PCOD8074516
_publ_section_title
;
Structure prediction by ZEFSAII (Michael W. Deem and Ramdas Pophale) SiO2 
 PCOD8074516
Probable space group: P 21/M
;
_chemical_formula_sum "Si O2"
_cell_formula_units_Z 32
_cell_length_a 13.044723
_cell_length_b 18.824279
_cell_length_c 20.556674
_cell_angle_alpha 90.000000
_cell_angle_beta 160.121739
_cell_angle_gamma 90.000000
_cell_volume 1716.382409
_symmetry_space_group_name_H-M "P 21/M"
_symmetry_group_IT_number 11
_symmetry_cell_setting 'monoclinic'
loop_
_space_group_symop_operation_xyz
x,y,z
-x,1/2+y,-z
-x,-y,-z
x,1/2-y,z
loop_
_atom_site_type_symbol
_atom_site_label
_atom_site_fract_x
_atom_site_fract_y
_atom_site_fract_z
Si Si1 0.774130 0.551653 0.682483
Si Si2 0.597495 0.054618 0.004732
Si Si3 0.676798 0.480147 0.283285
Si Si4 0.103245 0.329135 0.059992
Si Si5 0.443253 0.831102 0.557501
Si Si6 0.855113 0.459348 0.970277
Si Si7 0.227470 0.331343 0.853302
Si Si8 0.587354 0.831687 0.888964
O O1 0.500000 0.500000 0.500000
O O2 0.631650 0.628001 0.614442
O O3 0.947091 0.522659 0.848521
O O4 0.036498 0.558636 0.784024
O O5 0.477656 0.130456 0.958225
O O6 0.428674 0.029112 0.839434
O O7 0.500000 0.000000 0.000000
O O8 0.661697 0.394542 0.263188
O O9 0.000000 0.500000 0.500000
O O10 0.472678 0.507035 0.220603
O O11 0.975602 0.250000 0.990382
O O12 0.413855 0.338973 0.285578
O O13 0.170006 0.346240 0.023865
O O14 0.848902 0.377093 0.943311
O O15 0.435212 0.750000 0.528676
O O16 0.104335 0.861501 0.361427
O O17 0.000000 0.500000 0.000000
O O18 0.259371 0.250000 0.852168
O O19 0.259269 0.341818 0.949721
O O20 0.457671 0.750000 0.804434
#
# Coordination Sequence:
#
# PCOD8074516 Si02
#       8
#     4   4   4   4   4   4   4   4
#     4  10  22  35  55  81 109 146 182 231 279 329
#     4  11  22  38  56  81 117 152 191 234 284 343
#     4  11  24  38  56  87 115 152 192 237 287 337
#     4   9  18  34  58  84 110 146 187 236 285 333
#     4   9  19  35  57  83 109 141 187 230 279 341
#     4  10  20  36  56  81 111 141 186 234 278 335
#     4  10  21  37  59  85 114 151 188 235 288 343
#     4  10  20  37  59  82 113 149 188 232 284 339
#
# _framework density 18.643864000000001
#
# number of rings (size 3 to 8) (size 9 to 14) (size 15 to 20)
#    0.000    2.000    2.500    0.750    3.500    1.500 
#    0.000    2.500    0.000    0.000    0.000    0.000 
#    0.000    0.000    0.000    0.000    0.000    0.000 
#
# Total GULP energy -396495.408202 kJ/mol
# GULP energy per Si atom -12390.481506 kJ/mol
# Density = 1.860143 g / cm^3
# Si number density = 18.643864 Si / 1000 Ang^3
#
#
#
# Elastic Constant Matrix: (Units=GPa)
#
#
# Indices 1 2 3 4 5 6 
#
# 1 100.9371 42.6802 43.1513 0.0000 20.7036 0.0000
# 2 42.6802 109.3124 53.7278 0.0000 10.1578 0.0000
# 3 43.1513 53.7278 118.9289 0.0000 23.9198 0.0000
# 4 0.0000 0.0000 0.0000 27.4175 0.0000 5.1967
# 5 20.7036 10.1578 23.9198 0.0000 25.1591 0.0000
# 6 0.0000 0.0000 0.0000 5.1967 0.0000 36.3420
#
#
#
# Elastic Compliance Matrix: (Units=1/GPa)
#
#
# Indices 1 2 3 4 5 6 
#
# 1 0.013959 -0.003870 -0.001633 0.000000 -0.008372 0.000000
# 2 -0.003870 0.012835 -0.004936 0.000000 0.002696 0.000000
# 3 -0.001633 -0.004936 0.013056 0.000000 -0.009077 0.000000
# 4 0.000000 0.000000 0.000000 0.037489 0.000000 -0.005361
# 5 -0.008372 0.002696 -0.009077 0.000000 0.054178 0.000000
# 6 0.000000 0.000000 0.000000 -0.005361 0.000000 0.028283
#
#
# Mechanical properties :
#
#
# Convention : Reuss Voigt Hill
#
# Bulk Modulus (GPa) = 52.70805 67.58855 60.14830
# Shear Modulus (GPa) = 26.73782 30.42499 28.58140
#
# Velocity S-wave (km/s) = 3.79111 4.04407 3.91963
# Velocity P-wave (km/s) = 6.89171 7.62477 7.26749
#
# Compressibility (1/GPa) = 0.01897243
#
# Stress axis : x y z
#
# Youngs Moduli (GPa) = 71.64050 77.91350 76.59061
#
# Poissons Ratio (x) = 0.30149 0.12504
# Poissons Ratio (y) = 0.27722 0.37808
# Poissons Ratio (z) = 0.11696 0.38461
#
# Static dielectric constant tensor:
#      x y z
#    x 3.892290 0.000000 -0.009290 
#    y 0.000000 3.091320 0.000000 
#    z -0.009290 0.000000 3.339620 
# 
# 
# High freq. dielectric constant tensor:
#      x y z
#    x 1.730620 0.000000 -0.003290 
#    y 0.000000 1.738480 0.000000 
#    z -0.003290 0.000000 1.701250 
# 
# From -- ./inp_files/19446.got.cif
#   From: 2010.06.25/outbox.cif.g09.slc.cpg/sg11_10_cif.got.tgz:19446.got - 2010.06.27 23:14:04.
