data_PCOD8074397
_publ_section_title
;
Structure prediction by ZEFSAII (Michael W. Deem and Ramdas Pophale) SiO2 
 PCOD8074397
Probable space group: P 21/M
;
_chemical_formula_sum "Si O2"
_cell_formula_units_Z 28
_cell_length_a 8.809030
_cell_length_b 14.868020
_cell_length_c 21.118165
_cell_angle_alpha 90.000000
_cell_angle_beta 31.874520
_cell_angle_gamma 90.000000
_cell_volume 1460.566319
_symmetry_space_group_name_H-M "P 21/M"
_symmetry_group_IT_number 11
_symmetry_cell_setting 'monoclinic'
loop_
_space_group_symop_operation_xyz
x,y,z
-x,1/2+y,-z
-x,-y,-z
x,1/2-y,z
loop_
_atom_site_type_symbol
_atom_site_label
_atom_site_fract_x
_atom_site_fract_y
_atom_site_fract_z
Si Si1 0.726767 0.008569 0.861336
Si Si2 0.278182 0.479109 0.741590
Si Si3 0.149324 0.908928 0.426159
Si Si4 0.629284 0.147365 0.785719
Si Si5 0.035481 0.091876 0.951054
Si Si6 0.606379 0.849027 0.672583
Si Si7 0.415531 0.349861 0.177945
O O1 0.656700 0.093532 0.841691
O O2 0.065961 0.018168 0.757142
O O3 0.715944 0.916853 0.826109
O O4 0.500000 0.000000 0.000000
O O5 0.547235 0.408728 0.642561
O O6 0.068546 0.439741 0.868066
O O7 0.396347 0.579713 0.713335
O O8 0.200199 0.900623 0.332503
O O9 0.918604 0.834537 0.528787
O O10 0.000000 0.000000 0.500000
O O11 0.737381 0.250000 0.756794
O O12 0.295927 0.150278 0.885573
O O13 0.759189 0.154327 0.052881
O O14 0.000000 0.000000 0.000000
O O15 0.458050 0.750000 0.725005
O O16 0.667226 0.882994 0.722334
O O17 0.294302 0.250000 0.207240
#
# Coordination Sequence:
#
# PCOD8074397 Si02
#       7
#     4   4   4   4   4   4   4
#     4  12  23  39  56  83 130 161 190 241 302 371
#     4  10  20  35  60  84 113 159 194 237 301 359
#     4   9  19  39  64  86 111 149 201 251 297 345
#     4  11  23  38  61  88 119 160 206 251 300 357
#     4  11  17  37  59  82 114 152 200 251 299 351
#     4  10  20  37  61  88 113 146 199 254 297 349
#     4  11  22  36  59  86 116 155 201 248 300 361
#
# _framework density 19.170646999999999
#
# number of rings (size 3 to 8) (size 9 to 14) (size 15 to 20)
#    0.000    1.429    4.286    2.571    0.000    1.143 
#    0.000    7.857    0.000    3.429    0.000    0.000 
#    0.000    0.000    0.000    0.000    0.000    0.000 
#
# Total GULP energy -346893.150533 kJ/mol
# GULP energy per Si atom -12389.041090 kJ/mol
# Density = 1.912701 g / cm^3
# Si number density = 19.170647 Si / 1000 Ang^3
#
#
#
# Elastic Constant Matrix: (Units=GPa)
#
#
# Indices 1 2 3 4 5 6 
#
# 1 120.2089 38.2606 45.1381 0.0000 -2.2893 0.0000
# 2 38.2606 97.7327 15.9754 0.0000 7.5100 0.0000
# 3 45.1381 15.9754 105.0424 0.0000 10.0470 0.0000
# 4 0.0000 0.0000 0.0000 18.4604 0.0000 -3.1650
# 5 -2.2893 7.5100 10.0470 0.0000 22.5933 0.0000
# 6 0.0000 0.0000 0.0000 -3.1650 0.0000 19.3232
#
#
#
# Elastic Compliance Matrix: (Units=1/GPa)
#
#
# Indices 1 2 3 4 5 6 
#
# 1 0.011493 -0.004077 -0.004762 0.000000 0.004638 0.000000
# 2 -0.004077 0.012125 0.000348 0.000000 -0.004598 0.000000
# 3 -0.004762 0.000348 0.012085 0.000000 -0.005972 0.000000
# 4 0.000000 0.000000 0.000000 0.055735 0.000000 0.009129
# 5 0.004638 -0.004598 -0.005972 0.000000 0.048915 0.000000
# 6 0.000000 0.000000 0.000000 0.009129 0.000000 0.053246
#
#
# Mechanical properties :
#
#
# Convention : Reuss Voigt Hill
#
# Bulk Modulus (GPa) = 53.42118 57.97023 55.69571
# Shear Modulus (GPa) = 23.06041 26.98271 25.02156
#
# Velocity S-wave (km/s) = 3.47205 3.75574 3.61668
# Velocity P-wave (km/s) = 6.63326 7.00800 6.82321
#
# Compressibility (1/GPa) = 0.01871917
#
# Stress axis : x y z
#
# Youngs Moduli (GPa) = 87.00880 82.47674 82.74960
#
# Poissons Ratio (x) = 0.33628 0.39407
# Poissons Ratio (y) = 0.35476 -0.02879
# Poissons Ratio (z) = 0.41435 -0.02869
#
# Static dielectric constant tensor:
#      x y z
#    x 3.305230 0.000000 0.264470 
#    y 0.000000 3.586590 0.000000 
#    z 0.264470 0.000000 3.214330 
# 
# 
# High freq. dielectric constant tensor:
#      x y z
#    x 1.724210 0.000000 0.002820 
#    y 0.000000 1.750740 0.000000 
#    z 0.002820 0.000000 1.756190 
# 
# From -- ./inp_files/22123.got.cif
#   From: 2010.06.25/outbox.cif.g09.slc.cpg/sg11_12_cif.got.tgz:22123.got - 2010.06.27 23:14:04.
