data_PCOD8074501
_publ_section_title
;
Structure prediction by ZEFSAII (Michael W. Deem and Ramdas Pophale) SiO2 
 PCOD8074501
Probable space group: P 21/M
;
_chemical_formula_sum "Si O2"
_cell_formula_units_Z 28
_cell_length_a 9.591296
_cell_length_b 8.751359
_cell_length_c 26.575450
_cell_angle_alpha 90.000000
_cell_angle_beta 39.725620
_cell_angle_gamma 90.000000
_cell_volume 1425.641249
_symmetry_space_group_name_H-M "P 21/M"
_symmetry_group_IT_number 11
_symmetry_cell_setting 'monoclinic'
loop_
_space_group_symop_operation_xyz
x,y,z
-x,1/2+y,-z
-x,-y,-z
x,1/2-y,z
loop_
_atom_site_type_symbol
_atom_site_label
_atom_site_fract_x
_atom_site_fract_y
_atom_site_fract_z
Si Si1 0.538488 0.068520 0.934427
Si Si2 0.783383 0.930745 0.582719
Si Si3 0.347797 0.429812 0.681021
Si Si4 0.688082 0.575237 0.722057
Si Si5 0.883061 0.431948 0.984980
Si Si6 0.093535 0.929551 0.242557
Si Si7 0.781563 0.071999 0.179493
O O1 0.516096 0.250000 0.944171
O O2 0.766844 0.017154 0.845258
O O3 0.500000 0.000000 0.000000
O O4 0.359785 0.997046 0.946965
O O5 0.789661 0.750000 0.577852
O O6 0.759394 0.986528 0.647168
O O7 0.577815 0.987491 0.606201
O O8 0.000000 0.000000 0.500000
O O9 0.387212 0.250000 0.668099
O O10 0.263789 0.477750 0.758437
O O11 0.159200 0.480882 0.693807
O O12 0.757060 0.750000 0.707917
O O13 0.813672 0.487889 0.730687
O O14 0.426198 0.555735 0.800351
O O15 0.883028 0.250000 0.986075
O O16 0.004532 0.494328 0.902172
O O17 0.000000 0.500000 0.000000
O O18 0.110027 0.750000 0.240606
O O19 0.823581 0.250000 0.180114
#
# Coordination Sequence:
#
# PCOD8074501 Si02
#       7
#     4   4   4   4   4   4   4
#     4  11  23  39  57  81 113 152 196 244 293 346
#     4  10  21  39  62  90 117 146 184 226 273 333
#     4  10  20  36  58  85 114 146 182 225 273 331
#     4   9  20  36  57  84 113 143 182 229 280 335
#     4  12  24  37  53  77 108 146 192 244 297 347
#     4  10  22  37  55  81 113 147 189 231 276 335
#     4  10  20  36  56  80 107 142 190 239 285 341
#
# _framework density 19.640286
#
# number of rings (size 3 to 8) (size 9 to 14) (size 15 to 20)
#    0.000    1.714    0.000    5.571    0.000    9.143 
#    0.000    0.714    0.000    0.000    0.000    0.000 
#    0.000    0.000    0.000    0.000    0.000    0.000 
#
# Total GULP energy -347151.502395 kJ/mol
# GULP energy per Si atom -12398.267943 kJ/mol
# Density = 1.959558 g / cm^3
# Si number density = 19.640286 Si / 1000 Ang^3
#
#
#
# Elastic Constant Matrix: (Units=GPa)
#
#
# Indices 1 2 3 4 5 6 
#
# 1 113.7912 41.4569 32.1154 0.0000 -17.5585 0.0000
# 2 41.4569 150.6417 35.3644 0.0000 -10.0407 0.0000
# 3 32.1154 35.3644 97.3899 0.0000 -21.1900 0.0000
# 4 0.0000 0.0000 0.0000 33.4603 0.0000 -0.1573
# 5 -17.5585 -10.0407 -21.1900 0.0000 27.7949 0.0000
# 6 0.0000 0.0000 0.0000 -0.1573 0.0000 37.9821
#
#
#
# Elastic Compliance Matrix: (Units=1/GPa)
#
#
# Indices 1 2 3 4 5 6 
#
# 1 0.010825 -0.002260 -0.001725 0.000000 0.004707 0.000000
# 2 -0.002260 0.007741 -0.002119 0.000000 -0.000247 0.000000
# 3 -0.001725 -0.002119 0.013431 0.000000 0.008384 0.000000
# 4 0.000000 0.000000 0.000000 0.029887 0.000000 0.000124
# 5 0.004707 -0.000247 0.008384 0.000000 0.045253 0.000000
# 6 0.000000 0.000000 0.000000 0.000124 0.000000 0.026329
#
#
# Mechanical properties :
#
#
# Convention : Reuss Voigt Hill
#
# Bulk Modulus (GPa) = 50.53700 64.41069 57.47385
# Shear Modulus (GPa) = 32.83640 36.70655 34.77147
#
# Velocity S-wave (km/s) = 4.09331 4.32782 4.21220
# Velocity P-wave (km/s) = 6.93739 7.60524 7.27898
#
# Compressibility (1/GPa) = 0.01978748
#
# Stress axis : x y z
#
# Youngs Moduli (GPa) = 92.38278 129.17543 74.45732
#
# Poissons Ratio (x) = 0.29198 0.12841
# Poissons Ratio (y) = 0.20882 0.15781
# Poissons Ratio (z) = 0.15933 0.27379
#
# Static dielectric constant tensor:
#      x y z
#    x 3.877970 0.000000 -0.229310 
#    y 0.000000 3.646810 0.000000 
#    z -0.229310 0.000000 4.232130 
# 
# 
# High freq. dielectric constant tensor:
#      x y z
#    x 1.771030 0.000000 -0.014580 
#    y 0.000000 1.772280 0.000000 
#    z -0.014580 0.000000 1.757640 
# 
# From -- ./inp_files/28527.got.cif
#   From: 2010.06.25/outbox.cif.g09.slc.cpg/sg11_15_cif.got.tgz:28527.got - 2010.06.27 23:14:04.
