data_PCOD8074326
_publ_section_title
;
Structure prediction by ZEFSAII (Michael W. Deem and Ramdas Pophale) SiO2 
 PCOD8074326
Probable space group: P 21/M
;
_chemical_formula_sum "Si O2"
_cell_formula_units_Z 24
_cell_length_a 14.507003
_cell_length_b 8.855392
_cell_length_c 19.173147
_cell_angle_alpha 90.000000
_cell_angle_beta 31.734365
_cell_angle_gamma 90.000000
_cell_volume 1295.536516
_symmetry_space_group_name_H-M "P 21/M"
_symmetry_group_IT_number 11
_symmetry_cell_setting 'monoclinic'
loop_
_space_group_symop_operation_xyz
x,y,z
-x,1/2+y,-z
-x,-y,-z
x,1/2-y,z
loop_
_atom_site_type_symbol
_atom_site_label
_atom_site_fract_x
_atom_site_fract_y
_atom_site_fract_z
Si Si1 0.962351 0.573604 0.597836
Si Si2 0.052566 0.572595 0.894006
Si Si3 0.960432 0.073445 0.816709
Si Si4 0.688615 0.073443 0.873133
Si Si5 0.450579 0.926983 0.604683
Si Si6 0.232716 0.574152 0.542546
O O1 0.924883 0.750000 0.613202
O O2 0.792041 0.499139 0.741988
O O3 0.000000 0.500000 0.500000
O O4 0.133441 0.542199 0.534382
O O5 0.017548 0.750000 0.918193
O O6 0.253999 0.531369 0.751322
O O7 0.932505 0.498971 0.910748
O O8 0.000000 0.500000 0.000000
O O9 0.998284 0.250000 0.798925
O O10 0.788444 0.040889 0.881311
O O11 0.128232 0.995265 0.674541
O O12 0.670403 0.250000 0.870014
O O13 0.500000 0.000000 0.000000
O O14 0.480570 0.750000 0.580793
O O15 0.500000 0.000000 0.500000
O O16 0.577177 0.995818 0.583126
O O17 0.254512 0.750000 0.543798
#
# Coordination Sequence:
#
# PCOD8074326 Si02
#       6
#     4   4   4   4   4   4
#     4  10  21  38  60  86 118 153 190 238 290 341
#     4  11  24  40  58  83 116 153 191 234 286 338
#     4  10  20  36  60  85 113 150 191 234 283 338
#     4  10  21  38  61  88 115 150 194 237 285 343
#     4  11  22  36  59  87 114 148 191 235 279 336
#     4  10  20  35  58  87 115 148 192 234 281 337
#
# _framework density 18.525144999999998
#
# number of rings (size 3 to 8) (size 9 to 14) (size 15 to 20)
#    0.000    1.667    1.667    3.000    0.000    6.000 
#    3.000    0.000    0.000    0.000    0.000    0.000 
#    0.000    0.000    0.000    0.000    0.000    0.000 
#
# Total GULP energy -297700.313557 kJ/mol
# GULP energy per Si atom -12404.179732 kJ/mol
# Density = 1.848298 g / cm^3
# Si number density = 18.525145 Si / 1000 Ang^3
#
#
#
# Elastic Constant Matrix: (Units=GPa)
#
#
# Indices 1 2 3 4 5 6 
#
# 1 122.8762 72.6499 82.4871 0.0000 9.7665 0.0000
# 2 72.6499 121.2831 82.8417 0.0000 2.3923 0.0000
# 3 82.4871 82.8417 125.7254 0.0000 6.9466 0.0000
# 4 0.0000 0.0000 0.0000 36.3061 0.0000 -0.0241
# 5 9.7665 2.3923 6.9466 0.0000 37.9580 0.0000
# 6 0.0000 0.0000 0.0000 -0.0241 0.0000 37.4937
#
#
#
# Elastic Compliance Matrix: (Units=1/GPa)
#
#
# Indices 1 2 3 4 5 6 
#
# 1 0.015914 -0.004447 -0.007375 0.000000 -0.002465 0.000000
# 2 -0.004447 0.016264 -0.007885 0.000000 0.001562 0.000000
# 3 -0.007375 -0.007885 0.018038 0.000000 -0.000907 0.000000
# 4 0.000000 0.000000 0.000000 0.027544 0.000000 0.000018
# 5 -0.002465 0.001562 -0.000907 0.000000 0.027047 0.000000
# 6 0.000000 0.000000 0.000000 0.000018 0.000000 0.026671
#
#
# Mechanical properties :
#
#
# Convention : Reuss Voigt Hill
#
# Bulk Modulus (GPa) = 92.57213 93.98247 93.27730
# Shear Modulus (GPa) = 28.65451 31.14528 29.89989
#
# Velocity S-wave (km/s) = 3.93719 4.10475 4.02184
# Velocity P-wave (km/s) = 8.41119 8.56200 8.48693
#
# Compressibility (1/GPa) = 0.01080239
#
# Stress axis : x y z
#
# Youngs Moduli (GPa) = 62.83765 61.48515 55.43757
#
# Poissons Ratio (x) = 0.27341 0.40884
# Poissons Ratio (y) = 0.27942 0.43715
# Poissons Ratio (z) = 0.46342 0.48484
#
# Static dielectric constant tensor:
#      x y z
#    x 3.679920 0.000000 -0.158270 
#    y 0.000000 3.813270 0.000000 
#    z -0.158270 0.000000 3.395140 
# 
# 
# High freq. dielectric constant tensor:
#      x y z
#    x 1.729460 0.000000 -0.004950 
#    y 0.000000 1.740170 0.000000 
#    z -0.004950 0.000000 1.703850 
# 
# From -- ./inp_files/20313.got.cif
#   From: 2010.06.25/outbox.cif.g09.slc.cpg/sg11_11_cif.got.tgz:20313.got - 2010.06.27 23:14:04.
