data_PCOD8074148
_publ_section_title
;
Structure prediction by ZEFSAII (Michael W. Deem and Ramdas Pophale) SiO2 
 PCOD8074148
Probable space group: P 21/M
;
_chemical_formula_sum "Si O2"
_cell_formula_units_Z 28
_cell_length_a 10.702152
_cell_length_b 9.015224
_cell_length_c 16.295462
_cell_angle_alpha 90.000000
_cell_angle_beta 61.364730
_cell_angle_gamma 90.000000
_cell_volume 1379.922015
_symmetry_space_group_name_H-M "P 21/M"
_symmetry_group_IT_number 11
_symmetry_cell_setting 'monoclinic'
loop_
_space_group_symop_operation_xyz
x,y,z
-x,1/2+y,-z
-x,-y,-z
x,1/2-y,z
loop_
_atom_site_type_symbol
_atom_site_label
_atom_site_fract_x
_atom_site_fract_y
_atom_site_fract_z
Si Si1 0.578869 0.423365 0.050341
Si Si2 0.704242 0.077716 0.592004
Si Si3 0.431406 0.417939 0.595094
Si Si4 0.673567 0.583595 0.761140
Si Si5 0.152201 0.424446 0.608269
Si Si6 0.064433 0.419333 0.216638
Si Si7 0.905319 0.426422 0.959253
O O1 0.581498 0.250000 0.029075
O O2 0.487093 0.457889 0.161279
O O3 0.500000 0.500000 0.000000
O O4 0.740103 0.478911 0.017114
O O5 0.744359 0.250000 0.569145
O O6 0.531305 0.049291 0.642145
O O7 0.740706 0.024217 0.671597
O O8 0.790891 0.986025 0.496530
O O9 0.500000 0.500000 0.500000
O O10 0.446177 0.250000 0.564301
O O11 0.263747 0.456891 0.649064
O O12 0.678170 0.750000 0.723632
O O13 0.768909 0.572540 0.813350
O O14 0.119283 0.250000 0.608422
O O15 0.013987 0.513824 0.678925
O O16 0.015889 0.250000 0.215906
O O17 0.032505 0.517854 0.146952
O O18 0.920524 0.250000 0.960423
O O19 0.000000 0.500000 0.000000
#
# Coordination Sequence:
#
# PCOD8074148 Si02
#       7
#     4   4   4   4   4   4   4
#     4  10  21  40  66  92 119 158 204 252 308 369
#     4  10  20  35  56  85 117 152 200 247 294 356
#     4   8  16  31  51  76 106 143 187 236 290 346
#     4  10  22  39  59  85 117 154 199 249 302 360
#     4  10  20  36  58  83 118 159 198 244 302 361
#     4  11  23  40  61  85 118 159 203 251 306 365
#     4  11  24  42  66  96 129 162 204 255 313 373
#
# _framework density 20.291001999999999
#
# number of rings (size 3 to 8) (size 9 to 14) (size 15 to 20)
#    0.000    2.000    1.429    1.714    0.000    5.143 
#    0.000    2.857    0.000    0.000    0.000    0.000 
#    0.000    0.000    0.000    0.000    0.000    0.000 
#
# Total GULP energy -346943.722879 kJ/mol
# GULP energy per Si atom -12390.847246 kJ/mol
# Density = 2.024482 g / cm^3
# Si number density = 20.291002 Si / 1000 Ang^3
#
#
#
# Elastic Constant Matrix: (Units=GPa)
#
#
# Indices 1 2 3 4 5 6 
#
# 1 101.5198 42.9921 46.2175 0.0000 0.4014 0.0000
# 2 42.9921 92.7769 44.8310 0.0000 -0.4349 0.0000
# 3 46.2175 44.8310 103.0981 0.0000 1.1443 0.0000
# 4 0.0000 0.0000 0.0000 34.4731 0.0000 2.8345
# 5 0.4014 -0.4349 1.1443 0.0000 30.2681 0.0000
# 6 0.0000 0.0000 0.0000 2.8345 0.0000 29.7103
#
#
#
# Elastic Compliance Matrix: (Units=1/GPa)
#
#
# Indices 1 2 3 4 5 6 
#
# 1 0.013578 -0.004243 -0.004241 0.000000 -0.000081 0.000000
# 2 -0.004243 0.014977 -0.004615 0.000000 0.000446 0.000000
# 3 -0.004241 -0.004615 0.013613 0.000000 -0.000525 0.000000
# 4 0.000000 0.000000 0.000000 0.029237 0.000000 -0.002789
# 5 -0.000081 0.000446 -0.000525 0.000000 0.033065 0.000000
# 6 0.000000 0.000000 0.000000 -0.002789 0.000000 0.033924
#
#
# Mechanical properties :
#
#
# Convention : Reuss Voigt Hill
#
# Bulk Modulus (GPa) = 62.61843 62.83066 62.72455
# Shear Modulus (GPa) = 29.42589 29.78060 29.60324
#
# Velocity S-wave (km/s) = 3.81227 3.83518 3.82374
# Velocity P-wave (km/s) = 7.09261 7.11642 7.10453
#
# Compressibility (1/GPa) = 0.01596974
#
# Stress axis : x y z
#
# Youngs Moduli (GPa) = 73.64723 66.76859 73.45668
#
# Poissons Ratio (x) = 0.28331 0.31153
# Poissons Ratio (y) = 0.31249 0.33903
# Poissons Ratio (z) = 0.31234 0.30817
#
# Static dielectric constant tensor:
#      x y z
#    x 3.974170 0.000000 -0.141670 
#    y 0.000000 3.691180 0.000000 
#    z -0.141670 0.000000 3.371750 
# 
# 
# High freq. dielectric constant tensor:
#      x y z
#    x 1.801180 0.000000 -0.006130 
#    y 0.000000 1.798360 0.000000 
#    z -0.006130 0.000000 1.775860 
# 
# From -- ./inp_files/49137.got.cif
#   From: 2010.06.25/outbox.cif.g09.slc.cpg/sg11_25_cif.got.tgz:49137.got - 2010.06.27 23:14:04.
