data_PCOD8074379
_publ_section_title
;
Structure prediction by ZEFSAII (Michael W. Deem and Ramdas Pophale) SiO2 
 PCOD8074379
Probable space group: P 21/M
;
_chemical_formula_sum "Si O2"
_cell_formula_units_Z 24
_cell_length_a 10.210678
_cell_length_b 8.752560
_cell_length_c 31.526665
_cell_angle_alpha 90.000000
_cell_angle_beta 27.327819
_cell_angle_gamma 90.000000
_cell_volume 1293.471858
_symmetry_space_group_name_H-M "P 21/M"
_symmetry_group_IT_number 11
_symmetry_cell_setting 'monoclinic'
loop_
_space_group_symop_operation_xyz
x,y,z
-x,1/2+y,-z
-x,-y,-z
x,1/2-y,z
loop_
_atom_site_type_symbol
_atom_site_label
_atom_site_fract_x
_atom_site_fract_y
_atom_site_fract_z
Si Si1 0.844044 0.069672 0.277557
Si Si2 0.843078 0.074828 0.736369
Si Si3 0.749255 0.925663 0.455041
Si Si4 0.746057 0.430419 0.546644
Si Si5 0.701004 0.431225 0.072631
Si Si6 0.413633 0.428718 0.069038
O O1 0.803088 0.250000 0.291691
O O2 0.089078 0.023938 0.173409
O O3 0.549911 0.991448 0.348383
O O4 0.929477 0.010916 0.299434
O O5 0.817332 0.250000 0.758824
O O6 0.955075 0.064467 0.656076
O O7 0.535760 0.994493 0.826846
O O8 0.672933 0.750000 0.487559
O O9 0.500000 0.000000 0.500000
O O10 0.788090 0.020432 0.486331
O O11 0.750507 0.250000 0.549003
O O12 0.000000 0.500000 0.500000
O O13 0.708816 0.250000 0.074191
O O14 0.620389 0.483247 0.047878
O O15 0.000000 0.500000 0.000000
O O16 0.440654 0.250000 0.056191
O O17 0.500000 0.500000 0.000000
#
# Coordination Sequence:
#
# PCOD8074379 Si02
#       6
#     4   4   4   4   4   4
#     4  10  20  37  60  85 116 152 194 240 287 346
#     4  10  20  35  59  89 116 150 194 237 286 344
#     4  11  22  37  61  90 119 152 195 241 284 344
#     4  12  25  41  60  85 118 157 196 241 297 348
#     4  10  21  38  59  85 117 152 189 239 293 344
#     4   9  20  37  59  86 113 147 190 234 282 340
#
# _framework density 18.554714000000001
#
# number of rings (size 3 to 8) (size 9 to 14) (size 15 to 20)
#    0.000    1.667    1.667    4.500    0.000    6.000 
#    3.000    0.000    0.000    0.000    0.000    0.000 
#    0.000    0.000    0.000    0.000    0.000    0.000 
#
# Total GULP energy -297644.817871 kJ/mol
# GULP energy per Si atom -12401.867411 kJ/mol
# Density = 1.851248 g / cm^3
# Si number density = 18.554714 Si / 1000 Ang^3
#
#
#
# Elastic Constant Matrix: (Units=GPa)
#
#
# Indices 1 2 3 4 5 6 
#
# 1 119.9444 57.7862 83.9684 0.0000 -10.6664 0.0000
# 2 57.7862 131.2950 66.4467 0.0000 -8.5375 0.0000
# 3 83.9684 66.4467 148.1593 0.0000 -12.3863 0.0000
# 4 0.0000 0.0000 0.0000 38.1737 0.0000 -0.8698
# 5 -10.6664 -8.5375 -12.3863 0.0000 39.8408 0.0000
# 6 0.0000 0.0000 0.0000 -0.8698 0.0000 35.2293
#
#
#
# Elastic Compliance Matrix: (Units=1/GPa)
#
#
# Indices 1 2 3 4 5 6 
#
# 1 0.014679 -0.002877 -0.006932 0.000000 0.001158 0.000000
# 2 -0.002877 0.010439 -0.003007 0.000000 0.000532 0.000000
# 3 -0.006932 -0.003007 0.012133 0.000000 0.001272 0.000000
# 4 0.000000 0.000000 0.000000 0.026211 0.000000 0.000647
# 5 0.001158 0.000532 0.001272 0.000000 0.025919 0.000000
# 6 0.000000 0.000000 0.000000 0.000647 0.000000 0.028401
#
#
# Mechanical properties :
#
#
# Convention : Reuss Voigt Hill
#
# Bulk Modulus (GPa) = 86.06333 90.64460 88.35397
# Shear Modulus (GPa) = 33.94711 35.39526 34.67119
#
# Velocity S-wave (km/s) = 4.28199 4.37236 4.32741
# Velocity P-wave (km/s) = 8.42208 8.62837 8.52585
#
# Compressibility (1/GPa) = 0.01161935
#
# Stress axis : x y z
#
# Youngs Moduli (GPa) = 68.12307 95.79545 82.41953
#
# Poissons Ratio (x) = 0.27561 0.57135
# Poissons Ratio (y) = 0.19600 0.24780
# Poissons Ratio (z) = 0.47225 0.28802
#
# Static dielectric constant tensor:
#      x y z
#    x 3.768660 0.000020 0.324220 
#    y 0.000020 3.977340 0.000010 
#    z 0.324220 0.000010 3.896260 
# 
# 
# High freq. dielectric constant tensor:
#      x y z
#    x 1.702510 0.000000 0.001160 
#    y 0.000000 1.737330 0.000000 
#    z 0.001160 0.000000 1.733390 
# 
# From -- ./inp_files/56491.got.cif
#   From: 2010.06.25/outbox.cif.g09.slc.cpg/sg11_29_cif.got.tgz:56491.got - 2010.06.27 23:14:04.
