data_PCOD8074613
_publ_section_title
;
Structure prediction by ZEFSAII (Michael W. Deem and Ramdas Pophale) SiO2 
 PCOD8074613
Probable space group: P 21/M
;
_chemical_formula_sum "Si O2"
_cell_formula_units_Z 24
_cell_length_a 10.370861
_cell_length_b 19.376024
_cell_length_c 16.010643
_cell_angle_alpha 90.000000
_cell_angle_beta 157.130611
_cell_angle_gamma 90.000000
_cell_volume 1250.335372
_symmetry_space_group_name_H-M "P 21/M"
_symmetry_group_IT_number 11
_symmetry_cell_setting 'monoclinic'
loop_
_space_group_symop_operation_xyz
x,y,z
-x,1/2+y,-z
-x,-y,-z
x,1/2-y,z
loop_
_atom_site_type_symbol
_atom_site_label
_atom_site_fract_x
_atom_site_fract_y
_atom_site_fract_z
Si Si1 0.143368 0.171674 0.722675
Si Si2 0.961600 0.550391 0.782987
Si Si3 0.670290 0.671498 0.356841
Si Si4 0.326124 0.534519 0.156282
Si Si5 0.160714 0.827783 0.794599
Si Si6 0.692079 0.050127 0.496192
O O1 0.021558 0.250000 0.659068
O O2 0.251408 0.156122 0.692586
O O3 0.831049 0.125576 0.561598
O O4 0.446035 0.155671 0.967254
O O5 0.646288 0.553119 0.654712
O O6 0.954727 0.492622 0.707546
O O7 0.970612 0.625200 0.747217
O O8 0.288137 0.533025 0.033146
O O9 0.532457 0.750000 0.286516
O O10 0.394916 0.615235 0.223391
O O11 0.011465 0.661863 0.612856
O O12 0.634918 0.489062 0.373525
O O13 0.000000 0.500000 0.000000
O O14 0.102876 0.750000 0.791743
#
# Coordination Sequence:
#
# PCOD8074613 Si02
#       6
#     4   4   4   4   4   4
#     4  10  22  39  57  82 113 150 189 231 279 335
#     4  10  20  37  57  82 112 147 184 229 280 332
#     4  10  20  37  59  81 112 149 189 231 278 335
#     4  10  20  36  57  84 116 148 187 233 275 331
#     4  10  20  36  59  83 110 146 191 231 274 334
#     4  10  22  37  56  82 118 144 183 236 281 331
#
# _framework density 19.194849000000001
#
# number of rings (size 3 to 8) (size 9 to 14) (size 15 to 20)
#    0.000    2.000    3.333    0.000    0.000    3.333 
#    0.000    2.500    0.000    0.000    0.000    0.000 
#    0.000    0.000    0.000    0.000    0.000    0.000 
#
# Total GULP energy -297412.438084 kJ/mol
# GULP energy per Si atom -12392.184920 kJ/mol
# Density = 1.915116 g / cm^3
# Si number density = 19.194849 Si / 1000 Ang^3
#
#
#
# Elastic Constant Matrix: (Units=GPa)
#
#
# Indices 1 2 3 4 5 6 
#
# 1 45.5957 44.2297 40.4253 0.0000 -15.3305 0.0000
# 2 44.2297 144.4191 66.4148 0.0000 -1.0023 0.0000
# 3 40.4253 66.4148 116.6291 0.0000 -35.8376 0.0000
# 4 0.0000 0.0000 0.0000 38.0064 0.0000 4.5850
# 5 -15.3305 -1.0023 -35.8376 0.0000 27.2436 0.0000
# 6 0.0000 0.0000 0.0000 4.5850 0.0000 32.1202
#
#
#
# Elastic Compliance Matrix: (Units=1/GPa)
#
#
# Indices 1 2 3 4 5 6 
#
# 1 0.042097 -0.012461 -0.000599 0.000000 0.022442 0.000000
# 2 -0.012461 0.015679 -0.011056 0.000000 -0.020978 0.000000
# 3 -0.000599 -0.011056 0.024923 0.000000 0.032041 0.000000
# 4 0.000000 0.000000 0.000000 0.026772 0.000000 -0.003822
# 5 0.022442 -0.020978 0.032041 0.000000 0.090711 0.000000
# 6 0.000000 0.000000 0.000000 -0.003822 0.000000 0.031679
#
#
# Mechanical properties :
#
#
# Convention : Reuss Voigt Hill
#
# Bulk Modulus (GPa) = 29.01344 67.64261 48.32803
# Shear Modulus (GPa) = 17.14783 29.84563 23.49673
#
# Velocity S-wave (km/s) = 2.99215 3.94747 3.50253
# Velocity P-wave (km/s) = 5.20435 7.48954 6.44897
#
# Compressibility (1/GPa) = 0.03446678
#
# Stress axis : x y z
#
# Youngs Moduli (GPa) = 23.75482 63.77877 40.12337
#
# Poissons Ratio (x) = 0.79475 0.02405
# Poissons Ratio (y) = 0.29601 0.44359
# Poissons Ratio (z) = 0.01424 0.70511
#
# Static dielectric constant tensor:
#      x y z
#    x 3.246030 0.000000 -0.593060 
#    y 0.000000 3.710770 0.000000 
#    z -0.593060 0.000000 3.978630 
# 
# 
# High freq. dielectric constant tensor:
#      x y z
#    x 1.712800 0.000000 -0.037270 
#    y 0.000000 1.758700 0.000000 
#    z -0.037270 0.000000 1.759210 
# 
# From -- ./inp_files/19076.got.cif
#   From: 2010.06.25/outbox.cif.g09.slc.cpg/sg11_10_cif.got.tgz:19076.got - 2010.06.27 23:14:04.
