data_PCOD8074980
_publ_section_title
;
Structure prediction by ZEFSAII (Michael W. Deem and Ramdas Pophale) SiO2 
 PCOD8074980
Probable space group: P 21/M
;
_chemical_formula_sum "Si O2"
_cell_formula_units_Z 32
_cell_length_a 12.583340
_cell_length_b 9.312819
_cell_length_c 30.094475
_cell_angle_alpha 90.000000
_cell_angle_beta 153.714552
_cell_angle_gamma 90.000000
_cell_volume 1561.759392
_symmetry_space_group_name_H-M "P 21/M"
_symmetry_group_IT_number 11
_symmetry_cell_setting 'monoclinic'
loop_
_space_group_symop_operation_xyz
x,y,z
-x,1/2+y,-z
-x,-y,-z
x,1/2-y,z
loop_
_atom_site_type_symbol
_atom_site_label
_atom_site_fract_x
_atom_site_fract_y
_atom_site_fract_z
Si Si1 0.323173 0.080667 0.764102
Si Si2 0.684239 0.584004 0.416743
Si Si3 0.292968 0.419771 0.316919
Si Si4 0.055383 0.908186 0.892175
Si Si5 0.476487 0.407696 0.034113
Si Si6 0.952709 0.410418 0.268615
Si Si7 0.140697 0.593421 0.018901
Si Si8 0.242615 0.916748 0.643431
O O1 0.274004 0.250000 0.739583
O O2 0.579545 0.045815 0.883441
O O3 0.103952 0.018233 0.712212
O O4 0.327361 0.000757 0.718633
O O5 0.608495 0.750000 0.381226
O O6 0.534168 0.511883 0.400917
O O7 0.636976 0.493896 0.354002
O O8 0.957499 0.572274 0.533766
O O9 0.347593 0.250000 0.335587
O O10 0.129585 0.467022 0.213417
O O11 0.172600 0.461930 0.319188
O O12 0.144866 0.750000 0.909287
O O13 0.968379 0.897892 0.910499
O O14 0.267866 0.017631 0.983116
O O15 0.389659 0.250000 0.988550
O O16 0.725319 0.403032 0.152031
O O17 0.500000 0.500000 0.000000
O O18 0.006223 0.250000 0.307579
O O19 0.158193 0.750000 0.047258
O O20 0.000000 0.500000 0.000000
O O21 0.325337 0.750000 0.675728
#
# Coordination Sequence:
#
# PCOD8074980 Si02
#       8
#     4   4   4   4   4   4   4   4
#     4  11  23  39  61  89 119 154 199 247 291 344
#     4  10  22  41  65  94 120 144 189 245 295 351
#     4  10  21  37  59  87 121 158 197 242 296 350
#     4  10  20  37  54  78 114 154 197 238 285 340
#     4  11  20  32  52  77 108 150 196 239 279 329
#     4  10  21  37  56  82 117 159 201 240 289 353
#     4  10  23  38  54  80 118 157 196 242 287 340
#     4  10  22  42  67  90 117 153 189 236 298 358
#
# _framework density 20.489712000000001
#
# number of rings (size 3 to 8) (size 9 to 14) (size 15 to 20)
#    0.000    1.750    2.500    1.500    1.750    4.500 
#    0.000    0.625    0.000    0.000    0.000    0.000 
#    0.000    0.000    0.000    0.000    0.000    0.000 
#
# Total GULP energy -396510.613820 kJ/mol
# GULP energy per Si atom -12390.956682 kJ/mol
# Density = 2.044308 g / cm^3
# Si number density = 20.489712 Si / 1000 Ang^3
#
#
#
# Elastic Constant Matrix: (Units=GPa)
#
#
# Indices 1 2 3 4 5 6 
#
# 1 95.2479 44.4133 8.3608 0.0000 15.5254 0.0000
# 2 44.4133 109.0090 14.2083 0.0000 7.7113 0.0000
# 3 8.3608 14.2083 21.3314 0.0000 0.1484 0.0000
# 4 0.0000 0.0000 0.0000 28.0442 0.0000 2.0055
# 5 15.5254 7.7113 0.1484 0.0000 35.1043 0.0000
# 6 0.0000 0.0000 0.0000 2.0055 0.0000 39.7258
#
#
#
# Elastic Compliance Matrix: (Units=1/GPa)
#
#
# Indices 1 2 3 4 5 6 
#
# 1 0.013833 -0.005015 -0.002047 0.000000 -0.005008 0.000000
# 2 -0.005015 0.012033 -0.006047 0.000000 -0.000400 0.000000
# 3 -0.002047 -0.006047 0.051695 0.000000 0.002015 0.000000
# 4 0.000000 0.000000 0.000000 0.035787 0.000000 -0.001807
# 5 -0.005008 -0.000400 0.002015 0.000000 0.030781 0.000000
# 6 0.000000 0.000000 0.000000 -0.001807 0.000000 0.025264
#
#
# Mechanical properties :
#
#
# Convention : Reuss Voigt Hill
#
# Bulk Modulus (GPa) = 19.47622 39.95036 29.71329
# Shear Modulus (GPa) = 23.50456 31.14857 27.32656
#
# Velocity S-wave (km/s) = 3.39062 3.90321 3.65591
# Velocity P-wave (km/s) = 4.98542 6.31296 5.68805
#
# Compressibility (1/GPa) = 0.05134467
#
# Stress axis : x y z
#
# Youngs Moduli (GPa) = 72.28924 83.10317 19.34427
#
# Poissons Ratio (x) = 0.41677 0.03959
# Poissons Ratio (y) = 0.36253 0.11697
# Poissons Ratio (z) = 0.14796 0.50249
#
# Static dielectric constant tensor:
#      x y z
#    x 5.214160 0.000000 -1.092820 
#    y 0.000000 3.732030 0.000000 
#    z -1.092820 0.000000 4.292680 
# 
# 
# High freq. dielectric constant tensor:
#      x y z
#    x 1.807260 0.000000 0.000690 
#    y 0.000000 1.807760 0.000000 
#    z 0.000690 0.000000 1.777360 
# 
# From -- ./inp_files/73177.got.cif
#   From: 2010.06.25/outbox.cif.g09.slc.cpg/sg11_37_cif.got.tgz:73177.got - 2010.06.27 23:14:04.
