data_PCOD8074728
_publ_section_title
;
Structure prediction by ZEFSAII (Michael W. Deem and Ramdas Pophale) SiO2 
 PCOD8074728
Probable space group: P 21/M
;
_chemical_formula_sum "Si O2"
_cell_formula_units_Z 28
_cell_length_a 14.510831
_cell_length_b 8.986795
_cell_length_c 20.567931
_cell_angle_alpha 90.000000
_cell_angle_beta 148.017662
_cell_angle_gamma 90.000000
_cell_volume 1420.636976
_symmetry_space_group_name_H-M "P 21/M"
_symmetry_group_IT_number 11
_symmetry_cell_setting 'monoclinic'
loop_
_space_group_symop_operation_xyz
x,y,z
-x,1/2+y,-z
-x,-y,-z
x,1/2-y,z
loop_
_atom_site_type_symbol
_atom_site_label
_atom_site_fract_x
_atom_site_fract_y
_atom_site_fract_z
Si Si1 0.344979 0.076100 0.754507
Si Si2 0.907714 0.574251 0.287483
Si Si3 0.278632 0.925204 0.064021
Si Si4 0.351289 0.920928 0.370098
Si Si5 0.034849 0.420592 0.820685
Si Si6 0.384845 0.424658 0.255863
Si Si7 0.233687 0.576106 0.562154
O O1 0.322393 0.250000 0.729686
O O2 0.267621 0.029131 0.778518
O O3 0.546680 0.028842 0.870902
O O4 0.230851 0.998668 0.630885
O O5 0.932059 0.750000 0.297401
O O6 0.898261 0.513142 0.208309
O O7 0.076028 0.508817 0.425497
O O8 0.267316 0.750000 0.068972
O O9 0.274593 0.005839 0.131030
O O10 0.113908 0.978973 0.924721
O O11 0.404657 0.750000 0.390699
O O12 0.173233 0.932422 0.303820
O O13 0.500000 0.000000 0.500000
O O14 0.320864 0.000368 0.283406
O O15 0.094776 0.250000 0.866967
O O16 0.347090 0.250000 0.236129
O O17 0.588311 0.460334 0.368924
O O18 0.210753 0.750000 0.560176
#
# Coordination Sequence:
#
# PCOD8074728 Si02
#       7
#     4   4   4   4   4   4   4
#     4   9  18  32  52  78 108 141 176 219 268 316
#     4   9  17  32  53  76 106 143 179 218 266 317
#     4  10  21  37  55  80 111 141 180 227 272 317
#     4  11  23  39  60  86 113 141 176 219 269 323
#     4  10  22  39  57  77 105 144 185 222 264 321
#     4  10  20  36  59  83 109 145 184 222 268 321
#     4   9  17  31  53  80 108 139 177 219 265 322
#
# _framework density 19.709468000000001
#
# number of rings (size 3 to 8) (size 9 to 14) (size 15 to 20)
#    0.000    2.286    0.000    2.571    0.000    5.714 
#    0.000    1.429    0.000    0.000    0.000    0.000 
#    0.000    0.000    0.000    0.000    0.000    0.000 
#
# Total GULP energy -347260.303853 kJ/mol
# GULP energy per Si atom -12402.153709 kJ/mol
# Density = 1.966461 g / cm^3
# Si number density = 19.709468 Si / 1000 Ang^3
#
#
#
# Elastic Constant Matrix: (Units=GPa)
#
#
# Indices 1 2 3 4 5 6 
#
# 1 116.2255 39.8012 29.1419 0.0000 -21.9765 0.0000
# 2 39.8012 73.2186 34.2678 0.0000 -10.4582 0.0000
# 3 29.1419 34.2678 96.8421 0.0000 -16.6003 0.0000
# 4 0.0000 0.0000 0.0000 28.7542 0.0000 -6.1753
# 5 -21.9765 -10.4582 -16.6003 0.0000 26.7721 0.0000
# 6 0.0000 0.0000 0.0000 -6.1753 0.0000 27.2586
#
#
#
# Elastic Compliance Matrix: (Units=1/GPa)
#
#
# Indices 1 2 3 4 5 6 
#
# 1 0.011909 -0.005189 -0.000469 0.000000 0.007458 0.000000
# 2 -0.005189 0.018868 -0.005127 0.000000 -0.000067 0.000000
# 3 -0.000469 -0.005127 0.013284 0.000000 0.005849 0.000000
# 4 0.000000 0.000000 0.000000 0.036556 0.000000 0.008282
# 5 0.007458 -0.000067 0.005849 0.000000 0.047074 0.000000
# 6 0.000000 0.000000 0.000000 0.008282 0.000000 0.038562
#
#
# Mechanical properties :
#
#
# Convention : Reuss Voigt Hill
#
# Bulk Modulus (GPa) = 44.46114 54.74535 49.60324
# Shear Modulus (GPa) = 25.59913 28.76199 27.18056
#
# Velocity S-wave (km/s) = 3.60783 3.82422 3.71760
# Velocity P-wave (km/s) = 6.32159 6.88012 6.60676
#
# Compressibility (1/GPa) = 0.02249155
#
# Stress axis : x y z
#
# Youngs Moduli (GPa) = 83.97317 52.99976 75.27860
#
# Poissons Ratio (x) = 0.27500 0.03532
# Poissons Ratio (y) = 0.43571 0.38593
# Poissons Ratio (z) = 0.03940 0.27171
#
# Static dielectric constant tensor:
#      x y z
#    x 3.861360 0.000000 -0.048590 
#    y 0.000000 3.450710 0.000000 
#    z -0.048590 0.000000 3.528440 
# 
# 
# High freq. dielectric constant tensor:
#      x y z
#    x 1.777180 0.000000 -0.001830 
#    y 0.000000 1.753790 0.000000 
#    z -0.001830 0.000000 1.764460 
# 
# From -- ./inp_files/38447.got.cif
#   From: 2010.06.25/outbox.cif.g09.slc.cpg/sg11_20_cif.got.tgz:38447.got - 2010.06.27 23:14:04.
