data_PCOD8074165
_publ_section_title
;
Structure prediction by ZEFSAII (Michael W. Deem and Ramdas Pophale) SiO2 
 PCOD8074165
Probable space group: P 21/M
;
_chemical_formula_sum "Si O2"
_cell_formula_units_Z 32
_cell_length_a 12.288237
_cell_length_b 9.047105
_cell_length_c 19.314405
_cell_angle_alpha 90.000000
_cell_angle_beta 50.511775
_cell_angle_gamma 90.000000
_cell_volume 1657.143654
_symmetry_space_group_name_H-M "P 21/M"
_symmetry_group_IT_number 11
_symmetry_cell_setting 'monoclinic'
loop_
_space_group_symop_operation_xyz
x,y,z
-x,1/2+y,-z
-x,-y,-z
x,1/2-y,z
loop_
_atom_site_type_symbol
_atom_site_label
_atom_site_fract_x
_atom_site_fract_y
_atom_site_fract_z
Si Si1 0.399351 0.580681 0.091977
Si Si2 0.373578 0.077746 0.898996
Si Si3 0.095691 0.575941 0.615371
Si Si4 0.881697 0.075755 0.234922
Si Si5 0.091126 0.578165 0.405379
Si Si6 0.833102 0.424067 0.910688
Si Si7 0.679265 0.078472 0.585656
Si Si8 0.372581 0.074414 0.740126
O O1 0.414516 0.750000 0.066684
O O2 0.461056 0.550083 0.144172
O O3 0.238418 0.536803 0.136099
O O4 0.500000 0.500000 0.000000
O O5 0.335176 0.250000 0.924942
O O6 0.359843 0.029742 0.825424
O O7 0.265740 0.979829 0.986992
O O8 0.076323 0.750000 0.612861
O O9 0.127165 0.532244 0.681041
O O10 0.223769 0.512289 0.515564
O O11 0.948013 0.498380 0.651882
O O12 0.884701 0.250000 0.222544
O O13 0.745999 0.008490 0.254049
O O14 0.019356 0.007398 0.144002
O O15 0.053390 0.750000 0.415590
O O16 0.252440 0.554817 0.365206
O O17 0.000000 0.500000 0.500000
O O18 0.859922 0.250000 0.908946
O O19 0.665854 0.250000 0.575214
O O20 0.521910 0.012290 0.650557
O O21 0.358691 0.250000 0.736333
#
# Coordination Sequence:
#
# PCOD8074165 Si02
#       8
#     4   4   4   4   4   4   4   4
#     4   8  15  29  51  79 107 132 163 205 255 313
#     4   9  18  34  56  81 109 138 167 209 266 317
#     4   9  19  36  55  77 108 143 177 217 267 317
#     4  11  24  39  53  73 105 142 181 227 271 309
#     4   9  16  29  53  83 113 142 173 212 260 316
#     4  10  20  35  57  82 107 137 174 215 259 317
#     4   8  16  33  56  80 107 138 171 212 262 313
#     4  10  21  37  56  77 102 137 182 222 257 311
#
# _framework density 19.310334999999998
#
# number of rings (size 3 to 8) (size 9 to 14) (size 15 to 20)
#    0.000    2.750    0.000    1.875    0.000    4.000 
#    0.000    5.625    0.000    0.000    0.000    0.000 
#    0.000    0.000    0.000    0.000    0.000    0.000 
#
# Total GULP energy -396425.755212 kJ/mol
# GULP energy per Si atom -12388.304850 kJ/mol
# Density = 1.926638 g / cm^3
# Si number density = 19.310335 Si / 1000 Ang^3
#
#
#
# Elastic Constant Matrix: (Units=GPa)
#
#
# Indices 1 2 3 4 5 6 
#
# 1 81.8757 16.4080 4.3017 0.0000 6.5234 0.0000
# 2 16.4080 39.5090 4.6304 0.0000 5.3642 0.0000
# 3 4.3017 4.6304 45.1678 0.0000 3.0783 0.0000
# 4 0.0000 0.0000 0.0000 15.1116 0.0000 1.5785
# 5 6.5234 5.3642 3.0783 0.0000 32.4805 0.0000
# 6 0.0000 0.0000 0.0000 1.5785 0.0000 33.0245
#
#
#
# Elastic Compliance Matrix: (Units=1/GPa)
#
#
# Indices 1 2 3 4 5 6 
#
# 1 0.013443 -0.005270 -0.000619 0.000000 -0.001771 0.000000
# 2 -0.005270 0.028214 -0.002159 0.000000 -0.003396 0.000000
# 3 -0.000619 -0.002159 0.022533 0.000000 -0.001655 0.000000
# 4 0.000000 0.000000 0.000000 0.066506 0.000000 -0.003179
# 5 -0.001771 -0.003396 -0.001655 0.000000 0.031861 0.000000
# 6 0.000000 0.000000 0.000000 -0.003179 0.000000 0.030433
#
#
# Mechanical properties :
#
#
# Convention : Reuss Voigt Hill
#
# Bulk Modulus (GPa) = 20.79303 24.13696 22.46500
# Shear Modulus (GPa) = 22.21066 25.53748 23.87407
#
# Velocity S-wave (km/s) = 3.39513 3.64053 3.51997
# Velocity P-wave (km/s) = 5.11473 5.49527 5.30841
#
# Compressibility (1/GPa) = 0.04809304
#
# Stress axis : x y z
#
# Youngs Moduli (GPa) = 74.38597 35.44402 44.37991
#
# Poissons Ratio (x) = 0.18679 0.02749
# Poissons Ratio (y) = 0.39201 0.09581
# Poissons Ratio (z) = 0.04607 0.07652
#
# Static dielectric constant tensor:
#      x y z
#    x 4.049560 0.000000 -0.044780 
#    y 0.000000 3.447540 0.000000 
#    z -0.044780 0.000000 3.430000 
# 
# 
# High freq. dielectric constant tensor:
#      x y z
#    x 1.765300 0.000000 -0.001300 
#    y 0.000000 1.738470 0.000000 
#    z -0.001300 0.000000 1.734150 
# 
# From -- ./inp_files/64346.got.cif
#   From: 2010.06.25/outbox.cif.g09.slc.cpg/sg11_33_cif.got.tgz:64346.got - 2010.06.27 23:14:04.
