data_PCOD8074471
_publ_section_title
;
Structure prediction by ZEFSAII (Michael W. Deem and Ramdas Pophale) SiO2 
 PCOD8074471
Probable space group: P 21/M
;
_chemical_formula_sum "Si O2"
_cell_formula_units_Z 20
_cell_length_a 14.723822
_cell_length_b 13.064328
_cell_length_c 5.327217
_cell_angle_alpha 90.000000
_cell_angle_beta 65.816710
_cell_angle_gamma 90.000000
_cell_volume 934.796239
_symmetry_space_group_name_H-M "P 21/M"
_symmetry_group_IT_number 11
_symmetry_cell_setting 'monoclinic'
loop_
_space_group_symop_operation_xyz
x,y,z
-x,1/2+y,-z
-x,-y,-z
x,1/2-y,z
loop_
_atom_site_type_symbol
_atom_site_label
_atom_site_fract_x
_atom_site_fract_y
_atom_site_fract_z
Si Si1 0.571390 0.131898 0.518019
Si Si2 0.883831 0.019005 0.623146
Si Si3 0.250911 0.366194 0.448013
Si Si4 0.521573 0.631794 0.877492
Si Si5 0.211842 0.556841 0.762907
O O1 0.539304 0.250000 0.574744
O O2 0.514027 0.081336 0.345618
O O3 0.535886 0.077998 0.820946
O O4 0.689487 0.124856 0.348141
O O5 0.826479 0.909580 0.672038
O O6 0.854811 0.086016 0.408170
O O7 0.850052 0.077889 0.913734
O O8 0.000000 0.000000 0.500000
O O9 0.224684 0.250000 0.548391
O O10 0.361027 0.377968 0.211941
O O11 0.241625 0.436067 0.709416
O O12 0.488377 0.750000 0.903886
#
# Coordination Sequence:
#
# PCOD8074471 Si02
#       5
#     4   4   4   4   4
#     4  10  20  36  55  83 122 156 186 228 277 335
#     4  10  22  41  60  80 114 145 188 249 292 327
#     4   9  22  38  59  87 115 150 189 233 283 338
#     4   9  19  33  54  82 120 155 187 226 274 335
#     4  10  22  37  61  85 111 150 189 239 276 345
#
# _framework density 21.395038
#
# number of rings (size 3 to 8) (size 9 to 14) (size 15 to 20)
#    1.200    1.200    0.000    1.800    2.800    2.400 
#    0.000    2.000    0.000    0.000    0.000    0.000 
#    0.000    0.000    0.000    0.000    0.000    0.000 
#
# Total GULP energy -247877.082885 kJ/mol
# GULP energy per Si atom -12393.854144 kJ/mol
# Density = 2.134634 g / cm^3
# Si number density = 21.395038 Si / 1000 Ang^3
#
#
#
# Elastic Constant Matrix: (Units=GPa)
#
#
# Indices 1 2 3 4 5 6 
#
# 1 163.7275 0.4710 74.2693 0.0000 3.2635 0.0000
# 2 0.4710 21.5318 12.8426 0.0000 11.0488 0.0000
# 3 74.2693 12.8426 198.4843 0.0000 9.2159 0.0000
# 4 0.0000 0.0000 0.0000 20.4473 0.0000 -0.7586
# 5 3.2635 11.0488 9.2159 0.0000 35.1275 0.0000
# 6 0.0000 0.0000 0.0000 -0.7586 0.0000 14.9638
#
#
#
# Elastic Compliance Matrix: (Units=1/GPa)
#
#
# Indices 1 2 3 4 5 6 
#
# 1 0.007413 0.001807 -0.002867 0.000000 -0.000505 0.000000
# 2 0.001807 0.057413 -0.003588 0.000000 -0.017285 0.000000
# 3 -0.002867 -0.003588 0.006356 0.000000 -0.000272 0.000000
# 4 0.000000 0.000000 0.000000 0.048998 0.000000 0.002484
# 5 -0.000505 -0.017285 -0.000272 0.000000 0.034023 0.000000
# 6 0.000000 0.000000 0.000000 0.002484 0.000000 0.066954
#
#
# Mechanical properties :
#
#
# Convention : Reuss Voigt Hill
#
# Bulk Modulus (GPa) = 16.15898 62.10105 39.13001
# Shear Modulus (GPa) = 19.91370 33.85176 26.88273
#
# Velocity S-wave (km/s) = 3.05415 3.98203 3.54855
# Velocity P-wave (km/s) = 4.47283 7.08739 5.92610
#
# Compressibility (1/GPa) = 0.06188510
#
# Stress axis : x y z
#
# Youngs Moduli (GPa) = 134.89318 17.41756 157.33289
#
# Poissons Ratio (x) = -0.03148 0.45114
# Poissons Ratio (y) = -0.24377 0.56458
# Poissons Ratio (z) = 0.38679 0.06250
#
# Static dielectric constant tensor:
#      x y z
#    x 3.631490 0.000000 0.197540 
#    y 0.000000 3.596220 0.000000 
#    z 0.197540 0.000000 4.038010 
# 
# 
# High freq. dielectric constant tensor:
#      x y z
#    x 1.830750 0.000000 0.008780 
#    y 0.000000 1.821550 0.000000 
#    z 0.008780 0.000000 1.845360 
# 
# From -- ./inp_files/6121.got.cif
#   From: 2010.06.25/outbox.cif.g09.slc.cpg/sg11_4_cif.got.tgz:6121.got - 2010.06.27 23:14:04.
