data_PCOD8074467
_publ_section_title
;
Structure prediction by ZEFSAII (Michael W. Deem and Ramdas Pophale) SiO2 
 PCOD8074467
Probable space group: P 21/M
;
_chemical_formula_sum "Si O2"
_cell_formula_units_Z 28
_cell_length_a 12.604888
_cell_length_b 8.443408
_cell_length_c 16.321126
_cell_angle_alpha 90.000000
_cell_angle_beta 55.872427
_cell_angle_gamma 90.000000
_cell_volume 1437.895383
_symmetry_space_group_name_H-M "P 21/M"
_symmetry_group_IT_number 11
_symmetry_cell_setting 'monoclinic'
loop_
_space_group_symop_operation_xyz
x,y,z
-x,1/2+y,-z
-x,-y,-z
x,1/2-y,z
loop_
_atom_site_type_symbol
_atom_site_label
_atom_site_fract_x
_atom_site_fract_y
_atom_site_fract_z
Si Si1 0.538307 0.934373 0.791849
Si Si2 0.963783 0.435625 0.266969
Si Si3 0.765342 0.935144 0.799035
Si Si4 0.492679 0.567703 0.371185
Si Si5 0.948211 0.066254 0.938814
Si Si6 0.308272 0.066448 0.579572
Si Si7 0.688964 0.933727 0.009176
O O1 0.519115 0.750000 0.819848
O O2 0.683079 0.988605 0.755225
O O3 0.513527 0.963315 0.707452
O O4 0.444941 0.034201 0.889580
O O5 0.940161 0.250000 0.291607
O O6 0.841581 0.531215 0.351560
O O7 0.089310 0.504312 0.261313
O O8 0.984923 0.466555 0.161995
O O9 0.787238 0.750000 0.788944
O O10 0.684836 0.982582 0.915173
O O11 0.494530 0.750000 0.343876
O O12 0.621272 0.521244 0.365548
O O13 0.368293 0.535330 0.480271
O O14 0.982397 0.250000 0.913207
O O15 0.795906 0.040568 0.006516
O O16 0.000000 0.000000 0.000000
O O17 0.331988 0.250000 0.549640
O O18 0.725903 0.750000 0.003296
#
# Coordination Sequence:
#
# PCOD8074467 Si02
#       7
#     4   4   4   4   4   4   4
#     4  11  21  35  57  84 114 148 191 233 279 332
#     4  10  20  37  60  83 111 148 186 226 282 336
#     4   8  18  36  56  81 113 150 189 233 274 327
#     4  10  22  39  58  83 113 144 183 232 285 335
#     4  11  22  36  53  79 113 148 188 232 276 329
#     4  10  21  39  61  84 111 143 184 231 284 340
#     4  10  20  36  55  79 113 151 190 231 280 329
#
# _framework density 19.472904
#
# number of rings (size 3 to 8) (size 9 to 14) (size 15 to 20)
#    0.000    2.000    0.000    4.714    2.000    1.714 
#    0.000    8.571    0.000    0.000    0.000    0.000 
#    0.000    0.000    0.000    0.000    0.000    0.000 
#
# Total GULP energy -347181.686189 kJ/mol
# GULP energy per Si atom -12399.345935 kJ/mol
# Density = 1.942858 g / cm^3
# Si number density = 19.472904 Si / 1000 Ang^3
#
#
#
# Elastic Constant Matrix: (Units=GPa)
#
#
# Indices 1 2 3 4 5 6 
#
# 1 101.3399 19.1951 52.9524 0.0000 -7.5837 0.0000
# 2 19.1951 52.0150 8.9143 0.0000 4.2494 0.0000
# 3 52.9524 8.9143 68.4071 0.0000 -10.1928 0.0000
# 4 0.0000 0.0000 0.0000 30.5455 0.0000 -4.1788
# 5 -7.5837 4.2494 -10.1928 0.0000 31.6251 0.0000
# 6 0.0000 0.0000 0.0000 -4.1788 0.0000 25.9081
#
#
#
# Elastic Compliance Matrix: (Units=1/GPa)
#
#
# Indices 1 2 3 4 5 6 
#
# 1 0.017439 -0.004284 -0.012849 0.000000 0.000616 0.000000
# 2 -0.004284 0.021125 -0.000013 0.000000 -0.003870 0.000000
# 3 -0.012849 -0.000013 0.025324 0.000000 0.005082 0.000000
# 4 0.000000 0.000000 0.000000 0.033477 0.000000 0.005400
# 5 0.000616 -0.003870 0.005082 0.000000 0.033926 0.000000
# 6 0.000000 0.000000 0.000000 0.005400 0.000000 0.039469
#
#
# Mechanical properties :
#
#
# Convention : Reuss Voigt Hill
#
# Bulk Modulus (GPa) = 33.79007 42.65396 38.22201
# Shear Modulus (GPa) = 23.26470 26.99576 25.13023
#
# Velocity S-wave (km/s) = 3.46022 3.72738 3.59628
# Velocity P-wave (km/s) = 5.77531 6.36210 6.07579
#
# Compressibility (1/GPa) = 0.02959449
#
# Stress axis : x y z
#
# Youngs Moduli (GPa) = 57.34135 47.33821 39.48853
#
# Poissons Ratio (x) = 0.20279 0.50740
# Poissons Ratio (y) = 0.24564 0.00053
# Poissons Ratio (z) = 0.73680 0.00063
#
# Static dielectric constant tensor:
#      x y z
#    x 3.819250 0.000000 -0.017780 
#    y 0.000000 3.469730 0.000000 
#    z -0.017780 0.000000 3.314500 
# 
# 
# High freq. dielectric constant tensor:
#      x y z
#    x 1.767630 0.000000 -0.003920 
#    y 0.000000 1.756400 0.000000 
#    z -0.003920 0.000000 1.740460 
# 
# From -- ./inp_files/37918.got.cif
#   From: 2010.06.25/outbox.cif.g09.slc.cpg/sg11_19_cif.got.tgz:37918.got - 2010.06.27 23:14:04.
