data_PCOD8074984
_publ_section_title
;
Structure prediction by ZEFSAII (Michael W. Deem and Ramdas Pophale) SiO2 
 PCOD8074984
Probable space group: P 21/M
;
_chemical_formula_sum "Si O2"
_cell_formula_units_Z 28
_cell_length_a 21.617420
_cell_length_b 8.814164
_cell_length_c 14.872622
_cell_angle_alpha 90.000000
_cell_angle_beta 30.597942
_cell_angle_gamma 90.000000
_cell_volume 1442.445016
_symmetry_space_group_name_H-M "P 21/M"
_symmetry_group_IT_number 11
_symmetry_cell_setting 'monoclinic'
loop_
_space_group_symop_operation_xyz
x,y,z
-x,1/2+y,-z
-x,-y,-z
x,1/2-y,z
loop_
_atom_site_type_symbol
_atom_site_label
_atom_site_fract_x
_atom_site_fract_y
_atom_site_fract_z
Si Si1 0.314423 0.429954 0.444763
Si Si2 0.650813 0.572499 0.233312
Si Si3 0.515900 0.576410 0.075773
Si Si4 0.797478 0.576013 0.745513
Si Si5 0.152794 0.926431 0.136112
Si Si6 0.374286 0.927680 0.550691
Si Si7 0.118278 0.427309 0.551096
O O1 0.317264 0.250000 0.443806
O O2 0.438718 0.489282 0.246640
O O3 0.301619 0.491794 0.561532
O O4 0.200289 0.493258 0.529450
O O5 0.659375 0.750000 0.242180
O O6 0.683182 0.483788 0.283945
O O7 0.516388 0.527608 0.367953
O O8 0.745567 0.527055 0.038477
O O9 0.472509 0.750000 0.123713
O O10 0.500000 0.500000 0.000000
O O11 0.653408 0.565668 0.936013
O O12 0.841566 0.750000 0.701117
O O13 0.858304 0.473262 0.746010
O O14 0.839063 0.504624 0.598096
O O15 0.186791 0.750000 0.085635
O O16 0.022785 0.961343 0.252634
O O17 0.354188 0.750000 0.567161
O O18 0.144740 0.250000 0.511286
#
# Coordination Sequence:
#
# PCOD8074984 Si02
#       7
#     4   4   4   4   4   4   4
#     4  11  21  37  58  82 115 153 187 225 280 336
#     4  10  21  39  61  85 114 145 178 225 284 335
#     4  11  21  34  54  80 112 147 184 229 278 328
#     4  10  20  37  56  77 111 151 188 231 283 329
#     4  11  22  36  57  83 110 145 192 236 274 326
#     4  10  21  38  61  89 115 141 179 229 279 333
#     4   9  20  38  55  76 112 154 190 230 276 323
#
# _framework density 19.411486
#
# number of rings (size 3 to 8) (size 9 to 14) (size 15 to 20)
#    0.000    1.714    1.429    3.429    0.000    6.286 
#    0.000    4.286    0.000    0.000    0.000    0.000 
#    0.000    0.000    0.000    0.000    0.000    0.000 
#
# Total GULP energy -347311.125318 kJ/mol
# GULP energy per Si atom -12403.968761 kJ/mol
# Density = 1.936730 g / cm^3
# Si number density = 19.411486 Si / 1000 Ang^3
#
#
#
# Elastic Constant Matrix: (Units=GPa)
#
#
# Indices 1 2 3 4 5 6 
#
# 1 122.8335 37.4241 34.1080 0.0000 9.1353 0.0000
# 2 37.4241 69.6184 18.4143 0.0000 -1.6674 0.0000
# 3 34.1080 18.4143 60.0841 0.0000 1.5374 0.0000
# 4 0.0000 0.0000 0.0000 27.0280 0.0000 5.6848
# 5 9.1353 -1.6674 1.5374 0.0000 25.6418 0.0000
# 6 0.0000 0.0000 0.0000 5.6848 0.0000 32.4438
#
#
#
# Elastic Compliance Matrix: (Units=1/GPa)
#
#
# Indices 1 2 3 4 5 6 
#
# 1 0.011260 -0.004882 -0.004792 0.000000 -0.004042 0.000000
# 2 -0.004882 0.017792 -0.002760 0.000000 0.003062 0.000000
# 3 -0.004792 -0.002760 0.020201 0.000000 0.000317 0.000000
# 4 0.000000 0.000000 0.000000 0.038414 0.000000 -0.006731
# 5 -0.004042 0.003062 0.000317 0.000000 0.040619 0.000000
# 6 0.000000 0.000000 0.000000 -0.006731 0.000000 0.032002
#
#
# Mechanical properties :
#
#
# Convention : Reuss Voigt Hill
#
# Bulk Modulus (GPa) = 41.00877 48.04765 44.52821
# Shear Modulus (GPa) = 25.86863 27.86203 26.86533
#
# Velocity S-wave (km/s) = 3.65450 3.79269 3.72424
# Velocity P-wave (km/s) = 6.24332 6.63214 6.44067
#
# Compressibility (1/GPa) = 0.02438503
#
# Stress axis : x y z
#
# Youngs Moduli (GPa) = 88.81154 56.20605 49.50146
#
# Poissons Ratio (x) = 0.27440 0.23722
# Poissons Ratio (y) = 0.43358 0.13661
# Poissons Ratio (z) = 0.42560 0.15511
#
# Static dielectric constant tensor:
#      x y z
#    x 3.694470 0.000000 -0.032210 
#    y 0.000000 3.474000 0.000000 
#    z -0.032210 0.000000 3.444350 
# 
# 
# High freq. dielectric constant tensor:
#      x y z
#    x 1.763030 0.000000 0.002830 
#    y 0.000000 1.751720 0.000000 
#    z 0.002830 0.000000 1.745850 
# 
# From -- ./inp_files/38430.got.cif
#   From: 2010.06.25/outbox.cif.g09.slc.cpg/sg11_20_cif.got.tgz:38430.got - 2010.06.27 23:14:04.
