data_PCOD8074474
_publ_section_title
;
Structure prediction by ZEFSAII (Michael W. Deem and Ramdas Pophale) SiO2 
 PCOD8074474
Probable space group: P 21/M
;
_chemical_formula_sum "Si O2"
_cell_formula_units_Z 28
_cell_length_a 7.503327
_cell_length_b 15.949631
_cell_length_c 14.806197
_cell_angle_alpha 90.000000
_cell_angle_beta 133.369543
_cell_angle_gamma 90.000000
_cell_volume 1288.090830
_symmetry_space_group_name_H-M "P 21/M"
_symmetry_group_IT_number 11
_symmetry_cell_setting 'monoclinic'
loop_
_space_group_symop_operation_xyz
x,y,z
-x,1/2+y,-z
-x,-y,-z
x,1/2-y,z
loop_
_atom_site_type_symbol
_atom_site_label
_atom_site_fract_x
_atom_site_fract_y
_atom_site_fract_z
Si Si1 0.159858 0.454235 0.459724
Si Si2 0.639983 0.656263 0.002803
Si Si3 0.197062 0.096172 0.659003
Si Si4 0.106389 0.657512 0.286143
Si Si5 0.864910 0.919526 0.918621
Si Si6 0.370215 0.654001 0.081059
Si Si7 0.659565 0.521575 0.660773
O O1 0.172714 0.382076 0.542564
O O2 0.365675 0.525644 0.555734
O O3 0.222141 0.423111 0.379901
O O4 0.894583 0.499404 0.365729
O O5 0.557938 0.750000 0.949556
O O6 0.448756 0.617902 0.009416
O O7 0.910508 0.652970 0.138105
O O8 0.646603 0.604407 0.911697
O O9 0.482944 0.102121 0.789914
O O10 0.031017 0.154439 0.664673
O O11 0.237813 0.750000 0.327194
O O12 0.282010 0.578258 0.331303
O O13 0.752594 0.934443 0.782345
O O14 0.077644 0.849049 0.989389
O O15 0.000000 0.000000 0.000000
O O16 0.459006 0.750000 0.119643
#
# Coordination Sequence:
#
# PCOD8074474 Si02
#       7
#     4   4   4   4   4   4   4
#     4   9  19  36  55  81 118 150 191 247 295 352
#     4   9  19  37  56  81 119 159 197 247 306 362
#     4   9  17  34  59  83 110 147 194 248 299 342
#     4   9  17  33  55  81 114 150 197 249 296 350
#     4  12  22  35  57  96 126 154 200 248 312 374
#     4  10  22  40  64  91 120 158 205 256 307 365
#     4  10  20  36  55  86 124 156 196 245 307 357
#
# _framework density 21.737597999999998
#
# number of rings (size 3 to 8) (size 9 to 14) (size 15 to 20)
#    0.000    2.286    1.429    2.571    0.000    0.571 
#    7.714    0.714    0.000   20.571    0.000    0.000 
#    0.000    0.000    0.000    0.000    0.000    0.000 
#
# Total GULP energy -346871.866730 kJ/mol
# GULP energy per Si atom -12388.280955 kJ/mol
# Density = 2.168812 g / cm^3
# Si number density = 21.737598 Si / 1000 Ang^3
#
#
#
# Elastic Constant Matrix: (Units=GPa)
#
#
# Indices 1 2 3 4 5 6 
#
# 1 76.5322 14.6212 33.6710 0.0000 -29.5468 0.0000
# 2 14.6212 49.3620 25.0344 0.0000 -16.1024 0.0000
# 3 33.6710 25.0344 121.7754 0.0000 -36.3235 0.0000
# 4 0.0000 0.0000 0.0000 15.3880 0.0000 -3.1030
# 5 -29.5468 -16.1024 -36.3235 0.0000 47.2431 0.0000
# 6 0.0000 0.0000 0.0000 -3.1030 0.0000 22.5422
#
#
#
# Elastic Compliance Matrix: (Units=1/GPa)
#
#
# Indices 1 2 3 4 5 6 
#
# 1 0.017683 -0.001289 -0.001890 0.000000 0.009167 0.000000
# 2 -0.001289 0.023809 -0.003060 0.000000 0.004956 0.000000
# 3 -0.001890 -0.003060 0.011289 0.000000 0.006454 0.000000
# 4 0.000000 0.000000 0.000000 0.066841 0.000000 0.009201
# 5 0.009167 0.004956 0.006454 0.000000 0.033552 0.000000
# 6 0.000000 0.000000 0.000000 0.009201 0.000000 0.045628
#
#
# Mechanical properties :
#
#
# Convention : Reuss Voigt Hill
#
# Bulk Modulus (GPa) = 24.81188 43.81363 34.31276
# Shear Modulus (GPa) = 22.25050 28.65754 25.45402
#
# Velocity S-wave (km/s) = 3.20284 3.63483 3.42565
# Velocity P-wave (km/s) = 5.01165 6.14943 5.60946
#
# Compressibility (1/GPa) = 0.04030328
#
# Stress axis : x y z
#
# Youngs Moduli (GPa) = 56.55063 42.00103 88.58368
#
# Poissons Ratio (x) = 0.05413 0.16744
# Poissons Ratio (y) = 0.07289 0.27105
# Poissons Ratio (z) = 0.10689 0.12852
#
# Static dielectric constant tensor:
#      x y z
#    x 11.572460 0.000000 -0.649690 
#    y 0.000000 4.276320 0.000000 
#    z -0.649690 0.000000 4.301450 
# 
# 
# High freq. dielectric constant tensor:
#      x y z
#    x 1.873080 0.000000 -0.022490 
#    y 0.000000 1.804430 0.000000 
#    z -0.022490 0.000000 1.844820 
# 
# From -- ./inp_files/47680.got.cif
#   From: 2010.06.25/outbox.cif.g09.slc.cpg/sg11_24_cif.got.tgz:47680.got - 2010.06.27 23:14:04.
