data_PCOD8074944
_publ_section_title
;
Structure prediction by ZEFSAII (Michael W. Deem and Ramdas Pophale) SiO2 
 PCOD8074944
Probable space group: P 21/M
;
_chemical_formula_sum "Si O2"
_cell_formula_units_Z 24
_cell_length_a 14.332151
_cell_length_b 14.194011
_cell_length_c 8.747220
_cell_angle_alpha 90.000000
_cell_angle_beta 138.337313
_cell_angle_gamma 90.000000
_cell_volume 1182.880774
_symmetry_space_group_name_H-M "P 21/M"
_symmetry_group_IT_number 11
_symmetry_cell_setting 'monoclinic'
loop_
_space_group_symop_operation_xyz
x,y,z
-x,1/2+y,-z
-x,-y,-z
x,1/2-y,z
loop_
_atom_site_type_symbol
_atom_site_label
_atom_site_fract_x
_atom_site_fract_y
_atom_site_fract_z
Si Si1 0.757953 0.646159 0.113129
Si Si2 0.267102 0.005949 0.456777
Si Si3 0.547595 0.142959 0.145920
Si Si4 0.519033 0.360165 0.763036
Si Si5 0.959567 0.929505 0.582981
Si Si6 0.772832 0.036504 0.932241
O O1 0.751011 0.750000 0.027825
O O2 0.875851 0.652464 0.391723
O O3 0.614389 0.619727 0.022516
O O4 0.785689 0.568504 0.018253
O O5 0.359113 0.921664 0.634734
O O6 0.203357 0.973010 0.218276
O O7 0.362892 0.098622 0.551241
O O8 0.138326 0.022443 0.410959
O O9 0.584609 0.250000 0.232968
O O10 0.577107 0.122293 0.004458
O O11 0.512586 0.250000 0.713851
O O12 0.623375 0.414422 0.777034
O O13 0.000000 0.000000 0.500000
O O14 0.103285 0.897829 0.844120
#
# Coordination Sequence:
#
# PCOD8074944 Si02
#       6
#     4   4   4   4   4   4
#     4  10  20  38  63  90 121 164 209 251 300 361
#     4  12  22  40  63  92 129 160 203 256 315 370
#     4  10  20  36  62  90 118 160 210 256 299 354
#     4  11  23  39  62  92 123 163 213 258 304 361
#     4  10  22  40  64  87 120 163 209 248 301 366
#     4  11  24  40  59  95 128 167 194 255 316 372
#
# _framework density 20.289449999999999
#
# number of rings (size 3 to 8) (size 9 to 14) (size 15 to 20)
#    0.000    1.333    3.333    3.500    0.000    2.000 
#    0.000    5.000    0.000    6.000    0.000    0.000 
#    0.000    0.000    0.000    0.000    0.000    0.000 
#
# Total GULP energy -297574.967729 kJ/mol
# GULP energy per Si atom -12398.956989 kJ/mol
# Density = 2.024327 g / cm^3
# Si number density = 20.289450 Si / 1000 Ang^3
#
#
#
# Elastic Constant Matrix: (Units=GPa)
#
#
# Indices 1 2 3 4 5 6 
#
# 1 117.0521 20.5938 30.8246 0.0000 1.2840 0.0000
# 2 20.5938 56.0567 11.2039 0.0000 -3.3657 0.0000
# 3 30.8246 11.2039 69.8101 0.0000 -4.4355 0.0000
# 4 0.0000 0.0000 0.0000 11.5565 0.0000 -5.1355
# 5 1.2840 -3.3657 -4.4355 0.0000 35.0357 0.0000
# 6 0.0000 0.0000 0.0000 -5.1355 0.0000 17.9806
#
#
#
# Elastic Compliance Matrix: (Units=1/GPa)
#
#
# Indices 1 2 3 4 5 6 
#
# 1 0.010156 -0.002986 -0.004080 0.000000 -0.001176 0.000000
# 2 -0.002986 0.019377 -0.001680 0.000000 0.001758 0.000000
# 3 -0.004080 -0.001680 0.016528 0.000000 0.002081 0.000000
# 4 0.000000 0.000000 0.000000 0.099110 0.000000 0.028307
# 5 -0.001176 0.001758 0.002081 0.000000 0.029018 0.000000
# 6 0.000000 0.000000 0.000000 0.028307 0.000000 0.063700
#
#
# Mechanical properties :
#
#
# Convention : Reuss Voigt Hill
#
# Bulk Modulus (GPa) = 35.00194 40.90708 37.95451
# Shear Modulus (GPa) = 18.87478 24.93433 21.90456
#
# Velocity S-wave (km/s) = 3.05335 3.50941 3.28930
# Velocity P-wave (km/s) = 5.45155 6.05201 5.75961
#
# Compressibility (1/GPa) = 0.02856985
#
# Stress axis : x y z
#
# Youngs Moduli (GPa) = 98.46553 51.60654 60.50431
#
# Poissons Ratio (x) = 0.15411 0.24684
# Poissons Ratio (y) = 0.29403 0.10163
# Poissons Ratio (z) = 0.40171 0.08668
#
# Static dielectric constant tensor:
#      x y z
#    x 3.753850 0.000000 0.167180 
#    y 0.000000 3.636760 0.000000 
#    z 0.167180 0.000000 4.029040 
# 
# 
# High freq. dielectric constant tensor:
#      x y z
#    x 1.797440 0.000000 0.001540 
#    y 0.000000 1.781810 0.000000 
#    z 0.001540 0.000000 1.796390 
# 
# From -- ./inp_files/12613.got.cif
#   From: 2010.06.25/outbox.cif.g09.slc.cpg/sg11_7_cif.got.tgz:12613.got - 2010.06.27 23:14:04.
