data_PCOD8074994
_publ_section_title
;
Structure prediction by ZEFSAII (Michael W. Deem and Ramdas Pophale) SiO2 
 PCOD8074994
Probable space group: P 21/M
;
_chemical_formula_sum "Si O2"
_cell_formula_units_Z 32
_cell_length_a 16.162070
_cell_length_b 9.113737
_cell_length_c 24.252561
_cell_angle_alpha 90.000000
_cell_angle_beta 151.393164
_cell_angle_gamma 90.000000
_cell_volume 1710.417554
_symmetry_space_group_name_H-M "P 21/M"
_symmetry_group_IT_number 11
_symmetry_cell_setting 'monoclinic'
loop_
_space_group_symop_operation_xyz
x,y,z
-x,1/2+y,-z
-x,-y,-z
x,1/2-y,z
loop_
_atom_site_type_symbol
_atom_site_label
_atom_site_fract_x
_atom_site_fract_y
_atom_site_fract_z
Si Si1 0.923210 0.921265 0.635836
Si Si2 0.346420 0.576643 0.595467
Si Si3 0.739295 0.579179 0.843184
Si Si4 0.421275 0.090942 0.002451
Si Si5 0.818162 0.922596 0.397288
Si Si6 0.905970 0.078562 0.151709
Si Si7 0.047920 0.578511 0.945889
Si Si8 0.768022 0.409354 0.265536
O O1 0.877637 0.750000 0.603665
O O2 0.959025 0.964476 0.720730
O O3 0.095451 0.960662 0.701444
O O4 0.759185 0.014851 0.518847
O O5 0.312240 0.750000 0.580619
O O6 0.549570 0.540214 0.709063
O O7 0.286709 0.493646 0.614818
O O8 0.754268 0.750000 0.864846
O O9 0.872410 0.528852 0.873593
O O10 0.786897 0.498756 0.928572
O O11 0.351387 0.250000 0.941204
O O12 0.577684 0.119072 0.134222
O O13 0.500000 0.000000 0.000000
O O14 0.271801 0.005559 0.945763
O O15 0.830018 0.750000 0.413426
O O16 0.735919 0.961843 0.290660
O O17 0.000000 0.000000 0.500000
O O18 0.864402 0.250000 0.132017
O O19 0.977286 0.035081 0.133043
O O20 0.081570 0.750000 0.971460
O O21 0.833569 0.250000 0.327816
#
# Coordination Sequence:
#
# PCOD8074994 Si02
#       8
#     4   4   4   4   4   4   4   4
#     4  10  20  37  57  77 111 152 190 231 276 328
#     4  11  23  38  57  82 114 149 189 232 281 336
#     4   9  20  39  61  86 116 146 179 230 288 337
#     4  11  22  36  55  79 112 150 190 231 276 328
#     4  12  24  37  55  79 109 146 190 232 277 330
#     4  10  21  38  58  84 114 147 190 235 282 334
#     4   9  19  38  64  88 112 145 184 228 283 343
#     4  10  21  37  53  74 110 151 187 229 278 327
#
# _framework density 18.708881999999999
#
# number of rings (size 3 to 8) (size 9 to 14) (size 15 to 20)
#    0.000    1.750    2.500    1.875    1.750    3.000 
#    0.000    0.625    0.000    0.000    0.000    0.000 
#    0.000    0.000    0.000    0.000    0.000    0.000 
#
# Total GULP energy -396621.188629 kJ/mol
# GULP energy per Si atom -12394.412145 kJ/mol
# Density = 1.866630 g / cm^3
# Si number density = 18.708882 Si / 1000 Ang^3
#
#
#
# Elastic Constant Matrix: (Units=GPa)
#
#
# Indices 1 2 3 4 5 6 
#
# 1 118.9520 54.8774 62.6807 0.0000 -15.9453 0.0000
# 2 54.8774 89.8870 57.7865 0.0000 -4.6537 0.0000
# 3 62.6807 57.7865 126.6460 0.0000 -6.6771 0.0000
# 4 0.0000 0.0000 0.0000 30.7543 0.0000 -4.1125
# 5 -15.9453 -4.6537 -6.6771 0.0000 31.5436 0.0000
# 6 0.0000 0.0000 0.0000 -4.1125 0.0000 22.1289
#
#
#
# Elastic Compliance Matrix: (Units=1/GPa)
#
#
# Indices 1 2 3 4 5 6 
#
# 1 0.013802 -0.005575 -0.004007 0.000000 0.005306 0.000000
# 2 -0.005575 0.018016 -0.005531 0.000000 -0.001331 0.000000
# 3 -0.004007 -0.005531 0.012392 0.000000 -0.000219 0.000000
# 4 0.000000 0.000000 0.000000 0.033344 0.000000 0.006197
# 5 0.005306 -0.001331 -0.000219 0.000000 0.034142 0.000000
# 6 0.000000 0.000000 0.000000 0.006197 0.000000 0.046341
#
#
# Mechanical properties :
#
#
# Convention : Reuss Voigt Hill
#
# Bulk Modulus (GPa) = 71.52153 76.24155 73.88154
# Shear Modulus (GPa) = 25.91691 27.56139 26.73915
#
# Velocity S-wave (km/s) = 3.72596 3.84236 3.78461
# Velocity P-wave (km/s) = 7.53804 7.77978 7.65986
#
# Compressibility (1/GPa) = 0.01398180
#
# Stress axis : x y z
#
# Youngs Moduli (GPa) = 72.45509 55.50677 80.70031
#
# Poissons Ratio (x) = 0.30947 0.32338
# Poissons Ratio (y) = 0.40396 0.44636
# Poissons Ratio (z) = 0.29034 0.30702
#
# Static dielectric constant tensor:
#      x y z
#    x 3.149080 0.000000 -0.172130 
#    y 0.000000 3.829830 0.000000 
#    z -0.172130 0.000000 3.365050 
# 
# 
# High freq. dielectric constant tensor:
#      x y z
#    x 1.716700 0.000000 -0.008730 
#    y 0.000000 1.732330 0.000000 
#    z -0.008730 0.000000 1.728140 
# 
# From -- ./inp_files/69107.got.cif
#   From: 2010.06.25/outbox.cif.g09.slc.cpg/sg11_35_cif.got.tgz:69107.got - 2010.06.27 23:14:04.
