data_PCOD8074142
_publ_section_title
;
Structure prediction by ZEFSAII (Michael W. Deem and Ramdas Pophale) SiO2 
 PCOD8074142
Probable space group: P 21/M
;
_chemical_formula_sum "Si O2"
_cell_formula_units_Z 32
_cell_length_a 23.704259
_cell_length_b 8.761785
_cell_length_c 14.943461
_cell_angle_alpha 90.000000
_cell_angle_beta 149.484177
_cell_angle_gamma 90.000000
_cell_volume 1575.950571
_symmetry_space_group_name_H-M "P 21/M"
_symmetry_group_IT_number 11
_symmetry_cell_setting 'monoclinic'
loop_
_space_group_symop_operation_xyz
x,y,z
-x,1/2+y,-z
-x,-y,-z
x,1/2-y,z
loop_
_atom_site_type_symbol
_atom_site_label
_atom_site_fract_x
_atom_site_fract_y
_atom_site_fract_z
Si Si1 0.934009 0.431927 0.989993
Si Si2 0.285907 0.582977 0.386739
Si Si3 0.231824 0.070527 0.989924
Si Si4 0.006763 0.568230 0.732318
Si Si5 0.397119 0.931640 0.712156
Si Si6 0.386294 0.917601 0.342015
Si Si7 0.230713 0.569598 0.640488
Si Si8 0.350399 0.429909 0.966787
O O1 0.935490 0.250000 0.994857
O O2 0.975929 0.492375 0.142703
O O3 0.813615 0.500686 0.801317
O O4 0.000000 0.500000 0.000000
O O5 0.245165 0.750000 0.364788
O O6 0.334212 0.496044 0.539654
O O7 0.376615 0.600442 0.434967
O O8 0.215346 0.250000 0.975884
O O9 0.310466 0.030159 0.012718
O O10 0.108998 0.995694 0.812154
O O11 0.289832 0.009010 0.159148
O O12 0.007477 0.750000 0.726058
O O13 0.887857 0.507105 0.538946
O O14 0.401565 0.750000 0.710592
O O15 0.327411 0.986051 0.703520
O O16 0.524473 0.990712 0.883192
O O17 0.391216 0.750000 0.303883
O O18 0.500000 0.000000 0.500000
O O19 0.215709 0.750000 0.613912
O O20 0.267752 0.519762 0.789133
O O21 0.341179 0.250000 0.935692
#
# Coordination Sequence:
#
# PCOD8074142 Si02
#       8
#     4   4   4   4   4   4   4   4
#     4  10  20  35  56  84 117 157 197 237 292 351
#     4   9  17  33  55  81 116 155 190 227 286 353
#     4  11  23  40  63  90 122 162 209 256 305 366
#     4  11  23  41  62  87 124 166 204 252 309 365
#     4   9  18  35  61  90 122 156 197 247 305 368
#     4  11  21  36  58  86 122 162 202 244 295 355
#     4  11  23  39  63  92 118 155 205 260 312 367
#     4  10  22  41  63  88 119 160 203 253 318 376
#
# _framework density 20.305206999999999
#
# number of rings (size 3 to 8) (size 9 to 14) (size 15 to 20)
#    0.000    1.750    1.250    3.375    0.000    5.500 
#    0.000    0.625    0.000    4.500    0.000    0.000 
#    0.000    0.000    0.000    0.000    0.000    0.000 
#
# Total GULP energy -396502.169214 kJ/mol
# GULP energy per Si atom -12390.692788 kJ/mol
# Density = 2.025899 g / cm^3
# Si number density = 20.305207 Si / 1000 Ang^3
#
#
#
# Elastic Constant Matrix: (Units=GPa)
#
#
# Indices 1 2 3 4 5 6 
#
# 1 97.7914 32.4047 37.6829 0.0000 8.4929 0.0000
# 2 32.4047 62.3887 31.9613 0.0000 3.3845 0.0000
# 3 37.6829 31.9613 134.3060 0.0000 3.6925 0.0000
# 4 0.0000 0.0000 0.0000 24.2314 0.0000 0.4930
# 5 8.4929 3.3845 3.6925 0.0000 42.9593 0.0000
# 6 0.0000 0.0000 0.0000 0.4930 0.0000 25.9036
#
#
#
# Elastic Compliance Matrix: (Units=1/GPa)
#
#
# Indices 1 2 3 4 5 6 
#
# 1 0.013117 -0.005522 -0.002312 0.000000 -0.001959 0.000000
# 2 -0.005522 0.020628 -0.003353 0.000000 -0.000245 0.000000
# 3 -0.002312 -0.003353 0.008894 0.000000 -0.000043 0.000000
# 4 0.000000 0.000000 0.000000 0.041285 0.000000 -0.000786
# 5 -0.001959 -0.000245 -0.000043 0.000000 0.023688 0.000000
# 6 0.000000 0.000000 0.000000 -0.000786 0.000000 0.038620
#
#
# Mechanical properties :
#
#
# Convention : Reuss Voigt Hill
#
# Bulk Modulus (GPa) = 49.34903 55.39820 52.37361
# Shear Modulus (GPa) = 28.51289 31.44800 29.98045
#
# Velocity S-wave (km/s) = 3.75135 3.93971 3.84668
# Velocity P-wave (km/s) = 6.56658 6.93087 6.75118
#
# Compressibility (1/GPa) = 0.02026382
#
# Stress axis : x y z
#
# Youngs Moduli (GPa) = 76.23786 48.47879 112.44165
#
# Poissons Ratio (x) = 0.26770 0.26000
# Poissons Ratio (y) = 0.42099 0.37699
# Poissons Ratio (z) = 0.17628 0.16254
#
# Static dielectric constant tensor:
#      x y z
#    x 3.751010 0.000000 0.345690 
#    y 0.000000 3.468280 0.000000 
#    z 0.345690 0.000000 7.378860 
# 
# 
# High freq. dielectric constant tensor:
#      x y z
#    x 1.801770 0.000000 0.004310 
#    y 0.000000 1.768240 0.000000 
#    z 0.004310 0.000000 1.808200 
# 
# From -- ./inp_files/55659.got.cif
#   From: 2010.06.25/outbox.cif.g09.slc.cpg/sg11_28_cif.got.tgz:55659.got - 2010.06.27 23:14:04.
