data_PCOD8074901
_publ_section_title
;
Structure prediction by ZEFSAII (Michael W. Deem and Ramdas Pophale) SiO2 
 PCOD8074901
Probable space group: P 21/M
;
_chemical_formula_sum "Si O2"
_cell_formula_units_Z 32
_cell_length_a 12.819334
_cell_length_b 18.862794
_cell_length_c 10.028181
_cell_angle_alpha 90.000000
_cell_angle_beta 135.213448
_cell_angle_gamma 90.000000
_cell_volume 1708.262868
_symmetry_space_group_name_H-M "P 21/M"
_symmetry_group_IT_number 11
_symmetry_cell_setting 'monoclinic'
loop_
_space_group_symop_operation_xyz
x,y,z
-x,1/2+y,-z
-x,-y,-z
x,1/2-y,z
loop_
_atom_site_type_symbol
_atom_site_label
_atom_site_fract_x
_atom_site_fract_y
_atom_site_fract_z
Si Si1 0.607987 0.473228 0.988671
Si Si2 0.657529 0.331627 0.477633
Si Si3 0.904943 0.171619 0.491821
Si Si4 0.118444 0.830137 0.084679
Si Si5 0.083725 0.458142 0.691622
Si Si6 0.915994 0.944274 0.009708
Si Si7 0.752414 0.330013 0.078220
Si Si8 0.566728 0.956611 0.683456
O O1 0.543001 0.492437 0.786804
O O2 0.500000 0.500000 0.000000
O O3 0.748479 0.519066 0.160074
O O4 0.629129 0.387923 0.007227
O O5 0.606185 0.250000 0.406698
O O6 0.765628 0.356431 0.454195
O O7 0.514958 0.382253 0.359612
O O8 0.739822 0.338773 0.692807
O O9 0.944975 0.250000 0.580215
O O10 0.868810 0.172286 0.303088
O O11 0.053193 0.125185 0.640508
O O12 0.066316 0.750000 0.022528
O O13 0.165046 0.858500 0.980082
O O14 0.978243 0.868061 0.023638
O O15 0.000000 0.500000 0.500000
O O16 0.032960 0.469808 0.797497
O O17 0.741033 0.942286 0.822870
O O18 0.000000 0.000000 0.000000
O O19 0.685290 0.250000 0.995690
O O20 0.500000 0.000000 0.500000
#
# Coordination Sequence:
#
# PCOD8074901 Si02
#       8
#     4   4   4   4   4   4   4   4
#     4  11  23  39  58  88 119 156 201 241 301 353
#     4  10  20  38  62  85 114 159 201 241 303 362
#     4  10  20  36  61  88 115 150 196 245 297 358
#     4  10  20  37  62  86 114 153 200 248 295 357
#     4  11  22  37  60  86 116 152 196 249 297 350
#     4  11  23  37  57  85 119 155 198 243 300 349
#     4  10  20  37  60  85 116 152 197 241 294 360
#     4  11  24  38  56  86 123 156 198 251 293 359
#
# _framework density 18.732479999999999
#
# number of rings (size 3 to 8) (size 9 to 14) (size 15 to 20)
#    0.000    1.500    2.500    3.750    0.000    0.500 
#    0.000    2.500    0.000    0.000    0.000    0.000 
#    0.000    0.000    0.000    0.000    0.000    0.000 
#
# Total GULP energy -396530.206439 kJ/mol
# GULP energy per Si atom -12391.568951 kJ/mol
# Density = 1.868984 g / cm^3
# Si number density = 18.732480 Si / 1000 Ang^3
#
#
#
# Elastic Constant Matrix: (Units=GPa)
#
#
# Indices 1 2 3 4 5 6 
#
# 1 120.7340 62.3624 52.2795 0.0000 -13.2690 0.0000
# 2 62.3624 127.1017 44.8465 0.0000 11.3734 0.0000
# 3 52.2795 44.8465 112.5525 0.0000 -16.9471 0.0000
# 4 0.0000 0.0000 0.0000 28.6076 0.0000 1.0788
# 5 -13.2690 11.3734 -16.9471 0.0000 26.4546 0.0000
# 6 0.0000 0.0000 0.0000 1.0788 0.0000 37.4619
#
#
#
# Elastic Compliance Matrix: (Units=1/GPa)
#
#
# Indices 1 2 3 4 5 6 
#
# 1 0.013618 -0.006507 -0.002527 0.000000 0.008009 0.000000
# 2 -0.006507 0.013582 -0.004161 0.000000 -0.011768 0.000000
# 3 -0.002527 -0.004161 0.013054 0.000000 0.008884 0.000000
# 4 0.000000 0.000000 0.000000 0.034994 0.000000 -0.001008
# 5 0.008009 -0.011768 0.008884 0.000000 0.052568 0.000000
# 6 0.000000 0.000000 0.000000 -0.001008 0.000000 0.026723
#
#
# Mechanical properties :
#
#
# Convention : Reuss Voigt Hill
#
# Bulk Modulus (GPa) = 72.12899 75.48501 73.80700
# Shear Modulus (GPa) = 26.94696 31.89813 29.42254
#
# Velocity S-wave (km/s) = 3.79689 4.13101 3.96747
# Velocity P-wave (km/s) = 7.60330 7.94591 7.77649
#
# Compressibility (1/GPa) = 0.01386405
#
# Stress axis : x y z
#
# Youngs Moduli (GPa) = 73.43236 73.62938 76.60388
#
# Poissons Ratio (x) = 0.47909 0.19357
# Poissons Ratio (y) = 0.47781 0.31876
# Poissons Ratio (z) = 0.18555 0.30639
#
# Static dielectric constant tensor:
#      x y z
#    x 3.436880 0.000000 -0.249110 
#    y 0.000000 3.628410 0.000000 
#    z -0.249110 0.000000 3.378100 
# 
# 
# High freq. dielectric constant tensor:
#      x y z
#    x 1.722860 0.000000 -0.029370 
#    y 0.000000 1.740390 0.000000 
#    z -0.029370 0.000000 1.729690 
# 
# From -- ./inp_files/19375.got.cif
#   From: 2010.06.25/outbox.cif.g09.slc.cpg/sg11_10_cif.got.tgz:19375.got - 2010.06.27 23:14:04.
