data_PCOD8074685
_publ_section_title
;
Structure prediction by ZEFSAII (Michael W. Deem and Ramdas Pophale) SiO2 
 PCOD8074685
Probable space group: P 21/M
;
_chemical_formula_sum "Si O2"
_cell_formula_units_Z 32
_cell_length_a 11.870327
_cell_length_b 9.114555
_cell_length_c 28.193676
_cell_angle_alpha 90.000000
_cell_angle_beta 148.247895
_cell_angle_gamma 90.000000
_cell_volume 1605.232617
_symmetry_space_group_name_H-M "P 21/M"
_symmetry_group_IT_number 11
_symmetry_cell_setting 'monoclinic'
loop_
_space_group_symop_operation_xyz
x,y,z
-x,1/2+y,-z
-x,-y,-z
x,1/2-y,z
loop_
_atom_site_type_symbol
_atom_site_label
_atom_site_fract_x
_atom_site_fract_y
_atom_site_fract_z
Si Si1 0.717699 0.915946 0.072191
Si Si2 0.804657 0.916337 0.630898
Si Si3 0.773628 0.577023 0.427222
Si Si4 0.212509 0.083477 0.797771
Si Si5 0.565528 0.922117 0.872696
Si Si6 0.454038 0.083503 0.557893
Si Si7 0.970692 0.921890 0.074653
Si Si8 0.556087 0.076122 0.773205
O O1 0.661135 0.750000 0.036765
O O2 0.844536 0.920396 0.167053
O O3 0.866520 0.989448 0.085125
O O4 0.500000 0.000000 0.000000
O O5 0.859643 0.750000 0.664866
O O6 0.698547 0.924308 0.541754
O O7 0.658263 0.982085 0.620513
O O8 0.017644 0.010392 0.700208
O O9 0.814177 0.750000 0.441666
O O10 0.672364 0.525828 0.441074
O O11 0.607873 0.530406 0.326721
O O12 0.000000 0.500000 0.500000
O O13 0.244290 0.250000 0.791139
O O14 0.427421 0.990436 0.865902
O O15 0.521218 0.750000 0.853144
O O16 0.483950 0.999359 0.795778
O O17 0.815390 0.955112 0.974144
O O18 0.534441 0.250000 0.595363
O O19 0.000029 0.750000 0.092574
O O20 0.206863 0.989015 0.152655
O O21 0.559237 0.250000 0.781903
#
# Coordination Sequence:
#
# PCOD8074685 Si02
#       8
#     4   4   4   4   4   4   4   4
#     4  10  20  36  58  84 116 154 190 234 287 344
#     4  10  21  37  60  90 121 153 191 242 293 351
#     4  10  23  41  63  87 117 156 198 247 295 349
#     4  11  23  36  58  88 120 157 196 240 288 351
#     4  11  22  38  60  85 120 158 196 247 295 347
#     4   9  20  40  62  86 116 153 195 240 298 356
#     4   9  19  37  61  86 116 152 193 241 293 348
#     4  10  22  40  62  87 114 152 201 247 296 352
#
# _framework density 19.934805000000001
#
# number of rings (size 3 to 8) (size 9 to 14) (size 15 to 20)
#    0.000    2.000    1.250    1.500    3.500    2.000 
#    0.000    1.250    0.000    0.000    0.000    0.000 
#    0.000    0.000    0.000    0.000    0.000    0.000 
#
# Total GULP energy -396808.419032 kJ/mol
# GULP energy per Si atom -12400.263095 kJ/mol
# Density = 1.988943 g / cm^3
# Si number density = 19.934805 Si / 1000 Ang^3
#
#
#
# Elastic Constant Matrix: (Units=GPa)
#
#
# Indices 1 2 3 4 5 6 
#
# 1 115.6961 34.4727 42.3276 0.0000 -7.1324 0.0000
# 2 34.4727 75.6531 46.1916 0.0000 1.5823 0.0000
# 3 42.3276 46.1916 104.6867 0.0000 10.1065 0.0000
# 4 0.0000 0.0000 0.0000 29.0009 0.0000 5.1184
# 5 -7.1324 1.5823 10.1065 0.0000 27.2683 0.0000
# 6 0.0000 0.0000 0.0000 5.1184 0.0000 30.7679
#
#
#
# Elastic Compliance Matrix: (Units=1/GPa)
#
#
# Indices 1 2 3 4 5 6 
#
# 1 0.011119 -0.002948 -0.003622 0.000000 0.004422 0.000000
# 2 -0.002948 0.018977 -0.007261 0.000000 0.000819 0.000000
# 3 -0.003622 -0.007261 0.014801 0.000000 -0.006012 0.000000
# 4 0.000000 0.000000 0.000000 0.035525 0.000000 -0.005910
# 5 0.004422 0.000819 -0.006012 0.000000 0.040010 0.000000
# 6 0.000000 0.000000 0.000000 -0.005910 0.000000 0.033485
#
#
# Mechanical properties :
#
#
# Convention : Reuss Voigt Hill
#
# Bulk Modulus (GPa) = 58.01599 60.22440 59.12019
# Shear Modulus (GPa) = 26.69176 28.94368 27.81772
#
# Velocity S-wave (km/s) = 3.66314 3.81454 3.73960
# Velocity P-wave (km/s) = 6.85985 7.04820 6.95466
#
# Compressibility (1/GPa) = 0.01723663
#
# Stress axis : x y z
#
# Youngs Moduli (GPa) = 89.93305 52.69404 67.56322
#
# Poissons Ratio (x) = 0.15532 0.24472
# Poissons Ratio (y) = 0.26509 0.49056
# Poissons Ratio (z) = 0.32575 0.38260
#
# Static dielectric constant tensor:
#      x y z
#    x 3.846480 0.000000 -0.004990 
#    y 0.000000 3.547130 0.000000 
#    z -0.004990 0.000000 3.602040 
# 
# 
# High freq. dielectric constant tensor:
#      x y z
#    x 1.785860 0.000000 -0.001030 
#    y 0.000000 1.762190 0.000000 
#    z -0.001030 0.000000 1.780140 
# 
# From -- ./inp_files/45287.got.cif
#   From: 2010.06.25/outbox.cif.g09.slc.cpg/sg11_23_cif.got.tgz:45287.got - 2010.06.27 23:14:04.
