data_PCOD8074617
_publ_section_title
;
Structure prediction by ZEFSAII (Michael W. Deem and Ramdas Pophale) SiO2 
 PCOD8074617
Probable space group: P 21/M
;
_chemical_formula_sum "Si O2"
_cell_formula_units_Z 28
_cell_length_a 21.159645
_cell_length_b 8.847548
_cell_length_c 14.489658
_cell_angle_alpha 90.000000
_cell_angle_beta 150.212719
_cell_angle_gamma 90.000000
_cell_volume 1347.580420
_symmetry_space_group_name_H-M "P 21/M"
_symmetry_group_IT_number 11
_symmetry_cell_setting 'monoclinic'
loop_
_space_group_symop_operation_xyz
x,y,z
-x,1/2+y,-z
-x,-y,-z
x,1/2-y,z
loop_
_atom_site_type_symbol
_atom_site_label
_atom_site_fract_x
_atom_site_fract_y
_atom_site_fract_z
Si Si1 0.011191 0.423008 0.259592
Si Si2 0.397139 0.926489 0.939061
Si Si3 0.898603 0.428359 0.443050
Si Si4 0.754584 0.926672 0.912317
Si Si5 0.112404 0.422500 0.194855
Si Si6 0.638083 0.572088 0.576889
Si Si7 0.413896 0.927076 0.168595
O O1 0.998698 0.250000 0.278696
O O2 0.053448 0.532053 0.394757
O O3 0.112534 0.436405 0.305719
O O4 0.880866 0.480901 0.049016
O O5 0.396710 0.750000 0.915697
O O6 0.249581 0.986627 0.750061
O O7 0.449219 0.961638 0.107731
O O8 0.500000 0.000000 0.000000
O O9 0.901094 0.250000 0.429088
O O10 0.000000 0.500000 0.500000
O O11 0.785407 0.750000 0.952082
O O12 0.648935 0.967796 0.699571
O O13 0.711582 0.981822 0.959341
O O14 0.107376 0.250000 0.156549
O O15 0.241555 0.498513 0.323153
O O16 0.000000 0.500000 0.000000
O O17 0.631950 0.750000 0.553597
O O18 0.517663 0.504133 0.370773
O O19 0.387335 0.750000 0.148357
#
# Coordination Sequence:
#
# PCOD8074617 Si02
#       7
#     4   4   4   4   4   4   4
#     4  11  23  37  61  91 119 159 204 247 306 369
#     4  10  24  43  65  91 123 162 206 257 311 367
#     4  11  24  43  66  96 129 164 210 264 316 371
#     4  11  21  36  59  88 124 159 195 246 300 358
#     4  10  20  36  57  84 118 156 198 245 300 361
#     4   9  19  35  57  85 119 156 195 240 296 356
#     4  10  21  39  62  85 117 157 199 245 297 363
#
# _framework density 20.777981
#
# number of rings (size 3 to 8) (size 9 to 14) (size 15 to 20)
#    0.000    1.714    1.429    2.571    2.000    3.429 
#    0.000    1.429    0.000    0.000    0.000    0.000 
#    0.000    0.000    0.000    0.000    0.000    0.000 
#
# Total GULP energy -346999.936344 kJ/mol
# GULP energy per Si atom -12392.854869 kJ/mol
# Density = 2.073069 g / cm^3
# Si number density = 20.777981 Si / 1000 Ang^3
#
#
#
# Elastic Constant Matrix: (Units=GPa)
#
#
# Indices 1 2 3 4 5 6 
#
# 1 143.8158 41.0612 41.6841 0.0000 8.1309 0.0000
# 2 41.0612 50.6597 22.8732 0.0000 3.5027 0.0000
# 3 41.6841 22.8732 95.0020 0.0000 0.0956 0.0000
# 4 0.0000 0.0000 0.0000 26.5567 0.0000 1.4400
# 5 8.1309 3.5027 0.0956 0.0000 33.3864 0.0000
# 6 0.0000 0.0000 0.0000 1.4400 0.0000 32.2799
#
#
#
# Elastic Compliance Matrix: (Units=1/GPa)
#
#
# Indices 1 2 3 4 5 6 
#
# 1 0.009687 -0.006528 -0.002677 0.000000 -0.001667 0.000000
# 2 -0.006528 0.026725 -0.003569 0.000000 -0.001204 0.000000
# 3 -0.002677 -0.003569 0.012559 0.000000 0.000990 0.000000
# 4 0.000000 0.000000 0.000000 0.037747 0.000000 -0.001684
# 5 -0.001667 -0.001204 0.000990 0.000000 0.030482 0.000000
# 6 0.000000 0.000000 0.000000 -0.001684 0.000000 0.031054
#
#
# Mechanical properties :
#
#
# Convention : Reuss Voigt Hill
#
# Bulk Modulus (GPa) = 42.69218 55.63495 49.16357
# Shear Modulus (GPa) = 27.53151 30.70188 29.11669
#
# Velocity S-wave (km/s) = 3.64405 3.84815 3.74749
# Velocity P-wave (km/s) = 6.18845 6.82483 6.51442
#
# Compressibility (1/GPa) = 0.02342349
#
# Stress axis : x y z
#
# Youngs Moduli (GPa) = 103.22784 37.41770 79.62383
#
# Poissons Ratio (x) = 0.24426 0.21316
# Poissons Ratio (y) = 0.67386 0.28418
# Poissons Ratio (z) = 0.27636 0.13355
#
# Static dielectric constant tensor:
#      x y z
#    x 4.119690 0.000000 0.190020 
#    y 0.000000 3.400890 0.000000 
#    z 0.190020 0.000000 4.056360 
# 
# 
# High freq. dielectric constant tensor:
#      x y z
#    x 1.831330 0.000000 0.001560 
#    y 0.000000 1.792170 0.000000 
#    z 0.001560 0.000000 1.817130 
# 
# From -- ./inp_files/54493.got.cif
#   From: 2010.06.25/outbox.cif.g09.slc.cpg/sg11_28_cif.got.tgz:54493.got - 2010.06.27 23:14:04.
