data_PCOD8074070
_publ_section_title
;
Structure prediction by ZEFSAII (Michael W. Deem and Ramdas Pophale) SiO2 
 PCOD8074070
Probable space group: P 21/M
;
_chemical_formula_sum "Si O2"
_cell_formula_units_Z 28
_cell_length_a 9.504918
_cell_length_b 8.627742
_cell_length_c 18.359861
_cell_angle_alpha 90.000000
_cell_angle_beta 98.194749
_cell_angle_gamma 90.000000
_cell_volume 1490.244978
_symmetry_space_group_name_H-M "P 21/M"
_symmetry_group_IT_number 11
_symmetry_cell_setting 'monoclinic'
loop_
_space_group_symop_operation_xyz
x,y,z
-x,1/2+y,-z
-x,-y,-z
x,1/2-y,z
loop_
_atom_site_type_symbol
_atom_site_label
_atom_site_fract_x
_atom_site_fract_y
_atom_site_fract_z
Si Si1 0.206021 0.926160 0.060311
Si Si2 0.056631 0.932876 0.429726
Si Si3 0.509846 0.930289 0.920743
Si Si4 0.935062 0.427439 0.101371
Si Si5 0.208224 0.933289 0.650598
Si Si6 0.271367 0.431991 0.805002
Si Si7 0.348150 0.931301 0.509592
O O1 0.252568 0.750000 0.079012
O O2 0.329058 0.043629 0.094116
O O3 0.177015 0.950524 0.972298
O O4 0.068979 0.963143 0.098093
O O5 0.032833 0.750000 0.425032
O O6 0.226653 0.971827 0.439403
O O7 0.000000 0.000000 0.500000
O O8 0.958556 0.012857 0.360860
O O9 0.468014 0.750000 0.917724
O O10 0.412637 0.023117 0.858021
O O11 0.500000 0.000000 0.000000
O O12 0.985332 0.250000 0.109921
O O13 0.863238 0.479464 0.170823
O O14 0.213484 0.750000 0.659765
O O15 0.291580 0.989843 0.584142
O O16 0.288480 0.014409 0.723199
O O17 0.245864 0.250000 0.808356
O O18 0.369980 0.750000 0.515635
O O19 0.500000 0.000000 0.500000
#
# Coordination Sequence:
#
# PCOD8074070 Si02
#       7
#     4   4   4   4   4   4   4
#     4  10  20  35  56  81 109 140 182 233 284 337
#     4   9  17  32  54  82 111 144 185 225 269 324
#     4  12  23  37  57  82 112 149 193 241 291 347
#     4  10  20  35  56  80 109 143 180 229 285 339
#     4  10  21  38  57  82 114 149 190 235 284 340
#     4  12  24  38  58  83 113 150 192 240 293 347
#     4   9  19  34  57  87 118 149 184 227 273 328
#
# _framework density 18.788855999999999
#
# number of rings (size 3 to 8) (size 9 to 14) (size 15 to 20)
#    0.000    1.714    1.429    5.143    0.000    4.571 
#    0.000    1.429    0.000    3.429    0.000    0.000 
#    0.000    0.000    0.000    0.000    0.000    0.000 
#
# Total GULP energy -347140.034671 kJ/mol
# GULP energy per Si atom -12397.858381 kJ/mol
# Density = 1.874609 g / cm^3
# Si number density = 18.788856 Si / 1000 Ang^3
#
#
#
# Elastic Constant Matrix: (Units=GPa)
#
#
# Indices 1 2 3 4 5 6 
#
# 1 103.8081 30.4532 44.8719 0.0000 8.2074 0.0000
# 2 30.4532 70.7991 23.6972 0.0000 2.8654 0.0000
# 3 44.8719 23.6972 93.2349 0.0000 11.1290 0.0000
# 4 0.0000 0.0000 0.0000 30.0492 0.0000 1.8998
# 5 8.2074 2.8654 11.1290 0.0000 25.1488 0.0000
# 6 0.0000 0.0000 0.0000 1.8998 0.0000 37.2072
#
#
#
# Elastic Compliance Matrix: (Units=1/GPa)
#
#
# Indices 1 2 3 4 5 6 
#
# 1 0.013111 -0.003855 -0.005144 0.000000 -0.001563 0.000000
# 2 -0.003855 0.016571 -0.002409 0.000000 0.000436 0.000000
# 3 -0.005144 -0.002409 0.014338 0.000000 -0.004392 0.000000
# 4 0.000000 0.000000 0.000000 0.033387 0.000000 -0.001705
# 5 -0.001563 0.000436 -0.004392 0.000000 0.042167 0.000000
# 6 0.000000 0.000000 0.000000 -0.001705 0.000000 0.026964
#
#
# Mechanical properties :
#
#
# Convention : Reuss Voigt Hill
#
# Bulk Modulus (GPa) = 47.15729 51.76519 49.46124
# Shear Modulus (GPa) = 28.34154 29.73569 29.03861
#
# Velocity S-wave (km/s) = 3.88806 3.98254 3.93558
# Velocity P-wave (km/s) = 6.73120 6.98271 6.85811
#
# Compressibility (1/GPa) = 0.02120563
#
# Stress axis : x y z
#
# Youngs Moduli (GPa) = 76.27219 60.34623 69.74684
#
# Poissons Ratio (x) = 0.23261 0.35876
# Poissons Ratio (y) = 0.29400 0.16800
# Poissons Ratio (z) = 0.39232 0.14536
#
# Static dielectric constant tensor:
#      x y z
#    x 3.783970 0.000000 0.242740 
#    y 0.000000 3.608750 0.000000 
#    z 0.242740 0.000000 3.355780 
# 
# 
# High freq. dielectric constant tensor:
#      x y z
#    x 1.733730 0.000000 0.012850 
#    y 0.000000 1.742300 0.000000 
#    z 0.012850 0.000000 1.703920 
# 
# From -- ./inp_files/57544.got.cif
#   From: 2010.06.25/outbox.cif.g09.slc.cpg/sg11_29_cif.got.tgz:57544.got - 2010.06.27 23:14:04.
