data_PCOD8074791
_publ_section_title
;
Structure prediction by ZEFSAII (Michael W. Deem and Ramdas Pophale) SiO2 
 PCOD8074791
Probable space group: P 21/M
;
_chemical_formula_sum "Si O2"
_cell_formula_units_Z 28
_cell_length_a 27.367493
_cell_length_b 8.622223
_cell_length_c 9.797196
_cell_angle_alpha 90.000000
_cell_angle_beta 141.924961
_cell_angle_gamma 90.000000
_cell_volume 1425.689900
_symmetry_space_group_name_H-M "P 21/M"
_symmetry_group_IT_number 11
_symmetry_cell_setting 'monoclinic'
loop_
_space_group_symop_operation_xyz
x,y,z
-x,1/2+y,-z
-x,-y,-z
x,1/2-y,z
loop_
_atom_site_type_symbol
_atom_site_label
_atom_site_fract_x
_atom_site_fract_y
_atom_site_fract_z
Si Si1 0.352219 0.066749 0.463588
Si Si2 0.508667 0.932349 0.870323
Si Si3 0.679125 0.567884 0.299520
Si Si4 0.771109 0.431347 0.013685
Si Si5 0.979282 0.067488 0.809418
Si Si6 0.190575 0.433163 0.620455
Si Si7 0.938930 0.431977 0.259010
O O1 0.340980 0.250000 0.425242
O O2 0.326532 0.002528 0.557777
O O3 0.444204 0.021305 0.635329
O O4 0.301932 0.979447 0.239930
O O5 0.490746 0.750000 0.827681
O O6 0.600555 0.968679 0.034806
O O7 0.500000 0.000000 0.000000
O O8 0.687110 0.750000 0.332904
O O9 0.755372 0.503100 0.386015
O O10 0.767936 0.250000 0.040217
O O11 0.766269 0.525797 0.143626
O O12 0.850823 0.476260 0.109391
O O13 0.982209 0.250000 0.822593
O O14 0.893553 0.016318 0.568823
O O15 0.046917 0.008330 0.856404
O O16 0.000000 0.000000 0.000000
O O17 0.178013 0.250000 0.582035
O O18 0.952592 0.250000 0.278794
O O19 0.000000 0.500000 0.500000
#
# Coordination Sequence:
#
# PCOD8074791 Si02
#       7
#     4   4   4   4   4   4   4
#     4  10  20  36  59  88 117 151 195 242 289 344
#     4   9  16  32  56  84 117 151 189 237 289 346
#     4   8  18  35  58  87 116 148 189 237 291 346
#     4  11  24  40  58  86 119 154 195 241 290 350
#     4  12  26  43  62  88 120 155 198 246 295 349
#     4  11  22  40  62  86 117 155 194 240 297 352
#     4  11  23  41  64  88 117 155 198 242 295 352
#
# _framework density 19.639614999999999
#
# number of rings (size 3 to 8) (size 9 to 14) (size 15 to 20)
#    0.000    1.714    1.429    4.286    2.000    1.714 
#    0.000    8.571    0.000    0.000    0.000    0.000 
#    0.000    0.000    0.000    0.000    0.000    0.000 
#
# Total GULP energy -347156.211063 kJ/mol
# GULP energy per Si atom -12398.436109 kJ/mol
# Density = 1.959491 g / cm^3
# Si number density = 19.639615 Si / 1000 Ang^3
#
#
#
# Elastic Constant Matrix: (Units=GPa)
#
#
# Indices 1 2 3 4 5 6 
#
# 1 55.2533 14.2874 4.4198 0.0000 -11.7300 0.0000
# 2 14.2874 68.5336 5.8356 0.0000 -1.5068 0.0000
# 3 4.4198 5.8356 95.7821 0.0000 -6.9054 0.0000
# 4 0.0000 0.0000 0.0000 36.9165 0.0000 -0.3343
# 5 -11.7300 -1.5068 -6.9054 0.0000 31.1778 0.0000
# 6 0.0000 0.0000 0.0000 -0.3343 0.0000 25.0625
#
#
#
# Elastic Compliance Matrix: (Units=1/GPa)
#
#
# Indices 1 2 3 4 5 6 
#
# 1 0.020797 -0.004155 -0.000159 0.000000 0.007588 0.000000
# 2 -0.004155 0.015506 -0.000825 0.000000 -0.000997 0.000000
# 3 -0.000159 -0.000825 0.010661 0.000000 0.002261 0.000000
# 4 0.000000 0.000000 0.000000 0.027091 0.000000 0.000361
# 5 0.007588 -0.000997 0.002261 0.000000 0.035382 0.000000
# 6 0.000000 0.000000 0.000000 0.000361 0.000000 0.039905
#
#
# Mechanical properties :
#
#
# Convention : Reuss Voigt Hill
#
# Bulk Modulus (GPa) = 27.25927 29.85053 28.55490
# Shear Modulus (GPa) = 29.09536 31.63310 30.36423
#
# Velocity S-wave (km/s) = 3.85315 4.01768 3.93628
# Velocity P-wave (km/s) = 5.80565 6.06255 5.93549
#
# Compressibility (1/GPa) = 0.03668476
#
# Stress axis : x y z
#
# Youngs Moduli (GPa) = 48.08488 64.49140 93.79973
#
# Poissons Ratio (x) = 0.26797 0.01495
# Poissons Ratio (y) = 0.19980 0.07737
# Poissons Ratio (z) = 0.00767 0.05319
#
# Static dielectric constant tensor:
#      x y z
#    x 3.815260 0.000000 0.072430 
#    y 0.000000 3.692910 0.000000 
#    z 0.072430 0.000000 3.625010 
# 
# 
# High freq. dielectric constant tensor:
#      x y z
#    x 1.758960 0.000000 0.010480 
#    y 0.000000 1.766600 0.000000 
#    z 0.010480 0.000000 1.772410 
# 
# From -- ./inp_files/28542.got.cif
#   From: 2010.06.25/outbox.cif.g09.slc.cpg/sg11_15_cif.got.tgz:28542.got - 2010.06.27 23:14:04.
