data_PCOD8074813
_publ_section_title
;
Structure prediction by ZEFSAII (Michael W. Deem and Ramdas Pophale) SiO2 
 PCOD8074813
Probable space group: P 21/M
;
_chemical_formula_sum "Si O2"
_cell_formula_units_Z 28
_cell_length_a 5.352219
_cell_length_b 9.406176
_cell_length_c 25.515392
_cell_angle_alpha 90.000000
_cell_angle_beta 72.748110
_cell_angle_gamma 90.000000
_cell_volume 1226.753240
_symmetry_space_group_name_H-M "P 21/M"
_symmetry_group_IT_number 11
_symmetry_cell_setting 'monoclinic'
loop_
_space_group_symop_operation_xyz
x,y,z
-x,1/2+y,-z
-x,-y,-z
x,1/2-y,z
loop_
_atom_site_type_symbol
_atom_site_label
_atom_site_fract_x
_atom_site_fract_y
_atom_site_fract_z
Si Si1 0.085855 0.096549 0.321773
Si Si2 0.275674 0.917596 0.480918
Si Si3 0.335373 0.584192 0.121763
Si Si4 0.979762 0.405462 0.209898
Si Si5 0.073977 0.084560 0.944070
Si Si6 0.562689 0.595205 0.266977
Si Si7 0.315736 0.098577 0.624373
O O1 0.182015 0.250000 0.337668
O O2 0.963651 0.122323 0.272449
O O3 0.310308 0.984786 0.301328
O O4 0.877225 0.033081 0.377065
O O5 0.243938 0.750000 0.499070
O O6 0.388829 0.929800 0.414267
O O7 0.500000 0.000000 0.500000
O O8 0.000000 0.000000 0.500000
O O9 0.313059 0.750000 0.137555
O O10 0.243616 0.488775 0.176813
O O11 0.631917 0.540661 0.090370
O O12 0.136612 0.544294 0.087196
O O13 0.959959 0.250000 0.183013
O O14 0.728883 0.506457 0.213210
O O15 0.061422 0.250000 0.958422
O O16 0.000000 0.000000 0.000000
O O17 0.500392 0.750000 0.245501
O O18 0.717528 0.617687 0.311283
O O19 0.220864 0.250000 0.604893
#
# Coordination Sequence:
#
# PCOD8074813 Si02
#       7
#     4   4   4   4   4   4   4
#     4  10  21  36  57  87 121 154 197 253 305 362
#     4  11  25  45  68  97 132 170 217 273 330 393
#     4  10  22  39  60  89 121 158 201 249 300 362
#     4  10  22  38  55  84 121 156 199 249 303 361
#     4  10  22  40  62  88 119 154 202 252 302 358
#     4  10  20  36  60  85 115 158 201 246 302 368
#     4   9  21  40  60  84 116 159 207 251 307 377
#
# _framework density 22.824476000000001
#
# number of rings (size 3 to 8) (size 9 to 14) (size 15 to 20)
#    0.000    2.000    0.000    2.143    4.000    4.571 
#    0.000    0.000    0.000    0.000    0.000    0.000 
#    0.000    0.000    0.000    0.000    0.000    0.000 
#
# Total GULP energy -346869.281087 kJ/mol
# GULP energy per Si atom -12388.188610 kJ/mol
# Density = 2.277253 g / cm^3
# Si number density = 22.824476 Si / 1000 Ang^3
#
#
#
# Elastic Constant Matrix: (Units=GPa)
#
#
# Indices 1 2 3 4 5 6 
#
# 1 107.6322 52.3362 26.0721 0.0000 -33.9057 0.0000
# 2 52.3362 190.8050 50.2247 0.0000 -42.2481 0.0000
# 3 26.0721 50.2247 87.8949 0.0000 -36.8892 0.0000
# 4 0.0000 0.0000 0.0000 31.6134 0.0000 -11.0677
# 5 -33.9057 -42.2481 -36.8892 0.0000 41.7702 0.0000
# 6 0.0000 0.0000 0.0000 -11.0677 0.0000 31.1380
#
#
#
# Elastic Compliance Matrix: (Units=1/GPa)
#
#
# Indices 1 2 3 4 5 6 
#
# 1 0.012926 -0.001688 0.001299 0.000000 0.009932 0.000000
# 2 -0.001688 0.007114 -0.001779 0.000000 0.004254 0.000000
# 3 0.001299 -0.001779 0.018584 0.000000 0.015667 0.000000
# 4 0.000000 0.000000 0.000000 0.036128 0.000000 0.012841
# 5 0.009932 0.004254 0.015667 0.000000 0.050142 0.000000
# 6 0.000000 0.000000 0.000000 0.012841 0.000000 0.036679
#
#
# Mechanical properties :
#
#
# Convention : Reuss Voigt Hill
#
# Bulk Modulus (GPa) = 29.16537 71.51091 50.33814
# Shear Modulus (GPa) = 28.19460 38.08426 33.13943
#
# Velocity S-wave (km/s) = 3.51847 4.08925 3.81455
# Velocity P-wave (km/s) = 5.41406 7.32767 6.44231
#
# Compressibility (1/GPa) = 0.03428724
#
# Stress axis : x y z
#
# Youngs Moduli (GPa) = 77.36479 140.56277 53.80958
#
# Poissons Ratio (x) = 0.23731 -0.06989
# Poissons Ratio (y) = 0.13061 0.09573
# Poissons Ratio (z) = -0.10048 0.25006
#
# Static dielectric constant tensor:
#      x y z
#    x 4.101020 0.000000 -0.056670 
#    y 0.000000 4.871560 0.000000 
#    z -0.056670 0.000000 4.161730 
# 
# 
# High freq. dielectric constant tensor:
#      x y z
#    x 1.885080 0.000000 -0.021170 
#    y 0.000000 1.920420 0.000000 
#    z -0.021170 0.000000 1.891740 
# 
# From -- ./inp_files/9701.got.cif
#   From: 2010.06.25/outbox.cif.g09.slc.cpg/sg11_5_cif.got.tgz:9701.got - 2010.06.27 23:14:04.
