data_PCOD8074798
_publ_section_title
;
Structure prediction by ZEFSAII (Michael W. Deem and Ramdas Pophale) SiO2 
 PCOD8074798
Probable space group: P 21/M
;
_chemical_formula_sum "Si O2"
_cell_formula_units_Z 24
_cell_length_a 12.332201
_cell_length_b 10.318447
_cell_length_c 8.736513
_cell_angle_alpha 90.000000
_cell_angle_beta 92.697153
_cell_angle_gamma 90.000000
_cell_volume 1110.482421
_symmetry_space_group_name_H-M "P 21/M"
_symmetry_group_IT_number 11
_symmetry_cell_setting 'monoclinic'
loop_
_space_group_symop_operation_xyz
x,y,z
-x,1/2+y,-z
-x,-y,-z
x,1/2-y,z
loop_
_atom_site_type_symbol
_atom_site_label
_atom_site_fract_x
_atom_site_fract_y
_atom_site_fract_z
Si Si1 0.512720 0.602958 0.136498
Si Si2 0.909014 0.892753 0.509588
Si Si3 0.141787 0.606337 0.925771
Si Si4 0.278678 0.000430 0.678325
Si Si5 0.893779 0.605931 0.846686
Si Si6 0.416832 0.895787 0.435565
O O1 0.515834 0.750000 0.069670
O O2 0.621646 0.578399 0.241481
O O3 0.410992 0.588913 0.249200
O O4 0.500000 0.500000 0.000000
O O5 0.963309 0.750000 0.499641
O O6 0.851060 0.906735 0.670997
O O7 0.817419 0.901328 0.372968
O O8 0.000000 0.000000 0.500000
O O9 0.147809 0.750000 0.999264
O O10 0.231751 0.599753 0.799363
O O11 0.022781 0.578380 0.850103
O O12 0.169216 0.499135 0.055647
O O13 0.306951 0.921995 0.523664
O O14 0.869599 0.750000 0.910978
O O15 0.457322 0.750000 0.475423
O O16 0.500000 0.000000 0.500000
#
# Coordination Sequence:
#
# PCOD8074798 Si02
#       6
#     4   4   4   4   4   4
#     4  10  23  43  65  94 126 160 205 256 316 377
#     4  11  23  40  62  91 126 165 209 258 306 366
#     4  10  20  36  59  88 121 162 210 253 300 361
#     4  11  22  39  65  95 124 163 209 259 314 369
#     4   9  20  38  56  83 123 164 207 254 302 355
#     4   9  20  39  64  92 124 158 202 258 314 374
#
# _framework density 21.612228999999999
#
# number of rings (size 3 to 8) (size 9 to 14) (size 15 to 20)
#    0.000    2.000    1.667    1.000    0.000    8.000 
#    0.000    3.333    0.000    0.000    0.000    0.000 
#    0.000    0.000    0.000    0.000    0.000    0.000 
#
# Total GULP energy -297440.273382 kJ/mol
# GULP energy per Si atom -12393.344724 kJ/mol
# Density = 2.156304 g / cm^3
# Si number density = 21.612229 Si / 1000 Ang^3
#
#
#
# Elastic Constant Matrix: (Units=GPa)
#
#
# Indices 1 2 3 4 5 6 
#
# 1 66.2952 39.4850 42.8464 0.0000 -11.5442 0.0000
# 2 39.4850 183.8594 86.0249 0.0000 -13.3964 0.0000
# 3 42.8464 86.0249 120.1256 0.0000 -15.2530 0.0000
# 4 0.0000 0.0000 0.0000 36.1330 0.0000 -3.7010
# 5 -11.5442 -13.3964 -15.2530 0.0000 42.7634 0.0000
# 6 0.0000 0.0000 0.0000 -3.7010 0.0000 19.5986
#
#
#
# Elastic Compliance Matrix: (Units=1/GPa)
#
#
# Indices 1 2 3 4 5 6 
#
# 1 0.020195 -0.001395 -0.005832 0.000000 0.002935 0.000000
# 2 -0.001395 0.008286 -0.005399 0.000000 0.000293 0.000000
# 3 -0.005832 -0.005399 0.014514 0.000000 0.001911 0.000000
# 4 0.000000 0.000000 0.000000 0.028221 0.000000 0.005329
# 5 0.002935 0.000293 0.001911 0.000000 0.024950 0.000000
# 6 0.000000 0.000000 0.000000 0.005329 0.000000 0.052030
#
#
# Mechanical properties :
#
#
# Convention : Reuss Voigt Hill
#
# Bulk Modulus (GPa) = 56.35813 78.55476 67.45645
# Shear Modulus (GPa) = 27.87658 33.16060 30.51859
#
# Velocity S-wave (km/s) = 3.59535 3.92132 3.76187
# Velocity P-wave (km/s) = 6.58551 7.54511 7.08158
#
# Compressibility (1/GPa) = 0.01774367
#
# Stress axis : x y z
#
# Youngs Moduli (GPa) = 49.51795 120.68595 68.90001
#
# Poissons Ratio (x) = 0.16830 0.40181
# Poissons Ratio (y) = 0.06905 0.37200
# Poissons Ratio (z) = 0.28878 0.65160
#
# Static dielectric constant tensor:
#      x y z
#    x 3.783020 0.000000 -0.323350 
#    y 0.000000 3.952090 0.000000 
#    z -0.323350 0.000000 4.131070 
# 
# 
# High freq. dielectric constant tensor:
#      x y z
#    x 1.821180 0.000000 -0.014740 
#    y 0.000000 1.858880 0.000000 
#    z -0.014740 0.000000 1.850870 
# 
# From -- ./inp_files/16930.got.cif
#   From: 2010.06.25/outbox.cif.g09.slc.cpg/sg11_9_cif.got.tgz:16930.got - 2010.06.27 23:14:04.
