data_PCOD8074457
_publ_section_title
;
Structure prediction by ZEFSAII (Michael W. Deem and Ramdas Pophale) SiO2 
 PCOD8074457
Probable space group: P 21/M
;
_chemical_formula_sum "Si O2"
_cell_formula_units_Z 24
_cell_length_a 14.330731
_cell_length_b 9.659516
_cell_length_c 9.737942
_cell_angle_alpha 90.000000
_cell_angle_beta 100.440409
_cell_angle_gamma 90.000000
_cell_volume 1325.685450
_symmetry_space_group_name_H-M "P 21/M"
_symmetry_group_IT_number 11
_symmetry_cell_setting 'monoclinic'
loop_
_space_group_symop_operation_xyz
x,y,z
-x,1/2+y,-z
-x,-y,-z
x,1/2-y,z
loop_
_atom_site_type_symbol
_atom_site_label
_atom_site_fract_x
_atom_site_fract_y
_atom_site_fract_z
Si Si1 0.260913 0.588183 0.222823
Si Si2 0.769780 0.590159 0.047389
Si Si3 0.906415 0.590828 0.324824
Si Si4 0.432690 0.408530 0.889774
Si Si5 0.121812 0.590121 0.429064
Si Si6 0.528330 0.409627 0.636318
O O1 0.251499 0.750000 0.186042
O O2 0.198534 0.546159 0.337014
O O3 0.368938 0.545064 0.280475
O O4 0.221678 0.504009 0.083657
O O5 0.770069 0.750000 0.001307
O O6 0.859412 0.554522 0.166770
O O7 0.675836 0.554379 0.109022
O O8 0.887329 0.750000 0.359103
O O9 0.858534 0.499007 0.430232
O O10 0.017782 0.558290 0.340541
O O11 0.456669 0.250000 0.931562
O O12 0.451528 0.437794 0.734554
O O13 0.500000 0.500000 0.000000
O O14 0.132552 0.750000 0.472947
O O15 0.500000 0.500000 0.500000
O O16 0.529976 0.250000 0.590670
#
# Coordination Sequence:
#
# PCOD8074457 Si02
#       6
#     4   4   4   4   4   4
#     4  10  21  37  54  77 108 139 173 216 260 307
#     4  10  21  35  54  80 106 137 176 215 258 308
#     4   9  19  36  56  79 106 136 173 216 260 309
#     4  10  20  36  55  76 105 139 174 213 256 306
#     4   9  19  36  56  78 106 138 173 214 260 310
#     4  10  22  37  53  77 107 138 174 215 259 306
#
# _framework density 18.103840999999999
#
# number of rings (size 3 to 8) (size 9 to 14) (size 15 to 20)
#    0.000    2.333    1.667    0.000    2.333    3.333 
#    0.000    0.000    0.000    0.000    0.000    0.000 
#    0.000    0.000    0.000    0.000    0.000    0.000 
#
# Total GULP energy -297693.856106 kJ/mol
# GULP energy per Si atom -12403.910671 kJ/mol
# Density = 1.806264 g / cm^3
# Si number density = 18.103841 Si / 1000 Ang^3
#
#
#
# Elastic Constant Matrix: (Units=GPa)
#
#
# Indices 1 2 3 4 5 6 
#
# 1 48.6521 19.7271 18.0679 0.0000 -9.0524 0.0000
# 2 19.7271 60.9482 54.5271 0.0000 0.4271 0.0000
# 3 18.0679 54.5271 100.6942 0.0000 2.3338 0.0000
# 4 0.0000 0.0000 0.0000 43.5991 0.0000 -0.2956
# 5 -9.0524 0.4271 2.3338 0.0000 32.2719 0.0000
# 6 0.0000 0.0000 0.0000 -0.2956 0.0000 23.5488
#
#
#
# Elastic Compliance Matrix: (Units=1/GPa)
#
#
# Indices 1 2 3 4 5 6 
#
# 1 0.025233 -0.007793 -0.000475 0.000000 0.007215 0.000000
# 2 -0.007793 0.034254 -0.017118 0.000000 -0.001401 0.000000
# 3 -0.000475 -0.017118 0.019316 0.000000 -0.001304 0.000000
# 4 0.000000 0.000000 0.000000 0.022938 0.000000 0.000288
# 5 0.007215 -0.001401 -0.001304 0.000000 0.033123 0.000000
# 6 0.000000 0.000000 0.000000 0.000288 0.000000 0.042469
#
#
# Mechanical properties :
#
#
# Convention : Reuss Voigt Hill
#
# Bulk Modulus (GPa) = 35.67445 43.88208 39.77826
# Shear Modulus (GPa) = 21.05709 27.74880 24.40295
#
# Velocity S-wave (km/s) = 3.41417 3.91929 3.67542
# Velocity P-wave (km/s) = 5.94056 6.69125 6.32705
#
# Compressibility (1/GPa) = 0.02803127
#
# Stress axis : x y z
#
# Youngs Moduli (GPa) = 39.63102 29.19331 51.76965
#
# Poissons Ratio (x) = 0.22749 0.02459
# Poissons Ratio (y) = 0.30883 0.88622
# Poissons Ratio (z) = 0.01882 0.49974
#
# Static dielectric constant tensor:
#      x y z
#    x 3.586370 0.000000 -0.010550 
#    y 0.000000 3.349640 0.000000 
#    z -0.010550 0.000000 3.249570 
# 
# 
# High freq. dielectric constant tensor:
#      x y z
#    x 1.709050 0.000000 -0.002260 
#    y 0.000000 1.699590 0.000000 
#    z -0.002260 0.000000 1.699020 
# 
# From -- ./inp_files/20426.got.cif
#   From: 2010.06.25/outbox.cif.g09.slc.cpg/sg11_11_cif.got.tgz:20426.got - 2010.06.27 23:14:04.
