data_PCOD8074349
_publ_section_title
;
Structure prediction by ZEFSAII (Michael W. Deem and Ramdas Pophale) SiO2 
 PCOD8074349
Probable space group: P 21/M
;
_chemical_formula_sum "Si O2"
_cell_formula_units_Z 32
_cell_length_a 6.513574
_cell_length_b 14.545722
_cell_length_c 16.641866
_cell_angle_alpha 90.000000
_cell_angle_beta 97.041147
_cell_angle_gamma 90.000000
_cell_volume 1564.836459
_symmetry_space_group_name_H-M "P 21/M"
_symmetry_group_IT_number 11
_symmetry_cell_setting 'monoclinic'
loop_
_space_group_symop_operation_xyz
x,y,z
-x,1/2+y,-z
-x,-y,-z
x,1/2-y,z
loop_
_atom_site_type_symbol
_atom_site_label
_atom_site_fract_x
_atom_site_fract_y
_atom_site_fract_z
Si Si1 0.664971 0.961521 0.783194
Si Si2 0.013663 0.357971 0.103028
Si Si3 0.132668 0.649241 0.221562
Si Si4 0.178988 0.562013 0.473440
Si Si5 0.465409 0.516840 0.617745
Si Si6 0.149550 0.149603 0.932167
Si Si7 0.148660 0.352927 0.644624
Si Si8 0.621940 0.021498 0.085309
O O1 0.537627 0.925214 0.699729
O O2 0.525540 0.944484 0.852765
O O3 0.875851 0.907025 0.815048
O O4 0.700309 0.068659 0.762583
O O5 0.003111 0.250000 0.119616
O O6 0.785177 0.397150 0.081544
O O7 0.127146 0.379816 0.024119
O O8 0.227792 0.750000 0.248658
O O9 0.069240 0.652222 0.124389
O O10 0.933915 0.629208 0.268851
O O11 0.330820 0.587240 0.555758
O O12 0.322072 0.510045 0.415887
O O13 0.000000 0.500000 0.500000
O O14 0.055668 0.643745 0.423369
O O15 0.326144 0.426725 0.631704
O O16 0.257028 0.250000 0.932839
O O17 0.276603 0.075635 0.887292
O O18 0.241891 0.250000 0.640847
O O19 0.500000 0.000000 0.000000
#
# Coordination Sequence:
#
# PCOD8074349 Si02
#       8
#     4   4   4   4   4   4   4   4
#     4  12  23  38  65  88 125 164 206 251 307 364
#     4  11  25  43  60  82 121 164 210 262 308 352
#     4  10  20  35  58  90 125 159 196 245 308 371
#     4   9  19  38  60  86 120 154 198 244 303 358
#     4  10  21  35  61  93 115 157 207 248 294 365
#     4  10  20  38  59  84 120 157 198 254 307 362
#     4  10  20  36  59  91 130 161 191 243 312 373
#     4  12  23  37  64  91 118 158 211 251 304 364
#
# _framework density 20.449421999999998
#
# number of rings (size 3 to 8) (size 9 to 14) (size 15 to 20)
#    0.000    1.500    3.750    1.875    0.000    2.500 
#    0.000    0.625    0.000    7.500    0.000    0.000 
#    0.000    0.000    0.000    0.000    0.000    0.000 
#
# Total GULP energy -396449.295126 kJ/mol
# GULP energy per Si atom -12389.040473 kJ/mol
# Density = 2.040288 g / cm^3
# Si number density = 20.449422 Si / 1000 Ang^3
#
#
#
# Elastic Constant Matrix: (Units=GPa)
#
#
# Indices 1 2 3 4 5 6 
#
# 1 84.0597 27.6875 38.7513 0.0000 9.9492 0.0000
# 2 27.6875 80.9342 21.2779 0.0000 3.5572 0.0000
# 3 38.7513 21.2779 134.7661 0.0000 25.1488 0.0000
# 4 0.0000 0.0000 0.0000 19.8442 0.0000 -0.0977
# 5 9.9492 3.5572 25.1488 0.0000 35.6504 0.0000
# 6 0.0000 0.0000 0.0000 -0.0977 0.0000 17.7185
#
#
#
# Elastic Compliance Matrix: (Units=1/GPa)
#
#
# Indices 1 2 3 4 5 6 
#
# 1 0.015001 -0.004178 -0.003398 0.000000 -0.001373 0.000000
# 2 -0.004178 0.014056 -0.001121 0.000000 0.000555 0.000000
# 3 -0.003398 -0.001121 0.009646 0.000000 -0.005745 0.000000
# 4 0.000000 0.000000 0.000000 0.050394 0.000000 0.000278
# 5 -0.001373 0.000555 -0.005745 0.000000 0.032430 0.000000
# 6 0.000000 0.000000 0.000000 0.000278 0.000000 0.056440
#
#
# Mechanical properties :
#
#
# Convention : Reuss Voigt Hill
#
# Bulk Modulus (GPa) = 46.92919 52.79925 49.86422
# Shear Modulus (GPa) = 24.69568 28.77884 26.73726
#
# Velocity S-wave (km/s) = 3.47889 3.75549 3.61984
# Velocity P-wave (km/s) = 6.25585 6.68434 6.47364
#
# Compressibility (1/GPa) = 0.02130870
#
# Stress axis : x y z
#
# Youngs Moduli (GPa) = 66.66057 71.14640 103.66669
#
# Poissons Ratio (x) = 0.29727 0.35223
# Poissons Ratio (y) = 0.27853 0.11623
# Poissons Ratio (z) = 0.22649 0.07977
#
# Static dielectric constant tensor:
#      x y z
#    x 4.034860 0.000000 0.457420 
#    y 0.000000 4.435960 0.000000 
#    z 0.457420 0.000000 4.186120 
# 
# 
# High freq. dielectric constant tensor:
#      x y z
#    x 1.797650 0.000000 0.010800 
#    y 0.000000 1.771810 0.000000 
#    z 0.010800 0.000000 1.813860 
# 
# From -- ./inp_files/57072.got.cif
#   From: 2010.06.25/outbox.cif.g09.slc.cpg/sg11_29_cif.got.tgz:57072.got - 2010.06.27 23:14:04.
