data_PCOD8074991
_publ_section_title
;
Structure prediction by ZEFSAII (Michael W. Deem and Ramdas Pophale) SiO2 
 PCOD8074991
Probable space group: P 21/M
;
_chemical_formula_sum "Si O2"
_cell_formula_units_Z 32
_cell_length_a 31.860138
_cell_length_b 9.155144
_cell_length_c 12.165760
_cell_angle_alpha 90.000000
_cell_angle_beta 28.395068
_cell_angle_gamma 90.000000
_cell_volume 1687.512046
_symmetry_space_group_name_H-M "P 21/M"
_symmetry_group_IT_number 11
_symmetry_cell_setting 'monoclinic'
loop_
_space_group_symop_operation_xyz
x,y,z
-x,1/2+y,-z
-x,-y,-z
x,1/2-y,z
loop_
_atom_site_type_symbol
_atom_site_label
_atom_site_fract_x
_atom_site_fract_y
_atom_site_fract_z
Si Si1 0.351148 0.077844 0.525581
Si Si2 0.027526 0.420365 0.771889
Si Si3 0.060761 0.422976 0.448815
Si Si4 0.313521 0.580887 0.389905
Si Si5 0.131481 0.920693 0.707990
Si Si6 0.550644 0.419928 0.109549
Si Si7 0.583533 0.924258 0.251687
Si Si8 0.741211 0.922830 0.043504
O O1 0.345557 0.250000 0.523851
O O2 0.450536 0.029666 0.323326
O O3 0.289532 0.020224 0.766256
O O4 0.317503 0.007020 0.492330
O O5 0.046952 0.250000 0.736740
O O6 0.025153 0.468900 0.650651
O O7 0.107326 0.499629 0.650542
O O8 0.934957 0.464963 0.040594
O O9 0.056061 0.250000 0.441096
O O10 0.000000 0.500000 0.500000
O O11 0.160965 0.482362 0.206783
O O12 0.304435 0.750000 0.441518
O O13 0.228400 0.527194 0.518713
O O14 0.399499 0.549603 0.119128
O O15 0.127511 0.750000 0.693209
O O16 0.557400 0.250000 0.128472
O O17 0.593923 0.519502 0.103657
O O18 0.571215 0.750000 0.283885
O O19 0.671878 0.975767 0.111253
O O20 0.500000 0.000000 0.500000
O O21 0.741881 0.750000 0.042185
#
# Coordination Sequence:
#
# PCOD8074991 Si02
#       8
#     4   4   4   4   4   4   4   4
#     4  10  20  37  57  76 109 150 186 224 271 336
#     4   9  19  36  57  78 107 142 180 224 270 330
#     4  10  22  39  59  84 114 147 185 231 281 333
#     4  10  22  36  55  82 113 143 181 236 281 320
#     4   9  19  36  55  79 109 141 177 227 283 324
#     4  10  21  38  56  80 116 149 183 230 280 327
#     4  11  21  37  61  86 115 151 190 233 280 336
#     4   9  20  38  57  81 114 149 183 228 283 334
#
# _framework density 18.96283
#
# number of rings (size 3 to 8) (size 9 to 14) (size 15 to 20)
#    0.000    2.250    1.250    0.750    3.500    2.000 
#    0.000    1.250    0.000    0.000    0.000    0.000 
#    0.000    0.000    0.000    0.000    0.000    0.000 
#
# Total GULP energy -396876.595138 kJ/mol
# GULP energy per Si atom -12402.393598 kJ/mol
# Density = 1.891967 g / cm^3
# Si number density = 18.962830 Si / 1000 Ang^3
#
#
#
# Elastic Constant Matrix: (Units=GPa)
#
#
# Indices 1 2 3 4 5 6 
#
# 1 141.7628 44.2793 48.0585 0.0000 1.6400 0.0000
# 2 44.2793 39.2439 23.1042 0.0000 -0.8955 0.0000
# 3 48.0585 23.1042 92.2092 0.0000 -7.2184 0.0000
# 4 0.0000 0.0000 0.0000 20.3535 0.0000 1.2459
# 5 1.6400 -0.8955 -7.2184 0.0000 32.9793 0.0000
# 6 0.0000 0.0000 0.0000 1.2459 0.0000 40.3545
#
#
#
# Elastic Compliance Matrix: (Units=1/GPa)
#
#
# Indices 1 2 3 4 5 6 
#
# 1 0.011762 -0.011289 -0.003430 0.000000 -0.001642 0.000000
# 2 -0.011289 0.040750 -0.004269 0.000000 0.000733 0.000000
# 3 -0.003430 -0.004269 0.013946 0.000000 0.003107 0.000000
# 4 0.000000 0.000000 0.000000 0.049225 0.000000 -0.001520
# 5 -0.001642 0.000733 0.003107 0.000000 0.031104 0.000000
# 6 0.000000 0.000000 0.000000 -0.001520 0.000000 0.024827
#
#
# Mechanical properties :
#
#
# Convention : Reuss Voigt Hill
#
# Bulk Modulus (GPa) = 35.11209 56.01110 45.56160
# Shear Modulus (GPa) = 22.82239 29.25573 26.03906
#
# Velocity S-wave (km/s) = 3.47296 3.93210 3.70964
# Velocity P-wave (km/s) = 5.88544 7.08637 6.51364
#
# Compressibility (1/GPa) = 0.02848022
#
# Stress axis : x y z
#
# Youngs Moduli (GPa) = 85.01909 24.54016 71.70752
#
# Poissons Ratio (x) = 0.27704 0.24597
# Poissons Ratio (y) = 0.95981 0.30612
# Poissons Ratio (z) = 0.29163 0.10476
#
# Static dielectric constant tensor:
#      x y z
#    x 3.554610 0.000000 -0.023470 
#    y 0.000000 3.349300 0.000000 
#    z -0.023470 0.000000 3.751360 
# 
# 
# High freq. dielectric constant tensor:
#      x y z
#    x 1.746170 0.000000 0.001650 
#    y 0.000000 1.716320 0.000000 
#    z 0.001650 0.000000 1.747240 
# 
# From -- ./inp_files/45107.got.cif
#   From: 2010.06.25/outbox.cif.g09.slc.cpg/sg11_23_cif.got.tgz:45107.got - 2010.06.27 23:14:04.
