data_PCOD8074338
_publ_section_title
;
Structure prediction by ZEFSAII (Michael W. Deem and Ramdas Pophale) SiO2 
 PCOD8074338
Probable space group: P 21/M
;
_chemical_formula_sum "Si O2"
_cell_formula_units_Z 28
_cell_length_a 15.183537
_cell_length_b 8.675133
_cell_length_c 16.857800
_cell_angle_alpha 90.000000
_cell_angle_beta 37.622034
_cell_angle_gamma 90.000000
_cell_volume 1355.501340
_symmetry_space_group_name_H-M "P 21/M"
_symmetry_group_IT_number 11
_symmetry_cell_setting 'monoclinic'
loop_
_space_group_symop_operation_xyz
x,y,z
-x,1/2+y,-z
-x,-y,-z
x,1/2-y,z
loop_
_atom_site_type_symbol
_atom_site_label
_atom_site_fract_x
_atom_site_fract_y
_atom_site_fract_z
Si Si1 0.841197 0.430110 0.117676
Si Si2 0.593078 0.069459 0.175222
Si Si3 0.341792 0.431389 0.610149
Si Si4 0.520415 0.431620 0.898362
Si Si5 0.068648 0.418051 0.560854
Si Si6 0.814008 0.581975 0.690683
Si Si7 0.675144 0.069889 0.541208
O O1 0.855609 0.250000 0.122834
O O2 0.750448 0.461906 0.101515
O O3 0.758578 0.503214 0.249988
O O4 0.000000 0.500000 0.000000
O O5 0.557112 0.250000 0.197173
O O6 0.590208 0.001367 0.087896
O O7 0.473741 0.990597 0.315863
O O8 0.500000 0.500000 0.500000
O O9 0.349895 0.250000 0.613952
O O10 0.278427 0.479514 0.570890
O O11 0.499921 0.250000 0.913842
O O12 0.680877 0.477063 0.757979
O O13 0.500000 0.500000 0.000000
O O14 0.077710 0.250000 0.597787
O O15 0.085338 0.387052 0.455980
O O16 0.191346 0.538238 0.497113
O O17 0.910552 0.494043 0.688366
O O18 0.762280 0.750000 0.760952
O O19 0.656840 0.250000 0.537498
#
# Coordination Sequence:
#
# PCOD8074338 Si02
#       7
#     4   4   4   4   4   4   4
#     4  11  25  46  72 100 137 178 223 275 338 407
#     4  11  23  42  68  96 128 169 218 270 330 396
#     4  12  24  41  67  99 135 172 220 277 334 393
#     4  12  25  42  65  91 125 167 218 271 323 387
#     4  10  20  35  58  87 124 162 201 253 314 376
#     4  10  20  36  59  86 121 159 204 255 314 377
#     4  12  23  37  63  96 130 168 215 266 324 389
#
# _framework density 20.656562999999998
#
# number of rings (size 3 to 8) (size 9 to 14) (size 15 to 20)
#    0.000    0.857    2.857    5.571    0.000    2.857 
#    2.571    0.000    0.000    0.000    0.000    0.000 
#    0.000    0.000    0.000    0.000    0.000    0.000 
#
# Total GULP energy -347138.588041 kJ/mol
# GULP energy per Si atom -12397.806716 kJ/mol
# Density = 2.060955 g / cm^3
# Si number density = 20.656563 Si / 1000 Ang^3
#
#
#
# Elastic Constant Matrix: (Units=GPa)
#
#
# Indices 1 2 3 4 5 6 
#
# 1 124.6484 72.8606 64.1588 0.0000 -9.5619 0.0000
# 2 72.8606 160.0340 58.9381 0.0000 -6.9735 0.0000
# 3 64.1588 58.9381 96.7187 0.0000 -0.6713 0.0000
# 4 0.0000 0.0000 0.0000 34.0954 0.0000 -1.7176
# 5 -9.5619 -6.9735 -0.6713 0.0000 39.2750 0.0000
# 6 0.0000 0.0000 0.0000 -1.7176 0.0000 38.1160
#
#
#
# Elastic Compliance Matrix: (Units=1/GPa)
#
#
# Indices 1 2 3 4 5 6 
#
# 1 0.013982 -0.003664 -0.007024 0.000000 0.002633 0.000000
# 2 -0.003664 0.009089 -0.003103 0.000000 0.000669 0.000000
# 3 -0.007024 -0.003103 0.016876 0.000000 -0.001973 0.000000
# 4 0.000000 0.000000 0.000000 0.029396 0.000000 0.001325
# 5 0.002633 0.000669 -0.001973 0.000000 0.026188 0.000000
# 6 0.000000 0.000000 0.000000 0.001325 0.000000 0.026295
#
#
# Mechanical properties :
#
#
# Convention : Reuss Voigt Hill
#
# Bulk Modulus (GPa) = 80.87892 85.92401 83.40146
# Shear Modulus (GPa) = 32.56717 34.66021 33.61369
#
# Velocity S-wave (km/s) = 3.97495 4.10069 4.03831
# Velocity P-wave (km/s) = 7.76570 8.00673 7.88713
#
# Compressibility (1/GPa) = 0.01236416
#
# Stress axis : x y z
#
# Youngs Moduli (GPa) = 71.52295 110.02410 59.25645
#
# Poissons Ratio (x) = 0.40314 0.41619
# Poissons Ratio (y) = 0.26207 0.18389
# Poissons Ratio (z) = 0.50235 0.34144
#
# Static dielectric constant tensor:
#      x y z
#    x 4.083740 0.000000 -0.154120 
#    y 0.000000 4.159070 0.000000 
#    z -0.154120 0.000000 3.147370 
# 
# 
# High freq. dielectric constant tensor:
#      x y z
#    x 1.815770 0.000000 -0.008640 
#    y 0.000000 1.832520 0.000000 
#    z -0.008640 0.000000 1.785220 
# 
# From -- ./inp_files/60086.got.cif
#   From: 2010.06.25/outbox.cif.g09.slc.cpg/sg11_31_cif.got.tgz:60086.got - 2010.06.27 23:14:04.
