data_PCOD8074823
_publ_section_title
;
Structure prediction by ZEFSAII (Michael W. Deem and Ramdas Pophale) SiO2 
 PCOD8074823
Probable space group: P 21/M
;
_chemical_formula_sum "Si O2"
_cell_formula_units_Z 24
_cell_length_a 9.056690
_cell_length_b 8.699702
_cell_length_c 16.033251
_cell_angle_alpha 90.000000
_cell_angle_beta 106.091390
_cell_angle_gamma 90.000000
_cell_volume 1213.774122
_symmetry_space_group_name_H-M "P 21/M"
_symmetry_group_IT_number 11
_symmetry_cell_setting 'monoclinic'
loop_
_space_group_symop_operation_xyz
x,y,z
-x,1/2+y,-z
-x,-y,-z
x,1/2-y,z
loop_
_atom_site_type_symbol
_atom_site_label
_atom_site_fract_x
_atom_site_fract_y
_atom_site_fract_z
Si Si1 0.466638 0.068673 0.751973
Si Si2 0.215342 0.071751 0.247735
Si Si3 0.947245 0.431057 0.078599
Si Si4 0.374810 0.067415 0.919061
Si Si5 0.214293 0.429396 0.584392
Si Si6 0.121194 0.927385 0.403341
O O1 0.454219 0.250000 0.751320
O O2 0.412007 0.004082 0.832544
O O3 0.353691 0.006206 0.662157
O O4 0.639659 0.021504 0.761952
O O5 0.255283 0.250000 0.247689
O O6 0.072287 0.027008 0.167736
O O7 0.177734 0.030228 0.336386
O O8 0.922187 0.250000 0.065519
O O9 0.791245 0.510517 0.080989
O O10 0.000000 0.500000 0.000000
O O11 0.380150 0.250000 0.924261
O O12 0.500000 0.000000 0.000000
O O13 0.230823 0.250000 0.565036
O O14 0.217770 0.525540 0.499851
O O15 0.058184 0.460291 0.610598
O O16 0.153134 0.750000 0.387806
#
# Coordination Sequence:
#
# PCOD8074823 Si02
#       6
#     4   4   4   4   4   4
#     4  10  22  39  59  83 114 153 193 235 286 343
#     4  11  24  39  57  84 117 152 192 238 285 338
#     4  11  24  41  62  88 118 154 195 240 291 344
#     4  11  23  40  63  90 120 154 193 238 289 346
#     4   9  19  37  59  84 113 146 189 238 286 339
#     4  10  20  36  60  86 113 149 190 234 288 346
#
# _framework density 19.773033999999999
#
# number of rings (size 3 to 8) (size 9 to 14) (size 15 to 20)
#    0.000    1.667    0.000    4.000    0.000   10.000 
#    0.000    0.000    0.000    0.000    0.000    0.000 
#    0.000    0.000    0.000    0.000    0.000    0.000 
#
# Total GULP energy -297727.153895 kJ/mol
# GULP energy per Si atom -12405.298079 kJ/mol
# Density = 1.972803 g / cm^3
# Si number density = 19.773034 Si / 1000 Ang^3
#
#
#
# Elastic Constant Matrix: (Units=GPa)
#
#
# Indices 1 2 3 4 5 6 
#
# 1 103.3069 9.4579 62.5257 0.0000 8.0566 0.0000
# 2 9.4579 24.8545 26.5566 0.0000 9.6280 0.0000
# 3 62.5257 26.5566 139.6302 0.0000 5.5832 0.0000
# 4 0.0000 0.0000 0.0000 32.9570 0.0000 0.6608
# 5 8.0566 9.6280 5.5832 0.0000 38.4563 0.0000
# 6 0.0000 0.0000 0.0000 0.6608 0.0000 35.6258
#
#
#
# Elastic Compliance Matrix: (Units=1/GPa)
#
#
# Indices 1 2 3 4 5 6 
#
# 1 0.013560 0.002789 -0.006499 0.000000 -0.002596 0.000000
# 2 0.002789 0.056488 -0.011470 0.000000 -0.013062 0.000000
# 3 -0.006499 -0.011470 0.012155 0.000000 0.002469 0.000000
# 4 0.000000 0.000000 0.000000 0.030354 0.000000 -0.000563
# 5 -0.002596 -0.013062 0.002469 0.000000 0.029459 0.000000
# 6 0.000000 0.000000 0.000000 -0.000563 0.000000 0.028080
#
#
# Mechanical properties :
#
#
# Convention : Reuss Voigt Hill
#
# Bulk Modulus (GPa) = 19.28882 51.65244 35.47063
# Shear Modulus (GPa) = 22.96341 32.69126 27.82734
#
# Velocity S-wave (km/s) = 3.41156 4.07052 3.75552
# Velocity P-wave (km/s) = 5.02937 6.94777 6.06490
#
# Compressibility (1/GPa) = 0.05184351
#
# Stress axis : x y z
#
# Youngs Moduli (GPa) = 73.74391 17.70279 82.27137
#
# Poissons Ratio (x) = -0.04938 0.53468
# Poissons Ratio (y) = -0.20570 0.94369
# Poissons Ratio (z) = 0.47926 0.20306
#
# Static dielectric constant tensor:
#      x y z
#    x 3.630750 0.000000 0.115220 
#    y 0.000000 3.602930 0.000000 
#    z 0.115220 0.000000 3.771340 
# 
# 
# High freq. dielectric constant tensor:
#      x y z
#    x 1.778930 0.000000 0.001710 
#    y 0.000000 1.772800 0.000000 
#    z 0.001710 0.000000 1.790080 
# 
# From -- ./inp_files/25758.got.cif
#   From: 2010.06.25/outbox.cif.g09.slc.cpg/sg11_13_cif.got.tgz:25758.got - 2010.06.27 23:14:04.
