data_PCOD8074120
_publ_section_title
;
Structure prediction by ZEFSAII (Michael W. Deem and Ramdas Pophale) SiO2 
 PCOD8074120
Probable space group: P 21/M
;
_chemical_formula_sum "Si O2"
_cell_formula_units_Z 32
_cell_length_a 20.448622
_cell_length_b 9.179862
_cell_length_c 25.870311
_cell_angle_alpha 90.000000
_cell_angle_beta 19.799880
_cell_angle_gamma 90.000000
_cell_volume 1644.989535
_symmetry_space_group_name_H-M "P 21/M"
_symmetry_group_IT_number 11
_symmetry_cell_setting 'monoclinic'
loop_
_space_group_symop_operation_xyz
x,y,z
-x,1/2+y,-z
-x,-y,-z
x,1/2-y,z
loop_
_atom_site_type_symbol
_atom_site_label
_atom_site_fract_x
_atom_site_fract_y
_atom_site_fract_z
Si Si1 0.925215 0.914017 0.392309
Si Si2 0.859038 0.588697 0.157836
Si Si3 0.361472 0.581280 0.064003
Si Si4 0.662776 0.920390 0.025914
Si Si5 0.898454 0.083230 0.310528
Si Si6 0.287763 0.920996 0.819214
Si Si7 0.535422 0.918527 0.732721
Si Si8 0.663200 0.911475 0.406282
O O1 0.899808 0.750000 0.388087
O O2 0.767955 0.937271 0.554841
O O3 0.144862 0.933080 0.248579
O O4 0.888825 0.035668 0.376777
O O5 0.849733 0.750000 0.140607
O O6 0.688892 0.495671 0.254969
O O7 0.833950 0.594759 0.237754
O O8 0.073739 0.523096 0.993251
O O9 0.421564 0.750000 0.014115
O O10 0.385103 0.507136 0.990626
O O11 0.500000 0.500000 0.000000
O O12 0.613426 0.750000 0.054759
O O13 0.888323 0.942011 0.871500
O O14 0.536254 0.983728 0.166720
O O15 0.836429 0.250000 0.352346
O O16 0.739373 0.988298 0.400498
O O17 0.306183 0.750000 0.798414
O O18 0.438617 0.973236 0.750745
O O19 0.478916 0.750000 0.785195
O O20 0.591154 0.750000 0.474982
O O21 0.500000 0.000000 0.500000
#
# Coordination Sequence:
#
# PCOD8074120 Si02
#       8
#     4   4   4   4   4   4   4   4
#     4   9  20  37  58  86 117 150 187 231 283 337
#     4   9  19  34  48  68  97 132 177 225 276 330
#     4  10  20  38  64  90 119 153 189 228 273 329
#     4  10  21  37  59  88 117 149 189 229 274 330
#     4  10  21  37  56  79 109 146 190 237 283 338
#     4   9  18  32  52  73  98 134 174 221 274 331
#     4  10  20  35  56  83 113 145 186 231 282 334
#     4  11  23  36  51  72 102 139 185 237 288 338
#
# _framework density 19.453009999999999
#
# number of rings (size 3 to 8) (size 9 to 14) (size 15 to 20)
#    0.000    2.250    0.000    2.250    1.750    5.000 
#    0.000    3.125    0.000    0.000    0.000    0.000 
#    0.000    0.000    0.000    0.000    0.000    0.000 
#
# Total GULP energy -396678.523133 kJ/mol
# GULP energy per Si atom -12396.203848 kJ/mol
# Density = 1.940873 g / cm^3
# Si number density = 19.453010 Si / 1000 Ang^3
#
#
#
# Elastic Constant Matrix: (Units=GPa)
#
#
# Indices 1 2 3 4 5 6 
#
# 1 79.0751 51.5422 28.8121 0.0000 -18.8740 0.0000
# 2 51.5422 124.7654 43.2549 0.0000 -11.8277 0.0000
# 3 28.8121 43.2549 81.7832 0.0000 -6.3934 0.0000
# 4 0.0000 0.0000 0.0000 27.1310 0.0000 -0.5200
# 5 -18.8740 -11.8277 -6.3934 0.0000 27.2665 0.0000
# 6 0.0000 0.0000 0.0000 -0.5200 0.0000 39.7605
#
#
#
# Elastic Compliance Matrix: (Units=1/GPa)
#
#
# Indices 1 2 3 4 5 6 
#
# 1 0.020458 -0.006404 -0.002985 0.000000 0.010683 0.000000
# 2 -0.006404 0.012083 -0.004147 0.000000 -0.000164 0.000000
# 3 -0.002985 -0.004147 0.015454 0.000000 -0.000242 0.000000
# 4 0.000000 0.000000 0.000000 0.036867 0.000000 0.000482
# 5 0.010683 -0.000164 -0.000242 0.000000 0.043942 0.000000
# 6 0.000000 0.000000 0.000000 0.000482 0.000000 0.025157
#
#
# Mechanical properties :
#
#
# Convention : Reuss Voigt Hill
#
# Bulk Modulus (GPa) = 47.79686 59.20468 53.50077
# Shear Modulus (GPa) = 26.59470 29.63258 28.11364
#
# Velocity S-wave (km/s) = 3.70148 3.90717 3.80571
# Velocity P-wave (km/s) = 6.54917 7.13130 6.84643
#
# Compressibility (1/GPa) = 0.02092187
#
# Stress axis : x y z
#
# Youngs Moduli (GPa) = 48.88099 82.76220 64.70922
#
# Poissons Ratio (x) = 0.52998 0.19317
# Poissons Ratio (y) = 0.31302 0.26837
# Poissons Ratio (z) = 0.14592 0.34324
#
# Static dielectric constant tensor:
#      x y z
#    x 6.723390 0.000000 -1.308800 
#    y 0.000000 3.654020 0.000000 
#    z -1.308800 0.000000 4.310090 
# 
# 
# High freq. dielectric constant tensor:
#      x y z
#    x 1.737500 0.000000 0.002240 
#    y 0.000000 1.763740 0.000000 
#    z 0.002240 0.000000 1.760230 
# 
# From -- ./inp_files/71973.got.cif
#   From: 2010.06.25/outbox.cif.g09.slc.cpg/sg11_36_cif.got.tgz:71973.got - 2010.06.27 23:14:04.
