data_PCOD8074164
_publ_section_title
;
Structure prediction by ZEFSAII (Michael W. Deem and Ramdas Pophale) SiO2 
 PCOD8074164
Probable space group: P 21/M
;
_chemical_formula_sum "Si O2"
_cell_formula_units_Z 28
_cell_length_a 24.493861
_cell_length_b 9.293053
_cell_length_c 22.022494
_cell_angle_alpha 90.000000
_cell_angle_beta 162.324249
_cell_angle_gamma 90.000000
_cell_volume 1522.041939
_symmetry_space_group_name_H-M "P 21/M"
_symmetry_group_IT_number 11
_symmetry_cell_setting 'monoclinic'
loop_
_space_group_symop_operation_xyz
x,y,z
-x,1/2+y,-z
-x,-y,-z
x,1/2-y,z
loop_
_atom_site_type_symbol
_atom_site_label
_atom_site_fract_x
_atom_site_fract_y
_atom_site_fract_z
Si Si1 0.580078 0.916643 0.641291
Si Si2 0.981922 0.583394 0.043128
Si Si3 0.738602 0.418644 0.115753
Si Si4 0.135025 0.083186 0.506784
Si Si5 0.671299 0.081326 0.516273
Si Si6 0.610888 0.918892 0.328217
Si Si7 0.813425 0.581812 0.306120
O O1 0.541733 0.750000 0.588085
O O2 0.482813 0.966101 0.599741
O O3 0.500000 0.000000 0.500000
O O4 0.791181 0.949421 0.872423
O O5 0.005044 0.750000 0.051298
O O6 0.135566 0.534266 0.252626
O O7 0.000000 0.500000 0.000000
O O8 0.748451 0.250000 0.142846
O O9 0.684187 0.505265 0.119752
O O10 0.931172 0.478147 0.295197
O O11 0.590481 0.450543 0.908060
O O12 0.116449 0.250000 0.473070
O O13 0.247032 0.014796 0.569886
O O14 0.249242 0.060541 0.690287
O O15 0.663553 0.250000 0.494169
O O16 0.638467 0.996987 0.420316
O O17 0.640643 0.750000 0.369127
O O18 0.835211 0.750000 0.313573
O O19 0.000000 0.500000 0.500000
#
# Coordination Sequence:
#
# PCOD8074164 Si02
#       7
#     4   4   4   4   4   4   4
#     4  10  20  35  57  82 108 137 169 211 262 313
#     4  10  20  35  57  82 107 136 169 209 261 312
#     4   9  18  33  52  74 103 135 172 220 265 307
#     4   8  16  32  51  72 102 134 169 217 263 302
#     4  10  22  38  52  76 112 139 168 218 266 307
#     4  10  21  36  53  73 100 141 183 214 252 312
#     4   9  16  29  51  77 104 135 171 217 268 313
#
# _framework density 18.396339999999999
#
# number of rings (size 3 to 8) (size 9 to 14) (size 15 to 20)
#    0.000    2.571    1.429    1.286    0.000    3.429 
#    0.000    3.571    0.000    0.000    0.000    0.000 
#    0.000    0.000    0.000    0.000    0.000    0.000 
#
# Total GULP energy -347072.199314 kJ/mol
# GULP energy per Si atom -12395.435690 kJ/mol
# Density = 1.835447 g / cm^3
# Si number density = 18.396340 Si / 1000 Ang^3
#
#
#
# Elastic Constant Matrix: (Units=GPa)
#
#
# Indices 1 2 3 4 5 6 
#
# 1 167.2924 57.5844 90.0552 0.0000 -11.1278 0.0000
# 2 57.5844 58.3184 49.2115 0.0000 -13.3803 0.0000
# 3 90.0552 49.2115 136.7382 0.0000 -8.8416 0.0000
# 4 0.0000 0.0000 0.0000 24.5686 0.0000 -10.1179
# 5 -11.1278 -13.3803 -8.8416 0.0000 35.4240 0.0000
# 6 0.0000 0.0000 0.0000 -10.1179 0.0000 33.0039
#
#
#
# Elastic Compliance Matrix: (Units=1/GPa)
#
#
# Indices 1 2 3 4 5 6 
#
# 1 0.010829 -0.006799 -0.004707 0.000000 -0.000341 0.000000
# 2 -0.006799 0.030848 -0.006108 0.000000 0.007992 0.000000
# 3 -0.004707 -0.006108 0.012569 0.000000 -0.000648 0.000000
# 4 0.000000 0.000000 0.000000 0.046584 0.000000 0.014281
# 5 -0.000341 0.007992 -0.000648 0.000000 0.030979 0.000000
# 6 0.000000 0.000000 0.000000 0.014281 0.000000 0.034678
#
#
# Mechanical properties :
#
#
# Convention : Reuss Voigt Hill
#
# Bulk Modulus (GPa) = 52.57817 84.00570 68.29194
# Shear Modulus (GPa) = 24.03221 29.63246 26.83234
#
# Velocity S-wave (km/s) = 3.61828 4.01781 3.82327
# Velocity P-wave (km/s) = 6.78961 8.20288 7.52947
#
# Compressibility (1/GPa) = 0.01901930
#
# Stress axis : x y z
#
# Youngs Moduli (GPa) = 92.34411 32.41694 79.55775
#
# Poissons Ratio (x) = 0.22040 0.37449
# Poissons Ratio (y) = 0.62785 0.48590
# Poissons Ratio (z) = 0.43467 0.19799
#
# Static dielectric constant tensor:
#      x y z
#    x 3.687560 0.000000 0.086960 
#    y 0.000000 2.808160 0.000000 
#    z 0.086960 0.000000 3.623980 
# 
# 
# High freq. dielectric constant tensor:
#      x y z
#    x 1.714210 0.000000 0.002080 
#    y 0.000000 1.695560 0.000000 
#    z 0.002080 0.000000 1.716020 
# 
# From -- ./inp_files/66721.got.cif
#   From: 2010.06.25/outbox.cif.g09.slc.cpg/sg11_34_cif.got.tgz:66721.got - 2010.06.27 23:14:04.
