data_PCOD8074321
_publ_section_title
;
Structure prediction by ZEFSAII (Michael W. Deem and Ramdas Pophale) SiO2 
 PCOD8074321
Probable space group: P 21/M
;
_chemical_formula_sum "Si O2"
_cell_formula_units_Z 24
_cell_length_a 12.449755
_cell_length_b 8.815904
_cell_length_c 23.955283
_cell_angle_alpha 90.000000
_cell_angle_beta 29.235290
_cell_angle_gamma 90.000000
_cell_volume 1284.109765
_symmetry_space_group_name_H-M "P 21/M"
_symmetry_group_IT_number 11
_symmetry_cell_setting 'monoclinic'
loop_
_space_group_symop_operation_xyz
x,y,z
-x,1/2+y,-z
-x,-y,-z
x,1/2-y,z
loop_
_atom_site_type_symbol
_atom_site_label
_atom_site_fract_x
_atom_site_fract_y
_atom_site_fract_z
Si Si1 0.332138 0.071659 0.213913
Si Si2 0.632879 0.928614 0.990550
Si Si3 0.511085 0.927480 0.624449
Si Si4 0.900117 0.924313 0.366153
Si Si5 0.767399 0.572755 0.617364
Si Si6 0.905698 0.575633 0.235488
O O1 0.370903 0.250000 0.190555
O O2 0.326734 0.017680 0.280616
O O3 0.534109 0.985294 0.093780
O O4 0.105551 0.030331 0.286319
O O5 0.607601 0.750000 0.997598
O O6 0.500000 0.000000 0.000000
O O7 0.886118 0.973562 0.873447
O O8 0.456870 0.750000 0.643492
O O9 0.695370 0.976421 0.496304
O O10 0.593408 0.971823 0.648740
O O11 0.293389 0.023916 0.713175
O O12 0.964456 0.750000 0.349851
O O13 0.833864 0.947439 0.332063
O O14 0.810718 0.750000 0.598281
O O15 0.000000 0.500000 0.500000
O O16 0.963880 0.750000 0.196653
#
# Coordination Sequence:
#
# PCOD8074321 Si02
#       6
#     4   4   4   4   4   4
#     4  11  22  36  59  91 120 152 198 246 291 345
#     4  12  24  40  62  87 117 155 196 242 295 351
#     4  10  21  38  58  85 122 161 197 239 294 350
#     4  10  20  35  58  86 121 157 191 238 296 352
#     4  10  21  37  60  88 119 156 199 245 290 345
#     4  11  23  38  58  88 121 156 198 243 294 351
#
# _framework density 18.689990999999999
#
# number of rings (size 3 to 8) (size 9 to 14) (size 15 to 20)
#    0.000    1.333    3.333    3.000    0.000    2.667 
#    0.000    0.833    0.000    0.000    0.000    0.000 
#    0.000    0.000    0.000    0.000    0.000    0.000 
#
# Total GULP energy -297735.875347 kJ/mol
# GULP energy per Si atom -12405.661473 kJ/mol
# Density = 1.864745 g / cm^3
# Si number density = 18.689991 Si / 1000 Ang^3
#
#
#
# Elastic Constant Matrix: (Units=GPa)
#
#
# Indices 1 2 3 4 5 6 
#
# 1 110.5698 33.5789 44.3939 0.0000 11.7925 0.0000
# 2 33.5789 82.4576 39.0552 0.0000 8.5826 0.0000
# 3 44.3939 39.0552 108.2802 0.0000 12.5250 0.0000
# 4 0.0000 0.0000 0.0000 34.9101 0.0000 -2.7433
# 5 11.7925 8.5826 12.5250 0.0000 30.8265 0.0000
# 6 0.0000 0.0000 0.0000 -2.7433 0.0000 23.3348
#
#
#
# Elastic Compliance Matrix: (Units=1/GPa)
#
#
# Indices 1 2 3 4 5 6 
#
# 1 0.011524 -0.002829 -0.003448 0.000000 -0.002220 0.000000
# 2 -0.002829 0.015442 -0.004237 0.000000 -0.001496 0.000000
# 3 -0.003448 -0.004237 0.012474 0.000000 -0.002570 0.000000
# 4 0.000000 0.000000 0.000000 0.028912 0.000000 0.003399
# 5 -0.002220 -0.001496 -0.002570 0.000000 0.034750 0.000000
# 6 0.000000 0.000000 0.000000 0.003399 0.000000 0.043254
#
#
# Mechanical properties :
#
#
# Convention : Reuss Voigt Hill
#
# Bulk Modulus (GPa) = 54.30808 59.48483 56.89646
# Shear Modulus (GPa) = 28.81503 30.09959 29.45731
#
# Velocity S-wave (km/s) = 3.93075 4.01741 3.97432
# Velocity P-wave (km/s) = 7.05135 7.30860 7.18113
#
# Compressibility (1/GPa) = 0.01841347
#
# Stress axis : x y z
#
# Youngs Moduli (GPa) = 86.77402 64.75900 80.16529
#
# Poissons Ratio (x) = 0.18320 0.27638
# Poissons Ratio (y) = 0.24548 0.33965
# Poissons Ratio (z) = 0.29917 0.27437
#
# Static dielectric constant tensor:
#      x y z
#    x 3.531450 0.000000 0.210570 
#    y 0.000000 3.469250 0.000000 
#    z 0.210570 0.000000 3.541420 
# 
# 
# High freq. dielectric constant tensor:
#      x y z
#    x 1.725690 0.000000 0.007340 
#    y 0.000000 1.730040 0.000000 
#    z 0.007340 0.000000 1.728300 
# 
# From -- ./inp_files/33685.got.cif
#   From: 2010.06.25/outbox.cif.g09.slc.cpg/sg11_17_cif.got.tgz:33685.got - 2010.06.27 23:14:04.
