data_PCOD8074745
_publ_section_title
;
Structure prediction by ZEFSAII (Michael W. Deem and Ramdas Pophale) SiO2 
 PCOD8074745
Probable space group: P 21/M
;
_chemical_formula_sum "Si O2"
_cell_formula_units_Z 16
_cell_length_a 7.673553
_cell_length_b 13.021166
_cell_length_c 8.174113
_cell_angle_alpha 90.000000
_cell_angle_beta 122.182334
_cell_angle_gamma 90.000000
_cell_volume 691.259033
_symmetry_space_group_name_H-M "P 21/M"
_symmetry_group_IT_number 11
_symmetry_cell_setting 'monoclinic'
loop_
_space_group_symop_operation_xyz
x,y,z
-x,1/2+y,-z
-x,-y,-z
x,1/2-y,z
loop_
_atom_site_type_symbol
_atom_site_label
_atom_site_fract_x
_atom_site_fract_y
_atom_site_fract_z
Si Si1 0.873517 0.865741 0.288441
Si Si2 0.732284 0.934201 0.868548
Si Si3 0.873514 0.134261 0.085071
Si Si4 0.267717 0.934199 0.636265
O O1 0.836807 0.750000 0.332228
O O2 0.116282 0.896141 0.416791
O O3 0.748944 0.943102 0.343933
O O4 0.796968 0.875072 0.065375
O O5 0.500001 0.906127 0.702046
O O6 0.883723 0.896144 0.800516
O O7 0.748935 0.056900 0.905008
O O8 0.836801 0.250000 0.004570
O O9 0.796963 0.124933 0.231590
#
# Coordination Sequence:
#
# PCOD8074745 Si02
#       4
#     4   4   4   4
#     4  10  20  36  59  85 113 147 188 230 275 332
#     4  10  22  39  58  83 115 148 185 231 279 329
#     4  10  20  36  59  85 113 147 188 230 275 332
#     4  10  22  39  58  83 115 148 185 231 279 329
#
# _framework density 23.146170000000001
#
# number of rings (size 3 to 8) (size 9 to 14) (size 15 to 20)
#    0.000    2.000    0.000    4.500    0.000    7.000 
#    0.000   22.500    0.000   24.000    0.000    0.000 
#    0.000    0.000    0.000    0.000    0.000    0.000 
#
# Total GULP energy -198379.206739 kJ/mol
# GULP energy per Si atom -12398.700421 kJ/mol
# Density = 2.309349 g / cm^3
# Si number density = 23.146170 Si / 1000 Ang^3
#
#
#
# Elastic Constant Matrix: (Units=GPa)
#
#
# Indices 1 2 3 4 5 6 
#
# 1 117.0762 6.5418 20.6559 0.0000 39.0116 0.0000
# 2 6.5418 171.0207 9.2116 0.0000 -3.5776 0.0000
# 3 20.6559 9.2116 62.2557 0.0000 34.4772 0.0000
# 4 0.0000 0.0000 0.0000 11.2617 0.0000 -2.7743
# 5 39.0116 -3.5776 34.4772 0.0000 39.7340 0.0000
# 6 0.0000 0.0000 0.0000 -2.7743 0.0000 9.1909
#
#
#
# Elastic Compliance Matrix: (Units=1/GPa)
#
#
# Indices 1 2 3 4 5 6 
#
# 1 0.013885 -0.001261 0.006145 0.000000 -0.019078 0.000000
# 2 -0.001261 0.006138 -0.002852 0.000000 0.004266 0.000000
# 3 0.006145 -0.002852 0.034515 0.000000 -0.036239 0.000000
# 4 0.000000 0.000000 0.000000 0.095930 0.000000 0.028957
# 5 -0.019078 0.004266 -0.036239 0.000000 0.075727 0.000000
# 6 0.000000 0.000000 0.000000 0.028957 0.000000 0.117544
#
#
# Mechanical properties :
#
#
# Convention : Reuss Voigt Hill
#
# Bulk Modulus (GPa) = 17.06430 47.01901 32.04166
# Shear Modulus (GPa) = 13.91943 32.96689 23.44316
#
# Velocity S-wave (km/s) = 2.45495 3.77807 3.18595
# Velocity P-wave (km/s) = 3.92735 6.27613 5.23517
#
# Compressibility (1/GPa) = 0.05860186
#
# Stress axis : x y z
#
# Youngs Moduli (GPa) = 72.02095 162.91024 28.97289
#
# Poissons Ratio (x) = 0.20546 -0.17804
# Poissons Ratio (y) = 0.09083 0.08264
# Poissons Ratio (z) = -0.44258 0.46465
#
# Static dielectric constant tensor:
#      x y z
#    x 4.077890 0.000000 0.194710 
#    y 0.000000 4.313260 0.000000 
#    z 0.194710 0.000000 3.932560 
# 
# 
# High freq. dielectric constant tensor:
#      x y z
#    x 1.901580 0.000000 0.012380 
#    y 0.000000 1.920970 0.000000 
#    z 0.012380 0.000000 1.892350 
# 
# From -- ./inp_files/11421.got.cif
#   From: 2010.06.25/outbox.cif.g09.slc.cpg/sg11_6_cif.got.tgz:11421.got - 2010.06.27 23:14:04.
