data_PCOD8074151
_publ_section_title
;
Structure prediction by ZEFSAII (Michael W. Deem and Ramdas Pophale) SiO2 
 PCOD8074151
Probable space group: P 21/M
;
_chemical_formula_sum "Si O2"
_cell_formula_units_Z 32
_cell_length_a 25.079278
_cell_length_b 8.982135
_cell_length_c 15.270775
_cell_angle_alpha 90.000000
_cell_angle_beta 152.412818
_cell_angle_gamma 90.000000
_cell_volume 1593.046201
_symmetry_space_group_name_H-M "P 21/M"
_symmetry_group_IT_number 11
_symmetry_cell_setting 'monoclinic'
loop_
_space_group_symop_operation_xyz
x,y,z
-x,1/2+y,-z
-x,-y,-z
x,1/2-y,z
loop_
_atom_site_type_symbol
_atom_site_label
_atom_site_fract_x
_atom_site_fract_y
_atom_site_fract_z
Si Si1 0.382713 0.077219 0.357870
Si Si2 0.849179 0.075219 0.026620
Si Si3 0.905402 0.075006 0.301036
Si Si4 0.612476 0.418680 0.133558
Si Si5 0.417171 0.421635 0.607078
Si Si6 0.018893 0.425439 0.120319
Si Si7 0.749666 0.080281 0.504763
Si Si8 0.333839 0.574424 0.977111
O O1 0.391165 0.250000 0.345565
O O2 0.364483 0.054082 0.434833
O O3 0.500000 0.000000 0.500000
O O4 0.273412 0.006863 0.149981
O O5 0.822997 0.250000 0.983140
O O6 0.920330 0.038529 0.219253
O O7 0.924056 0.020332 0.052670
O O8 0.913890 0.250000 0.330539
O O9 0.780121 0.007990 0.144019
O O10 0.000000 0.000000 0.500000
O O11 0.575198 0.250000 0.061521
O O12 0.711492 0.430363 0.349176
O O13 0.500000 0.500000 0.000000
O O14 0.658323 0.490003 0.110103
O O15 0.404655 0.250000 0.619031
O O16 0.350900 0.526817 0.577663
O O17 0.551472 0.470183 0.802135
O O18 0.013594 0.250000 0.100876
O O19 0.143189 0.471489 0.334558
O O20 0.000000 0.500000 0.000000
O O21 0.782273 0.250000 0.577497
O O22 0.319365 0.750000 0.954840
#
# Coordination Sequence:
#
# PCOD8074151 Si02
#       8
#     4   4   4   4   4   4   4   4
#     4  11  23  38  62  92 119 153 196 243 297 357
#     4  10  23  43  63  87 122 160 202 252 303 355
#     4  10  22  41  63  87 116 155 201 248 300 356
#     4  10  20  35  56  85 118 157 196 241 294 350
#     4  10  20  37  61  86 115 156 199 240 295 360
#     4  11  24  42  64  89 121 162 203 250 301 357
#     4  11  23  36  56  89 123 154 195 245 298 358
#     4   9  18  35  59  82 113 154 195 239 292 350
#
# _framework density 20.087301
#
# number of rings (size 3 to 8) (size 9 to 14) (size 15 to 20)
#    0.000    1.750    1.250    2.625    1.750    7.000 
#    0.000    1.250    0.000    0.000    0.000    0.000 
#    0.000    0.000    0.000    0.000    0.000    0.000 
#
# Total GULP energy -396827.774487 kJ/mol
# GULP energy per Si atom -12400.867953 kJ/mol
# Density = 2.004158 g / cm^3
# Si number density = 20.087301 Si / 1000 Ang^3
#
#
#
# Elastic Constant Matrix: (Units=GPa)
#
#
# Indices 1 2 3 4 5 6 
#
# 1 118.8748 40.2800 49.1312 0.0000 0.7133 0.0000
# 2 40.2800 58.3847 40.1218 0.0000 -3.1414 0.0000
# 3 49.1312 40.1218 129.2676 0.0000 1.3399 0.0000
# 4 0.0000 0.0000 0.0000 37.0832 0.0000 1.8202
# 5 0.7133 -3.1414 1.3399 0.0000 38.5108 0.0000
# 6 0.0000 0.0000 0.0000 1.8202 0.0000 28.1418
#
#
#
# Elastic Compliance Matrix: (Units=1/GPa)
#
#
# Indices 1 2 3 4 5 6 
#
# 1 0.011569 -0.006355 -0.002418 0.000000 -0.000649 0.000000
# 2 -0.006355 0.025419 -0.005499 0.000000 0.002383 0.000000
# 3 -0.002418 -0.005499 0.010370 0.000000 -0.000765 0.000000
# 4 0.000000 0.000000 0.000000 0.027052 0.000000 -0.001750
# 5 -0.000649 0.002383 -0.000765 0.000000 0.026200 0.000000
# 6 0.000000 0.000000 0.000000 -0.001750 0.000000 0.035648
#
#
# Mechanical properties :
#
#
# Convention : Reuss Voigt Hill
#
# Bulk Modulus (GPa) = 53.15129 62.84368 57.99748
# Shear Modulus (GPa) = 29.22765 32.54675 30.88720
#
# Velocity S-wave (km/s) = 3.81863 4.02962 3.92554
# Velocity P-wave (km/s) = 6.77939 7.28036 7.03434
#
# Compressibility (1/GPa) = 0.01881422
#
# Stress axis : x y z
#
# Youngs Moduli (GPa) = 86.44059 39.34080 96.43634
#
# Poissons Ratio (x) = 0.25000 0.23317
# Poissons Ratio (y) = 0.54930 0.53030
# Poissons Ratio (z) = 0.20900 0.21633
#
# Static dielectric constant tensor:
#      x y z
#    x 10.948260 0.000000 -4.745020 
#    y 0.000000 3.474920 0.000000 
#    z -4.745020 0.000000 6.869560 
# 
# 
# High freq. dielectric constant tensor:
#      x y z
#    x 1.796790 0.000000 -0.006240 
#    y 0.000000 1.767520 0.000000 
#    z -0.006240 0.000000 1.794360 
# 
# From -- ./inp_files/55771.got.cif
#   From: 2010.06.25/outbox.cif.g09.slc.cpg/sg11_28_cif.got.tgz:55771.got - 2010.06.27 23:14:04.
