data_PCOD8074124
_publ_section_title
;
Structure prediction by ZEFSAII (Michael W. Deem and Ramdas Pophale) SiO2 
 PCOD8074124
Probable space group: P 21/M
;
_chemical_formula_sum "Si O2"
_cell_formula_units_Z 32
_cell_length_a 27.922571
_cell_length_b 9.157873
_cell_length_c 21.731930
_cell_angle_alpha 90.000000
_cell_angle_beta 16.857043
_cell_angle_gamma 90.000000
_cell_volume 1611.474644
_symmetry_space_group_name_H-M "P 21/M"
_symmetry_group_IT_number 11
_symmetry_cell_setting 'monoclinic'
loop_
_space_group_symop_operation_xyz
x,y,z
-x,1/2+y,-z
-x,-y,-z
x,1/2-y,z
loop_
_atom_site_type_symbol
_atom_site_label
_atom_site_fract_x
_atom_site_fract_y
_atom_site_fract_z
Si Si1 0.917726 0.583001 0.422914
Si Si2 0.282682 0.914568 0.924983
Si Si3 0.751378 0.421819 0.519608
Si Si4 0.968145 0.077687 0.138146
Si Si5 0.401385 0.417578 0.892277
Si Si6 0.202304 0.912202 0.775597
Si Si7 0.956221 0.579193 0.616375
Si Si8 0.559398 0.587552 0.369113
O O1 0.864783 0.750000 0.502111
O O2 0.929811 0.492331 0.471049
O O3 0.784511 0.508417 0.541856
O O4 0.092413 0.577739 0.175034
O O5 0.343682 0.750000 0.839083
O O6 0.396359 0.982707 0.838242
O O7 0.297338 0.005322 0.843986
O O8 0.775445 0.250000 0.501802
O O9 0.877831 0.477804 0.311055
O O10 0.563298 0.457937 0.732213
O O11 0.984989 0.250000 0.120459
O O12 0.863898 0.022665 0.207218
O O13 0.148944 0.006910 0.902259
O O14 0.408357 0.250000 0.861452
O O15 0.238299 0.446290 0.133271
O O16 0.131200 0.750000 0.874134
O O17 0.397646 0.906391 0.525255
O O18 0.999356 0.750000 0.559565
O O19 0.000000 0.500000 0.500000
O O20 0.500000 0.500000 0.500000
O O21 0.622270 0.750000 0.308977
#
# Coordination Sequence:
#
# PCOD8074124 Si02
#       8
#     4   4   4   4   4   4   4   4
#     4  10  22  38  57  85 119 151 189 233 279 333
#     4  10  21  37  56  79 109 145 189 238 284 337
#     4  10  20  35  56  83 114 146 187 233 282 335
#     4   9  18  32  52  74  98 133 175 222 275 333
#     4   9  19  37  61  87 115 149 187 227 275 332
#     4   9  19  35  50  68  97 133 177 228 280 332
#     4  10  20  38  65  92 119 153 188 224 272 328
#     4  11  23  36  51  71 101 139 184 236 287 336
#
# _framework density 19.857589000000001
#
# number of rings (size 3 to 8) (size 9 to 14) (size 15 to 20)
#    0.000    2.250    0.000    2.250    1.750    6.000 
#    0.000    3.125    0.000    0.000    0.000    0.000 
#    0.000    0.000    0.000    0.000    0.000    0.000 
#
# Total GULP energy -396768.829921 kJ/mol
# GULP energy per Si atom -12399.025935 kJ/mol
# Density = 1.981239 g / cm^3
# Si number density = 19.857589 Si / 1000 Ang^3
#
#
#
# Elastic Constant Matrix: (Units=GPa)
#
#
# Indices 1 2 3 4 5 6 
#
# 1 105.4477 59.6353 23.3943 0.0000 12.4735 0.0000
# 2 59.6353 124.8998 26.9365 0.0000 15.2534 0.0000
# 3 23.3943 26.9365 41.9247 0.0000 6.7612 0.0000
# 4 0.0000 0.0000 0.0000 28.6973 0.0000 4.3320
# 5 12.4735 15.2534 6.7612 0.0000 33.4822 0.0000
# 6 0.0000 0.0000 0.0000 4.3320 0.0000 38.7094
#
#
#
# Elastic Compliance Matrix: (Units=1/GPa)
#
#
# Indices 1 2 3 4 5 6 
#
# 1 0.013634 -0.005468 -0.003801 0.000000 -0.001821 0.000000
# 2 -0.005468 0.011816 -0.004136 0.000000 -0.002511 0.000000
# 3 -0.003801 -0.004136 0.029044 0.000000 -0.002565 0.000000
# 4 0.000000 0.000000 0.000000 0.035445 0.000000 -0.003967
# 5 -0.001821 -0.002511 -0.002565 0.000000 0.032207 0.000000
# 6 0.000000 0.000000 0.000000 -0.003967 0.000000 0.026277
#
#
# Mechanical properties :
#
#
# Convention : Reuss Voigt Hill
#
# Bulk Modulus (GPa) = 36.12097 54.68938 45.40517
# Shear Modulus (GPa) = 27.10596 30.99818 29.05207
#
# Velocity S-wave (km/s) = 3.69862 3.95527 3.82910
# Velocity P-wave (km/s) = 6.03898 6.96128 6.51647
#
# Compressibility (1/GPa) = 0.02768475
#
# Stress axis : x y z
#
# Youngs Moduli (GPa) = 73.34403 84.63405 34.43028
#
# Poissons Ratio (x) = 0.46276 0.13088
# Poissons Ratio (y) = 0.40103 0.14239
# Poissons Ratio (z) = 0.27881 0.35001
#
# Static dielectric constant tensor:
#      x y z
#    x 3.653450 0.000000 -0.068370 
#    y 0.000000 3.747500 0.000000 
#    z -0.068370 0.000000 3.775260 
# 
# 
# High freq. dielectric constant tensor:
#      x y z
#    x 1.775110 0.000000 -0.006400 
#    y 0.000000 1.777140 0.000000 
#    z -0.006400 0.000000 1.761420 
# 
# From -- ./inp_files/67087.got.cif
#   From: 2010.06.25/outbox.cif.g09.slc.cpg/sg11_34_cif.got.tgz:67087.got - 2010.06.27 23:14:04.
