data_PCOD8074075
_publ_section_title
;
Structure prediction by ZEFSAII (Michael W. Deem and Ramdas Pophale) SiO2 
 PCOD8074075
Probable space group: P 21/M
;
_chemical_formula_sum "Si O2"
_cell_formula_units_Z 32
_cell_length_a 16.000373
_cell_length_b 9.180758
_cell_length_c 24.261634
_cell_angle_alpha 90.000000
_cell_angle_beta 27.340862
_cell_angle_gamma 90.000000
_cell_volume 1636.851321
_symmetry_space_group_name_H-M "P 21/M"
_symmetry_group_IT_number 11
_symmetry_cell_setting 'monoclinic'
loop_
_space_group_symop_operation_xyz
x,y,z
-x,1/2+y,-z
-x,-y,-z
x,1/2-y,z
loop_
_atom_site_type_symbol
_atom_site_label
_atom_site_fract_x
_atom_site_fract_y
_atom_site_fract_z
Si Si1 0.674068 0.917663 0.375065
Si Si2 0.420294 0.419124 0.283052
Si Si3 0.794533 0.914529 0.699613
Si Si4 0.805211 0.417642 0.499203
Si Si5 0.775630 0.918840 0.081077
Si Si6 0.133663 0.418523 0.847413
Si Si7 0.670470 0.419503 0.875036
Si Si8 0.065930 0.417212 0.679408
O O1 0.618890 0.750000 0.407866
O O2 0.725805 0.967703 0.282769
O O3 0.852161 0.946238 0.308307
O O4 0.500000 0.000000 0.500000
O O5 0.455967 0.250000 0.273563
O O6 0.270885 0.445463 0.323633
O O7 0.353265 0.493714 0.378265
O O8 0.606540 0.494441 0.154531
O O9 0.744657 0.750000 0.747396
O O10 0.010474 0.937752 0.574063
O O11 0.697183 0.026982 0.797114
O O12 0.744919 0.250000 0.530440
O O13 0.827071 0.479153 0.425126
O O14 0.760817 0.750000 0.074257
O O15 0.772750 0.943690 0.148551
O O16 0.955537 0.982232 0.947412
O O17 0.076625 0.250000 0.872814
O O18 0.626869 0.250000 0.899445
O O19 0.850900 0.455014 0.805431
O O20 0.500000 0.500000 0.000000
O O21 0.093286 0.250000 0.644495
#
# Coordination Sequence:
#
# PCOD8074075 Si02
#       8
#     4   4   4   4   4   4   4   4
#     4  10  22  39  60  86 115 150 193 238 287 341
#     4  11  22  35  55  82 112 147 186 227 281 340
#     4   9  20  37  54  77 109 146 187 230 278 331
#     4  10  20  35  56  80 111 146 184 231 278 330
#     4  10  21  37  58  85 113 146 191 235 282 339
#     4   9  20  40  60  80 113 150 186 233 289 340
#     4  10  20  35  57  82 113 150 189 231 280 338
#     4   9  20  38  56  80 112 149 188 229 283 345
#
# _framework density 19.549728999999999
#
# number of rings (size 3 to 8) (size 9 to 14) (size 15 to 20)
#    0.000    2.250    0.000    1.875    1.750    4.500 
#    0.000    2.500    0.000    0.000    0.000    0.000 
#    0.000    0.000    0.000    0.000    0.000    0.000 
#
# Total GULP energy -396901.220608 kJ/mol
# GULP energy per Si atom -12403.163144 kJ/mol
# Density = 1.950523 g / cm^3
# Si number density = 19.549729 Si / 1000 Ang^3
#
#
#
# Elastic Constant Matrix: (Units=GPa)
#
#
# Indices 1 2 3 4 5 6 
#
# 1 54.6796 26.3531 26.8836 0.0000 5.1627 0.0000
# 2 26.3531 102.6933 56.3825 0.0000 4.3571 0.0000
# 3 26.8836 56.3825 112.2182 0.0000 9.6524 0.0000
# 4 0.0000 0.0000 0.0000 42.2544 0.0000 0.5451
# 5 5.1627 4.3571 9.6524 0.0000 24.0190 0.0000
# 6 0.0000 0.0000 0.0000 0.5451 0.0000 27.7534
#
#
#
# Elastic Compliance Matrix: (Units=1/GPa)
#
#
# Indices 1 2 3 4 5 6 
#
# 1 0.021906 -0.003803 -0.003099 0.000000 -0.002773 0.000000
# 2 -0.003803 0.014109 -0.006244 0.000000 0.000767 0.000000
# 3 -0.003099 -0.006244 0.013089 0.000000 -0.003461 0.000000
# 4 0.000000 0.000000 0.000000 0.023672 0.000000 -0.000465
# 5 -0.002773 0.000767 -0.003461 0.000000 0.043481 0.000000
# 6 0.000000 0.000000 0.000000 -0.000465 0.000000 0.036041
#
#
# Mechanical properties :
#
#
# Convention : Reuss Voigt Hill
#
# Bulk Modulus (GPa) = 43.83419 54.31440 49.07429
# Shear Modulus (GPa) = 26.85373 29.47017 28.16195
#
# Velocity S-wave (km/s) = 3.71025 3.88680 3.79955
# Velocity P-wave (km/s) = 6.38946 6.92719 6.66375
#
# Compressibility (1/GPa) = 0.02281324
#
# Stress axis : x y z
#
# Youngs Moduli (GPa) = 45.64860 70.87586 76.40280
#
# Poissons Ratio (x) = 0.26951 0.23677
# Poissons Ratio (y) = 0.17358 0.47706
# Poissons Ratio (z) = 0.14146 0.44255
#
# Static dielectric constant tensor:
#      x y z
#    x 3.573720 0.000000 -0.054030 
#    y 0.000000 3.649250 0.000000 
#    z -0.054030 0.000000 3.507880 
# 
# 
# High freq. dielectric constant tensor:
#      x y z
#    x 1.756190 0.000000 -0.005830 
#    y 0.000000 1.767460 0.000000 
#    z -0.005830 0.000000 1.760880 
# 
# From -- ./inp_files/69030.got.cif
#   From: 2010.06.25/outbox.cif.g09.slc.cpg/sg11_35_cif.got.tgz:69030.got - 2010.06.27 23:14:04.
