data_PCOD8074603
_publ_section_title
;
Structure prediction by ZEFSAII (Michael W. Deem and Ramdas Pophale) SiO2 
 PCOD8074603
Probable space group: P 21/M
;
_chemical_formula_sum "Si O2"
_cell_formula_units_Z 20
_cell_length_a 9.292148
_cell_length_b 9.660352
_cell_length_c 12.111246
_cell_angle_alpha 90.000000
_cell_angle_beta 77.748523
_cell_angle_gamma 90.000000
_cell_volume 1062.411461
_symmetry_space_group_name_H-M "P 21/M"
_symmetry_group_IT_number 11
_symmetry_cell_setting 'monoclinic'
loop_
_space_group_symop_operation_xyz
x,y,z
-x,1/2+y,-z
-x,-y,-z
x,1/2-y,z
loop_
_atom_site_type_symbol
_atom_site_label
_atom_site_fract_x
_atom_site_fract_y
_atom_site_fract_z
Si Si1 0.390427 0.094652 0.583516
Si Si2 0.296583 0.089705 0.210161
Si Si3 0.862553 0.590428 0.984810
Si Si4 0.579501 0.912139 0.170744
Si Si5 0.861140 0.593524 0.541914
O O1 0.452672 0.250000 0.565550
O O2 0.377912 0.047011 0.711555
O O3 0.230386 0.084317 0.555633
O O4 0.500000 0.000000 0.500000
O O5 0.346284 0.250000 0.206257
O O6 0.233963 0.039782 0.338446
O O7 0.437777 0.998463 0.155388
O O8 0.169386 0.067605 0.139711
O O9 0.899828 0.750000 0.004637
O O10 0.717270 0.543369 0.074116
O O11 0.000000 0.500000 0.000000
O O12 0.543652 0.750000 0.162792
O O13 0.913192 0.750000 0.557465
O O14 0.000000 0.500000 0.500000
#
# Coordination Sequence:
#
# PCOD8074603 Si02
#       5
#     4   4   4   4   4
#     4  10  20  36  57  83 113 144 182 226 273 327
#     4  10  21  39  59  82 112 146 186 229 274 328
#     4  10  23  40  58  83 113 145 185 230 277 328
#     4  10  21  37  59  85 111 144 186 229 273 328
#     4  10  22  37  55  82 115 148 183 226 273 326
#
# _framework density 18.825099000000002
#
# number of rings (size 3 to 8) (size 9 to 14) (size 15 to 20)
#    0.000    2.000    2.000    0.600    2.800    3.200 
#    0.000    0.000    0.000    0.000    0.000    0.000 
#    0.000    0.000    0.000    0.000    0.000    0.000 
#
# Total GULP energy -248064.779567 kJ/mol
# GULP energy per Si atom -12403.238978 kJ/mol
# Density = 1.878225 g / cm^3
# Si number density = 18.825099 Si / 1000 Ang^3
#
#
#
# Elastic Constant Matrix: (Units=GPa)
#
#
# Indices 1 2 3 4 5 6 
#
# 1 114.4888 62.4010 30.3589 0.0000 -4.1718 0.0000
# 2 62.4010 70.0605 24.6419 0.0000 -5.5183 0.0000
# 3 30.3589 24.6419 80.9511 0.0000 6.2673 0.0000
# 4 0.0000 0.0000 0.0000 26.0431 0.0000 -2.2864
# 5 -4.1718 -5.5183 6.2673 0.0000 31.1362 0.0000
# 6 0.0000 0.0000 0.0000 -2.2864 0.0000 45.6370
#
#
#
# Elastic Compliance Matrix: (Units=1/GPa)
#
#
# Indices 1 2 3 4 5 6 
#
# 1 0.017262 -0.014654 -0.002023 0.000000 0.000123 0.000000
# 2 -0.014654 0.028898 -0.003602 0.000000 0.003883 0.000000
# 3 -0.002023 -0.003602 0.014504 0.000000 -0.003829 0.000000
# 4 0.000000 0.000000 0.000000 0.038568 0.000000 0.001932
# 5 0.000123 0.003883 -0.003829 0.000000 0.033592 0.000000
# 6 0.000000 0.000000 0.000000 0.001932 0.000000 0.022009
#
#
# Mechanical properties :
#
#
# Convention : Reuss Voigt Hill
#
# Bulk Modulus (GPa) = 49.73098 55.58933 52.66015
# Shear Modulus (GPa) = 24.74112 30.43650 27.58881
#
# Velocity S-wave (km/s) = 3.62921 4.02531 3.83238
# Velocity P-wave (km/s) = 6.63598 7.15525 6.90050
#
# Compressibility (1/GPa) = 0.02010819
#
# Stress axis : x y z
#
# Youngs Moduli (GPa) = 57.92966 34.60452 68.94432
#
# Poissons Ratio (x) = 0.50709 0.13945
# Poissons Ratio (y) = 0.84890 0.24831
# Poissons Ratio (z) = 0.11717 0.12463
#
# Static dielectric constant tensor:
#      x y z
#    x 3.297050 0.000000 0.103010 
#    y 0.000000 3.463510 0.000000 
#    z 0.103010 0.000000 4.078740 
# 
# 
# High freq. dielectric constant tensor:
#      x y z
#    x 1.723250 0.000000 0.006960 
#    y 0.000000 1.727790 0.000000 
#    z 0.006960 0.000000 1.749270 
# 
# From -- ./inp_files/15874.got.cif
#   From: 2010.06.25/outbox.cif.g09.slc.cpg/sg11_8_cif.got.tgz:15874.got - 2010.06.27 23:14:04.
