data_PCOD8074250
_publ_section_title
;
Structure prediction by ZEFSAII (Michael W. Deem and Ramdas Pophale) SiO2 
 PCOD8074250
Probable space group: P 21/M
;
_chemical_formula_sum "Si O2"
_cell_formula_units_Z 28
_cell_length_a 12.277583
_cell_length_b 21.641256
_cell_length_c 5.270151
_cell_angle_alpha 90.000000
_cell_angle_beta 75.502455
_cell_angle_gamma 90.000000
_cell_volume 1355.703769
_symmetry_space_group_name_H-M "P 21/M"
_symmetry_group_IT_number 11
_symmetry_cell_setting 'monoclinic'
loop_
_space_group_symop_operation_xyz
x,y,z
-x,1/2+y,-z
-x,-y,-z
x,1/2-y,z
loop_
_atom_site_type_symbol
_atom_site_label
_atom_site_fract_x
_atom_site_fract_y
_atom_site_fract_z
Si Si1 0.218368 0.388107 0.018894
Si Si2 0.006666 0.183250 0.153475
Si Si3 0.543149 0.823995 0.094189
Si Si4 0.800105 0.182278 0.942714
Si Si5 0.420421 0.821198 0.663162
Si Si6 0.860847 0.547279 0.420420
Si Si7 0.902782 0.415953 0.573355
O O1 0.340456 0.359032 0.944605
O O2 0.205564 0.438103 0.800369
O O3 0.192426 0.416920 0.309132
O O4 0.133810 0.332076 0.999434
O O5 0.004910 0.250000 0.297408
O O6 0.961583 0.127291 0.338878
O O7 0.928628 0.188794 0.953349
O O8 0.560445 0.750000 0.085861
O O9 0.463495 0.848292 0.371048
O O10 0.485478 0.848428 0.869693
O O11 0.764700 0.250000 0.840766
O O12 0.800917 0.123619 0.755921
O O13 0.713718 0.167533 0.222917
O O14 0.450221 0.750000 0.637412
O O15 0.845077 0.474297 0.473865
O O16 0.994682 0.561793 0.302117
#
# Coordination Sequence:
#
# PCOD8074250 Si02
#       7
#     4   4   4   4   4   4   4
#     4  11  21  39  58  86 115 150 188 240 279 335
#     4  10  21  34  56  90 119 145 178 232 299 346
#     4  10  20  37  59  83 113 150 190 235 284 338
#     4  10  20  35  57  86 118 147 182 236 291 342
#     4   9  20  35  56  83 111 149 191 226 280 347
#     4  10  23  36  60  82 116 155 197 227 274 339
#     4  10  21  36  56  82 119 154 191 228 281 343
#
# _framework density 20.653480999999999
#
# number of rings (size 3 to 8) (size 9 to 14) (size 15 to 20)
#    0.000    2.000    1.429    1.714    4.000    1.714 
#    0.000    1.429    0.000    5.143    0.000    0.000 
#    0.000    0.000    0.000    0.000    0.000    0.000 
#
# Total GULP energy -346955.712003 kJ/mol
# GULP energy per Si atom -12391.275429 kJ/mol
# Density = 2.060647 g / cm^3
# Si number density = 20.653481 Si / 1000 Ang^3
#
#
#
# Elastic Constant Matrix: (Units=GPa)
#
#
# Indices 1 2 3 4 5 6 
#
# 1 51.9584 12.7673 12.3389 0.0000 -12.3503 0.0000
# 2 12.7673 95.3625 11.4628 0.0000 -14.5805 0.0000
# 3 12.3389 11.4628 87.4306 0.0000 -9.4951 0.0000
# 4 0.0000 0.0000 0.0000 34.9945 0.0000 -19.1441
# 5 -12.3503 -14.5805 -9.4951 0.0000 35.3183 0.0000
# 6 0.0000 0.0000 0.0000 -19.1441 0.0000 41.4350
#
#
#
# Elastic Compliance Matrix: (Units=1/GPa)
#
#
# Indices 1 2 3 4 5 6 
#
# 1 0.021669 -0.001678 -0.002153 0.000000 0.006306 0.000000
# 2 -0.001678 0.011407 -0.000835 0.000000 0.003898 0.000000
# 3 -0.002153 -0.000835 0.012085 0.000000 0.002151 0.000000
# 4 0.000000 0.000000 0.000000 0.038242 0.000000 0.017669
# 5 0.006306 0.003898 0.002151 0.000000 0.032706 0.000000
# 6 0.000000 0.000000 0.000000 0.017669 0.000000 0.032298
#
#
# Mechanical properties :
#
#
# Convention : Reuss Voigt Hill
#
# Bulk Modulus (GPa) = 27.91185 34.20993 31.06089
# Shear Modulus (GPa) = 29.46682 35.56173 32.51428
#
# Velocity S-wave (km/s) = 3.78130 4.15399 3.97202
# Velocity P-wave (km/s) = 5.71034 6.29343 6.00896
#
# Compressibility (1/GPa) = 0.03582708
#
# Stress axis : x y z
#
# Youngs Moduli (GPa) = 46.14961 87.66275 82.74946
#
# Poissons Ratio (x) = 0.14711 0.17818
# Poissons Ratio (y) = 0.07744 0.06913
# Poissons Ratio (z) = 0.09937 0.07324
#
# Static dielectric constant tensor:
#      x y z
#    x 3.787580 0.000000 -0.082670 
#    y 0.000000 3.909380 0.000000 
#    z -0.082670 0.000000 3.812680 
# 
# 
# High freq. dielectric constant tensor:
#      x y z
#    x 1.796710 0.000000 -0.003630 
#    y 0.000000 1.794210 0.000000 
#    z -0.003630 0.000000 1.805610 
# 
# From -- ./inp_files/5016.got.cif
#   From: 2010.06.25/outbox.cif.g09.slc.cpg/sg11_3_cif.got.tgz:5016.got - 2010.06.27 23:14:04.
