data_PCOD8074521
_publ_section_title
;
Structure prediction by ZEFSAII (Michael W. Deem and Ramdas Pophale) SiO2 
 PCOD8074521
Probable space group: P 21/M
;
_chemical_formula_sum "Si O2"
_cell_formula_units_Z 24
_cell_length_a 20.837121
_cell_length_b 13.584305
_cell_length_c 12.030789
_cell_angle_alpha 90.000000
_cell_angle_beta 158.690557
_cell_angle_gamma 90.000000
_cell_volume 1237.541814
_symmetry_space_group_name_H-M "P 21/M"
_symmetry_group_IT_number 11
_symmetry_cell_setting 'monoclinic'
loop_
_space_group_symop_operation_xyz
x,y,z
-x,1/2+y,-z
-x,-y,-z
x,1/2-y,z
loop_
_atom_site_type_symbol
_atom_site_label
_atom_site_fract_x
_atom_site_fract_y
_atom_site_fract_z
Si Si1 0.791262 0.514429 0.276460
Si Si2 0.855151 0.862916 0.590747
Si Si3 0.391000 0.468429 0.642589
Si Si4 0.873996 0.138149 0.780991
Si Si5 0.906115 0.865029 0.262180
Si Si6 0.806522 0.636115 0.854406
O O1 0.880445 0.572152 0.522023
O O2 0.782467 0.587490 0.156856
O O3 0.903770 0.417433 0.430028
O O4 0.597440 0.478861 0.995991
O O5 0.828151 0.750000 0.512040
O O6 0.684345 0.895116 0.385761
O O7 0.032100 0.876124 0.948742
O O8 0.302594 0.575219 0.511578
O O9 0.352948 0.424728 0.458379
O O10 0.816070 0.250000 0.667520
O O11 0.007575 0.101531 0.899912
O O12 0.937396 0.750000 0.335715
O O13 0.805818 0.882255 0.984289
O O14 0.778549 0.750000 0.778809
#
# Coordination Sequence:
#
# PCOD8074521 Si02
#       6
#     4   4   4   4   4   4
#     4  11  23  36  55  82 110 142 180 223 270 319
#     4  10  20  36  56  81 114 146 175 212 267 327
#     4  11  20  33  56  84 111 135 174 228 275 315
#     4   9  18  32  54  80 107 142 179 218 265 319
#     4  10  22  40  57  73 104 149 188 221 263 318
#     4   9  18  35  57  78 103 140 182 218 260 318
#
# _framework density 19.393284999999999
#
# number of rings (size 3 to 8) (size 9 to 14) (size 15 to 20)
#    0.000    2.000    0.000    6.500    0.000    3.333 
#    0.000    1.667    0.000    4.000    0.000    0.000 
#    0.000    0.000    0.000    0.000    0.000    0.000 
#
# Total GULP energy -297704.014089 kJ/mol
# GULP energy per Si atom -12404.333920 kJ/mol
# Density = 1.934914 g / cm^3
# Si number density = 19.393285 Si / 1000 Ang^3
#
#
#
# Elastic Constant Matrix: (Units=GPa)
#
#
# Indices 1 2 3 4 5 6 
#
# 1 62.3833 9.4887 -5.1628 0.0000 -16.1815 0.0000
# 2 9.4887 83.8670 8.0112 0.0000 -4.7942 0.0000
# 3 -5.1628 8.0112 28.4678 0.0000 6.4818 0.0000
# 4 0.0000 0.0000 0.0000 16.6849 0.0000 -5.4332
# 5 -16.1815 -4.7942 6.4818 0.0000 27.3361 0.0000
# 6 0.0000 0.0000 0.0000 -5.4332 0.0000 33.8459
#
#
#
# Elastic Compliance Matrix: (Units=1/GPa)
#
#
# Indices 1 2 3 4 5 6 
#
# 1 0.019191 -0.001705 0.001524 0.000000 0.010699 0.000000
# 2 -0.001705 0.012664 -0.004386 0.000000 0.002252 0.000000
# 3 0.001524 -0.004386 0.038697 0.000000 -0.009043 0.000000
# 4 0.000000 0.000000 0.000000 0.063240 0.000000 0.010152
# 5 0.010699 0.002252 -0.009043 0.000000 0.045454 0.000000
# 6 0.000000 0.000000 0.000000 0.010152 0.000000 0.031175
#
#
# Mechanical properties :
#
#
# Convention : Reuss Voigt Hill
#
# Bulk Modulus (GPa) = 16.28188 22.15471 19.21830
# Shear Modulus (GPa) = 20.83088 26.39877 23.61482
#
# Velocity S-wave (km/s) = 3.28095 3.69349 3.49331
# Velocity P-wave (km/s) = 4.77144 5.44407 5.11881
#
# Compressibility (1/GPa) = 0.06141798
#
# Stress axis : x y z
#
# Youngs Moduli (GPa) = 52.10839 78.96262 25.84191
#
# Poissons Ratio (x) = 0.13465 -0.03938
# Poissons Ratio (y) = 0.08885 0.11334
# Poissons Ratio (z) = -0.07942 0.34631
#
# Static dielectric constant tensor:
#      x y z
#    x 3.569750 0.000000 -0.210080 
#    y 0.000000 3.720620 0.000000 
#    z -0.210080 0.000000 3.192380 
# 
# 
# High freq. dielectric constant tensor:
#      x y z
#    x 1.751670 0.000000 -0.019290 
#    y 0.000000 1.773960 0.000000 
#    z -0.019290 0.000000 1.729670 
# 
# From -- ./inp_files/17359.got.cif
#   From: 2010.06.25/outbox.cif.g09.slc.cpg/sg11_9_cif.got.tgz:17359.got - 2010.06.27 23:14:04.
