data_PCOD8074437
_publ_section_title
;
Structure prediction by ZEFSAII (Michael W. Deem and Ramdas Pophale) SiO2 
 PCOD8074437
Probable space group: P 21/M
;
_chemical_formula_sum "Si O2"
_cell_formula_units_Z 32
_cell_length_a 15.763920
_cell_length_b 9.346428
_cell_length_c 23.862046
_cell_angle_alpha 90.000000
_cell_angle_beta 150.490670
_cell_angle_gamma 90.000000
_cell_volume 1731.734714
_symmetry_space_group_name_H-M "P 21/M"
_symmetry_group_IT_number 11
_symmetry_cell_setting 'monoclinic'
loop_
_space_group_symop_operation_xyz
x,y,z
-x,1/2+y,-z
-x,-y,-z
x,1/2-y,z
loop_
_atom_site_type_symbol
_atom_site_label
_atom_site_fract_x
_atom_site_fract_y
_atom_site_fract_z
Si Si1 0.254826 0.414049 0.650745
Si Si2 0.538599 0.912599 0.467265
Si Si3 0.260005 0.405921 0.261763
Si Si4 0.067988 0.414732 0.339995
Si Si5 0.642146 0.416961 0.895800
Si Si6 0.059520 0.917320 0.448984
Si Si7 0.836868 0.594047 0.917912
Si Si8 0.064009 0.918637 0.853559
O O1 0.247056 0.250000 0.625866
O O2 0.439098 0.448921 0.785211
O O3 0.216815 0.510446 0.573963
O O4 0.116567 0.445354 0.619184
O O5 0.485635 0.750000 0.445992
O O6 0.733534 0.929226 0.561111
O O7 0.500000 0.000000 0.500000
O O8 0.415112 0.981835 0.350432
O O9 0.302702 0.250000 0.314995
O O10 0.242857 0.375281 0.187389
O O11 0.089829 0.473531 0.193970
O O12 0.020409 0.250000 0.326528
O O13 0.029885 0.512495 0.371487
O O14 0.958310 0.474262 0.223326
O O15 0.677566 0.250000 0.903761
O O16 0.703605 0.508969 0.879097
O O17 0.750188 0.464063 0.013625
O O18 0.100955 0.750000 0.465666
O O19 0.881199 0.750000 0.970545
O O20 0.000000 0.500000 0.000000
O O21 0.048032 0.750000 0.842028
#
# Coordination Sequence:
#
# PCOD8074437 Si02
#       8
#     4   4   4   4   4   4   4   4
#     4   9  20  39  62  86 111 141 179 224 279 340
#     4  11  22  35  53  78 109 146 188 230 273 324
#     4  10  20  36  52  72 108 149 188 228 271 324
#     4  10  21  37  56  79 109 147 188 224 270 335
#     4  10  20  37  60  82 108 145 187 228 277 334
#     4  10  21  38  60  85 113 142 177 227 281 330
#     4  11  22  35  53  79 112 148 188 229 273 323
#     4   9  17  35  57  76 105 147 185 219 266 323
#
# _framework density 18.478579
#
# number of rings (size 3 to 8) (size 9 to 14) (size 15 to 20)
#    0.000    2.000    2.500    1.125    1.750    3.000 
#    0.000    1.250    0.000    0.000    0.000    0.000 
#    0.000    0.000    0.000    0.000    0.000    0.000 
#
# Total GULP energy -396601.207087 kJ/mol
# GULP energy per Si atom -12393.787721 kJ/mol
# Density = 1.843652 g / cm^3
# Si number density = 18.478579 Si / 1000 Ang^3
#
#
#
# Elastic Constant Matrix: (Units=GPa)
#
#
# Indices 1 2 3 4 5 6 
#
# 1 89.5811 50.4696 48.7932 0.0000 -18.4356 0.0000
# 2 50.4696 101.3358 56.1656 0.0000 -3.1684 0.0000
# 3 48.7932 56.1656 136.2030 0.0000 -9.6477 0.0000
# 4 0.0000 0.0000 0.0000 23.4767 0.0000 -1.9850
# 5 -18.4356 -3.1684 -9.6477 0.0000 28.6556 0.0000
# 6 0.0000 0.0000 0.0000 -1.9850 0.0000 31.5644
#
#
#
# Elastic Compliance Matrix: (Units=1/GPa)
#
#
# Indices 1 2 3 4 5 6 
#
# 1 0.019247 -0.007581 -0.003023 0.000000 0.010527 0.000000
# 2 -0.007581 0.015782 -0.004112 0.000000 -0.004517 0.000000
# 3 -0.003023 -0.004112 0.010194 0.000000 0.001032 0.000000
# 4 0.000000 0.000000 0.000000 0.042823 0.000000 0.002693
# 5 0.010527 -0.004517 0.001032 0.000000 0.041518 0.000000
# 6 0.000000 0.000000 0.000000 0.002693 0.000000 0.031851
#
#
# Mechanical properties :
#
#
# Convention : Reuss Voigt Hill
#
# Bulk Modulus (GPa) = 63.33094 70.88630 67.10862
# Shear Modulus (GPa) = 25.49582 28.18543 26.84062
#
# Velocity S-wave (km/s) = 3.71853 3.90975 3.81534
# Velocity P-wave (km/s) = 7.26523 7.66982 7.47027
#
# Compressibility (1/GPa) = 0.01579007
#
# Stress axis : x y z
#
# Youngs Moduli (GPa) = 51.95515 63.36420 98.09895
#
# Poissons Ratio (x) = 0.48038 0.29658
# Poissons Ratio (y) = 0.39388 0.40338
# Poissons Ratio (z) = 0.15708 0.26055
#
# Static dielectric constant tensor:
#      x y z
#    x 3.236750 0.000000 -0.260680 
#    y 0.000000 3.936800 0.000000 
#    z -0.260680 0.000000 3.695780 
# 
# 
# High freq. dielectric constant tensor:
#      x y z
#    x 1.703320 0.000000 -0.010090 
#    y 0.000000 1.713570 0.000000 
#    z -0.010090 0.000000 1.721190 
# 
# From -- ./inp_files/69136.got.cif
#   From: 2010.06.25/outbox.cif.g09.slc.cpg/sg11_35_cif.got.tgz:69136.got - 2010.06.27 23:14:04.
