data_PCOD8074612
_publ_section_title
;
Structure prediction by ZEFSAII (Michael W. Deem and Ramdas Pophale) SiO2 
 PCOD8074612
Probable space group: P 21/M
;
_chemical_formula_sum "Si O2"
_cell_formula_units_Z 28
_cell_length_a 12.514743
_cell_length_b 9.294553
_cell_length_c 14.519291
_cell_angle_alpha 90.000000
_cell_angle_beta 119.558882
_cell_angle_gamma 90.000000
_cell_volume 1469.060940
_symmetry_space_group_name_H-M "P 21/M"
_symmetry_group_IT_number 11
_symmetry_cell_setting 'monoclinic'
loop_
_space_group_symop_operation_xyz
x,y,z
-x,1/2+y,-z
-x,-y,-z
x,1/2-y,z
loop_
_atom_site_type_symbol
_atom_site_label
_atom_site_fract_x
_atom_site_fract_y
_atom_site_fract_z
Si Si1 0.292234 0.081781 0.474463
Si Si2 0.035582 0.916620 0.105733
Si Si3 0.866655 0.913534 0.204547
Si Si4 0.983778 0.917764 0.587105
Si Si5 0.462128 0.417884 0.709628
Si Si6 0.704210 0.418005 0.707458
Si Si7 0.583888 0.583462 0.106363
O O1 0.319579 0.250000 0.472407
O O2 0.369125 0.018107 0.593504
O O3 0.149731 0.049704 0.429279
O O4 0.335411 0.000659 0.401323
O O5 0.048034 0.750000 0.085662
O O6 0.165209 0.974868 0.199837
O O7 0.929002 0.946173 0.133688
O O8 0.000000 0.000000 0.000000
O O9 0.895818 0.750000 0.249121
O O10 0.722591 0.937966 0.132082
O O11 0.915231 0.024716 0.299834
O O12 0.005107 0.750000 0.579099
O O13 0.000000 0.000000 0.500000
O O14 0.433882 0.250000 0.703004
O O15 0.602595 0.450336 0.741998
O O16 0.434758 0.483228 0.798952
O O17 0.710918 0.250000 0.685834
O O18 0.544814 0.750000 0.088645
O O19 0.500000 0.500000 0.000000
#
# Coordination Sequence:
#
# PCOD8074612 Si02
#       7
#     4   4   4   4   4   4   4
#     4  10  20  36  57  84 114 147 186 227 279 338
#     4  10  22  37  57  84 114 149 189 235 286 336
#     4  10  21  40  60  82 115 151 188 237 288 336
#     4  11  22  35  57  86 116 153 191 233 282 339
#     4   9  19  36  57  81 112 149 185 225 280 336
#     4  10  20  36  58  84 113 147 184 229 281 333
#     4  10  22  40  61  82 111 150 190 236 283 336
#
# _framework density 19.059794
#
# number of rings (size 3 to 8) (size 9 to 14) (size 15 to 20)
#    0.000    2.000    1.429    1.714    2.000    4.571 
#    0.000    1.429    0.000    0.000    0.000    0.000 
#    0.000    0.000    0.000    0.000    0.000    0.000 
#
# Total GULP energy -347294.047950 kJ/mol
# GULP energy per Si atom -12403.358855 kJ/mol
# Density = 1.901641 g / cm^3
# Si number density = 19.059794 Si / 1000 Ang^3
#
#
#
# Elastic Constant Matrix: (Units=GPa)
#
#
# Indices 1 2 3 4 5 6 
#
# 1 107.3399 38.2942 63.3746 0.0000 -0.9844 0.0000
# 2 38.2942 56.3410 49.3081 0.0000 -3.6717 0.0000
# 3 63.3746 49.3081 159.6113 0.0000 -5.1610 0.0000
# 4 0.0000 0.0000 0.0000 39.1030 0.0000 -5.7303
# 5 -0.9844 -3.6717 -5.1610 0.0000 31.1076 0.0000
# 6 0.0000 0.0000 0.0000 -5.7303 0.0000 17.0716
#
#
#
# Elastic Compliance Matrix: (Units=1/GPa)
#
#
# Indices 1 2 3 4 5 6 
#
# 1 0.013601 -0.006237 -0.003502 0.000000 -0.000887 0.000000
# 2 -0.006237 0.027269 -0.005881 0.000000 0.002045 0.000000
# 3 -0.003502 -0.005881 0.009498 0.000000 0.000771 0.000000
# 4 0.000000 0.000000 0.000000 0.026896 0.000000 0.009028
# 5 -0.000887 0.002045 0.000771 0.000000 0.032488 0.000000
# 6 0.000000 0.000000 0.000000 0.009028 0.000000 0.061607
#
#
# Mechanical properties :
#
#
# Convention : Reuss Voigt Hill
#
# Bulk Modulus (GPa) = 52.28497 69.47179 60.87838
# Shear Modulus (GPa) = 23.92621 28.94413 26.43517
#
# Velocity S-wave (km/s) = 3.54690 3.90114 3.72823
# Velocity P-wave (km/s) = 6.65324 7.53793 7.10936
#
# Compressibility (1/GPa) = 0.01912595
#
# Stress axis : x y z
#
# Youngs Moduli (GPa) = 73.52429 36.67170 105.28924
#
# Poissons Ratio (x) = 0.22873 0.36874
# Poissons Ratio (y) = 0.45858 0.61925
# Poissons Ratio (z) = 0.25750 0.21568
#
# Static dielectric constant tensor:
#      x y z
#    x 3.740230 0.000000 -0.029130 
#    y 0.000000 3.361330 0.000000 
#    z -0.029130 0.000000 3.535990 
# 
# 
# High freq. dielectric constant tensor:
#      x y z
#    x 1.757310 0.000000 0.000110 
#    y 0.000000 1.719260 0.000000 
#    z 0.000110 0.000000 1.747890 
# 
# From -- ./inp_files/38412.got.cif
#   From: 2010.06.25/outbox.cif.g09.slc.cpg/sg11_20_cif.got.tgz:38412.got - 2010.06.27 23:14:04.
