data_PCOD8074689
_publ_section_title
;
Structure prediction by ZEFSAII (Michael W. Deem and Ramdas Pophale) SiO2 
 PCOD8074689
Probable space group: P 21/M
;
_chemical_formula_sum "Si O2"
_cell_formula_units_Z 24
_cell_length_a 10.279615
_cell_length_b 18.903028
_cell_length_c 10.279612
_cell_angle_alpha 90.000000
_cell_angle_beta 137.179604
_cell_angle_gamma 90.000000
_cell_volume 1357.699902
_symmetry_space_group_name_H-M "P 21/M"
_symmetry_group_IT_number 11
_symmetry_cell_setting 'monoclinic'
loop_
_space_group_symop_operation_xyz
x,y,z
-x,1/2+y,-z
-x,-y,-z
x,1/2-y,z
loop_
_atom_site_type_symbol
_atom_site_label
_atom_site_fract_x
_atom_site_fract_y
_atom_site_fract_z
Si Si1 0.407724 0.328619 0.686141
Si Si2 0.469980 0.473222 0.622559
Si Si3 0.923878 0.034014 0.576122
Si Si4 0.877441 0.026778 0.030020
Si Si5 0.186146 0.671381 0.907725
Si Si6 0.998544 0.170517 0.501454
O O1 0.395025 0.250000 0.612020
O O2 0.431617 0.388262 0.591987
O O3 0.219049 0.344826 0.629998
O O4 0.584297 0.332337 0.915699
O O5 0.500000 0.500000 0.500000
O O6 0.293836 0.512648 0.559343
O O7 0.655707 0.491235 0.844293
O O8 0.932097 0.118874 0.567907
O O9 0.000000 0.000000 0.500000
O O10 0.059343 0.012647 0.793835
O O11 0.908010 0.111739 0.068381
O O12 0.000000 0.000000 0.000000
O O13 0.112024 0.750000 0.895022
O O14 0.130004 0.655172 0.719052
O O15 0.969161 0.250000 0.530834
#
# Coordination Sequence:
#
# PCOD8074689 Si02
#       6
#     4   4   4   4   4   4
#     4   9  18  33  55  83 111 147 196 236 282 347
#     4  11  22  37  59  85 120 155 191 240 293 344
#     4  12  22  38  60  90 117 146 199 238 288 344
#     4  11  22  37  59  85 120 155 191 240 293 344
#     4   9  18  33  55  83 111 147 196 236 282 347
#     4  10  20  36  58  84 118 152 188 240 290 338
#
# _framework density 17.676953999999999
#
# number of rings (size 3 to 8) (size 9 to 14) (size 15 to 20)
#    0.000    1.667    5.000    0.000    0.000    2.000 
#    0.000    1.667    0.000    2.000    0.000    0.000 
#    0.000    0.000    0.000    0.000    0.000    0.000 
#
# Total GULP energy -297538.768096 kJ/mol
# GULP energy per Si atom -12397.448671 kJ/mol
# Density = 1.763672 g / cm^3
# Si number density = 17.676954 Si / 1000 Ang^3
#
#
#
# Elastic Constant Matrix: (Units=GPa)
#
#
# Indices 1 2 3 4 5 6 
#
# 1 114.0005 76.3962 58.8347 0.0000 1.0065 0.0000
# 2 76.3962 166.7893 70.4555 0.0000 -3.5401 0.0000
# 3 58.8347 70.4555 120.8545 0.0000 3.0774 0.0000
# 4 0.0000 0.0000 0.0000 27.0398 0.0000 -1.5589
# 5 1.0065 -3.5401 3.0774 0.0000 29.6617 0.0000
# 6 0.0000 0.0000 0.0000 -1.5589 0.0000 29.6558
#
#
#
# Elastic Compliance Matrix: (Units=1/GPa)
#
#
# Indices 1 2 3 4 5 6 
#
# 1 0.014044 -0.004729 -0.004064 0.000000 -0.000619 0.000000
# 2 -0.004729 0.009608 -0.003341 0.000000 0.001654 0.000000
# 3 -0.004064 -0.003341 0.012240 0.000000 -0.001531 0.000000
# 4 0.000000 0.000000 0.000000 0.037095 0.000000 0.001950
# 5 -0.000619 0.001654 -0.001531 0.000000 0.034091 0.000000
# 6 0.000000 0.000000 0.000000 0.001950 0.000000 0.033823
#
#
# Mechanical properties :
#
#
# Convention : Reuss Voigt Hill
#
# Bulk Modulus (GPa) = 86.03680 90.33521 88.18601
# Shear Modulus (GPa) = 29.57812 30.33532 29.95672
#
# Velocity S-wave (km/s) = 4.09499 4.14707 4.12111
# Velocity P-wave (km/s) = 8.43421 8.61076 8.52295
#
# Compressibility (1/GPa) = 0.01162293
#
# Stress axis : x y z
#
# Youngs Moduli (GPa) = 71.20487 104.07774 81.70030
#
# Poissons Ratio (x) = 0.49219 0.33205
# Poissons Ratio (y) = 0.33673 0.27298
# Poissons Ratio (z) = 0.28939 0.34775
#
# Static dielectric constant tensor:
#      x y z
#    x 3.396130 0.000000 0.114590 
#    y 0.000000 3.858730 0.000000 
#    z 0.114590 0.000000 3.588480 
# 
# 
# High freq. dielectric constant tensor:
#      x y z
#    x 1.653980 0.000000 0.025070 
#    y 0.000000 1.701300 0.000000 
#    z 0.025070 0.000000 1.696050 
# 
# From -- ./inp_files/14218.got.cif
#   From: 2010.06.25/outbox.cif.g09.slc.cpg/sg11_8_cif.got.tgz:14218.got - 2010.06.27 23:14:04.
