data_PCOD8074661
_publ_section_title
;
Structure prediction by ZEFSAII (Michael W. Deem and Ramdas Pophale) SiO2 
 PCOD8074661
Probable space group: P 21/M
;
_chemical_formula_sum "Si O2"
_cell_formula_units_Z 32
_cell_length_a 12.353546
_cell_length_b 8.912992
_cell_length_c 28.763759
_cell_angle_alpha 90.000000
_cell_angle_beta 30.007959
_cell_angle_gamma 90.000000
_cell_volume 1583.927408
_symmetry_space_group_name_H-M "P 21/M"
_symmetry_group_IT_number 11
_symmetry_cell_setting 'monoclinic'
loop_
_space_group_symop_operation_xyz
x,y,z
-x,1/2+y,-z
-x,-y,-z
x,1/2-y,z
loop_
_atom_site_type_symbol
_atom_site_label
_atom_site_fract_x
_atom_site_fract_y
_atom_site_fract_z
Si Si1 0.524069 0.423459 0.297075
Si Si2 0.430763 0.927966 0.977026
Si Si3 0.546594 0.579942 0.530037
Si Si4 0.929725 0.083536 0.275234
Si Si5 0.000922 0.576387 0.854680
Si Si6 0.794596 0.076955 0.513705
Si Si7 0.258247 0.420929 0.309179
Si Si8 0.748964 0.425543 0.785789
O O1 0.521158 0.250000 0.312780
O O2 0.764481 0.489016 0.217138
O O3 0.334785 0.499131 0.397032
O O4 0.468998 0.446739 0.263074
O O5 0.440407 0.750000 0.978505
O O6 0.584742 0.979414 0.878040
O O7 0.500000 0.000000 0.000000
O O8 0.189671 0.979735 0.051123
O O9 0.500000 0.500000 0.500000
O O10 0.624766 0.750000 0.493281
O O11 0.324437 0.570911 0.641752
O O12 0.730551 0.489304 0.487707
O O13 0.982724 0.250000 0.274805
O O14 0.043870 0.056850 0.183581
O O15 0.011049 0.964735 0.283666
O O16 0.981487 0.750000 0.877084
O O17 0.733996 0.250000 0.538268
O O18 0.052197 0.047973 0.419655
O O19 0.248226 0.250000 0.294388
O O20 0.270761 0.531528 0.260856
O O21 0.703184 0.250000 0.808218
#
# Coordination Sequence:
#
# PCOD8074661 Si02
#       8
#     4   4   4   4   4   4   4   4
#     4  10  21  41  66  89 120 163 207 251 301 353
#     4  12  24  40  64  93 124 157 195 242 299 364
#     4  11  22  36  53  80 118 161 202 245 301 359
#     4  10  20  36  58  82 118 158 194 242 299 355
#     4  10  20  38  63  91 119 152 196 246 297 352
#     4  11  22  36  58  89 123 160 205 253 298 353
#     4  10  23  42  62  87 122 164 206 251 303 354
#     4  12  25  40  62  91 122 158 201 249 302 361
#
# _framework density 20.202947000000002
#
# number of rings (size 3 to 8) (size 9 to 14) (size 15 to 20)
#    0.000    1.250    2.500    4.125    0.000    6.000 
#    0.000    0.625    0.000    0.000    0.000    0.000 
#    0.000    0.000    0.000    0.000    0.000    0.000 
#
# Total GULP energy -396821.770708 kJ/mol
# GULP energy per Si atom -12400.680335 kJ/mol
# Density = 2.015696 g / cm^3
# Si number density = 20.202947 Si / 1000 Ang^3
#
#
#
# Elastic Constant Matrix: (Units=GPa)
#
#
# Indices 1 2 3 4 5 6 
#
# 1 93.3686 40.3745 29.0508 0.0000 -12.5820 0.0000
# 2 40.3745 107.1793 43.4936 0.0000 -6.4330 0.0000
# 3 29.0508 43.4936 73.2955 0.0000 -9.1819 0.0000
# 4 0.0000 0.0000 0.0000 34.0033 0.0000 3.3931
# 5 -12.5820 -6.4330 -9.1819 0.0000 24.6037 0.0000
# 6 0.0000 0.0000 0.0000 3.3931 0.0000 24.5431
#
#
#
# Elastic Compliance Matrix: (Units=1/GPa)
#
#
# Indices 1 2 3 4 5 6 
#
# 1 0.013874 -0.003883 -0.002553 0.000000 0.005127 0.000000
# 2 -0.003883 0.013382 -0.006517 0.000000 -0.000919 0.000000
# 3 -0.002553 -0.006517 0.019035 0.000000 0.004094 0.000000
# 4 0.000000 0.000000 0.000000 0.029820 0.000000 -0.004123
# 5 0.005127 -0.000919 0.004094 0.000000 0.044554 0.000000
# 6 0.000000 0.000000 0.000000 -0.004123 0.000000 0.041315
#
#
# Mechanical properties :
#
#
# Convention : Reuss Voigt Hill
#
# Bulk Modulus (GPa) = 49.05188 55.52015 52.28602
# Shear Modulus (GPa) = 25.68281 27.35831 26.52056
#
# Velocity S-wave (km/s) = 3.56931 3.68390 3.62706
# Velocity P-wave (km/s) = 6.42798 6.75542 6.59373
#
# Compressibility (1/GPa) = 0.02038658
#
# Stress axis : x y z
#
# Youngs Moduli (GPa) = 72.07478 74.72500 52.53348
#
# Poissons Ratio (x) = 0.29015 0.13411
# Poissons Ratio (y) = 0.27986 0.34237
# Poissons Ratio (z) = 0.18399 0.48700
#
# Static dielectric constant tensor:
#      x y z
#    x 3.590390 0.000000 -0.261630 
#    y 0.000000 4.031690 0.000000 
#    z -0.261630 0.000000 4.073300 
# 
# 
# High freq. dielectric constant tensor:
#      x y z
#    x 1.784030 0.000000 -0.010120 
#    y 0.000000 1.785480 0.000000 
#    z -0.010120 0.000000 1.791600 
# 
# From -- ./inp_files/73119.got.cif
#   From: 2010.06.25/outbox.cif.g09.slc.cpg/sg11_37_cif.got.tgz:73119.got - 2010.06.27 23:14:04.
