data_PCOD8074520
_publ_section_title
;
Structure prediction by ZEFSAII (Michael W. Deem and Ramdas Pophale) SiO2 
 PCOD8074520
Probable space group: P 21/M
;
_chemical_formula_sum "Si O2"
_cell_formula_units_Z 32
_cell_length_a 14.903844
_cell_length_b 8.791040
_cell_length_c 14.717923
_cell_angle_alpha 90.000000
_cell_angle_beta 60.353743
_cell_angle_gamma 90.000000
_cell_volume 1675.917995
_symmetry_space_group_name_H-M "P 21/M"
_symmetry_group_IT_number 11
_symmetry_cell_setting 'monoclinic'
loop_
_space_group_symop_operation_xyz
x,y,z
-x,1/2+y,-z
-x,-y,-z
x,1/2-y,z
loop_
_atom_site_type_symbol
_atom_site_label
_atom_site_fract_x
_atom_site_fract_y
_atom_site_fract_z
Si Si1 0.715270 0.069414 0.724046
Si Si2 0.769947 0.572525 0.224176
Si Si3 0.225300 0.924145 0.500470
Si Si4 0.506302 0.570360 0.897333
Si Si5 0.697298 0.926135 0.063235
Si Si6 0.837922 0.572175 0.822097
Si Si7 0.609264 0.075059 0.433544
Si Si8 0.073311 0.930145 0.726243
O O1 0.698091 0.250000 0.729654
O O2 0.760529 0.002922 0.606287
O O3 0.606214 0.990416 0.795696
O O4 0.797523 0.027088 0.759294
O O5 0.775167 0.750000 0.241028
O O6 0.760792 0.535654 0.122173
O O7 0.669044 0.506712 0.322727
O O8 0.874894 0.497796 0.209100
O O9 0.196796 0.750000 0.499277
O O10 0.331796 0.944297 0.501012
O O11 0.131857 0.996372 0.607008
O O12 0.514819 0.750000 0.903188
O O13 0.405833 0.526464 0.889574
O O14 0.500000 0.500000 0.000000
O O15 0.664261 0.750000 0.076778
O O16 0.771096 0.968848 0.943174
O O17 0.830707 0.750000 0.801237
O O18 0.954754 0.521375 0.782839
O O19 0.596683 0.250000 0.412827
O O20 0.500000 0.000000 0.500000
O O21 0.088607 0.750000 0.723724
#
# Coordination Sequence:
#
# PCOD8074520 Si02
#       8
#     4   4   4   4   4   4   4   4
#     4  11  22  37  58  85 115 152 192 235 287 343
#     4  10  21  37  57  83 115 152 192 238 290 338
#     4   8  18  36  56  79 113 150 186 231 288 338
#     4  12  24  39  59  84 115 152 191 238 289 340
#     4  10  22  39  58  83 118 156 192 234 288 343
#     4  10  21  38  60  84 113 152 195 238 287 342
#     4  10  20  36  56  81 112 150 191 235 288 346
#     4   9  19  39  62  83 113 153 192 238 291 341
#
# _framework density 19.094013
#
# number of rings (size 3 to 8) (size 9 to 14) (size 15 to 20)
#    0.000    2.000    1.250    3.000    1.750    2.500 
#    0.000    5.625    0.000    0.000    0.000    0.000 
#    0.000    0.000    0.000    0.000    0.000    0.000 
#
# Total GULP energy -396843.856944 kJ/mol
# GULP energy per Si atom -12401.370529 kJ/mol
# Density = 1.905055 g / cm^3
# Si number density = 19.094013 Si / 1000 Ang^3
#
#
#
# Elastic Constant Matrix: (Units=GPa)
#
#
# Indices 1 2 3 4 5 6 
#
# 1 128.7545 49.6969 55.7595 0.0000 -8.3078 0.0000
# 2 49.6969 76.5054 30.4521 0.0000 4.4347 0.0000
# 3 55.7595 30.4521 63.6808 0.0000 22.2758 0.0000
# 4 0.0000 0.0000 0.0000 24.2704 0.0000 1.4173
# 5 -8.3078 4.4347 22.2758 0.0000 35.4366 0.0000
# 6 0.0000 0.0000 0.0000 1.4173 0.0000 34.6959
#
#
#
# Elastic Compliance Matrix: (Units=1/GPa)
#
#
# Indices 1 2 3 4 5 6 
#
# 1 0.021142 -0.005859 -0.022690 0.000000 0.019953 0.000000
# 2 -0.005859 0.018140 -0.002910 0.000000 -0.001814 0.000000
# 3 -0.022690 -0.002910 0.049603 0.000000 -0.036136 0.000000
# 4 0.000000 0.000000 0.000000 0.041301 0.000000 -0.001687
# 5 0.019953 -0.001814 -0.036136 0.000000 0.055840 0.000000
# 6 0.000000 0.000000 0.000000 -0.001687 0.000000 0.028891
#
#
# Mechanical properties :
#
#
# Convention : Reuss Voigt Hill
#
# Bulk Modulus (GPa) = 38.50947 60.08419 49.29683
# Shear Modulus (GPa) = 17.45269 27.74938 22.60103
#
# Velocity S-wave (km/s) = 3.02659 3.81636 3.44418
# Velocity P-wave (km/s) = 5.69436 7.13830 6.45682
#
# Compressibility (1/GPa) = 0.02596764
#
# Stress axis : x y z
#
# Youngs Moduli (GPa) = 47.30006 55.12641 20.16015
#
# Poissons Ratio (x) = 0.32296 0.45743
# Poissons Ratio (y) = 0.27711 0.05867
# Poissons Ratio (z) = 1.07323 0.16043
#
# Static dielectric constant tensor:
#      x y z
#    x 3.546020 0.000000 0.011690 
#    y 0.000000 3.533480 0.000000 
#    z 0.011690 0.000000 3.861180 
# 
# 
# High freq. dielectric constant tensor:
#      x y z
#    x 1.747750 0.000000 0.000390 
#    y 0.000000 1.733530 0.000000 
#    z 0.000390 0.000000 1.750570 
# 
# From -- ./inp_files/51678.got.cif
#   From: 2010.06.25/outbox.cif.g09.slc.cpg/sg11_26_cif.got.tgz:51678.got - 2010.06.27 23:14:04.
