data_PCOD8074133
_publ_section_title
;
Structure prediction by ZEFSAII (Michael W. Deem and Ramdas Pophale) SiO2 
 PCOD8074133
Probable space group: P 21/M
;
_chemical_formula_sum "Si O2"
_cell_formula_units_Z 32
_cell_length_a 16.127773
_cell_length_b 9.376686
_cell_length_c 10.565320
_cell_angle_alpha 90.000000
_cell_angle_beta 85.057433
_cell_angle_gamma 90.000000
_cell_volume 1591.800084
_symmetry_space_group_name_H-M "P 21/M"
_symmetry_group_IT_number 11
_symmetry_cell_setting 'monoclinic'
loop_
_space_group_symop_operation_xyz
x,y,z
-x,1/2+y,-z
-x,-y,-z
x,1/2-y,z
loop_
_atom_site_type_symbol
_atom_site_label
_atom_site_fract_x
_atom_site_fract_y
_atom_site_fract_z
Si Si1 0.275931 0.091934 0.633129
Si Si2 0.959948 0.082974 0.195450
Si Si3 0.457054 0.583233 0.120297
Si Si4 0.105729 0.911789 0.268340
Si Si5 0.859487 0.085628 0.460185
Si Si6 0.821888 0.910498 0.094461
Si Si7 0.464027 0.418514 0.624695
Si Si8 0.267802 0.588971 0.098149
O O1 0.280024 0.250000 0.574432
O O2 0.224799 0.091590 0.767931
O O3 0.368024 0.035090 0.648158
O O4 0.228517 0.994465 0.538465
O O5 0.963899 0.250000 0.163742
O O6 0.921075 0.049379 0.337621
O O7 0.905779 0.005373 0.094023
O O8 0.052406 0.016493 0.185480
O O9 0.475586 0.750000 0.097858
O O10 0.492516 0.531038 0.250773
O O11 0.358952 0.549271 0.136260
O O12 0.500000 0.500000 0.000000
O O13 0.073241 0.750000 0.252900
O O14 0.095616 0.959362 0.415559
O O15 0.202853 0.924790 0.221641
O O16 0.835398 0.250000 0.466035
O O17 0.845900 0.750000 0.048823
O O18 0.757411 0.978989 0.006351
O O19 0.500000 0.500000 0.500000
O O20 0.476086 0.250000 0.603560
O O21 0.266692 0.750000 0.042835
#
# Coordination Sequence:
#
# PCOD8074133 Si02
#       8
#     4   4   4   4   4   4   4   4
#     4   9  19  35  55  81 111 143 182 230 280 334
#     4  10  20  35  56  84 113 144 186 232 276 332
#     4  10  22  41  64  88 118 157 201 248 298 356
#     4  10  21  36  54  79 112 149 186 227 280 336
#     4   9  19  34  56  82 109 146 188 226 274 336
#     4  10  20  37  60  82 108 145 188 233 281 334
#     4  10  22  38  58  87 121 155 193 241 297 356
#     4  10  22  38  57  82 112 146 187 235 283 336
#
# _framework density 20.103027000000001
#
# number of rings (size 3 to 8) (size 9 to 14) (size 15 to 20)
#    0.000    2.250    0.000    1.875    1.750    5.000 
#    0.000    0.000    0.000    0.000    0.000    0.000 
#    0.000    0.000    0.000    0.000    0.000    0.000 
#
# Total GULP energy -396841.405838 kJ/mol
# GULP energy per Si atom -12401.293932 kJ/mol
# Density = 2.005727 g / cm^3
# Si number density = 20.103027 Si / 1000 Ang^3
#
#
#
# Elastic Constant Matrix: (Units=GPa)
#
#
# Indices 1 2 3 4 5 6 
#
# 1 132.8178 51.1041 28.1195 0.0000 19.8422 0.0000
# 2 51.1041 89.0151 41.3655 0.0000 14.7637 0.0000
# 3 28.1195 41.3655 72.5515 0.0000 15.8991 0.0000
# 4 0.0000 0.0000 0.0000 31.3185 0.0000 5.5380
# 5 19.8422 14.7637 15.8991 0.0000 26.6701 0.0000
# 6 0.0000 0.0000 0.0000 5.5380 0.0000 34.0791
#
#
#
# Elastic Compliance Matrix: (Units=1/GPa)
#
#
# Indices 1 2 3 4 5 6 
#
# 1 0.010189 -0.005046 -0.000026 0.000000 -0.004771 0.000000
# 2 -0.005046 0.018117 -0.008050 0.000000 -0.001476 0.000000
# 3 -0.000026 -0.008050 0.020018 0.000000 -0.007457 0.000000
# 4 0.000000 0.000000 0.000000 0.032875 0.000000 -0.005342
# 5 -0.004771 -0.001476 -0.007457 0.000000 0.046308 0.000000
# 6 0.000000 0.000000 0.000000 -0.005342 0.000000 0.030212
#
#
# Mechanical properties :
#
#
# Convention : Reuss Voigt Hill
#
# Bulk Modulus (GPa) = 45.29368 59.50694 52.40031
# Shear Modulus (GPa) = 26.13400 29.99991 28.06696
#
# Velocity S-wave (km/s) = 3.60947 3.86723 3.74057
# Velocity P-wave (km/s) = 6.32066 7.04314 6.69166
#
# Compressibility (1/GPa) = 0.02207814
#
# Stress axis : x y z
#
# Youngs Moduli (GPa) = 98.14444 55.19796 49.95597
#
# Poissons Ratio (x) = 0.27852 0.00132
# Poissons Ratio (y) = 0.49523 0.40215
# Poissons Ratio (z) = 0.00260 0.44435
#
# Static dielectric constant tensor:
#      x y z
#    x 3.781840 0.000000 0.098850 
#    y 0.000000 3.737350 0.000000 
#    z 0.098850 0.000000 3.634550 
# 
# 
# High freq. dielectric constant tensor:
#      x y z
#    x 1.793110 0.000000 0.004290 
#    y 0.000000 1.781630 0.000000 
#    z 0.004290 0.000000 1.781830 
# 
# From -- ./inp_files/38099.got.cif
#   From: 2010.06.25/outbox.cif.g09.slc.cpg/sg11_20_cif.got.tgz:38099.got - 2010.06.27 23:14:04.
