data_PCOD8074934
_publ_section_title
;
Structure prediction by ZEFSAII (Michael W. Deem and Ramdas Pophale) SiO2 
 PCOD8074934
Probable space group: P 21/M
;
_chemical_formula_sum "Si O2"
_cell_formula_units_Z 24
_cell_length_a 14.839021
_cell_length_b 8.390811
_cell_length_c 14.490226
_cell_angle_alpha 90.000000
_cell_angle_beta 139.934534
_cell_angle_gamma 90.000000
_cell_volume 1161.294943
_symmetry_space_group_name_H-M "P 21/M"
_symmetry_group_IT_number 11
_symmetry_cell_setting 'monoclinic'
loop_
_space_group_symop_operation_xyz
x,y,z
-x,1/2+y,-z
-x,-y,-z
x,1/2-y,z
loop_
_atom_site_type_symbol
_atom_site_label
_atom_site_fract_x
_atom_site_fract_y
_atom_site_fract_z
Si Si1 0.753371 0.567502 0.668639
Si Si2 0.946887 0.935069 0.133981
Si Si3 0.411754 0.934452 0.629390
Si Si4 0.791240 0.936117 0.385871
Si Si5 0.705809 0.064928 0.824858
Si Si6 0.092244 0.562873 0.703166
O O1 0.736882 0.750000 0.686465
O O2 0.655488 0.538336 0.504343
O O3 0.702272 0.456162 0.711870
O O4 0.912696 0.536358 0.765688
O O5 0.985512 0.750000 0.159798
O O6 0.873688 0.978790 0.173347
O O7 0.844094 0.978501 0.970326
O O8 0.398826 0.750000 0.593471
O O9 0.334218 0.968416 0.664792
O O10 0.572393 0.983973 0.767914
O O11 0.759114 0.750000 0.365565
O O12 0.934251 0.980137 0.550519
O O13 0.800195 0.992077 0.287112
O O14 0.709683 0.250000 0.853454
O O15 0.115955 0.750000 0.730521
#
# Coordination Sequence:
#
# PCOD8074934 Si02
#       6
#     4   4   4   4   4   4
#     4  12  24  42  65  92 123 162 210 256 304 362
#     4  12  24  41  64  93 126 163 206 254 308 365
#     4  12  24  41  64  93 126 163 206 254 308 365
#     4  10  20  36  61  92 125 160 203 252 304 360
#     4  12  26  44  63  88 125 166 206 254 310 368
#     4  10  20  36  61  92 125 160 203 252 304 360
#
# _framework density 20.666585000000001
#
# number of rings (size 3 to 8) (size 9 to 14) (size 15 to 20)
#    0.000    0.667    1.667    8.000    0.000    1.333 
#    0.000    0.833    0.000    0.000    0.000    0.000 
#    0.000    0.000    0.000    0.000    0.000    0.000 
#
# Total GULP energy -297839.430641 kJ/mol
# GULP energy per Si atom -12409.976277 kJ/mol
# Density = 2.061955 g / cm^3
# Si number density = 20.666585 Si / 1000 Ang^3
#
#
#
# Elastic Constant Matrix: (Units=GPa)
#
#
# Indices 1 2 3 4 5 6 
#
# 1 100.3747 16.3798 12.5131 0.0000 -9.5497 0.0000
# 2 16.3798 102.9085 19.0187 0.0000 0.1310 0.0000
# 3 12.5131 19.0187 43.8518 0.0000 12.1168 0.0000
# 4 0.0000 0.0000 0.0000 27.6479 0.0000 -4.7595
# 5 -9.5497 0.1310 12.1168 0.0000 19.8103 0.0000
# 6 0.0000 0.0000 0.0000 -4.7595 0.0000 38.1580
#
#
#
# Elastic Compliance Matrix: (Units=1/GPa)
#
#
# Indices 1 2 3 4 5 6 
#
# 1 0.011626 -0.000862 -0.005407 0.000000 0.008917 0.000000
# 2 -0.000862 0.010809 -0.005183 0.000000 0.002683 0.000000
# 3 -0.005407 -0.005183 0.032859 0.000000 -0.022670 0.000000
# 4 0.000000 0.000000 0.000000 0.036963 0.000000 0.004610
# 5 0.008917 0.002683 -0.022670 0.000000 0.068626 0.000000
# 6 0.000000 0.000000 0.000000 0.004610 0.000000 0.026782
#
#
# Mechanical properties :
#
#
# Convention : Reuss Voigt Hill
#
# Bulk Modulus (GPa) = 30.87555 38.10647 34.49101
# Shear Modulus (GPa) = 22.58692 30.40481 26.49586
#
# Velocity S-wave (km/s) = 3.30952 3.83979 3.58448
# Velocity P-wave (km/s) = 5.43840 6.17555 5.81866
#
# Compressibility (1/GPa) = 0.03238809
#
# Stress axis : x y z
#
# Youngs Moduli (GPa) = 86.01467 92.51412 30.43287
#
# Poissons Ratio (x) = 0.07979 0.16456
# Poissons Ratio (y) = 0.07419 0.15774
# Poissons Ratio (z) = 0.46511 0.47952
#
# Static dielectric constant tensor:
#      x y z
#    x 3.893140 0.000000 -0.023290 
#    y 0.000000 3.751160 0.000000 
#    z -0.023290 0.000000 3.552960 
# 
# 
# High freq. dielectric constant tensor:
#      x y z
#    x 1.821600 0.000000 -0.005260 
#    y 0.000000 1.824770 0.000000 
#    z -0.005260 0.000000 1.788000 
# 
# From -- ./inp_files/51824.got.cif
#   From: 2010.06.25/outbox.cif.g09.slc.cpg/sg11_26_cif.got.tgz:51824.got - 2010.06.27 23:14:04.
