data_PCOD8074868
_publ_section_title
;
Structure prediction by ZEFSAII (Michael W. Deem and Ramdas Pophale) SiO2 
 PCOD8074868
Probable space group: P 21/M
;
_chemical_formula_sum "Si O2"
_cell_formula_units_Z 32
_cell_length_a 27.627885
_cell_length_b 8.766790
_cell_length_c 14.162497
_cell_angle_alpha 90.000000
_cell_angle_beta 29.678480
_cell_angle_gamma 90.000000
_cell_volume 1698.436845
_symmetry_space_group_name_H-M "P 21/M"
_symmetry_group_IT_number 11
_symmetry_cell_setting 'monoclinic'
loop_
_space_group_symop_operation_xyz
x,y,z
-x,1/2+y,-z
-x,-y,-z
x,1/2-y,z
loop_
_atom_site_type_symbol
_atom_site_label
_atom_site_fract_x
_atom_site_fract_y
_atom_site_fract_z
Si Si1 0.910827 0.071598 0.264985
Si Si2 0.701055 0.070155 0.299167
Si Si3 0.597386 0.426161 0.797167
Si Si4 0.132471 0.071553 0.854871
Si Si5 0.439355 0.071039 0.324521
Si Si6 0.363567 0.427189 0.974326
Si Si7 0.604356 0.929028 0.296526
Si Si8 0.235645 0.575738 0.333681
O O1 0.892498 0.250000 0.278115
O O2 0.864843 0.023227 0.444389
O O3 0.856768 0.986062 0.270657
O O4 0.024751 0.030228 0.075552
O O5 0.708105 0.250000 0.280509
O O6 0.793153 0.008595 0.200437
O O7 0.599233 0.019624 0.519473
O O8 0.692967 0.999426 0.208264
O O9 0.578922 0.250000 0.804247
O O10 0.625766 0.516528 0.653647
O O11 0.682877 0.448327 0.725596
O O12 0.500000 0.500000 0.000000
O O13 0.154013 0.250000 0.820378
O O14 0.427418 0.250000 0.360208
O O15 0.552315 0.026445 0.117042
O O16 0.383953 0.250000 0.957121
O O17 0.362813 0.467711 0.865460
O O18 0.261168 0.474465 0.198196
O O19 0.596855 0.750000 0.327075
O O20 0.500000 0.000000 0.500000
O O21 0.228575 0.750000 0.311802
#
# Coordination Sequence:
#
# PCOD8074868 Si02
#       8
#     4   4   4   4   4   4   4   4
#     4   9  19  37  60  87 119 152 190 234 283 340
#     4  12  24  38  58  83 113 148 188 238 290 343
#     4  11  21  32  48  74 111 149 186 225 269 326
#     4  10  20  36  60  89 118 149 188 237 289 341
#     4  12  23  35  53  77 109 148 189 231 278 336
#     4  11  23  37  55  79 110 146 186 231 279 335
#     4  11  23  39  59  83 112 148 191 237 289 341
#     4  10  21  36  55  78 109 152 191 228 278 335
#
# _framework density 18.840855000000001
#
# number of rings (size 3 to 8) (size 9 to 14) (size 15 to 20)
#    0.000    1.250    2.500    4.500    0.000    4.000 
#    0.000    0.000    0.000    0.750    0.000    0.000 
#    0.000    0.000    0.000    0.000    0.000    0.000 
#
# Total GULP energy -396835.082004 kJ/mol
# GULP energy per Si atom -12401.096313 kJ/mol
# Density = 1.879797 g / cm^3
# Si number density = 18.840855 Si / 1000 Ang^3
#
#
#
# Elastic Constant Matrix: (Units=GPa)
#
#
# Indices 1 2 3 4 5 6 
#
# 1 99.8002 55.9360 42.4582 0.0000 15.0819 0.0000
# 2 55.9360 107.0861 37.6278 0.0000 9.0610 0.0000
# 3 42.4582 37.6278 97.5597 0.0000 18.2969 0.0000
# 4 0.0000 0.0000 0.0000 29.3104 0.0000 3.9460
# 5 15.0819 9.0610 18.2969 0.0000 29.0140 0.0000
# 6 0.0000 0.0000 0.0000 3.9460 0.0000 31.8217
#
#
#
# Elastic Compliance Matrix: (Units=1/GPa)
#
#
# Indices 1 2 3 4 5 6 
#
# 1 0.015903 -0.006712 -0.003601 0.000000 -0.003900 0.000000
# 2 -0.006712 0.013653 -0.002495 0.000000 0.000798 0.000000
# 3 -0.003601 -0.002495 0.013930 0.000000 -0.006133 0.000000
# 4 0.000000 0.000000 0.000000 0.034697 0.000000 -0.004303
# 5 -0.003900 0.000798 -0.006133 0.000000 0.040112 0.000000
# 6 0.000000 0.000000 0.000000 -0.004303 0.000000 0.031959
#
#
# Mechanical properties :
#
#
# Convention : Reuss Voigt Hill
#
# Bulk Modulus (GPa) = 55.95559 64.05445 60.00502
# Shear Modulus (GPa) = 27.49895 29.25748 28.37821
#
# Velocity S-wave (km/s) = 3.82453 3.94493 3.88520
# Velocity P-wave (km/s) = 7.01900 7.40415 7.21414
#
# Compressibility (1/GPa) = 0.01787132
#
# Stress axis : x y z
#
# Youngs Moduli (GPa) = 62.88089 73.24353 71.78848
#
# Poissons Ratio (x) = 0.49158 0.25852
# Poissons Ratio (y) = 0.42203 0.17909
# Poissons Ratio (z) = 0.22644 0.18272
#
# Static dielectric constant tensor:
#      x y z
#    x 3.698390 0.000000 0.070380 
#    y 0.000000 3.767450 0.000000 
#    z 0.070380 0.000000 3.685600 
# 
# 
# High freq. dielectric constant tensor:
#      x y z
#    x 1.720310 0.000000 0.015070 
#    y 0.000000 1.741720 0.000000 
#    z 0.015070 0.000000 1.725380 
# 
# From -- ./inp_files/56164.got.cif
#   From: 2010.06.25/outbox.cif.g09.slc.cpg/sg11_29_cif.got.tgz:56164.got - 2010.06.27 23:14:04.
