data_PCOD8074906
_publ_section_title
;
Structure prediction by ZEFSAII (Michael W. Deem and Ramdas Pophale) SiO2 
 PCOD8074906
Probable space group: P 21/M
;
_chemical_formula_sum "Si O2"
_cell_formula_units_Z 28
_cell_length_a 22.442951
_cell_length_b 8.946897
_cell_length_c 26.123694
_cell_angle_alpha 90.000000
_cell_angle_beta 16.132166
_cell_angle_gamma 90.000000
_cell_volume 1457.483443
_symmetry_space_group_name_H-M "P 21/M"
_symmetry_group_IT_number 11
_symmetry_cell_setting 'monoclinic'
loop_
_space_group_symop_operation_xyz
x,y,z
-x,1/2+y,-z
-x,-y,-z
x,1/2-y,z
loop_
_atom_site_type_symbol
_atom_site_label
_atom_site_fract_x
_atom_site_fract_y
_atom_site_fract_z
Si Si1 0.080510 0.924052 0.053835
Si Si2 0.205417 0.426644 0.147851
Si Si3 0.055063 0.923736 0.375024
Si Si4 0.314283 0.072821 0.685826
Si Si5 0.309263 0.923456 0.267605
Si Si6 0.938603 0.926507 0.279782
Si Si7 0.443722 0.576392 0.680539
O O1 0.035895 0.750000 0.096677
O O2 0.908314 0.985390 0.154998
O O3 0.046302 0.991220 0.138829
O O4 0.319565 0.958278 0.836189
O O5 0.186973 0.250000 0.166071
O O6 0.148990 0.490804 0.249424
O O7 0.040493 0.488725 0.242912
O O8 0.444733 0.476095 0.934502
O O9 0.037873 0.750000 0.376018
O O10 0.216286 0.957309 0.288301
O O11 0.817827 0.982546 0.584818
O O12 0.336215 0.250000 0.665757
O O13 0.500000 0.000000 0.500000
O O14 0.327520 0.019096 0.733019
O O15 0.284097 0.750000 0.302222
O O16 0.972129 0.750000 0.259350
O O17 0.688894 0.970054 0.484951
O O18 0.422692 0.750000 0.682856
#
# Coordination Sequence:
#
# PCOD8074906 Si02
#       7
#     4   4   4   4   4   4   4
#     4   9  19  36  57  80 107 141 182 227 275 328
#     4  11  23  38  57  83 118 154 189 234 286 337
#     4  10  20  36  61  89 115 149 191 233 282 339
#     4  11  20  34  57  84 112 141 178 226 281 334
#     4   9  20  38  59  86 119 151 186 234 286 335
#     4  10  21  38  55  77 110 149 192 231 271 329
#     4  10  20  37  59  81 109 143 180 228 280 328
#
# _framework density 19.211195
#
# number of rings (size 3 to 8) (size 9 to 14) (size 15 to 20)
#    0.000    2.000    1.429    2.143    0.000    3.429 
#    0.000    2.857    0.000    0.000    0.000    0.000 
#    0.000    0.000    0.000    0.000    0.000    0.000 
#
# Total GULP energy -347249.001509 kJ/mol
# GULP energy per Si atom -12401.750054 kJ/mol
# Density = 1.916747 g / cm^3
# Si number density = 19.211195 Si / 1000 Ang^3
#
#
#
# Elastic Constant Matrix: (Units=GPa)
#
#
# Indices 1 2 3 4 5 6 
#
# 1 31.9741 18.8097 14.6565 0.0000 -8.2293 0.0000
# 2 18.8097 53.6573 27.5381 0.0000 -0.7696 0.0000
# 3 14.6565 27.5381 99.8428 0.0000 7.9367 0.0000
# 4 0.0000 0.0000 0.0000 22.1478 0.0000 2.8150
# 5 -8.2293 -0.7696 7.9367 0.0000 19.8338 0.0000
# 6 0.0000 0.0000 0.0000 2.8150 0.0000 32.6139
#
#
#
# Elastic Compliance Matrix: (Units=1/GPa)
#
#
# Indices 1 2 3 4 5 6 
#
# 1 0.046868 -0.013688 -0.004760 0.000000 0.020820 0.000000
# 2 -0.013688 0.025925 -0.004926 0.000000 -0.002702 0.000000
# 3 -0.004760 -0.004926 0.012648 0.000000 -0.007227 0.000000
# 4 0.000000 0.000000 0.000000 0.045652 0.000000 -0.003940
# 5 0.020820 -0.002702 -0.007227 0.000000 0.061844 0.000000
# 6 0.000000 0.000000 0.000000 -0.003940 0.000000 0.031002
#
#
# Mechanical properties :
#
#
# Convention : Reuss Voigt Hill
#
# Bulk Modulus (GPa) = 25.84506 34.16475 30.00490
# Shear Modulus (GPa) = 17.63142 23.21709 20.42425
#
# Velocity S-wave (km/s) = 3.03275 3.48015 3.26413
# Velocity P-wave (km/s) = 5.07403 5.82846 5.46428
#
# Compressibility (1/GPa) = 0.03869212
#
# Stress axis : x y z
#
# Youngs Moduli (GPa) = 21.33649 38.57309 79.06616
#
# Poissons Ratio (x) = 0.52800 0.37632
# Poissons Ratio (y) = 0.29206 0.38950
# Poissons Ratio (z) = 0.10155 0.19002
#
# Static dielectric constant tensor:
#      x y z
#    x 3.625960 0.000000 0.044640 
#    y 0.000000 3.416170 0.000000 
#    z 0.044640 0.000000 3.706020 
# 
# 
# High freq. dielectric constant tensor:
#      x y z
#    x 1.745260 0.000000 0.006580 
#    y 0.000000 1.733520 0.000000 
#    z 0.006580 0.000000 1.763110 
# 
# From -- ./inp_files/69767.got.cif
#   From: 2010.06.25/outbox.cif.g09.slc.cpg/sg11_35_cif.got.tgz:69767.got - 2010.06.27 23:14:04.
