data_PCOD8074361
_publ_section_title
;
Structure prediction by ZEFSAII (Michael W. Deem and Ramdas Pophale) SiO2 
 PCOD8074361
Probable space group: P 21/M
;
_chemical_formula_sum "Si O2"
_cell_formula_units_Z 28
_cell_length_a 14.756018
_cell_length_b 9.932467
_cell_length_c 20.093657
_cell_angle_alpha 90.000000
_cell_angle_beta 150.754434
_cell_angle_gamma 90.000000
_cell_volume 1438.790679
_symmetry_space_group_name_H-M "P 21/M"
_symmetry_group_IT_number 11
_symmetry_cell_setting 'monoclinic'
loop_
_space_group_symop_operation_xyz
x,y,z
-x,1/2+y,-z
-x,-y,-z
x,1/2-y,z
loop_
_atom_site_type_symbol
_atom_site_label
_atom_site_fract_x
_atom_site_fract_y
_atom_site_fract_z
Si Si1 0.843155 0.398500 0.125287
Si Si2 0.384628 0.595505 0.632136
Si Si3 0.553765 0.894810 0.881601
Si Si4 0.314166 0.537074 0.841854
Si Si5 0.232312 0.401109 0.316356
Si Si6 0.010887 0.098961 0.569262
Si Si7 0.448761 0.904032 0.371303
O O1 0.805859 0.250000 0.072707
O O2 0.820275 0.391546 0.190876
O O3 0.049289 0.446368 0.238959
O O4 0.699263 0.496322 0.998465
O O5 0.429845 0.750000 0.638900
O O6 0.471129 0.560891 0.758755
O O7 0.164008 0.574527 0.494413
O O8 0.469688 0.485451 0.638086
O O9 0.654389 0.750000 0.940317
O O10 0.382577 0.874277 0.823519
O O11 0.195872 0.416105 0.732986
O O12 0.500000 0.500000 0.000000
O O13 0.209998 0.250000 0.271480
O O14 0.400405 0.398841 0.474854
O O15 0.269921 0.511968 0.283036
O O16 0.008134 0.250000 0.538665
O O17 0.000000 0.000000 0.500000
O O18 0.392358 0.750000 0.315246
#
# Coordination Sequence:
#
# PCOD8074361 Si02
#       7
#     4   4   4   4   4   4   4
#     4  10  21  36  59  85 114 152 197 244 295 349
#     4  10  21  38  57  83 118 155 191 235 295 349
#     4  10  21  37  56  81 118 158 194 239 292 348
#     4  10  21  37  57  86 121 157 200 244 290 350
#     4   9  19  37  57  83 115 144 181 237 298 348
#     4  11  23  39  60  87 119 159 202 245 296 351
#     4  10  20  35  59  87 110 144 188 235 290 351
#
# _framework density 19.460788999999998
#
# number of rings (size 3 to 8) (size 9 to 14) (size 15 to 20)
#    0.000    2.000    1.429    1.714    0.000    7.429 
#    0.000    0.714    0.000    0.000    0.000    0.000 
#    0.000    0.000    0.000    0.000    0.000    0.000 
#
# Total GULP energy -346940.261221 kJ/mol
# GULP energy per Si atom -12390.723615 kJ/mol
# Density = 1.941650 g / cm^3
# Si number density = 19.460789 Si / 1000 Ang^3
#
#
#
# Elastic Constant Matrix: (Units=GPa)
#
#
# Indices 1 2 3 4 5 6 
#
# 1 117.2148 74.8144 29.4501 0.0000 16.3763 0.0000
# 2 74.8144 139.1791 45.0568 0.0000 4.8601 0.0000
# 3 29.4501 45.0568 63.2808 0.0000 9.8135 0.0000
# 4 0.0000 0.0000 0.0000 28.6488 0.0000 0.3564
# 5 16.3763 4.8601 9.8135 0.0000 30.8828 0.0000
# 6 0.0000 0.0000 0.0000 0.3564 0.0000 20.0418
#
#
#
# Elastic Compliance Matrix: (Units=1/GPa)
#
#
# Indices 1 2 3 4 5 6 
#
# 1 0.014128 -0.007227 -0.000467 0.000000 -0.006206 0.000000
# 2 -0.007227 0.013047 -0.006524 0.000000 0.003852 0.000000
# 3 -0.000467 -0.006524 0.021528 0.000000 -0.005567 0.000000
# 4 0.000000 0.000000 0.000000 0.034913 0.000000 -0.000621
# 5 -0.006206 0.003852 -0.005567 0.000000 0.036834 0.000000
# 6 0.000000 0.000000 0.000000 -0.000621 0.000000 0.049907
#
#
# Mechanical properties :
#
#
# Convention : Reuss Voigt Hill
#
# Bulk Modulus (GPa) = 49.33813 68.70192 59.02003
# Shear Modulus (GPa) = 24.32505 27.27156 25.79831
#
# Velocity S-wave (km/s) = 3.53930 3.74753 3.64491
# Velocity P-wave (km/s) = 6.48921 7.35559 6.93594
#
# Compressibility (1/GPa) = 0.02026830
#
# Stress axis : x y z
#
# Youngs Moduli (GPa) = 70.78004 76.64585 46.45029
#
# Poissons Ratio (x) = 0.55388 0.02171
# Poissons Ratio (y) = 0.51149 0.30304
# Poissons Ratio (z) = 0.03308 0.50003
#
# Static dielectric constant tensor:
#      x y z
#    x 3.816670 0.000000 0.091810 
#    y 0.000000 3.742890 0.000000 
#    z 0.091810 0.000000 3.453660 
# 
# 
# High freq. dielectric constant tensor:
#      x y z
#    x 1.760450 0.000000 0.006700 
#    y 0.000000 1.762460 0.000000 
#    z 0.006700 0.000000 1.743170 
# 
# From -- ./inp_files/65425.got.cif
#   From: 2010.06.25/outbox.cif.g09.slc.cpg/sg11_33_cif.got.tgz:65425.got - 2010.06.27 23:14:04.
