data_PCOD8074108
_publ_section_title
;
Structure prediction by ZEFSAII (Michael W. Deem and Ramdas Pophale) SiO2 
 PCOD8074108
Probable space group: P 21/M
;
_chemical_formula_sum "Si O2"
_cell_formula_units_Z 32
_cell_length_a 14.153804
_cell_length_b 8.874032
_cell_length_c 19.332494
_cell_angle_alpha 90.000000
_cell_angle_beta 46.887778
_cell_angle_gamma 90.000000
_cell_volume 1772.616277
_symmetry_space_group_name_H-M "P 21/M"
_symmetry_group_IT_number 11
_symmetry_cell_setting 'monoclinic'
loop_
_space_group_symop_operation_xyz
x,y,z
-x,1/2+y,-z
-x,-y,-z
x,1/2-y,z
loop_
_atom_site_type_symbol
_atom_site_label
_atom_site_fract_x
_atom_site_fract_y
_atom_site_fract_z
Si Si1 0.119832 0.927091 0.900940
Si Si2 0.624871 0.074681 0.148674
Si Si3 0.743191 0.422765 0.944231
Si Si4 0.032153 0.426867 0.656042
Si Si5 0.365381 0.926000 0.267250
Si Si6 0.881730 0.426508 0.518684
Si Si7 0.755101 0.572844 0.799314
Si Si8 0.040429 0.423119 0.807854
O O1 0.106204 0.750000 0.916358
O O2 0.253774 0.983323 0.867362
O O3 0.121423 0.973066 0.819506
O O4 0.000000 0.000000 0.000000
O O5 0.598421 0.250000 0.176188
O O6 0.500623 0.977767 0.233522
O O7 0.650569 0.044796 0.054795
O O8 0.734927 0.250000 0.923182
O O9 0.700790 0.529107 0.902106
O O10 0.889402 0.458818 0.894116
O O11 0.027946 0.250000 0.643427
O O12 0.888075 0.487698 0.716828
O O13 0.127476 0.506811 0.554184
O O14 0.082178 0.462049 0.708412
O O15 0.367628 0.750000 0.248639
O O16 0.252446 0.966469 0.377411
O O17 0.348430 0.021064 0.205579
O O18 0.906980 0.250000 0.502354
O O19 0.000000 0.500000 0.500000
O O20 0.777754 0.750000 0.783724
O O21 0.070124 0.250000 0.810559
#
# Coordination Sequence:
#
# PCOD8074108 Si02
#       8
#     4   4   4   4   4   4   4   4
#     4  11  21  35  57  84 112 145 185 230 275 326
#     4  10  22  39  56  78 110 149 188 228 276 328
#     4   9  18  35  54  75 111 149 184 227 271 321
#     4  10  20  35  56  82 114 145 180 228 277 326
#     4  11  24  39  55  79 111 147 185 229 279 329
#     4  11  22  36  58  84 111 144 184 230 280 330
#     4  11  21  33  53  80 110 147 188 225 269 328
#     4   9  18  34  55  82 113 144 177 225 280 325
#
# _framework density 18.052412
#
# number of rings (size 3 to 8) (size 9 to 14) (size 15 to 20)
#    0.000    1.750    2.500    3.375    0.000    6.000 
#    0.000    0.000    0.000    0.750    0.000    0.000 
#    0.000    0.000    0.000    0.000    0.000    0.000 
#
# Total GULP energy -396910.521684 kJ/mol
# GULP energy per Si atom -12403.453803 kJ/mol
# Density = 1.801132 g / cm^3
# Si number density = 18.052412 Si / 1000 Ang^3
#
#
#
# Elastic Constant Matrix: (Units=GPa)
#
#
# Indices 1 2 3 4 5 6 
#
# 1 109.9863 50.1177 58.9674 0.0000 -0.1720 0.0000
# 2 50.1177 86.3880 51.1287 0.0000 -1.2788 0.0000
# 3 58.9674 51.1287 102.1040 0.0000 -2.1748 0.0000
# 4 0.0000 0.0000 0.0000 31.1831 0.0000 3.5672
# 5 -0.1720 -1.2788 -2.1748 0.0000 23.7060 0.0000
# 6 0.0000 0.0000 0.0000 3.5672 0.0000 32.5532
#
#
#
# Elastic Compliance Matrix: (Units=1/GPa)
#
#
# Indices 1 2 3 4 5 6 
#
# 1 0.014514 -0.004918 -0.005934 0.000000 -0.000704 0.000000
# 2 -0.004918 0.018118 -0.006225 0.000000 0.000371 0.000000
# 3 -0.005934 -0.006225 0.016362 0.000000 0.001122 0.000000
# 4 0.000000 0.000000 0.000000 0.032476 0.000000 -0.003559
# 5 -0.000704 0.000371 0.001122 0.000000 0.042301 0.000000
# 6 0.000000 0.000000 0.000000 -0.003559 0.000000 0.031109
#
#
# Mechanical properties :
#
#
# Convention : Reuss Voigt Hill
#
# Bulk Modulus (GPa) = 67.38513 68.76730 68.07622
# Shear Modulus (GPa) = 25.77583 26.70610 26.24096
#
# Velocity S-wave (km/s) = 3.78277 3.85042 3.81675
# Velocity P-wave (km/s) = 7.51583 7.61206 7.56410
#
# Compressibility (1/GPa) = 0.01484007
#
# Stress axis : x y z
#
# Youngs Moduli (GPa) = 68.90124 55.19225 61.11789
#
# Poissons Ratio (x) = 0.27145 0.36268
# Poissons Ratio (y) = 0.33888 0.38043
# Poissons Ratio (z) = 0.40886 0.34354
#
# Static dielectric constant tensor:
#      x y z
#    x 3.376360 0.000000 0.212010 
#    y 0.000000 3.343330 0.000000 
#    z 0.212010 0.000000 3.360200 
# 
# 
# High freq. dielectric constant tensor:
#      x y z
#    x 1.688710 0.000000 0.014670 
#    y 0.000000 1.705610 0.000000 
#    z 0.014670 0.000000 1.688170 
# 
# From -- ./inp_files/65199.got.cif
#   From: 2010.06.25/outbox.cif.g09.slc.cpg/sg11_33_cif.got.tgz:65199.got - 2010.06.27 23:14:04.
