data_PCOD8074277
_publ_section_title
;
Structure prediction by ZEFSAII (Michael W. Deem and Ramdas Pophale) SiO2 
 PCOD8074277
Probable space group: P 21/M
;
_chemical_formula_sum "Si O2"
_cell_formula_units_Z 28
_cell_length_a 9.037441
_cell_length_b 13.383513
_cell_length_c 16.985273
_cell_angle_alpha 90.000000
_cell_angle_beta 44.365520
_cell_angle_gamma 90.000000
_cell_volume 1436.515130
_symmetry_space_group_name_H-M "P 21/M"
_symmetry_group_IT_number 11
_symmetry_cell_setting 'monoclinic'
loop_
_space_group_symop_operation_xyz
x,y,z
-x,1/2+y,-z
-x,-y,-z
x,1/2-y,z
loop_
_atom_site_type_symbol
_atom_site_label
_atom_site_fract_x
_atom_site_fract_y
_atom_site_fract_z
Si Si1 0.373425 0.366552 0.999373
Si Si2 0.494601 0.634048 0.581258
Si Si3 0.296162 0.021435 0.183072
Si Si4 0.993433 0.138222 0.032137
Si Si5 0.751335 0.637827 0.218436
Si Si6 0.553810 0.047365 0.236554
Si Si7 0.175090 0.469826 0.651032
O O1 0.420407 0.250000 0.972965
O O2 0.310169 0.391793 0.112636
O O3 0.184510 0.401208 0.013874
O O4 0.584872 0.422995 0.892697
O O5 0.462558 0.750000 0.572795
O O6 0.516570 0.620623 0.666750
O O7 0.292868 0.573790 0.625223
O O8 0.706793 0.592595 0.460990
O O9 0.055592 0.994670 0.293756
O O10 0.395565 0.064615 0.225148
O O11 0.930037 0.250000 0.082896
O O12 0.795321 0.066430 0.118475
O O13 0.058494 0.137114 0.916388
O O14 0.661255 0.750000 0.262990
O O15 0.554267 0.568155 0.266003
O O16 0.846809 0.597841 0.263272
#
# Coordination Sequence:
#
# PCOD8074277 Si02
#       7
#     4   4   4   4   4   4   4
#     4  10  22  38  56  84 125 165 197 236 293 354
#     4  10  22  43  66  86 112 156 207 248 291 350
#     4  11  24  37  57  89 125 156 192 244 303 356
#     4  10  20  36  58  84 116 157 200 239 285 352
#     4  10  20  35  58  84 114 155 199 240 286 349
#     4  11  22  36  60  86 122 155 198 242 297 347
#     4  10  23  41  63  89 118 153 198 251 299 347
#
# _framework density 19.491616
#
# number of rings (size 3 to 8) (size 9 to 14) (size 15 to 20)
#    0.000    1.714    1.429    3.000    4.000    4.571 
#    0.000    0.000    0.000    0.000    0.000    0.000 
#    0.000    0.000    0.000    0.000    0.000    0.000 
#
# Total GULP energy -347319.777751 kJ/mol
# GULP energy per Si atom -12404.277777 kJ/mol
# Density = 1.944725 g / cm^3
# Si number density = 19.491616 Si / 1000 Ang^3
#
#
#
# Elastic Constant Matrix: (Units=GPa)
#
#
# Indices 1 2 3 4 5 6 
#
# 1 91.6736 28.1566 61.6894 0.0000 -12.5340 0.0000
# 2 28.1566 115.3768 35.7419 0.0000 -7.7498 0.0000
# 3 61.6894 35.7419 109.5008 0.0000 -4.4984 0.0000
# 4 0.0000 0.0000 0.0000 21.7992 0.0000 4.1499
# 5 -12.5340 -7.7498 -4.4984 0.0000 31.8006 0.0000
# 6 0.0000 0.0000 0.0000 4.1499 0.0000 21.3485
#
#
#
# Elastic Compliance Matrix: (Units=1/GPa)
#
#
# Indices 1 2 3 4 5 6 
#
# 1 0.018726 -0.001103 -0.009955 0.000000 0.005704 0.000000
# 2 -0.001103 0.009825 -0.002520 0.000000 0.001603 0.000000
# 3 -0.009955 -0.002520 0.015467 0.000000 -0.002350 0.000000
# 4 0.000000 0.000000 0.000000 0.047636 0.000000 -0.009260
# 5 0.005704 0.001603 -0.002350 0.000000 0.033752 0.000000
# 6 0.000000 0.000000 0.000000 -0.009260 0.000000 0.048642
#
#
# Mechanical properties :
#
#
# Convention : Reuss Voigt Hill
#
# Bulk Modulus (GPa) = 59.30588 63.08078 61.19333
# Shear Modulus (GPa) = 24.17517 27.72055 25.94786
#
# Velocity S-wave (km/s) = 3.52559 3.77527 3.65256
# Velocity P-wave (km/s) = 6.86043 7.17195 7.01792
#
# Compressibility (1/GPa) = 0.01686174
#
# Stress axis : x y z
#
# Youngs Moduli (GPa) = 53.40160 101.78505 64.65446
#
# Poissons Ratio (x) = 0.11224 0.64366
# Poissons Ratio (y) = 0.05889 0.16291
# Poissons Ratio (z) = 0.53163 0.25647
#
# Static dielectric constant tensor:
#      x y z
#    x 3.479130 0.000000 0.197670 
#    y 0.000000 3.685740 0.000000 
#    z 0.197670 0.000000 3.525280 
# 
# 
# High freq. dielectric constant tensor:
#      x y z
#    x 1.749830 0.000000 0.016840 
#    y 0.000000 1.770270 0.000000 
#    z 0.016840 0.000000 1.753710 
# 
# From -- ./inp_files/58103.got.cif
#   From: 2010.06.25/outbox.cif.g09.slc.cpg/sg11_30_cif.got.tgz:58103.got - 2010.06.27 23:14:04.
