data_PCOD8074955
_publ_section_title
;
Structure prediction by ZEFSAII (Michael W. Deem and Ramdas Pophale) SiO2 
 PCOD8074955
Probable space group: P 21/M
;
_chemical_formula_sum "Si O2"
_cell_formula_units_Z 32
_cell_length_a 11.889662
_cell_length_b 8.868031
_cell_length_c 31.135546
_cell_angle_alpha 90.000000
_cell_angle_beta 30.229820
_cell_angle_gamma 90.000000
_cell_volume 1652.823706
_symmetry_space_group_name_H-M "P 21/M"
_symmetry_group_IT_number 11
_symmetry_cell_setting 'monoclinic'
loop_
_space_group_symop_operation_xyz
x,y,z
-x,1/2+y,-z
-x,-y,-z
x,1/2-y,z
loop_
_atom_site_type_symbol
_atom_site_label
_atom_site_fract_x
_atom_site_fract_y
_atom_site_fract_z
Si Si1 0.006484 0.423594 0.382413
Si Si2 0.673545 0.424896 0.081200
Si Si3 0.903845 0.075432 0.093423
Si Si4 0.549200 0.572368 0.529219
Si Si5 0.212089 0.575276 0.231734
Si Si6 0.170084 0.424863 0.708598
Si Si7 0.199011 0.077216 0.409101
Si Si8 0.699083 0.071871 0.251900
O O1 0.937979 0.250000 0.398407
O O2 0.788944 0.518825 0.466702
O O3 0.118444 0.480339 0.302105
O O4 0.178801 0.443799 0.364523
O O5 0.621373 0.250000 0.090829
O O6 0.732519 0.458508 0.111315
O O7 0.459197 0.521516 0.138533
O O8 0.875946 0.474381 0.983841
O O9 0.975802 0.250000 0.069093
O O10 0.783138 0.028638 0.176953
O O11 0.500000 0.500000 0.500000
O O12 0.549537 0.750000 0.523883
O O13 0.364717 0.524007 0.623880
O O14 0.211473 0.750000 0.245001
O O15 0.061437 0.546237 0.239520
O O16 0.237562 0.250000 0.684712
O O17 0.146264 0.482367 0.765323
O O18 0.184015 0.250000 0.427088
O O19 0.442866 0.014963 0.341716
O O20 0.000000 0.000000 0.500000
O O21 0.718325 0.250000 0.253387
#
# Coordination Sequence:
#
# PCOD8074955 Si02
#       8
#     4   4   4   4   4   4   4   4
#     4  11  22  37  59  85 115 149 192 242 292 346
#     4  10  20  36  62  92 120 147 184 236 291 349
#     4   9  19  38  62  89 119 151 187 233 290 350
#     4  12  23  37  57  82 113 152 196 240 289 342
#     4  11  23  38  57  83 116 151 190 238 292 344
#     4  11  24  40  57  82 116 153 198 246 288 339
#     4  10  22  38  56  83 116 151 190 236 286 338
#     4  10  21  39  61  83 114 156 197 236 287 348
#
# _framework density 19.360806
#
# number of rings (size 3 to 8) (size 9 to 14) (size 15 to 20)
#    0.000    1.500    1.250    4.125    0.000    8.000 
#    0.000    1.875    0.000    0.000    0.000    0.000 
#    0.000    0.000    0.000    0.000    0.000    0.000 
#
# Total GULP energy -396948.055597 kJ/mol
# GULP energy per Si atom -12404.626737 kJ/mol
# Density = 1.931674 g / cm^3
# Si number density = 19.360806 Si / 1000 Ang^3
#
#
#
# Elastic Constant Matrix: (Units=GPa)
#
#
# Indices 1 2 3 4 5 6 
#
# 1 108.9695 52.8420 55.7724 0.0000 -0.5555 0.0000
# 2 52.8420 101.2859 44.4766 0.0000 -1.3377 0.0000
# 3 55.7724 44.4766 105.7437 0.0000 -1.3561 0.0000
# 4 0.0000 0.0000 0.0000 35.0067 0.0000 -1.0582
# 5 -0.5555 -1.3377 -1.3561 0.0000 30.4447 0.0000
# 6 0.0000 0.0000 0.0000 -1.0582 0.0000 31.5544
#
#
#
# Elastic Compliance Matrix: (Units=1/GPa)
#
#
# Indices 1 2 3 4 5 6 
#
# 1 0.014474 -0.005152 -0.005469 0.000000 -0.000206 0.000000
# 2 -0.005152 0.013946 -0.003144 0.000000 0.000379 0.000000
# 3 -0.005469 -0.003144 0.013669 0.000000 0.000371 0.000000
# 4 0.000000 0.000000 0.000000 0.028595 0.000000 0.000959
# 5 -0.000206 0.000379 0.000371 0.000000 0.032876 0.000000
# 6 0.000000 0.000000 0.000000 0.000959 0.000000 0.031723
#
#
# Mechanical properties :
#
#
# Convention : Reuss Voigt Hill
#
# Bulk Modulus (GPa) = 68.69024 69.13124 68.91074
# Shear Modulus (GPa) = 29.82121 30.26170 30.04146
#
# Velocity S-wave (km/s) = 3.92891 3.95782 3.94339
# Velocity P-wave (km/s) = 7.49252 7.52795 7.51026
#
# Compressibility (1/GPa) = 0.01455811
#
# Stress axis : x y z
#
# Youngs Moduli (GPa) = 69.09177 71.70308 73.16017
#
# Poissons Ratio (x) = 0.36941 0.40015
# Poissons Ratio (y) = 0.35596 0.23000
# Poissons Ratio (z) = 0.37789 0.22542
#
# Static dielectric constant tensor:
#      x y z
#    x 3.647280 0.000000 -0.097870 
#    y 0.000000 3.547750 0.000000 
#    z -0.097870 0.000000 3.486370 
# 
# 
# High freq. dielectric constant tensor:
#      x y z
#    x 1.759500 0.000000 -0.002460 
#    y 0.000000 1.759820 0.000000 
#    z -0.002460 0.000000 1.748700 
# 
# From -- ./inp_files/73099.got.cif
#   From: 2010.06.25/outbox.cif.g09.slc.cpg/sg11_37_cif.got.tgz:73099.got - 2010.06.27 23:14:04.
