data_PCOD8074303
_publ_section_title
;
Structure prediction by ZEFSAII (Michael W. Deem and Ramdas Pophale) SiO2 
 PCOD8074303
Probable space group: P 21/M
;
_chemical_formula_sum "Si O2"
_cell_formula_units_Z 32
_cell_length_a 16.454383
_cell_length_b 17.603204
_cell_length_c 13.030274
_cell_angle_alpha 90.000000
_cell_angle_beta 154.289455
_cell_angle_gamma 90.000000
_cell_volume 1637.349394
_symmetry_space_group_name_H-M "P 21/M"
_symmetry_group_IT_number 11
_symmetry_cell_setting 'monoclinic'
loop_
_space_group_symop_operation_xyz
x,y,z
-x,1/2+y,-z
-x,-y,-z
x,1/2-y,z
loop_
_atom_site_type_symbol
_atom_site_label
_atom_site_fract_x
_atom_site_fract_y
_atom_site_fract_z
Si Si1 0.050824 0.925637 0.343509
Si Si2 0.803046 0.521184 0.324034
Si Si3 0.378530 0.834524 0.739219
Si Si4 0.419311 0.948090 0.317706
Si Si5 0.003557 0.540744 0.896004
Si Si6 0.371096 0.163881 0.789272
Si Si7 0.635232 0.950927 0.936751
Si Si8 0.322851 0.160592 0.498778
O O1 0.155292 0.844517 0.460349
O O2 0.213000 0.968646 0.595074
O O3 0.047993 0.970778 0.235109
O O4 0.844112 0.917822 0.154284
O O5 0.790159 0.608752 0.348323
O O6 0.000000 0.500000 0.500000
O O7 0.644884 0.504394 0.057437
O O8 0.431085 0.750000 0.769978
O O9 0.493945 0.881908 0.786408
O O10 0.438924 0.849685 0.927646
O O11 0.534688 0.870912 0.426752
O O12 0.500000 0.000000 0.500000
O O13 0.438328 0.995212 0.234980
O O14 0.207181 0.925631 0.101023
O O15 0.867925 0.612741 0.731402
O O16 0.000000 0.500000 0.000000
O O17 0.296731 0.250000 0.718098
O O18 0.407035 0.148418 0.709002
O O19 0.285515 0.250000 0.434474
#
# Coordination Sequence:
#
# PCOD8074303 Si02
#       8
#     4   4   4   4   4   4   4   4
#     4  10  20  35  58  86 113 150 202 248 294 354
#     4   9  17  32  55  86 112 148 198 242 284 359
#     4  10  21  36  56  85 122 161 196 239 304 361
#     4  11  23  40  66  89 118 158 208 257 306 362
#     4  11  22  41  67  87 120 160 209 253 308 363
#     4   9  19  35  57  88 125 160 193 246 309 364
#     4   9  21  35  57  84 114 150 199 246 296 351
#     4  11  23  41  64  94 127 159 200 255 315 366
#
# _framework density 19.543782
#
# number of rings (size 3 to 8) (size 9 to 14) (size 15 to 20)
#    0.000    2.000    2.500    0.750    1.750    2.000 
#    0.000    3.125    0.000    4.500    0.000    0.000 
#    0.000    0.000    0.000    0.000    0.000    0.000 
#
# Total GULP energy -396456.552593 kJ/mol
# GULP energy per Si atom -12389.267269 kJ/mol
# Density = 1.949930 g / cm^3
# Si number density = 19.543782 Si / 1000 Ang^3
#
#
#
# Elastic Constant Matrix: (Units=GPa)
#
#
# Indices 1 2 3 4 5 6 
#
# 1 87.9260 33.2359 31.5071 0.0000 -11.4442 0.0000
# 2 33.2359 64.9785 29.8238 0.0000 1.0555 0.0000
# 3 31.5071 29.8238 84.4238 0.0000 0.4576 0.0000
# 4 0.0000 0.0000 0.0000 27.1606 0.0000 1.0399
# 5 -11.4442 1.0555 0.4576 0.0000 32.5563 0.0000
# 6 0.0000 0.0000 0.0000 1.0399 0.0000 25.6872
#
#
#
# Elastic Compliance Matrix: (Units=1/GPa)
#
#
# Indices 1 2 3 4 5 6 
#
# 1 0.015928 -0.006564 -0.003657 0.000000 0.005863 0.000000
# 2 -0.006564 0.021081 -0.004982 0.000000 -0.002921 0.000000
# 3 -0.003657 -0.004982 0.014977 0.000000 -0.001335 0.000000
# 4 0.000000 0.000000 0.000000 0.036875 0.000000 -0.001493
# 5 0.005863 -0.002921 -0.001335 0.000000 0.032891 0.000000
# 6 0.000000 0.000000 0.000000 -0.001493 0.000000 0.038990
#
#
# Mechanical properties :
#
#
# Convention : Reuss Voigt Hill
#
# Bulk Modulus (GPa) = 46.33833 47.38465 46.86149
# Shear Modulus (GPa) = 25.20912 26.59824 25.90368
#
# Velocity S-wave (km/s) = 3.59539 3.69312 3.64458
# Velocity P-wave (km/s) = 6.40291 6.51794 6.46068
#
# Compressibility (1/GPa) = 0.02158041
#
# Stress axis : x y z
#
# Youngs Moduli (GPa) = 62.78274 47.43639 66.76877
#
# Poissons Ratio (x) = 0.31135 0.24420
# Poissons Ratio (y) = 0.41208 0.33262
# Poissons Ratio (z) = 0.22963 0.23631
#
# Static dielectric constant tensor:
#      x y z
#    x 3.418860 0.000000 -0.151840 
#    y 0.000000 3.661430 0.000000 
#    z -0.151840 0.000000 3.749860 
# 
# 
# High freq. dielectric constant tensor:
#      x y z
#    x 1.763890 0.000000 -0.005640 
#    y 0.000000 1.749090 0.000000 
#    z -0.005640 0.000000 1.765880 
# 
# From -- ./inp_files/39998.got.cif
#   From: 2010.06.25/outbox.cif.g09.slc.cpg/sg11_20_cif.got.tgz:39998.got - 2010.06.27 23:14:04.
