data_PCOD8074045
_publ_section_title
;
Structure prediction by ZEFSAII (Michael W. Deem and Ramdas Pophale) SiO2 
 PCOD8074045
Probable space group: P 21/M
;
_chemical_formula_sum "Si O2"
_cell_formula_units_Z 28
_cell_length_a 9.370398
_cell_length_b 8.553959
_cell_length_c 29.385920
_cell_angle_alpha 90.000000
_cell_angle_beta 37.496486
_cell_angle_gamma 90.000000
_cell_volume 1433.761476
_symmetry_space_group_name_H-M "P 21/M"
_symmetry_group_IT_number 11
_symmetry_cell_setting 'monoclinic'
loop_
_space_group_symop_operation_xyz
x,y,z
-x,1/2+y,-z
-x,-y,-z
x,1/2-y,z
loop_
_atom_site_type_symbol
_atom_site_label
_atom_site_fract_x
_atom_site_fract_y
_atom_site_fract_z
Si Si1 0.969303 0.935416 0.369436
Si Si2 0.759447 0.933207 0.933600
Si Si3 0.838189 0.934131 0.502102
Si Si4 0.087858 0.566231 0.198583
Si Si5 0.305915 0.566208 0.642395
Si Si6 0.921171 0.935510 0.067988
Si Si7 0.601058 0.434205 0.797184
O O1 0.929707 0.750000 0.374243
O O2 0.931350 0.996685 0.430039
O O3 0.232112 0.983460 0.287064
O O4 0.781752 0.023337 0.385660
O O5 0.748076 0.750000 0.944370
O O6 0.884982 0.971601 0.854594
O O7 0.905187 0.007789 0.937323
O O8 0.500000 0.000000 0.000000
O O9 0.854546 0.750000 0.497996
O O10 0.573932 0.989379 0.577995
O O11 0.000000 0.000000 0.500000
O O12 0.107904 0.750000 0.183453
O O13 0.286612 0.506544 0.183666
O O14 0.833922 0.528964 0.283762
O O15 0.276449 0.750000 0.658387
O O16 0.922333 0.750000 0.066380
O O17 0.659178 0.002515 0.144215
O O18 0.000000 0.000000 0.000000
O O19 0.586697 0.250000 0.803981
#
# Coordination Sequence:
#
# PCOD8074045 Si02
#       7
#     4   4   4   4   4   4   4
#     4   9  18  36  58  80 106 145 191 234 278 336
#     4  12  25  41  60  86 118 153 193 239 287 341
#     4  10  22  36  53  79 113 148 189 236 285 337
#     4  10  20  38  62  87 113 148 190 233 282 341
#     4  10  20  35  55  84 115 145 184 234 284 339
#     4  11  22  38  59  85 116 153 193 238 288 341
#     4   8  17  34  58  83 108 138 183 234 280 333
#
# _framework density 19.529048
#
# number of rings (size 3 to 8) (size 9 to 14) (size 15 to 20)
#    0.000    2.000    0.000    4.714    0.000    4.000 
#    0.000    7.857    0.000    0.000    0.000    0.000 
#    0.000    0.000    0.000    0.000    0.000    0.000 
#
# Total GULP energy -347238.467320 kJ/mol
# GULP energy per Si atom -12401.373833 kJ/mol
# Density = 1.948460 g / cm^3
# Si number density = 19.529048 Si / 1000 Ang^3
#
#
#
# Elastic Constant Matrix: (Units=GPa)
#
#
# Indices 1 2 3 4 5 6 
#
# 1 155.7692 26.2507 99.8176 0.0000 -10.8593 0.0000
# 2 26.2507 51.0883 26.1114 0.0000 -8.1355 0.0000
# 3 99.8176 26.1114 144.0757 0.0000 -7.7947 0.0000
# 4 0.0000 0.0000 0.0000 30.1581 0.0000 2.4382
# 5 -10.8593 -8.1355 -7.7947 0.0000 40.1991 0.0000
# 6 0.0000 0.0000 0.0000 2.4382 0.0000 33.4359
#
#
#
# Elastic Compliance Matrix: (Units=1/GPa)
#
#
# Indices 1 2 3 4 5 6 
#
# 1 0.011805 -0.001890 -0.007766 0.000000 0.001301 0.000000
# 2 -0.001890 0.022417 -0.002563 0.000000 0.003529 0.000000
# 3 -0.007766 -0.002563 0.012778 0.000000 -0.000139 0.000000
# 4 0.000000 0.000000 0.000000 0.033355 0.000000 -0.002432
# 5 0.001301 0.003529 -0.000139 0.000000 0.025915 0.000000
# 6 0.000000 0.000000 0.000000 -0.002432 0.000000 0.030085
#
#
# Mechanical properties :
#
#
# Convention : Reuss Voigt Hill
#
# Bulk Modulus (GPa) = 44.31898 72.81030 58.56464
# Shear Modulus (GPa) = 29.70642 34.00884 31.85763
#
# Velocity S-wave (km/s) = 3.90441 4.17759 4.04331
# Velocity P-wave (km/s) = 6.56270 7.78677 7.20079
#
# Compressibility (1/GPa) = 0.02256370
#
# Stress axis : x y z
#
# Youngs Moduli (GPa) = 84.70649 44.60968 78.25811
#
# Poissons Ratio (x) = 0.08429 0.60777
# Poissons Ratio (y) = 0.16006 0.20055
# Poissons Ratio (z) = 0.65784 0.11432
#
# Static dielectric constant tensor:
#      x y z
#    x 3.642300 0.000000 -0.123000 
#    y 0.000000 3.563860 0.000000 
#    z -0.123000 0.000000 3.935490 
# 
# 
# High freq. dielectric constant tensor:
#      x y z
#    x 1.761080 0.000000 -0.001840 
#    y 0.000000 1.751080 0.000000 
#    z -0.001840 0.000000 1.778600 
# 
# From -- ./inp_files/23970.got.cif
#   From: 2010.06.25/outbox.cif.g09.slc.cpg/sg11_12_cif.got.tgz:23970.got - 2010.06.27 23:14:04.
