data_PCOD8074863
_publ_section_title
;
Structure prediction by ZEFSAII (Michael W. Deem and Ramdas Pophale) SiO2 
 PCOD8074863
Probable space group: P 21/M
;
_chemical_formula_sum "Si O2"
_cell_formula_units_Z 28
_cell_length_a 28.090235
_cell_length_b 8.867830
_cell_length_c 9.842065
_cell_angle_alpha 90.000000
_cell_angle_beta 142.495879
_cell_angle_gamma 90.000000
_cell_volume 1492.611535
_symmetry_space_group_name_H-M "P 21/M"
_symmetry_group_IT_number 11
_symmetry_cell_setting 'monoclinic'
loop_
_space_group_symop_operation_xyz
x,y,z
-x,1/2+y,-z
-x,-y,-z
x,1/2-y,z
loop_
_atom_site_type_symbol
_atom_site_label
_atom_site_fract_x
_atom_site_fract_y
_atom_site_fract_z
Si Si1 0.133841 0.072357 0.452424
Si Si2 0.129337 0.073096 0.133104
Si Si3 0.461402 0.928839 0.284191
Si Si4 0.706053 0.078255 0.180712
Si Si5 0.286825 0.580058 0.489379
Si Si6 0.002522 0.929304 0.655853
Si Si7 0.455771 0.926425 0.776613
O O1 0.136234 0.250000 0.453464
O O2 0.113072 0.015412 0.251722
O O3 0.071221 0.014587 0.421001
O O4 0.218324 0.015949 0.692528
O O5 0.112786 0.250000 0.080335
O O6 0.219111 0.038011 0.298235
O O7 0.078143 0.982551 0.909234
O O8 0.464205 0.750000 0.293209
O O9 0.500000 0.000000 0.500000
O O10 0.514585 0.988182 0.285770
O O11 0.371079 0.982847 0.070072
O O12 0.723770 0.250000 0.181088
O O13 0.687434 0.060761 0.296958
O O14 0.255822 0.750000 0.393531
O O15 0.362718 0.545724 0.571577
O O16 0.003572 0.750000 0.643019
O O17 0.000000 0.000000 0.500000
O O18 0.475339 0.750000 0.815519
O O19 0.500000 0.000000 0.000000
#
# Coordination Sequence:
#
# PCOD8074863 Si02
#       7
#     4   4   4   4   4   4   4
#     4   9  20  37  60  88 113 142 187 235 280 334
#     4  10  20  36  60  89 115 144 186 234 282 337
#     4  11  23  40  57  83 117 156 200 243 292 348
#     4   9  18  35  58  83 114 148 188 234 283 339
#     4   9  18  35  57  85 116 148 187 234 285 336
#     4  11  23  40  59  83 117 153 187 229 281 339
#     4  11  21  36  60  87 117 154 195 242 291 344
#
# _framework density 18.759067000000002
#
# number of rings (size 3 to 8) (size 9 to 14) (size 15 to 20)
#    0.000    2.000    1.429    2.143    0.000    4.000 
#    2.571    0.000    0.000    0.000    0.000    0.000 
#    0.000    0.000    0.000    0.000    0.000    0.000 
#
# Total GULP energy -347170.525290 kJ/mol
# GULP energy per Si atom -12398.947332 kJ/mol
# Density = 1.871637 g / cm^3
# Si number density = 18.759067 Si / 1000 Ang^3
#
#
#
# Elastic Constant Matrix: (Units=GPa)
#
#
# Indices 1 2 3 4 5 6 
#
# 1 104.0728 37.7907 75.8239 0.0000 -3.2213 0.0000
# 2 37.7907 58.5941 43.0223 0.0000 0.8848 0.0000
# 3 75.8239 43.0223 141.5952 0.0000 -0.0769 0.0000
# 4 0.0000 0.0000 0.0000 37.3163 0.0000 1.6769
# 5 -3.2213 0.8848 -0.0769 0.0000 27.1337 0.0000
# 6 0.0000 0.0000 0.0000 1.6769 0.0000 32.8157
#
#
#
# Elastic Compliance Matrix: (Units=1/GPa)
#
#
# Indices 1 2 3 4 5 6 
#
# 1 0.017169 -0.005608 -0.007489 0.000000 0.002200 0.000000
# 2 -0.005608 0.023814 -0.004233 0.000000 -0.001454 0.000000
# 3 -0.007489 -0.004233 0.012359 0.000000 -0.000716 0.000000
# 4 0.000000 0.000000 0.000000 0.026860 0.000000 -0.001373
# 5 0.002200 -0.001454 -0.000716 0.000000 0.037161 0.000000
# 6 0.000000 0.000000 0.000000 -0.001373 0.000000 0.030543
#
#
# Mechanical properties :
#
#
# Convention : Reuss Voigt Hill
#
# Bulk Modulus (GPa) = 53.53010 68.61510 61.07260
# Shear Modulus (GPa) = 26.48397 29.29482 27.88939
#
# Velocity S-wave (km/s) = 3.76146 3.95604 3.85998
# Velocity P-wave (km/s) = 6.88929 7.58442 7.24520
#
# Compressibility (1/GPa) = 0.01868108
#
# Stress axis : x y z
#
# Youngs Moduli (GPa) = 58.24325 41.99260 80.91535
#
# Poissons Ratio (x) = 0.23549 0.60598
# Poissons Ratio (y) = 0.32663 0.34254
# Poissons Ratio (z) = 0.43619 0.17777
#
# Static dielectric constant tensor:
#      x y z
#    x 3.534200 0.000000 0.109180 
#    y 0.000000 3.501290 0.000000 
#    z 0.109180 0.000000 3.519100 
# 
# 
# High freq. dielectric constant tensor:
#      x y z
#    x 1.727790 0.000000 0.012210 
#    y 0.000000 1.731630 0.000000 
#    z 0.012210 0.000000 1.728810 
# 
# From -- ./inp_files/28603.got.cif
#   From: 2010.06.25/outbox.cif.g09.slc.cpg/sg11_15_cif.got.tgz:28603.got - 2010.06.27 23:14:04.
