data_PCOD8074531
_publ_section_title
;
Structure prediction by ZEFSAII (Michael W. Deem and Ramdas Pophale) SiO2 
 PCOD8074531
Probable space group: P 21/M
;
_chemical_formula_sum "Si O2"
_cell_formula_units_Z 32
_cell_length_a 31.476606
_cell_length_b 8.884672
_cell_length_c 12.015680
_cell_angle_alpha 90.000000
_cell_angle_beta 150.054013
_cell_angle_gamma 90.000000
_cell_volume 1677.404336
_symmetry_space_group_name_H-M "P 21/M"
_symmetry_group_IT_number 11
_symmetry_cell_setting 'monoclinic'
loop_
_space_group_symop_operation_xyz
x,y,z
-x,1/2+y,-z
-x,-y,-z
x,1/2-y,z
loop_
_atom_site_type_symbol
_atom_site_label
_atom_site_fract_x
_atom_site_fract_y
_atom_site_fract_z
Si Si1 0.907370 0.925676 0.909193
Si Si2 0.462344 0.578280 0.521488
Si Si3 0.084197 0.424427 0.328062
Si Si4 0.591448 0.572653 0.192433
Si Si5 0.713835 0.573530 0.854275
Si Si6 0.629169 0.579904 0.031855
Si Si7 0.231619 0.927286 0.798915
Si Si8 0.251643 0.426348 0.313730
O O1 0.924202 0.750000 0.970878
O O2 0.887461 0.953661 0.734418
O O3 0.828446 0.992437 0.800282
O O4 0.989275 0.017956 0.133925
O O5 0.500000 0.500000 0.500000
O O6 0.437235 0.750000 0.436033
O O7 0.380850 0.487349 0.375751
O O8 0.530653 0.570512 0.774716
O O9 0.089078 0.250000 0.370239
O O10 0.146335 0.515085 0.548720
O O11 0.577617 0.750000 0.170035
O O12 0.658286 0.509380 0.435882
O O13 0.500000 0.500000 0.000000
O O14 0.633486 0.529235 0.169440
O O15 0.709443 0.750000 0.869643
O O16 0.761335 0.537801 0.845959
O O17 0.764069 0.493698 0.067304
O O18 0.664120 0.750000 0.095717
O O19 0.685454 0.472268 0.083147
O O20 0.228198 0.750000 0.800398
O O21 0.254023 0.250000 0.342659
#
# Coordination Sequence:
#
# PCOD8074531 Si02
#       8
#     4   4   4   4   4   4   4   4
#     4   9  18  37  63  89 115 146 185 225 274 337
#     4  11  21  34  53  78 109 149 191 234 281 329
#     4  10  20  36  61  90 120 146 175 225 285 337
#     4  10  20  36  56  82 114 149 186 228 278 330
#     4  11  22  37  56  79 111 150 192 236 283 334
#     4  10  21  36  56  80 111 147 186 233 287 337
#     4  12  24  37  56  82 111 145 189 235 281 334
#     4   9  19  36  59  82 110 151 190 227 277 335
#
# _framework density 19.077093999999999
#
# number of rings (size 3 to 8) (size 9 to 14) (size 15 to 20)
#    0.000    1.750    1.250    3.750    0.000    3.500 
#    0.000    3.125    0.000    0.000    0.000    0.000 
#    0.000    0.000    0.000    0.000    0.000    0.000 
#
# Total GULP energy -396877.886187 kJ/mol
# GULP energy per Si atom -12402.433943 kJ/mol
# Density = 1.903367 g / cm^3
# Si number density = 19.077094 Si / 1000 Ang^3
#
#
#
# Elastic Constant Matrix: (Units=GPa)
#
#
# Indices 1 2 3 4 5 6 
#
# 1 125.7650 58.2074 71.2423 0.0000 4.1344 0.0000
# 2 58.2074 104.6729 59.6368 0.0000 -5.2385 0.0000
# 3 71.2423 59.6368 120.9945 0.0000 -3.8416 0.0000
# 4 0.0000 0.0000 0.0000 32.9191 0.0000 2.8716
# 5 4.1344 -5.2385 -3.8416 0.0000 34.0252 0.0000
# 6 0.0000 0.0000 0.0000 2.8716 0.0000 20.3520
#
#
#
# Elastic Compliance Matrix: (Units=1/GPa)
#
#
# Indices 1 2 3 4 5 6 
#
# 1 0.013315 -0.004215 -0.005856 0.000000 -0.002928 0.000000
# 2 -0.004215 0.014677 -0.004681 0.000000 0.002243 0.000000
# 3 -0.005856 -0.004681 0.014070 0.000000 0.001579 0.000000
# 4 0.000000 0.000000 0.000000 0.030756 0.000000 -0.004340
# 5 -0.002928 0.002243 0.001579 0.000000 0.030269 0.000000
# 6 0.000000 0.000000 0.000000 -0.004340 0.000000 0.049747
#
#
# Mechanical properties :
#
#
# Convention : Reuss Voigt Hill
#
# Bulk Modulus (GPa) = 79.62400 81.06725 80.34562
# Shear Modulus (GPa) = 26.80613 28.28234 27.54423
#
# Velocity S-wave (km/s) = 3.75260 3.85454 3.80391
# Velocity P-wave (km/s) = 7.78490 7.89916 7.84224
#
# Compressibility (1/GPa) = 0.01255903
#
# Stress axis : x y z
#
# Youngs Moduli (GPa) = 75.10081 68.13562 71.07277
#
# Poissons Ratio (x) = 0.28718 0.41618
# Poissons Ratio (y) = 0.31654 0.33269
# Poissons Ratio (z) = 0.43977 0.31894
#
# Static dielectric constant tensor:
#      x y z
#    x 3.517060 0.000000 -0.012990 
#    y 0.000000 3.361720 0.000000 
#    z -0.012990 0.000000 3.684640 
# 
# 
# High freq. dielectric constant tensor:
#      x y z
#    x 1.741260 0.000000 -0.005960 
#    y 0.000000 1.733410 0.000000 
#    z -0.005960 0.000000 1.747760 
# 
# From -- ./inp_files/45223.got.cif
#   From: 2010.06.25/outbox.cif.g09.slc.cpg/sg11_23_cif.got.tgz:45223.got - 2010.06.27 23:14:04.
