data_PCOD8074844
_publ_section_title
;
Structure prediction by ZEFSAII (Michael W. Deem and Ramdas Pophale) SiO2 
 PCOD8074844
Probable space group: P 21/M
;
_chemical_formula_sum "Si O2"
_cell_formula_units_Z 32
_cell_length_a 24.895683
_cell_length_b 13.357860
_cell_length_c 9.194159
_cell_angle_alpha 90.000000
_cell_angle_beta 29.713252
_cell_angle_gamma 90.000000
_cell_volume 1515.501713
_symmetry_space_group_name_H-M "P 21/M"
_symmetry_group_IT_number 11
_symmetry_cell_setting 'monoclinic'
loop_
_space_group_symop_operation_xyz
x,y,z
-x,1/2+y,-z
-x,-y,-z
x,1/2-y,z
loop_
_atom_site_type_symbol
_atom_site_label
_atom_site_fract_x
_atom_site_fract_y
_atom_site_fract_z
Si Si1 0.133340 0.638266 0.801270
Si Si2 0.673852 0.994077 0.334998
Si Si3 0.374177 0.635174 0.305536
Si Si4 0.478023 0.634745 0.760096
Si Si5 0.049164 0.361157 0.563019
Si Si6 0.277438 0.864241 0.035583
Si Si7 0.121005 0.367163 0.072106
Si Si8 0.072432 0.944682 0.659101
O O1 0.123408 0.750000 0.760796
O O2 0.256485 0.606259 0.522145
O O3 0.069760 0.563413 0.841438
O O4 0.077652 0.632353 0.091942
O O5 0.604276 0.060840 0.611899
O O6 0.731291 0.066075 0.084724
O O7 0.585607 0.925025 0.461290
O O8 0.764464 0.924790 0.198498
O O9 0.377493 0.750000 0.352459
O O10 0.458994 0.617779 0.976967
O O11 0.500553 0.750000 0.673510
O O12 0.375213 0.598136 0.908754
O O13 0.096575 0.250000 0.486537
O O14 0.058559 0.384044 0.370983
O O15 0.110226 0.444569 0.516472
O O16 0.295927 0.750000 0.942399
O O17 0.164948 0.868485 0.387613
O O18 0.142563 0.250000 0.991292
O O19 0.045033 0.414020 0.126789
#
# Coordination Sequence:
#
# PCOD8074844 Si02
#       8
#     4   4   4   4   4   4   4   4
#     4  10  20  36  60  87 118 157 200 245 291 340
#     4  12  23  39  61  89 122 160 193 235 306 356
#     4  10  21  38  62  92 118 149 201 255 294 340
#     4  10  22  43  65  86 116 155 201 246 292 351
#     4  10  22  37  55  84 121 158 196 238 290 352
#     4  11  23  39  63  91 117 151 201 251 291 342
#     4  11  24  39  57  88 126 159 196 239 292 359
#     4  12  21  39  61  86 118 162 199 243 295 347
#
# _framework density 21.115120000000001
#
# number of rings (size 3 to 8) (size 9 to 14) (size 15 to 20)
#    0.000    1.250    2.500    4.125    1.750    0.000 
#    0.000    0.000    0.000    1.500    0.000    0.000 
#    0.000    0.000    0.000    0.000    0.000    0.000 
#
# Total GULP energy -396822.830624 kJ/mol
# GULP energy per Si atom -12400.713457 kJ/mol
# Density = 2.106706 g / cm^3
# Si number density = 21.115120 Si / 1000 Ang^3
#
#
#
# Elastic Constant Matrix: (Units=GPa)
#
#
# Indices 1 2 3 4 5 6 
#
# 1 58.8118 24.2821 2.8215 0.0000 -11.8044 0.0000
# 2 24.2821 94.3453 14.2911 0.0000 -6.5362 0.0000
# 3 2.8215 14.2911 52.9941 0.0000 -14.3138 0.0000
# 4 0.0000 0.0000 0.0000 26.4381 0.0000 -1.5648
# 5 -11.8044 -6.5362 -14.3138 0.0000 39.0014 0.0000
# 6 0.0000 0.0000 0.0000 -1.5648 0.0000 30.0334
#
#
#
# Elastic Compliance Matrix: (Units=1/GPa)
#
#
# Indices 1 2 3 4 5 6 
#
# 1 0.020204 -0.005075 0.001904 0.000000 0.005963 0.000000
# 2 -0.005075 0.012351 -0.003237 0.000000 -0.000654 0.000000
# 3 0.001904 -0.003237 0.021813 0.000000 0.008039 0.000000
# 4 0.000000 0.000000 0.000000 0.037941 0.000000 0.001977
# 5 0.005963 -0.000654 0.008039 0.000000 0.030286 0.000000
# 6 0.000000 0.000000 0.000000 0.001977 0.000000 0.033399
#
#
# Mechanical properties :
#
#
# Convention : Reuss Voigt Hill
#
# Bulk Modulus (GPa) = 24.06710 32.10451 28.08581
# Shear Modulus (GPa) = 27.37292 30.07835 28.72563
#
# Velocity S-wave (km/s) = 3.60441 3.77834 3.69240
# Velocity P-wave (km/s) = 5.36145 5.85423 5.61325
#
# Compressibility (1/GPa) = 0.04155049
#
# Stress axis : x y z
#
# Youngs Moduli (GPa) = 49.49399 80.96739 45.84410
#
# Poissons Ratio (x) = 0.41094 -0.08727
# Poissons Ratio (y) = 0.25120 0.14841
# Poissons Ratio (z) = -0.09422 0.26211
#
# Static dielectric constant tensor:
#      x y z
#    x 3.635650 0.000000 0.148280 
#    y 0.000000 4.093940 0.000000 
#    z 0.148280 0.000000 3.715120 
# 
# 
# High freq. dielectric constant tensor:
#      x y z
#    x 1.808920 0.000000 0.009910 
#    y 0.000000 1.844860 0.000000 
#    z 0.009910 0.000000 1.822940 
# 
# From -- ./inp_files/27765.got.cif
#   From: 2010.06.25/outbox.cif.g09.slc.cpg/sg11_14_cif.got.tgz:27765.got - 2010.06.27 23:14:04.
