data_PCOD8074923
_publ_section_title
;
Structure prediction by ZEFSAII (Michael W. Deem and Ramdas Pophale) SiO2 
 PCOD8074923
Probable space group: P 21/M
;
_chemical_formula_sum "Si O2"
_cell_formula_units_Z 32
_cell_length_a 14.518869
_cell_length_b 14.385553
_cell_length_c 20.694070
_cell_angle_alpha 90.000000
_cell_angle_beta 19.861953
_cell_angle_gamma 90.000000
_cell_volume 1468.490774
_symmetry_space_group_name_H-M "P 21/M"
_symmetry_group_IT_number 11
_symmetry_cell_setting 'monoclinic'
loop_
_space_group_symop_operation_xyz
x,y,z
-x,1/2+y,-z
-x,-y,-z
x,1/2-y,z
loop_
_atom_site_type_symbol
_atom_site_label
_atom_site_fract_x
_atom_site_fract_y
_atom_site_fract_z
Si Si1 0.824396 0.505204 0.788318
Si Si2 0.185536 0.858435 0.873675
Si Si3 0.272681 0.640365 0.482388
Si Si4 0.900418 0.013426 0.884057
Si Si5 0.057306 0.588268 0.418233
Si Si6 0.719394 0.542806 0.256181
Si Si7 0.488272 0.650898 0.802524
Si Si8 0.438281 0.354903 0.841020
O O1 0.947224 0.480885 0.777211
O O2 0.937242 0.433690 0.661460
O O3 0.958926 0.606248 0.683731
O O4 0.500000 0.500000 0.000000
O O5 0.161076 0.750000 0.866028
O O6 0.407763 0.869385 0.782275
O O7 0.280543 0.931504 0.756345
O O8 0.896218 0.895188 0.089861
O O9 0.270654 0.750000 0.495332
O O10 0.419324 0.587152 0.446130
O O11 0.431743 0.610667 0.312199
O O12 0.827232 0.912703 0.962674
O O13 0.161682 0.055421 0.749388
O O14 0.626996 0.072593 0.074883
O O15 0.337011 0.638025 0.251500
O O16 0.000000 0.500000 0.500000
O O17 0.811368 0.657869 0.593444
O O18 0.367660 0.750000 0.904441
O O19 0.335407 0.250000 0.902099
#
# Coordination Sequence:
#
# PCOD8074923 Si02
#       8
#     4   4   4   4   4   4   4   4
#     4  12  24  43  65  89 128 172 206 263 323 386
#     4   9  17  31  58  93 126 163 213 266 315 367
#     4  11  24  42  67  97 126 167 220 265 313 380
#     4  11  23  40  63  95 133 171 205 256 320 384
#     4  12  20  39  65  87 122 162 209 262 313 378
#     4  10  20  36  61  90 130 171 210 261 318 372
#     4  10  20  37  61  91 123 163 211 259 312 370
#     4  11  22  38  64  96 127 166 215 266 318 373
#
# _framework density 21.791080000000001
#
# number of rings (size 3 to 8) (size 9 to 14) (size 15 to 20)
#    0.000    1.250    3.750    3.750    0.000    3.000 
#    0.000    1.250    0.000    3.000    0.000    0.000 
#    0.000    0.000    0.000    0.000    0.000    0.000 
#
# Total GULP energy -396611.606320 kJ/mol
# GULP energy per Si atom -12394.112697 kJ/mol
# Density = 2.174148 g / cm^3
# Si number density = 21.791080 Si / 1000 Ang^3
#
#
#
# Elastic Constant Matrix: (Units=GPa)
#
#
# Indices 1 2 3 4 5 6 
#
# 1 110.7505 40.9484 45.0963 0.0000 7.5136 0.0000
# 2 40.9484 101.9060 24.7579 0.0000 -3.2585 0.0000
# 3 45.0963 24.7579 60.9063 0.0000 -14.9344 0.0000
# 4 0.0000 0.0000 0.0000 19.3818 0.0000 -6.1279
# 5 7.5136 -3.2585 -14.9344 0.0000 38.5726 0.0000
# 6 0.0000 0.0000 0.0000 -6.1279 0.0000 20.9849
#
#
#
# Elastic Compliance Matrix: (Units=1/GPa)
#
#
# Indices 1 2 3 4 5 6 
#
# 1 0.015971 -0.003682 -0.012339 0.000000 -0.008200 0.000000
# 2 -0.003682 0.011764 -0.001808 0.000000 0.001011 0.000000
# 3 -0.012339 -0.001808 0.029657 0.000000 0.013734 0.000000
# 4 0.000000 0.000000 0.000000 0.056843 0.000000 0.016599
# 5 -0.008200 0.001011 0.013734 0.000000 0.032925 0.000000
# 6 0.000000 0.000000 0.000000 0.016599 0.000000 0.052500
#
#
# Mechanical properties :
#
#
# Convention : Reuss Voigt Hill
#
# Bulk Modulus (GPa) = 46.01027 55.01869 50.51448
# Shear Modulus (GPa) = 20.61306 26.63855 23.62581
#
# Velocity S-wave (km/s) = 3.07895 3.50015 3.29629
# Velocity P-wave (km/s) = 5.81378 6.45274 6.14157
#
# Compressibility (1/GPa) = 0.02173428
#
# Stress axis : x y z
#
# Youngs Moduli (GPa) = 62.61155 85.00478 33.71840
#
# Poissons Ratio (x) = 0.31300 0.41607
# Poissons Ratio (y) = 0.23054 0.06095
# Poissons Ratio (z) = 0.77259 0.15367
#
# Static dielectric constant tensor:
#      x y z
#    x 4.119920 0.000000 -0.267680 
#    y 0.000000 3.927000 0.000000 
#    z -0.267680 0.000000 3.891080 
# 
# 
# High freq. dielectric constant tensor:
#      x y z
#    x 1.862990 0.000000 -0.025340 
#    y 0.000000 1.851430 0.000000 
#    z -0.025340 0.000000 1.834950 
# 
# From -- ./inp_files/65772.got.cif
#   From: 2010.06.25/outbox.cif.g09.slc.cpg/sg11_33_cif.got.tgz:65772.got - 2010.06.27 23:14:04.
