data_PCOD8074184
_publ_section_title
;
Structure prediction by ZEFSAII (Michael W. Deem and Ramdas Pophale) SiO2 
 PCOD8074184
Probable space group: P 21/M
;
_chemical_formula_sum "Si O2"
_cell_formula_units_Z 28
_cell_length_a 32.349697
_cell_length_b 8.889382
_cell_length_c 9.836936
_cell_angle_alpha 90.000000
_cell_angle_beta 148.100867
_cell_angle_gamma 90.000000
_cell_volume 1494.807918
_symmetry_space_group_name_H-M "P 21/M"
_symmetry_group_IT_number 11
_symmetry_cell_setting 'monoclinic'
loop_
_space_group_symop_operation_xyz
x,y,z
-x,1/2+y,-z
-x,-y,-z
x,1/2-y,z
loop_
_atom_site_type_symbol
_atom_site_label
_atom_site_fract_x
_atom_site_fract_y
_atom_site_fract_z
Si Si1 0.994878 0.426006 0.340232
Si Si2 0.526796 0.425538 0.937909
Si Si3 0.146289 0.570841 0.706627
Si Si4 0.300090 0.570511 0.653798
Si Si5 0.175212 0.924807 0.091569
Si Si6 0.271420 0.071161 0.859507
Si Si7 0.560987 0.925437 0.571677
O O1 0.014788 0.250000 0.402405
O O2 0.058925 0.510030 0.425417
O O3 0.000000 0.500000 0.500000
O O4 0.904530 0.453092 0.043412
O O5 0.532588 0.250000 0.979981
O O6 0.611526 0.484479 0.126282
O O7 0.500000 0.500000 0.000000
O O8 0.461417 0.468234 0.644570
O O9 0.146107 0.750000 0.699021
O O10 0.202702 0.504242 0.751685
O O11 0.171133 0.508326 0.926400
O O12 0.294127 0.750000 0.656761
O O13 0.247777 0.511131 0.380950
O O14 0.267712 0.489254 0.696532
O O15 0.188565 0.750000 0.107485
O O16 0.262198 0.250000 0.835001
O O17 0.352014 0.017247 0.154735
O O18 0.553909 0.750000 0.577721
O O19 0.500000 0.000000 0.500000
#
# Coordination Sequence:
#
# PCOD8074184 Si02
#       7
#     4   4   4   4   4   4   4
#     4   9  16  31  54  81 113 143 178 223 271 322
#     4  10  22  37  56  81 110 142 180 223 267 319
#     4  10  20  35  57  83 109 142 185 225 269 324
#     4  10  20  38  58  78 108 145 182 221 269 323
#     4   8  17  33  56  83 108 138 178 223 269 319
#     4  11  23  37  54  80 112 144 181 226 272 320
#     4  10  21  38  57  79 107 143 184 222 266 320
#
# _framework density 18.731504999999999
#
# number of rings (size 3 to 8) (size 9 to 14) (size 15 to 20)
#    0.000    2.286    1.429    2.143    2.000    1.714 
#    0.000    5.000    0.000    0.000    0.000    0.000 
#    0.000    0.000    0.000    0.000    0.000    0.000 
#
# Total GULP energy -347081.785793 kJ/mol
# GULP energy per Si atom -12395.778064 kJ/mol
# Density = 1.868887 g / cm^3
# Si number density = 18.731505 Si / 1000 Ang^3
#
#
#
# Elastic Constant Matrix: (Units=GPa)
#
#
# Indices 1 2 3 4 5 6 
#
# 1 134.1323 36.1668 27.4932 0.0000 9.7432 0.0000
# 2 36.1668 50.0718 16.7504 0.0000 3.3879 0.0000
# 3 27.4932 16.7504 60.6396 0.0000 1.3574 0.0000
# 4 0.0000 0.0000 0.0000 21.9341 0.0000 1.7627
# 5 9.7432 3.3879 1.3574 0.0000 30.5222 0.0000
# 6 0.0000 0.0000 0.0000 1.7627 0.0000 36.2993
#
#
#
# Elastic Compliance Matrix: (Units=1/GPa)
#
#
# Indices 1 2 3 4 5 6 
#
# 1 0.009806 -0.006010 -0.002733 0.000000 -0.002342 0.000000
# 2 -0.006010 0.025833 -0.004394 0.000000 -0.000754 0.000000
# 3 -0.002733 -0.004394 0.018932 0.000000 0.000518 0.000000
# 4 0.000000 0.000000 0.000000 0.045770 0.000000 -0.002223
# 5 -0.002342 -0.000754 0.000518 0.000000 0.033571 0.000000
# 6 0.000000 0.000000 0.000000 -0.002223 0.000000 0.027657
#
#
# Mechanical properties :
#
#
# Convention : Reuss Voigt Hill
#
# Bulk Modulus (GPa) = 35.33999 45.07382 40.20690
# Shear Modulus (GPa) = 25.34505 28.71334 27.02920
#
# Velocity S-wave (km/s) = 3.68240 3.91946 3.80278
# Velocity P-wave (km/s) = 6.08175 6.67819 6.38694
#
# Compressibility (1/GPa) = 0.02829656
#
# Stress axis : x y z
#
# Youngs Moduli (GPa) = 101.97581 38.70957 52.81969
#
# Poissons Ratio (x) = 0.23265 0.14438
# Poissons Ratio (y) = 0.61289 0.23209
# Poissons Ratio (z) = 0.27874 0.17009
#
# Static dielectric constant tensor:
#      x y z
#    x 3.399980 0.000000 0.143660 
#    y 0.000000 3.354460 0.000000 
#    z 0.143660 0.000000 3.727500 
# 
# 
# High freq. dielectric constant tensor:
#      x y z
#    x 1.725200 0.000000 0.014260 
#    y 0.000000 1.716490 0.000000 
#    z 0.014260 0.000000 1.731270 
# 
# From -- ./inp_files/28551.got.cif
#   From: 2010.06.25/outbox.cif.g09.slc.cpg/sg11_15_cif.got.tgz:28551.got - 2010.06.27 23:14:04.
