data_PCOD8074651
_publ_section_title
;
Structure prediction by ZEFSAII (Michael W. Deem and Ramdas Pophale) SiO2 
 PCOD8074651
Probable space group: P 21/M
;
_chemical_formula_sum "Si O2"
_cell_formula_units_Z 28
_cell_length_a 20.396829
_cell_length_b 8.694826
_cell_length_c 14.650646
_cell_angle_alpha 90.000000
_cell_angle_beta 147.165564
_cell_angle_gamma 90.000000
_cell_volume 1408.803754
_symmetry_space_group_name_H-M "P 21/M"
_symmetry_group_IT_number 11
_symmetry_cell_setting 'monoclinic'
loop_
_space_group_symop_operation_xyz
x,y,z
-x,1/2+y,-z
-x,-y,-z
x,1/2-y,z
loop_
_atom_site_type_symbol
_atom_site_label
_atom_site_fract_x
_atom_site_fract_y
_atom_site_fract_z
Si Si1 0.700741 0.928067 0.495474
Si Si2 0.066551 0.070364 0.735425
Si Si3 0.191251 0.427259 0.572939
Si Si4 0.219418 0.569686 0.067801
Si Si5 0.742039 0.431655 0.168034
Si Si6 0.868467 0.429542 0.839855
Si Si7 0.433466 0.931084 0.194152
O O1 0.706447 0.750000 0.529590
O O2 0.727251 0.953495 0.420398
O O3 0.567979 0.001040 0.360213
O O4 0.800557 0.014352 0.670931
O O5 0.087607 0.250000 0.743042
O O6 0.130930 0.974555 0.730641
O O7 0.925453 0.034497 0.568446
O O8 0.117624 0.023184 0.894012
O O9 0.151842 0.250000 0.536171
O O10 0.272250 0.479262 0.753488
O O11 0.195438 0.750000 0.022241
O O12 0.209965 0.525139 0.162758
O O13 0.353260 0.523243 0.188718
O O14 0.738022 0.250000 0.179862
O O15 0.633731 0.490113 0.975786
O O16 0.886209 0.250000 0.853771
O O17 0.000000 0.500000 0.000000
O O18 0.447005 0.750000 0.201503
#
# Coordination Sequence:
#
# PCOD8074651 Si02
#       7
#     4   4   4   4   4   4   4
#     4  10  22  39  58  80 110 147 183 224 272 324
#     4  11  21  34  55  83 112 142 182 228 274 326
#     4  11  22  35  52  78 112 147 184 226 274 324
#     4   9  19  37  59  81 110 146 181 223 275 325
#     4  10  20  36  58  81 109 145 183 225 273 325
#     4  11  23  38  58  85 114 145 181 224 273 325
#     4   8  17  37  60  80 106 143 183 221 270 327
#
# _framework density 19.875018000000001
#
# number of rings (size 3 to 8) (size 9 to 14) (size 15 to 20)
#    0.000    2.000    0.000    4.714    0.000    6.857 
#    0.000    3.571    0.000    0.000    0.000    0.000 
#    0.000    0.000    0.000    0.000    0.000    0.000 
#
# Total GULP energy -347263.435192 kJ/mol
# GULP energy per Si atom -12402.265543 kJ/mol
# Density = 1.982978 g / cm^3
# Si number density = 19.875018 Si / 1000 Ang^3
#
#
#
# Elastic Constant Matrix: (Units=GPa)
#
#
# Indices 1 2 3 4 5 6 
#
# 1 116.6650 42.0026 59.0664 0.0000 -4.6262 0.0000
# 2 42.0026 58.4753 31.1155 0.0000 -7.9923 0.0000
# 3 59.0664 31.1155 108.1089 0.0000 15.2387 0.0000
# 4 0.0000 0.0000 0.0000 26.0382 0.0000 -4.4214
# 5 -4.6262 -7.9923 15.2387 0.0000 32.6935 0.0000
# 6 0.0000 0.0000 0.0000 -4.4214 0.0000 23.8023
#
#
#
# Elastic Compliance Matrix: (Units=1/GPa)
#
#
# Indices 1 2 3 4 5 6 
#
# 1 0.014259 -0.006329 -0.006459 0.000000 0.003481 0.000000
# 2 -0.006329 0.025279 -0.004884 0.000000 0.007561 0.000000
# 3 -0.006459 -0.004884 0.015500 0.000000 -0.009333 0.000000
# 4 0.000000 0.000000 0.000000 0.039656 0.000000 0.007366
# 5 0.003481 0.007561 -0.009333 0.000000 0.037278 0.000000
# 6 0.000000 0.000000 0.000000 0.007366 0.000000 0.043381
#
#
# Mechanical properties :
#
#
# Convention : Reuss Voigt Hill
#
# Bulk Modulus (GPa) = 50.77673 60.84647 55.81160
# Shear Modulus (GPa) = 23.01372 26.57777 24.79574
#
# Velocity S-wave (km/s) = 3.40652 3.66080 3.53595
# Velocity P-wave (km/s) = 6.40905 6.96776 6.69424
#
# Compressibility (1/GPa) = 0.01969406
#
# Stress axis : x y z
#
# Youngs Moduli (GPa) = 70.13343 39.55808 64.51524
#
# Poissons Ratio (x) = 0.25036 0.41673
# Poissons Ratio (y) = 0.44387 0.31507
# Poissons Ratio (z) = 0.45302 0.19319
#
# Static dielectric constant tensor:
#      x y z
#    x 3.731230 0.000000 -0.017510 
#    y 0.000000 3.495490 0.000000 
#    z -0.017510 0.000000 3.704410 
# 
# 
# High freq. dielectric constant tensor:
#      x y z
#    x 1.782020 0.000000 -0.003500 
#    y 0.000000 1.763070 0.000000 
#    z -0.003500 0.000000 1.773730 
# 
# From -- ./inp_files/38450.got.cif
#   From: 2010.06.25/outbox.cif.g09.slc.cpg/sg11_20_cif.got.tgz:38450.got - 2010.06.27 23:14:04.
