data_PCOD8074515
_publ_section_title
;
Structure prediction by ZEFSAII (Michael W. Deem and Ramdas Pophale) SiO2 
 PCOD8074515
Probable space group: P 21/M
;
_chemical_formula_sum "Si O2"
_cell_formula_units_Z 24
_cell_length_a 15.073745
_cell_length_b 17.676141
_cell_length_c 9.168849
_cell_angle_alpha 90.000000
_cell_angle_beta 31.895484
_cell_angle_gamma 90.000000
_cell_volume 1290.811299
_symmetry_space_group_name_H-M "P 21/M"
_symmetry_group_IT_number 11
_symmetry_cell_setting 'monoclinic'
loop_
_space_group_symop_operation_xyz
x,y,z
-x,1/2+y,-z
-x,-y,-z
x,1/2-y,z
loop_
_atom_site_type_symbol
_atom_site_label
_atom_site_fract_x
_atom_site_fract_y
_atom_site_fract_z
Si Si1 0.593794 0.920735 0.901805
Si Si2 0.938375 0.576580 0.248643
Si Si3 0.906075 0.332429 0.734061
Si Si4 0.236908 0.164264 0.089275
Si Si5 0.272002 0.838264 0.291360
Si Si6 0.974509 0.595673 0.872641
O O1 0.755633 0.918709 0.574496
O O2 0.638792 0.898336 0.008022
O O3 0.467585 0.853963 0.034223
O O4 0.500000 0.000000 0.000000
O O5 0.081522 0.621899 0.134890
O O6 0.015072 0.493875 0.150898
O O7 0.925942 0.614367 0.106744
O O8 0.833820 0.250000 0.874483
O O9 0.786024 0.373721 0.783374
O O10 0.088054 0.325335 0.409600
O O11 0.314252 0.250000 0.956313
O O12 0.169978 0.130121 0.029804
O O13 0.233405 0.750000 0.342855
O O14 0.159560 0.872737 0.577806
#
# Coordination Sequence:
#
# PCOD8074515 Si02
#       6
#     4   4   4   4   4   4
#     4  11  21  35  57  85 111 148 182 231 279 323
#     4  10  21  35  55  84 112 139 185 230 278 327
#     4   8  17  32  54  78 103 139 183 226 264 323
#     4   9  19  35  55  79 109 148 187 222 272 337
#     4  10  20  36  57  81 110 144 184 224 273 336
#     4  10  20  36  56  81 109 146 183 229 273 330
#
# _framework density 18.592956999999998
#
# number of rings (size 3 to 8) (size 9 to 14) (size 15 to 20)
#    0.000    2.333    1.667    2.000    2.333    4.000 
#    0.000    2.500    0.000    2.000    0.000    0.000 
#    0.000    0.000    0.000    0.000    0.000    0.000 
#
# Total GULP energy -297318.121465 kJ/mol
# GULP energy per Si atom -12388.255061 kJ/mol
# Density = 1.855064 g / cm^3
# Si number density = 18.592957 Si / 1000 Ang^3
#
#
#
# Elastic Constant Matrix: (Units=GPa)
#
#
# Indices 1 2 3 4 5 6 
#
# 1 147.1701 56.8288 49.1682 0.0000 14.3939 0.0000
# 2 56.8288 75.7750 14.9928 0.0000 13.3131 0.0000
# 3 49.1682 14.9928 52.6415 0.0000 10.5362 0.0000
# 4 0.0000 0.0000 0.0000 7.0310 0.0000 -7.2185
# 5 14.3939 13.3131 10.5362 0.0000 29.5659 0.0000
# 6 0.0000 0.0000 0.0000 -7.2185 0.0000 35.0248
#
#
#
# Elastic Compliance Matrix: (Units=1/GPa)
#
#
# Indices 1 2 3 4 5 6 
#
# 1 0.013246 -0.008052 -0.010244 0.000000 0.000828 0.000000
# 2 -0.008052 0.019681 0.003128 0.000000 -0.006057 0.000000
# 3 -0.010244 0.003128 0.029028 0.000000 -0.006766 0.000000
# 4 0.000000 0.000000 0.000000 0.180398 0.000000 0.037179
# 5 0.000828 -0.006057 -0.006766 0.000000 0.038558 0.000000
# 6 0.000000 0.000000 0.000000 0.037179 0.000000 0.036214
#
#
# Mechanical properties :
#
#
# Convention : Reuss Voigt Hill
#
# Bulk Modulus (GPa) = 31.62779 57.50736 44.56757
# Shear Modulus (GPa) = 13.96646 24.63079 19.29863
#
# Velocity S-wave (km/s) = 2.74372 3.64364 3.22522
# Velocity P-wave (km/s) = 5.20431 6.97842 6.15562
#
# Compressibility (1/GPa) = 0.03161777
#
# Stress axis : x y z
#
# Youngs Moduli (GPa) = 75.49582 50.80979 34.44959
#
# Poissons Ratio (x) = 0.40914 0.35291
# Poissons Ratio (y) = 0.60793 -0.10776
# Poissons Ratio (z) = 0.77339 -0.15893
#
# Static dielectric constant tensor:
#      x y z
#    x 3.883620 0.000000 -0.025840 
#    y 0.000000 3.706280 0.000000 
#    z -0.025840 0.000000 3.143860 
# 
# 
# High freq. dielectric constant tensor:
#      x y z
#    x 1.735640 0.000000 -0.004580 
#    y 0.000000 1.731610 0.000000 
#    z -0.004580 0.000000 1.681210 
# 
# From -- ./inp_files/18533.got.cif
#   From: 2010.06.25/outbox.cif.g09.slc.cpg/sg11_10_cif.got.tgz:18533.got - 2010.06.27 23:14:04.
