data_PCOD8074509
_publ_section_title
;
Structure prediction by ZEFSAII (Michael W. Deem and Ramdas Pophale) SiO2 
 PCOD8074509
Probable space group: P 21/M
;
_chemical_formula_sum "Si O2"
_cell_formula_units_Z 32
_cell_length_a 31.394882
_cell_length_b 9.072857
_cell_length_c 5.024647
_cell_angle_alpha 90.000000
_cell_angle_beta 94.736216
_cell_angle_gamma 90.000000
_cell_volume 1426.339784
_symmetry_space_group_name_H-M "P 21/M"
_symmetry_group_IT_number 11
_symmetry_cell_setting 'monoclinic'
loop_
_space_group_symop_operation_xyz
x,y,z
-x,1/2+y,-z
-x,-y,-z
x,1/2-y,z
loop_
_atom_site_type_symbol
_atom_site_label
_atom_site_fract_x
_atom_site_fract_y
_atom_site_fract_z
Si Si1 0.964623 0.099722 0.684437
Si Si2 0.281691 0.919926 0.319347
Si Si3 0.414908 0.078267 0.894295
Si Si4 0.454412 0.928846 0.420563
Si Si5 0.182664 0.919449 0.272775
Si Si6 0.315833 0.080789 0.836732
Si Si7 0.941740 0.959634 0.191293
Si Si8 0.848047 0.911264 0.247070
O O1 0.949628 0.250000 0.818570
O O2 0.015910 0.116002 0.659963
O O3 0.939536 0.099337 0.388925
O O4 0.950640 0.973993 0.882270
O O5 0.296725 0.750000 0.323607
O O6 0.232267 0.932302 0.372792
O O7 0.309516 0.010990 0.543357
O O8 0.288261 0.988551 0.032001
O O9 0.430329 0.250000 0.891353
O O10 0.365254 0.071844 0.941847
O O11 0.421579 0.997126 0.616299
O O12 0.440835 0.984171 0.122950
O O13 0.455419 0.750000 0.431408
O O14 0.500000 0.000000 0.500000
O O15 0.167610 0.750000 0.267250
O O16 0.155209 0.012608 0.467611
O O17 0.174693 0.983634 0.976308
O O18 0.300204 0.250000 0.824466
O O19 0.897258 0.876286 0.198653
O O20 0.825581 0.750000 0.242639
#
# Coordination Sequence:
#
# PCOD8074509 Si02
#       8
#     4   4   4   4   4   4   4   4
#     4  10  20  36  56  80 111 150 193 238 291 353
#     4  11  24  43  66  93 127 165 206 255 314 375
#     4  11  24  43  64  94 132 168 212 266 320 376
#     4  12  25  42  65  93 128 174 222 269 320 376
#     4  11  26  45  65  92 127 165 206 255 308 369
#     4  11  24  41  67  98 130 166 207 261 319 375
#     4  10  22  36  55  83 114 148 191 242 295 350
#     4  12  25  42  65  93 124 162 205 254 307 362
#
# _framework density 22.435047000000001
#
# number of rings (size 3 to 8) (size 9 to 14) (size 15 to 20)
#    0.000    1.000    0.000    6.375    0.000   13.000 
#    0.000    3.750    0.000    0.000    0.000    0.000 
#    0.000    0.000    0.000    0.000    0.000    0.000 
#
# Total GULP energy -396580.131040 kJ/mol
# GULP energy per Si atom -12393.129095 kJ/mol
# Density = 2.238398 g / cm^3
# Si number density = 22.435047 Si / 1000 Ang^3
#
#
#
# Elastic Constant Matrix: (Units=GPa)
#
#
# Indices 1 2 3 4 5 6 
#
# 1 64.3908 32.5889 9.2503 0.0000 -2.8321 0.0000
# 2 32.5889 177.6602 37.9792 0.0000 -1.0815 0.0000
# 3 9.2503 37.9792 106.7903 0.0000 0.1646 0.0000
# 4 0.0000 0.0000 0.0000 47.2194 0.0000 22.2313
# 5 -2.8321 -1.0815 0.1646 0.0000 39.2974 0.0000
# 6 0.0000 0.0000 0.0000 22.2313 0.0000 71.7754
#
#
#
# Elastic Compliance Matrix: (Units=1/GPa)
#
#
# Indices 1 2 3 4 5 6 
#
# 1 0.017187 -0.003060 -0.000402 0.000000 0.001156 0.000000
# 2 -0.003060 0.006638 -0.002096 0.000000 -0.000029 0.000000
# 3 -0.000402 -0.002096 0.010144 0.000000 -0.000129 0.000000
# 4 0.000000 0.000000 0.000000 0.024793 0.000000 -0.007679
# 5 0.001156 -0.000029 -0.000129 0.000000 0.025530 0.000000
# 6 0.000000 0.000000 0.000000 -0.007679 0.000000 0.016311
#
#
# Mechanical properties :
#
#
# Convention : Reuss Voigt Hill
#
# Bulk Modulus (GPa) = 43.75555 56.49755 50.12655
# Shear Modulus (GPa) = 41.89805 49.59329 45.74567
#
# Velocity S-wave (km/s) = 4.32618 4.70673 4.52046
# Velocity P-wave (km/s) = 6.67083 7.40102 7.04539
#
# Compressibility (1/GPa) = 0.02285424
#
# Stress axis : x y z
#
# Youngs Moduli (GPa) = 58.18225 150.65274 98.57570
#
# Poissons Ratio (x) = 0.46095 0.03967
# Poissons Ratio (y) = 0.17802 0.20658
# Poissons Ratio (z) = 0.02341 0.31571
#
# Static dielectric constant tensor:
#      x y z
#    x 3.956890 0.000000 0.002600 
#    y 0.000000 4.070130 0.000000 
#    z 0.002600 0.000000 3.991340 
# 
# 
# High freq. dielectric constant tensor:
#      x y z
#    x 1.882550 0.000000 -0.000720 
#    y 0.000000 1.896120 0.000000 
#    z -0.000720 0.000000 1.895640 
# 
# From -- ./inp_files/9680.got.cif
#   From: 2010.06.25/outbox.cif.g09.slc.cpg/sg11_5_cif.got.tgz:9680.got - 2010.06.27 23:14:04.
