data_PCOD8074136
_publ_section_title
;
Structure prediction by ZEFSAII (Michael W. Deem and Ramdas Pophale) SiO2 
 PCOD8074136
Probable space group: P 21/M
;
_chemical_formula_sum "Si O2"
_cell_formula_units_Z 20
_cell_length_a 12.199321
_cell_length_b 12.612742
_cell_length_c 9.334777
_cell_angle_alpha 90.000000
_cell_angle_beta 46.307874
_cell_angle_gamma 90.000000
_cell_volume 1038.543538
_symmetry_space_group_name_H-M "P 21/M"
_symmetry_group_IT_number 11
_symmetry_cell_setting 'monoclinic'
loop_
_space_group_symop_operation_xyz
x,y,z
-x,1/2+y,-z
-x,-y,-z
x,1/2-y,z
loop_
_atom_site_type_symbol
_atom_site_label
_atom_site_fract_x
_atom_site_fract_y
_atom_site_fract_z
Si Si1 0.959429 0.991019 0.756281
Si Si2 0.716175 0.872323 0.140446
Si Si3 0.749105 0.872232 0.439101
Si Si4 0.161599 0.630228 0.367208
Si Si5 0.553150 0.025543 0.793515
O O1 0.020614 0.900802 0.594484
O O2 0.092619 0.065610 0.694325
O O3 0.837640 0.060685 0.778213
O O4 0.872991 0.932799 0.963308
O O5 0.729530 0.750000 0.080881
O O6 0.685323 0.882085 0.336568
O O7 0.579070 0.927687 0.183055
O O8 0.776894 0.750000 0.456851
O O9 0.622724 0.919541 0.659476
O O10 0.143003 0.750000 0.335914
O O11 0.316258 0.614226 0.315482
O O12 0.500000 0.000000 0.000000
#
# Coordination Sequence:
#
# PCOD8074136 Si02
#       5
#     4   4   4   4   4
#     4  10  20  37  58  86 118 152 193 240 290 344
#     4  11  22  39  61  88 119 156 195 240 294 348
#     4  10  23  40  61  86 119 157 195 240 293 348
#     4  10  20  35  56  84 115 150 193 241 291 341
#     4  11  22  40  58  85 117 153 196 242 289 344
#
# _framework density 19.257739000000001
#
# number of rings (size 3 to 8) (size 9 to 14) (size 15 to 20)
#    0.000    1.600    2.000    3.000    0.000    1.600 
#    0.000    0.000    0.000    8.400    0.000    0.000 
#    0.000    0.000    0.000    0.000    0.000    0.000 
#
# Total GULP energy -248048.771607 kJ/mol
# GULP energy per Si atom -12402.438580 kJ/mol
# Density = 1.921391 g / cm^3
# Si number density = 19.257739 Si / 1000 Ang^3
#
#
#
# Elastic Constant Matrix: (Units=GPa)
#
#
# Indices 1 2 3 4 5 6 
#
# 1 103.8469 43.0789 35.3397 0.0000 -6.2908 0.0000
# 2 43.0789 131.0742 61.6533 0.0000 -12.1255 0.0000
# 3 35.3397 61.6533 110.8356 0.0000 0.1563 0.0000
# 4 0.0000 0.0000 0.0000 27.5958 0.0000 0.3835
# 5 -6.2908 -12.1255 0.1563 0.0000 25.1789 0.0000
# 6 0.0000 0.0000 0.0000 0.3835 0.0000 17.8683
#
#
#
# Elastic Compliance Matrix: (Units=1/GPa)
#
#
# Indices 1 2 3 4 5 6 
#
# 1 0.011571 -0.002591 -0.002250 0.000000 0.001657 0.000000
# 2 -0.002591 0.011587 -0.005626 0.000000 0.004967 0.000000
# 3 -0.002250 -0.005626 0.012874 0.000000 -0.003352 0.000000
# 4 0.000000 0.000000 0.000000 0.036248 0.000000 -0.000778
# 5 0.001657 0.004967 -0.003352 0.000000 0.042543 0.000000
# 6 0.000000 0.000000 0.000000 -0.000778 0.000000 0.055982
#
#
# Mechanical properties :
#
#
# Convention : Reuss Voigt Hill
#
# Bulk Modulus (GPa) = 66.23998 69.54450 67.89224
# Shear Modulus (GPa) = 25.41021 27.84091 26.62556
#
# Velocity S-wave (km/s) = 3.63641 3.80636 3.72235
# Velocity P-wave (km/s) = 7.21821 7.45042 7.33523
#
# Compressibility (1/GPa) = 0.01509662
#
# Stress axis : x y z
#
# Youngs Moduli (GPa) = 86.42615 86.30585 77.67491
#
# Poissons Ratio (x) = 0.22362 0.17479
# Poissons Ratio (y) = 0.22393 0.43701
# Poissons Ratio (z) = 0.19449 0.48556
#
# Static dielectric constant tensor:
#      x y z
#    x 3.608920 0.000000 -0.004880 
#    y 0.000000 3.530070 0.000000 
#    z -0.004880 0.000000 3.510260 
# 
# 
# High freq. dielectric constant tensor:
#      x y z
#    x 1.759990 0.000000 -0.001190 
#    y 0.000000 1.753210 0.000000 
#    z -0.001190 0.000000 1.747590 
# 
# From -- ./inp_files/11725.got.cif
#   From: 2010.06.25/outbox.cif.g09.slc.cpg/sg11_6_cif.got.tgz:11725.got - 2010.06.27 23:14:04.
