data_PCOD8074191
_publ_section_title
;
Structure prediction by ZEFSAII (Michael W. Deem and Ramdas Pophale) SiO2 
 PCOD8074191
Probable space group: P 21/M
;
_chemical_formula_sum "Si O2"
_cell_formula_units_Z 28
_cell_length_a 19.563569
_cell_length_b 9.692884
_cell_length_c 22.538305
_cell_angle_alpha 90.000000
_cell_angle_beta 159.889242
_cell_angle_gamma 90.000000
_cell_volume 1469.513968
_symmetry_space_group_name_H-M "P 21/M"
_symmetry_group_IT_number 11
_symmetry_cell_setting 'monoclinic'
loop_
_space_group_symop_operation_xyz
x,y,z
-x,1/2+y,-z
-x,-y,-z
x,1/2-y,z
loop_
_atom_site_type_symbol
_atom_site_label
_atom_site_fract_x
_atom_site_fract_y
_atom_site_fract_z
Si Si1 0.147960 0.405640 0.584449
Si Si2 0.395895 0.587979 0.465315
Si Si3 0.457417 0.905637 0.020926
Si Si4 0.438397 0.407617 0.272107
Si Si5 0.060442 0.092386 0.894141
Si Si6 0.122900 0.907704 0.836463
Si Si7 0.736367 0.592296 0.449935
O O1 0.063603 0.250000 0.517343
O O2 0.365144 0.413878 0.788386
O O3 0.163690 0.458838 0.529759
O O4 0.000000 0.500000 0.500000
O O5 0.500000 0.500000 0.500000
O O6 0.423119 0.750000 0.474387
O O7 0.502652 0.545121 0.613788
O O8 0.163983 0.545127 0.275134
O O9 0.424823 0.750000 0.971078
O O10 0.261875 0.958842 0.895802
O O11 0.500000 0.000000 0.000000
O O12 0.506413 0.250000 0.318175
O O13 0.549247 0.498766 0.313440
O O14 0.200799 0.423948 0.066913
O O15 0.058297 0.250000 0.870043
O O16 0.158156 0.001223 0.922343
O O17 0.177534 0.750000 0.897188
O O18 0.894881 0.921988 0.631616
O O19 0.663457 0.750000 0.383117
#
# Coordination Sequence:
#
# PCOD8074191 Si02
#       7
#     4   4   4   4   4   4   4
#     4  10  21  36  53  76 107 144 187 235 286 339
#     4  10  22  40  60  86 120 152 188 234 280 338
#     4  10  21  36  53  76 107 144 187 235 286 339
#     4  10  21  38  60  86 116 151 190 232 281 336
#     4  10  21  38  60  86 116 151 190 232 281 336
#     4  10  20  35  57  83 111 145 187 236 287 338
#     4  10  20  35  57  83 111 145 187 236 287 338
#
# _framework density 19.053917999999999
#
# number of rings (size 3 to 8) (size 9 to 14) (size 15 to 20)
#    0.000    2.000    1.429    1.714    0.000    6.286 
#    0.000    0.000    0.000    0.000    0.000    0.000 
#    0.000    0.000    0.000    0.000    0.000    0.000 
#
# Total GULP energy -347254.526473 kJ/mol
# GULP energy per Si atom -12401.947374 kJ/mol
# Density = 1.901055 g / cm^3
# Si number density = 19.053918 Si / 1000 Ang^3
#
#
#
# Elastic Constant Matrix: (Units=GPa)
#
#
# Indices 1 2 3 4 5 6 
#
# 1 132.5416 71.6903 53.5603 0.0000 4.7859 0.0000
# 2 71.6903 74.7896 38.0477 0.0000 6.8592 0.0000
# 3 53.5603 38.0477 110.3836 0.0000 -0.2930 0.0000
# 4 0.0000 0.0000 0.0000 24.3008 0.0000 3.4616
# 5 4.7859 6.8592 -0.2930 0.0000 28.7568 0.0000
# 6 0.0000 0.0000 0.0000 3.4616 0.0000 41.2793
#
#
#
# Elastic Compliance Matrix: (Units=1/GPa)
#
#
# Indices 1 2 3 4 5 6 
#
# 1 0.016509 -0.014320 -0.003073 0.000000 0.000637 0.000000
# 2 -0.014320 0.029091 -0.003091 0.000000 -0.004587 0.000000
# 3 -0.003073 -0.003091 0.011619 0.000000 0.001367 0.000000
# 4 0.000000 0.000000 0.000000 0.041648 0.000000 -0.003493
# 5 0.000637 -0.004587 0.001367 0.000000 0.035776 0.000000
# 6 0.000000 0.000000 0.000000 -0.003493 0.000000 0.024518
#
#
# Mechanical properties :
#
#
# Convention : Reuss Voigt Hill
#
# Bulk Modulus (GPa) = 61.53366 71.59015 66.56190
# Shear Modulus (GPa) = 24.32530 29.16181 26.74355
#
# Velocity S-wave (km/s) = 3.57691 3.91639 3.75049
# Velocity P-wave (km/s) = 7.03019 7.62265 7.33241
#
# Compressibility (1/GPa) = 0.01625127
#
# Stress axis : x y z
#
# Youngs Moduli (GPa) = 60.57228 34.37526 86.06305
#
# Poissons Ratio (x) = 0.49226 0.26447
# Poissons Ratio (y) = 0.86740 0.26601
# Poissons Ratio (z) = 0.18614 0.10625
#
# Static dielectric constant tensor:
#      x y z
#    x 2.745820 0.000000 -0.199400 
#    y 0.000000 3.345810 0.000000 
#    z -0.199400 0.000000 3.725140 
# 
# 
# High freq. dielectric constant tensor:
#      x y z
#    x 1.730470 0.000000 -0.005480 
#    y 0.000000 1.735070 0.000000 
#    z -0.005480 0.000000 1.757320 
# 
# From -- ./inp_files/66212.got.cif
#   From: 2010.06.25/outbox.cif.g09.slc.cpg/sg11_34_cif.got.tgz:66212.got - 2010.06.27 23:14:04.
