data_PCOD8074849
_publ_section_title
;
Structure prediction by ZEFSAII (Michael W. Deem and Ramdas Pophale) SiO2 
 PCOD8074849
Probable space group: P 21/M
;
_chemical_formula_sum "Si O2"
_cell_formula_units_Z 20
_cell_length_a 7.186766
_cell_length_b 18.662871
_cell_length_c 11.844541
_cell_angle_alpha 90.000000
_cell_angle_beta 36.409933
_cell_angle_gamma 90.000000
_cell_volume 942.960850
_symmetry_space_group_name_H-M "P 21/M"
_symmetry_group_IT_number 11
_symmetry_cell_setting 'monoclinic'
loop_
_space_group_symop_operation_xyz
x,y,z
-x,1/2+y,-z
-x,-y,-z
x,1/2-y,z
loop_
_atom_site_type_symbol
_atom_site_label
_atom_site_fract_x
_atom_site_fract_y
_atom_site_fract_z
Si Si1 0.281625 0.091385 0.780956
Si Si2 0.709148 0.831634 0.994138
Si Si3 0.624769 0.168434 0.416768
Si Si4 0.237272 0.558877 0.143586
Si Si5 0.632273 0.965723 0.550332
O O1 0.186359 0.129300 0.942313
O O2 0.492266 0.145275 0.603088
O O3 0.963654 0.069062 0.872055
O O4 0.486468 0.019541 0.715060
O O5 0.627812 0.750000 0.061218
O O6 0.398575 0.865627 0.092503
O O7 0.998022 0.838541 0.765773
O O8 0.523785 0.250000 0.438741
O O9 0.486295 0.116727 0.385520
O O10 0.010849 0.534751 0.358263
O O11 0.500000 0.500000 0.000000
O O12 0.500000 0.000000 0.500000
#
# Coordination Sequence:
#
# PCOD8074849 Si02
#       5
#     4   4   4   4   4
#     4  10  21  39  60  81 116 155 188 233 290 339
#     4  11  23  37  59  88 113 149 195 234 285 346
#     4   9  18  35  55  79 115 149 185 234 281 334
#     4  10  20  36  60  88 116 147 193 242 283 337
#     4   8  17  33  55  80 107 146 185 221 278 337
#
# _framework density 21.209790000000002
#
# number of rings (size 3 to 8) (size 9 to 14) (size 15 to 20)
#    0.000    2.800    0.000    4.200    0.000    8.000 
#    0.000    6.000    0.000    4.800    0.000    0.000 
#    0.000    0.000    0.000    0.000    0.000    0.000 
#
# Total GULP energy -247859.437686 kJ/mol
# GULP energy per Si atom -12392.971884 kJ/mol
# Density = 2.116152 g / cm^3
# Si number density = 21.209790 Si / 1000 Ang^3
#
#
#
# Elastic Constant Matrix: (Units=GPa)
#
#
# Indices 1 2 3 4 5 6 
#
# 1 58.7231 27.1846 33.0675 0.0000 -22.4499 0.0000
# 2 27.1846 164.5245 51.2745 0.0000 -20.9406 0.0000
# 3 33.0675 51.2745 102.3935 0.0000 -29.4769 0.0000
# 4 0.0000 0.0000 0.0000 39.5270 0.0000 -7.9845
# 5 -22.4499 -20.9406 -29.4769 0.0000 32.8733 0.0000
# 6 0.0000 0.0000 0.0000 -7.9845 0.0000 28.3755
#
#
#
# Elastic Compliance Matrix: (Units=1/GPa)
#
#
# Indices 1 2 3 4 5 6 
#
# 1 0.024513 -0.001312 -0.003613 0.000000 0.012664 0.000000
# 2 -0.001312 0.007355 -0.002923 0.000000 0.001168 0.000000
# 3 -0.003613 -0.002923 0.015030 0.000000 0.009148 0.000000
# 4 0.000000 0.000000 0.000000 0.026824 0.000000 0.007548
# 5 0.012664 0.001168 0.009148 0.000000 0.048015 0.000000
# 6 0.000000 0.000000 0.000000 0.007548 0.000000 0.037365
#
#
# Mechanical properties :
#
#
# Convention : Reuss Voigt Hill
#
# Bulk Modulus (GPa) = 32.05052 60.96603 46.50827
# Shear Modulus (GPa) = 26.99789 34.42945 30.71367
#
# Velocity S-wave (km/s) = 3.57164 4.03337 3.80951
# Velocity P-wave (km/s) = 5.67034 7.10615 6.42846
#
# Compressibility (1/GPa) = 0.03120074
#
# Stress axis : x y z
#
# Youngs Moduli (GPa) = 40.79483 135.97103 66.53231
#
# Poissons Ratio (x) = 0.17843 0.24041
# Poissons Ratio (y) = 0.05353 0.19446
# Poissons Ratio (z) = 0.14741 0.39742
#
# Static dielectric constant tensor:
#      x y z
#    x 3.441270 0.000000 -0.127910 
#    y 0.000000 4.475640 0.000000 
#    z -0.127910 0.000000 4.092570 
# 
# 
# High freq. dielectric constant tensor:
#      x y z
#    x 1.787150 0.000000 -0.016250 
#    y 0.000000 1.847200 0.000000 
#    z -0.016250 0.000000 1.846340 
# 
# From -- ./inp_files/47906.got.cif
#   From: 2010.06.25/outbox.cif.g09.slc.cpg/sg11_24_cif.got.tgz:47906.got - 2010.06.27 23:14:04.
