data_PCOD8074671
_publ_section_title
;
Structure prediction by ZEFSAII (Michael W. Deem and Ramdas Pophale) SiO2 
 PCOD8074671
Probable space group: P 21/M
;
_chemical_formula_sum "Si O2"
_cell_formula_units_Z 32
_cell_length_a 12.250879
_cell_length_b 8.822858
_cell_length_c 15.122473
_cell_angle_alpha 90.000000
_cell_angle_beta 92.515605
_cell_angle_gamma 90.000000
_cell_volume 1632.979107
_symmetry_space_group_name_H-M "P 21/M"
_symmetry_group_IT_number 11
_symmetry_cell_setting 'monoclinic'
loop_
_space_group_symop_operation_xyz
x,y,z
-x,1/2+y,-z
-x,-y,-z
x,1/2-y,z
loop_
_atom_site_type_symbol
_atom_site_label
_atom_site_fract_x
_atom_site_fract_y
_atom_site_fract_z
Si Si1 0.326063 0.927605 0.527211
Si Si2 0.904957 0.569539 0.437301
Si Si3 0.523095 0.427155 0.628866
Si Si4 0.722607 0.923446 0.942849
Si Si5 0.704588 0.571385 0.141899
Si Si6 0.104672 0.570349 0.751842
Si Si7 0.038668 0.425026 0.090872
Si Si8 0.463415 0.572498 0.173622
O O1 0.303428 0.750000 0.539057
O O2 0.377565 0.965727 0.433309
O O3 0.212786 0.015807 0.531867
O O4 0.412849 0.981555 0.603371
O O5 0.910302 0.750000 0.441700
O O6 0.926891 0.513836 0.338896
O O7 0.000000 0.500000 0.500000
O O8 0.492759 0.250000 0.623907
O O9 0.562632 0.479087 0.727167
O O10 0.686034 0.750000 0.939088
O O11 0.832474 0.953300 0.891366
O O12 0.625872 0.016177 0.897250
O O13 0.743946 0.971912 0.044888
O O14 0.717361 0.750000 0.162225
O O15 0.774113 0.477550 0.215242
O O16 0.581400 0.512443 0.148338
O O17 0.098128 0.750000 0.736724
O O18 0.021446 0.510683 0.824521
O O19 0.010383 0.250000 0.079492
O O20 0.000000 0.500000 0.000000
O O21 0.462904 0.750000 0.166835
#
# Coordination Sequence:
#
# PCOD8074671 Si02
#       8
#     4   4   4   4   4   4   4   4
#     4  10  20  37  62  89 118 153 198 247 298 358
#     4  12  26  44  64  87 120 158 198 251 309 367
#     4   9  19  36  58  87 121 156 197 244 297 356
#     4  10  21  36  54  80 116 155 194 238 290 342
#     4  10  20  36  58  83 117 157 196 239 289 347
#     4  11  23  39  63  93 119 152 199 247 296 358
#     4  10  21  38  60  86 118 153 196 245 290 346
#     4  10  21  35  53  81 115 152 195 239 289 347
#
# _framework density 19.596087000000001
#
# number of rings (size 3 to 8) (size 9 to 14) (size 15 to 20)
#    0.000    1.750    1.250    3.000    0.000    5.000 
#    0.000    2.500    0.000    0.000    0.000    0.000 
#    0.000    0.000    0.000    0.000    0.000    0.000 
#
# Total GULP energy -396877.328839 kJ/mol
# GULP energy per Si atom -12402.416526 kJ/mol
# Density = 1.955149 g / cm^3
# Si number density = 19.596087 Si / 1000 Ang^3
#
#
#
# Elastic Constant Matrix: (Units=GPa)
#
#
# Indices 1 2 3 4 5 6 
#
# 1 116.7069 47.7651 65.0143 0.0000 -3.4256 0.0000
# 2 47.7651 72.5865 40.0268 0.0000 -1.2847 0.0000
# 3 65.0143 40.0268 114.1956 0.0000 -0.2134 0.0000
# 4 0.0000 0.0000 0.0000 31.4751 0.0000 6.8015
# 5 -3.4256 -1.2847 -0.2134 0.0000 31.9027 0.0000
# 6 0.0000 0.0000 0.0000 6.8015 0.0000 31.6209
#
#
#
# Elastic Compliance Matrix: (Units=1/GPa)
#
#
# Indices 1 2 3 4 5 6 
#
# 1 0.014536 -0.006174 -0.006109 0.000000 0.001271 0.000000
# 2 -0.006174 0.019713 -0.003395 0.000000 0.000108 0.000000
# 3 -0.006109 -0.003395 0.013424 0.000000 -0.000703 0.000000
# 4 0.000000 0.000000 0.000000 0.033320 0.000000 -0.007167
# 5 0.001271 0.000108 -0.000703 0.000000 0.031482 0.000000
# 6 0.000000 0.000000 0.000000 -0.007167 0.000000 0.033166
#
#
# Mechanical properties :
#
#
# Convention : Reuss Voigt Hill
#
# Bulk Modulus (GPa) = 61.28477 67.67791 64.48134
# Shear Modulus (GPa) = 27.40709 29.04525 28.22617
#
# Velocity S-wave (km/s) = 3.74384 3.85411 3.79938
# Velocity P-wave (km/s) = 7.07321 7.37678 7.22659
#
# Compressibility (1/GPa) = 0.01631727
#
# Stress axis : x y z
#
# Youngs Moduli (GPa) = 68.79519 50.72761 74.49598
#
# Poissons Ratio (x) = 0.31319 0.45511
# Poissons Ratio (y) = 0.42473 0.25288
# Poissons Ratio (z) = 0.42029 0.17220
#
# Static dielectric constant tensor:
#      x y z
#    x 3.893620 0.000000 -0.038810 
#    y 0.000000 3.510290 0.000000 
#    z -0.038810 0.000000 3.912090 
# 
# 
# High freq. dielectric constant tensor:
#      x y z
#    x 1.770400 0.000000 -0.009290 
#    y 0.000000 1.759290 0.000000 
#    z -0.009290 0.000000 1.772900 
# 
# From -- ./inp_files/49344.got.cif
#   From: 2010.06.25/outbox.cif.g09.slc.cpg/sg11_25_cif.got.tgz:49344.got - 2010.06.27 23:14:04.
