data_PCOD8074352
_publ_section_title
;
Structure prediction by ZEFSAII (Michael W. Deem and Ramdas Pophale) SiO2 
 PCOD8074352
Probable space group: P 21/M
;
_chemical_formula_sum "Si O2"
_cell_formula_units_Z 28
_cell_length_a 14.214445
_cell_length_b 14.372895
_cell_length_c 12.824329
_cell_angle_alpha 90.000000
_cell_angle_beta 33.554522
_cell_angle_gamma 90.000000
_cell_volume 1448.178334
_symmetry_space_group_name_H-M "P 21/M"
_symmetry_group_IT_number 11
_symmetry_cell_setting 'monoclinic'
loop_
_space_group_symop_operation_xyz
x,y,z
-x,1/2+y,-z
-x,-y,-z
x,1/2-y,z
loop_
_atom_site_type_symbol
_atom_site_label
_atom_site_fract_x
_atom_site_fract_y
_atom_site_fract_z
Si Si1 0.904449 0.857883 0.535559
Si Si2 0.219478 0.856765 0.863616
Si Si3 0.165557 0.644507 0.463253
Si Si4 0.270138 0.854927 0.586636
Si Si5 0.448436 0.462085 0.376479
Si Si6 0.597494 0.987710 0.805926
Si Si7 0.089190 0.141416 0.706121
O O1 0.870486 0.750000 0.585562
O O2 0.730062 0.909041 0.710915
O O3 0.975645 0.876703 0.352767
O O4 0.022165 0.898065 0.519944
O O5 0.257669 0.750000 0.860740
O O6 0.167407 0.864844 0.789977
O O7 0.394078 0.915395 0.710233
O O8 0.061812 0.895252 0.078243
O O9 0.197886 0.750000 0.400487
O O10 0.132406 0.632362 0.618715
O O11 0.335304 0.589186 0.283887
O O12 0.349786 0.750000 0.505462
O O13 0.422558 0.930884 0.437572
O O14 0.503652 0.454822 0.203670
O O15 0.266287 0.411536 0.565095
O O16 0.500000 0.000000 0.000000
O O17 0.124310 0.250000 0.693584
#
# Coordination Sequence:
#
# PCOD8074352 Si02
#       7
#     4   4   4   4   4   4   4
#     4   9  18  34  55  78 107 139 172 219 270 319
#     4  10  20  35  59  83 108 141 181 226 272 327
#     4   9  18  34  55  73 102 145 176 213 268 315
#     4   9  19  36  55  78 107 143 185 224 266 320
#     4  10  20  36  56  80 110 147 178 223 278 322
#     4  10  21  33  50  81 109 138 175 221 264 321
#     4   9  19  34  54  85 113 135 175 225 273 325
#
# _framework density 19.334636
#
# number of rings (size 3 to 8) (size 9 to 14) (size 15 to 20)
#    0.000    2.571    0.000    1.286    2.000    1.714 
#    0.000    0.000    3.143    0.857    0.000    0.000 
#    0.000    0.000    0.000    0.000    0.000    0.000 
#
# Total GULP energy -346879.158172 kJ/mol
# GULP energy per Si atom -12388.541363 kJ/mol
# Density = 1.929063 g / cm^3
# Si number density = 19.334636 Si / 1000 Ang^3
#
#
#
# Elastic Constant Matrix: (Units=GPa)
#
#
# Indices 1 2 3 4 5 6 
#
# 1 103.9760 33.8724 63.1662 0.0000 21.3480 0.0000
# 2 33.8724 62.7345 38.1274 0.0000 5.5085 0.0000
# 3 63.1662 38.1274 137.4239 0.0000 24.7304 0.0000
# 4 0.0000 0.0000 0.0000 21.9945 0.0000 1.6841
# 5 21.3480 5.5085 24.7304 0.0000 26.2147 0.0000
# 6 0.0000 0.0000 0.0000 1.6841 0.0000 23.6763
#
#
#
# Elastic Compliance Matrix: (Units=1/GPa)
#
#
# Indices 1 2 3 4 5 6 
#
# 1 0.015424 -0.005026 -0.004366 0.000000 -0.007385 0.000000
# 2 -0.005026 0.020842 -0.004120 0.000000 0.003600 0.000000
# 3 -0.004366 -0.004120 0.011600 0.000000 -0.006522 0.000000
# 4 0.000000 0.000000 0.000000 0.045715 0.000000 -0.003252
# 5 -0.007385 0.003600 -0.006522 0.000000 0.049557 0.000000
# 6 0.000000 0.000000 0.000000 -0.003252 0.000000 0.042468
#
#
# Mechanical properties :
#
#
# Convention : Reuss Voigt Hill
#
# Bulk Modulus (GPa) = 47.98037 63.82960 55.90498
# Shear Modulus (GPa) = 22.77109 25.64167 24.20638
#
# Velocity S-wave (km/s) = 3.43554 3.64566 3.54216
# Velocity P-wave (km/s) = 6.37235 7.12782 6.76065
#
# Compressibility (1/GPa) = 0.02084186
#
# Stress axis : x y z
#
# Youngs Moduli (GPa) = 64.83602 47.98064 86.20367
#
# Poissons Ratio (x) = 0.24114 0.37636
# Poissons Ratio (y) = 0.32585 0.35518
# Poissons Ratio (z) = 0.28307 0.19769
#
# Static dielectric constant tensor:
#      x y z
#    x 3.524860 0.000000 0.448770 
#    y 0.000000 3.757400 0.000000 
#    z 0.448770 0.000000 4.983710 
# 
# 
# High freq. dielectric constant tensor:
#      x y z
#    x 1.752630 0.000000 0.034180 
#    y 0.000000 1.768610 0.000000 
#    z 0.034180 0.000000 1.726700 
# 
# From -- ./inp_files/22101.got.cif
#   From: 2010.06.25/outbox.cif.g09.slc.cpg/sg11_12_cif.got.tgz:22101.got - 2010.06.27 23:14:04.
