data_PCOD8074425
_publ_section_title
;
Structure prediction by ZEFSAII (Michael W. Deem and Ramdas Pophale) SiO2 
 PCOD8074425
Probable space group: P 21/M
;
_chemical_formula_sum "Si O2"
_cell_formula_units_Z 32
_cell_length_a 14.248523
_cell_length_b 18.878747
_cell_length_c 11.710259
_cell_angle_alpha 90.000000
_cell_angle_beta 32.010725
_cell_angle_gamma 90.000000
_cell_volume 1669.741700
_symmetry_space_group_name_H-M "P 21/M"
_symmetry_group_IT_number 11
_symmetry_cell_setting 'monoclinic'
loop_
_space_group_symop_operation_xyz
x,y,z
-x,1/2+y,-z
-x,-y,-z
x,1/2-y,z
loop_
_atom_site_type_symbol
_atom_site_label
_atom_site_fract_x
_atom_site_fract_y
_atom_site_fract_z
Si Si1 0.346286 0.592268 0.103781
Si Si2 0.928661 0.064693 0.787646
Si Si3 0.271919 0.332171 0.818575
Si Si4 0.775317 0.329319 0.566182
Si Si5 0.861040 0.904376 0.824615
Si Si6 0.978926 0.082454 0.993971
Si Si7 0.329038 0.669740 0.575578
Si Si8 0.264610 0.058368 0.283285
O O1 0.223245 0.609779 0.121464
O O2 0.342040 0.655125 0.200669
O O3 0.264104 0.523808 0.251037
O O4 0.547716 0.580395 0.855223
O O5 0.113519 0.072114 0.531141
O O6 0.858611 0.984809 0.871417
O O7 0.954868 0.097265 0.885169
O O8 0.220102 0.250000 0.861373
O O9 0.476534 0.345162 0.574297
O O10 0.241263 0.355631 0.980383
O O11 0.154196 0.377073 0.853131
O O12 0.849754 0.250000 0.497606
O O13 0.656807 0.339493 0.575659
O O14 0.936852 0.382724 0.393970
O O15 0.768443 0.896110 0.797142
O O16 0.807925 0.112975 0.234553
O O17 0.000000 0.000000 0.000000
O O18 0.267449 0.750000 0.669338
#
# Coordination Sequence:
#
# PCOD8074425 Si02
#       8
#     4   4   4   4   4   4   4   4
#     4  10  20  36  58  87 115 153 186 230 296 351
#     4  11  21  38  57  84 122 152 193 237 291 353
#     4  11  23  41  64  89 118 157 202 252 306 355
#     4  11  19  34  61  88 119 152 189 244 298 350
#     4  11  18  37  60  91 118 148 189 242 303 354
#     4  12  24  40  60  89 122 161 203 251 298 350
#     4  10  23  41  62  87 119 159 204 254 306 354
#     4  10  20  35  61  85 117 149 187 236 289 356
#
# _framework density 19.164641
#
# number of rings (size 3 to 8) (size 9 to 14) (size 15 to 20)
#    0.000    1.250    5.000    2.250    0.000    1.500 
#    0.000    1.875    0.000    0.000    0.000    0.000 
#    0.000    0.000    0.000    0.000    0.000    0.000 
#
# Total GULP energy -396861.160872 kJ/mol
# GULP energy per Si atom -12401.911277 kJ/mol
# Density = 1.912102 g / cm^3
# Si number density = 19.164641 Si / 1000 Ang^3
#
#
#
# Elastic Constant Matrix: (Units=GPa)
#
#
# Indices 1 2 3 4 5 6 
#
# 1 145.2032 49.6008 66.5418 0.0000 3.7012 0.0000
# 2 49.6008 87.1658 39.9344 0.0000 -1.8810 0.0000
# 3 66.5418 39.9344 85.7226 0.0000 -11.3844 0.0000
# 4 0.0000 0.0000 0.0000 25.9650 0.0000 2.9194
# 5 3.7012 -1.8810 -11.3844 0.0000 30.9274 0.0000
# 6 0.0000 0.0000 0.0000 2.9194 0.0000 27.4767
#
#
#
# Elastic Compliance Matrix: (Units=1/GPa)
#
#
# Indices 1 2 3 4 5 6 
#
# 1 0.011920 -0.002998 -0.008485 0.000000 -0.004732 0.000000
# 2 -0.002998 0.015424 -0.004927 0.000000 -0.000517 0.000000
# 3 -0.008485 -0.004927 0.021703 0.000000 0.008705 0.000000
# 4 0.000000 0.000000 0.000000 0.038979 0.000000 -0.004142
# 5 -0.004732 -0.000517 0.008705 0.000000 0.036073 0.000000
# 6 0.000000 0.000000 0.000000 -0.004142 0.000000 0.036835
#
#
# Mechanical properties :
#
#
# Convention : Reuss Voigt Hill
#
# Bulk Modulus (GPa) = 61.62127 70.02727 65.82427
# Shear Modulus (GPa) = 25.10518 27.67477 26.38998
#
# Velocity S-wave (km/s) = 3.62328 3.80419 3.71484
# Velocity P-wave (km/s) = 7.05178 7.47763 7.26783
#
# Compressibility (1/GPa) = 0.01622816
#
# Stress axis : x y z
#
# Youngs Moduli (GPa) = 83.89448 64.83210 46.07657
#
# Poissons Ratio (x) = 0.19435 0.39094
# Poissons Ratio (y) = 0.25150 0.22703
# Poissons Ratio (z) = 0.71181 0.31944
#
# Static dielectric constant tensor:
#      x y z
#    x 3.712370 0.000000 -0.061670 
#    y 0.000000 3.460610 0.000000 
#    z -0.061670 0.000000 3.369570 
# 
# 
# High freq. dielectric constant tensor:
#      x y z
#    x 1.752520 0.000000 -0.012200 
#    y 0.000000 1.730080 0.000000 
#    z -0.012200 0.000000 1.741330 
# 
# From -- ./inp_files/39938.got.cif
#   From: 2010.06.25/outbox.cif.g09.slc.cpg/sg11_20_cif.got.tgz:39938.got - 2010.06.27 23:14:04.
