data_PCOD8074628
_publ_section_title
;
Structure prediction by ZEFSAII (Michael W. Deem and Ramdas Pophale) SiO2 
 PCOD8074628
Probable space group: P 21/M
;
_chemical_formula_sum "Si O2"
_cell_formula_units_Z 28
_cell_length_a 13.234677
_cell_length_b 8.612718
_cell_length_c 14.395747
_cell_angle_alpha 90.000000
_cell_angle_beta 57.387947
_cell_angle_gamma 90.000000
_cell_volume 1382.212160
_symmetry_space_group_name_H-M "P 21/M"
_symmetry_group_IT_number 11
_symmetry_cell_setting 'monoclinic'
loop_
_space_group_symop_operation_xyz
x,y,z
-x,1/2+y,-z
-x,-y,-z
x,1/2-y,z
loop_
_atom_site_type_symbol
_atom_site_label
_atom_site_fract_x
_atom_site_fract_y
_atom_site_fract_z
Si Si1 0.697052 0.433822 0.560220
Si Si2 0.216912 0.931836 0.677457
Si Si3 0.776223 0.431737 0.893266
Si Si4 0.423162 0.073415 0.690947
Si Si5 0.565323 0.928206 0.103457
Si Si6 0.695798 0.567240 0.753157
Si Si7 0.991175 0.565674 0.901751
O O1 0.704533 0.250000 0.574147
O O2 0.774621 0.490908 0.433333
O O3 0.559493 0.482687 0.609660
O O4 0.746867 0.521351 0.626514
O O5 0.201293 0.750000 0.682314
O O6 0.101460 0.004212 0.786237
O O7 0.338850 0.966922 0.671009
O O8 0.801807 0.250000 0.875687
O O9 0.789384 0.507119 0.784412
O O10 0.868185 0.513034 0.916811
O O11 0.642806 0.464103 0.997469
O O12 0.407625 0.250000 0.665420
O O13 0.384692 0.054708 0.817040
O O14 0.573446 0.750000 0.065995
O O15 0.428673 0.980971 0.166406
O O16 0.678436 0.750000 0.768927
O O17 0.995861 0.750000 0.904561
O O18 0.000000 0.500000 0.000000
#
# Coordination Sequence:
#
# PCOD8074628 Si02
#       7
#     4   4   4   4   4   4   4
#     4   9  19  37  56  81 115 150 186 232 283 333
#     4  10  21  36  57  81 111 149 191 235 282 333
#     4  12  24  39  59  83 112 151 192 235 284 337
#     4   9  18  31  53  83 116 148 181 224 280 337
#     4  10  20  36  57  85 119 153 187 231 282 337
#     4  11  22  37  58  86 116 148 186 232 281 339
#     4  11  24  42  61  85 114 149 191 237 283 334
#
# _framework density 20.257380999999999
#
# number of rings (size 3 to 8) (size 9 to 14) (size 15 to 20)
#    0.000    1.714    0.000    6.000    0.000    6.857 
#    0.000    0.714    0.000    0.000    0.000    0.000 
#    0.000    0.000    0.000    0.000    0.000    0.000 
#
# Total GULP energy -347279.036520 kJ/mol
# GULP energy per Si atom -12402.822733 kJ/mol
# Density = 2.021127 g / cm^3
# Si number density = 20.257381 Si / 1000 Ang^3
#
#
#
# Elastic Constant Matrix: (Units=GPa)
#
#
# Indices 1 2 3 4 5 6 
#
# 1 94.1078 25.8542 47.4938 0.0000 28.7487 0.0000
# 2 25.8542 66.1884 37.8116 0.0000 9.7772 0.0000
# 3 47.4938 37.8116 141.6867 0.0000 19.7640 0.0000
# 4 0.0000 0.0000 0.0000 28.8009 0.0000 6.1687
# 5 28.7487 9.7772 19.7640 0.0000 28.4072 0.0000
# 6 0.0000 0.0000 0.0000 6.1687 0.0000 32.5103
#
#
#
# Elastic Compliance Matrix: (Units=1/GPa)
#
#
# Indices 1 2 3 4 5 6 
#
# 1 0.017378 -0.002921 -0.003026 0.000000 -0.014476 0.000000
# 2 -0.002921 0.018572 -0.003874 0.000000 -0.000741 0.000000
# 3 -0.003026 -0.003874 0.009406 0.000000 -0.002148 0.000000
# 4 0.000000 0.000000 0.000000 0.036192 0.000000 -0.006867
# 5 -0.014476 -0.000741 -0.002148 0.000000 0.051602 0.000000
# 6 0.000000 0.000000 0.000000 -0.006867 0.000000 0.032063
#
#
# Mechanical properties :
#
#
# Convention : Reuss Voigt Hill
#
# Bulk Modulus (GPa) = 38.89010 58.25582 48.57296
# Shear Modulus (GPa) = 25.84973 30.66522 28.25748
#
# Velocity S-wave (km/s) = 3.57608 3.89495 3.73892
# Velocity P-wave (km/s) = 6.02418 7.00341 6.53217
#
# Compressibility (1/GPa) = 0.02571349
#
# Stress axis : x y z
#
# Youngs Moduli (GPa) = 57.54316 53.84523 106.31875
#
# Poissons Ratio (x) = 0.15728 0.32177
# Poissons Ratio (y) = 0.16808 0.41185
# Poissons Ratio (z) = 0.17415 0.20858
#
# Static dielectric constant tensor:
#      x y z
#    x 3.614020 0.000000 0.189210 
#    y 0.000000 3.646640 0.000000 
#    z 0.189210 0.000000 4.072700 
# 
# 
# High freq. dielectric constant tensor:
#      x y z
#    x 1.780680 0.000000 0.020150 
#    y 0.000000 1.788110 0.000000 
#    z 0.020150 0.000000 1.798030 
# 
# From -- ./inp_files/49118.got.cif
#   From: 2010.06.25/outbox.cif.g09.slc.cpg/sg11_25_cif.got.tgz:49118.got - 2010.06.27 23:14:04.
