data_PCOD8074998
_publ_section_title
;
Structure prediction by ZEFSAII (Michael W. Deem and Ramdas Pophale) SiO2 
 PCOD8074998
Probable space group: P 21/M
;
_chemical_formula_sum "Si O2"
_cell_formula_units_Z 32
_cell_length_a 26.081307
_cell_length_b 9.218621
_cell_length_c 20.805749
_cell_angle_alpha 90.000000
_cell_angle_beta 159.441375
_cell_angle_gamma 90.000000
_cell_volume 1756.671812
_symmetry_space_group_name_H-M "P 21/M"
_symmetry_group_IT_number 11
_symmetry_cell_setting 'monoclinic'
loop_
_space_group_symop_operation_xyz
x,y,z
-x,1/2+y,-z
-x,-y,-z
x,1/2-y,z
loop_
_atom_site_type_symbol
_atom_site_label
_atom_site_fract_x
_atom_site_fract_y
_atom_site_fract_z
Si Si1 0.139408 0.417893 0.687322
Si Si2 0.716087 0.578973 0.507535
Si Si3 0.348748 0.419365 0.819897
Si Si4 0.458239 0.420281 0.263467
Si Si5 0.857329 0.579551 0.537596
Si Si6 0.134410 0.085146 0.186675
Si Si7 0.446029 0.418623 0.499010
Si Si8 0.144878 0.082683 0.838719
O O1 0.101633 0.250000 0.638292
O O2 0.274476 0.456785 0.800422
O O3 0.176281 0.466664 0.802658
O O4 0.000000 0.500000 0.500000
O O5 0.680220 0.750000 0.470758
O O6 0.565669 0.489237 0.336172
O O7 0.789383 0.537033 0.526373
O O8 0.822834 0.531484 0.691349
O O9 0.378567 0.250000 0.845826
O O10 0.248659 0.477042 0.643602
O O11 0.500000 0.500000 0.000000
O O12 0.493492 0.250000 0.312176
O O13 0.476149 0.503945 0.350702
O O14 0.291943 0.447808 0.049515
O O15 0.880834 0.750000 0.558754
O O16 0.015009 0.507421 0.717818
O O17 0.083375 0.250000 0.130598
O O18 0.271676 0.065714 0.300343
O O19 0.000000 0.000000 0.000000
O O20 0.500000 0.500000 0.500000
O O21 0.491941 0.250000 0.550969
O O22 0.099005 0.250000 0.787828
#
# Coordination Sequence:
#
# PCOD8074998 Si02
#       8
#     4   4   4   4   4   4   4   4
#     4  10  20  37  57  79 109 143 182 230 280 332
#     4   9  20  38  56  78 110 144 182 227 273 322
#     4  10  22  37  55  81 110 141 182 230 279 335
#     4  10  21  37  57  83 112 146 187 226 272 331
#     4  10  21  38  57  80 109 143 186 232 275 330
#     4   9  19  35  55  80 109 141 178 221 266 319
#     4  10  21  38  59  85 116 148 184 229 274 323
#     4  10  22  37  55  81 112 145 183 229 279 331
#
# _framework density 18.216266000000001
#
# number of rings (size 3 to 8) (size 9 to 14) (size 15 to 20)
#    0.000    2.250    1.250    1.500    1.750    6.000 
#    0.000    2.500    0.000    0.000    0.000    0.000 
#    0.000    0.000    0.000    0.000    0.000    0.000 
#
# Total GULP energy -396838.216613 kJ/mol
# GULP energy per Si atom -12401.194269 kJ/mol
# Density = 1.817480 g / cm^3
# Si number density = 18.216266 Si / 1000 Ang^3
#
#
#
# Elastic Constant Matrix: (Units=GPa)
#
#
# Indices 1 2 3 4 5 6 
#
# 1 151.1748 61.9821 60.6103 0.0000 6.1968 0.0000
# 2 61.9821 78.1575 62.3601 0.0000 8.4179 0.0000
# 3 60.6103 62.3601 121.2442 0.0000 10.2524 0.0000
# 4 0.0000 0.0000 0.0000 37.8848 0.0000 4.9013
# 5 6.1968 8.4179 10.2524 0.0000 22.2340 0.0000
# 6 0.0000 0.0000 0.0000 4.9013 0.0000 31.0340
#
#
#
# Elastic Compliance Matrix: (Units=1/GPa)
#
#
# Indices 1 2 3 4 5 6 
#
# 1 0.009977 -0.006703 -0.001581 0.000000 0.000486 0.000000
# 2 -0.006703 0.026423 -0.009939 0.000000 -0.003553 0.000000
# 3 -0.001581 -0.009939 0.014354 0.000000 -0.002415 0.000000
# 4 0.000000 0.000000 0.000000 0.026946 0.000000 -0.004256
# 5 0.000486 -0.003553 -0.002415 0.000000 0.047299 0.000000
# 6 0.000000 0.000000 0.000000 -0.004256 0.000000 0.032895
#
#
# Mechanical properties :
#
#
# Convention : Reuss Voigt Hill
#
# Bulk Modulus (GPa) = 69.88930 80.05351 74.97140
# Shear Modulus (GPa) = 25.11152 29.27217 27.19184
#
# Velocity S-wave (km/s) = 3.71687 4.01300 3.86777
# Velocity P-wave (km/s) = 7.54121 8.09406 7.82252
#
# Compressibility (1/GPa) = 0.01430834
#
# Stress axis : x y z
#
# Youngs Moduli (GPa) = 100.22929 37.84525 69.66470
#
# Poissons Ratio (x) = 0.25368 0.11014
# Poissons Ratio (y) = 0.67185 0.69241
# Poissons Ratio (z) = 0.15847 0.37615
#
# Static dielectric constant tensor:
#      x y z
#    x 4.091850 0.000000 0.016670 
#    y 0.000000 3.398800 0.000000 
#    z 0.016670 0.000000 3.246740 
# 
# 
# High freq. dielectric constant tensor:
#      x y z
#    x 1.717360 0.000000 -0.001790 
#    y 0.000000 1.706200 0.000000 
#    z -0.001790 0.000000 1.707400 
# 
# From -- ./inp_files/67194.got.cif
#   From: 2010.06.25/outbox.cif.g09.slc.cpg/sg11_34_cif.got.tgz:67194.got - 2010.06.27 23:14:04.
