data_PCOD8074817
_publ_section_title
;
Structure prediction by ZEFSAII (Michael W. Deem and Ramdas Pophale) SiO2 
 PCOD8074817
Probable space group: P 21/M
;
_chemical_formula_sum "Si O2"
_cell_formula_units_Z 12
_cell_length_a 9.131583
_cell_length_b 8.941909
_cell_length_c 11.472524
_cell_angle_alpha 90.000000
_cell_angle_beta 139.333419
_cell_angle_gamma 90.000000
_cell_volume 610.455138
_symmetry_space_group_name_H-M "P 21/M"
_symmetry_group_IT_number 11
_symmetry_cell_setting 'monoclinic'
loop_
_space_group_symop_operation_xyz
x,y,z
-x,1/2+y,-z
-x,-y,-z
x,1/2-y,z
loop_
_atom_site_type_symbol
_atom_site_label
_atom_site_fract_x
_atom_site_fract_y
_atom_site_fract_z
Si Si1 0.802177 0.925417 0.451685
Si Si2 0.662122 0.924620 0.852390
Si Si3 0.063420 0.423333 0.208400
O O1 0.807741 0.750000 0.432774
O O2 0.828309 0.965593 0.603248
O O3 0.568192 0.989339 0.264293
O O4 0.000000 0.000000 0.500000
O O5 0.618581 0.750000 0.842429
O O6 0.753649 0.964298 0.779155
O O7 0.839970 0.978790 0.056245
O O8 0.994540 0.250000 0.158877
#
# Coordination Sequence:
#
# PCOD8074817 Si02
#       3
#     4   4   4
#     4  11  23  38  56  80 113 149 184 224 271 325
#     4  10  20  36  60  86 110 140 181 228 276 325
#     4   9  20  38  59  83 110 143 183 226 272 323
#
# _framework density 19.657463
#
# number of rings (size 3 to 8) (size 9 to 14) (size 15 to 20)
#    0.000    2.000    0.000    3.000    0.000    5.333 
#    0.000    0.000    0.000    0.000    0.000    0.000 
#    0.000    0.000    0.000    0.000    0.000    0.000 
#
# Total GULP energy -148873.383583 kJ/mol
# GULP energy per Si atom -12406.115299 kJ/mol
# Density = 1.961272 g / cm^3
# Si number density = 19.657463 Si / 1000 Ang^3
#
#
#
# Elastic Constant Matrix: (Units=GPa)
#
#
# Indices 1 2 3 4 5 6 
#
# 1 59.7116 35.7200 24.0571 0.0000 31.0259 0.0000
# 2 35.7200 91.5623 48.3392 0.0000 20.0078 0.0000
# 3 24.0571 48.3392 79.7816 0.0000 31.5976 0.0000
# 4 0.0000 0.0000 0.0000 36.9464 0.0000 5.9458
# 5 31.0259 20.0078 31.5976 0.0000 33.9299 0.0000
# 6 0.0000 0.0000 0.0000 5.9458 0.0000 34.0968
#
#
#
# Elastic Compliance Matrix: (Units=1/GPa)
#
#
# Indices 1 2 3 4 5 6 
#
# 1 0.041203 -0.013424 0.011876 0.000000 -0.040820 0.000000
# 2 -0.013424 0.020441 -0.013348 0.000000 0.012652 0.000000
# 3 0.011876 -0.013348 0.028874 0.000000 -0.029878 0.000000
# 4 0.000000 0.000000 0.000000 0.027848 0.000000 -0.004856
# 5 -0.040820 0.012652 -0.029878 0.000000 0.087163 0.000000
# 6 0.000000 0.000000 0.000000 -0.004856 0.000000 0.030175
#
#
# Mechanical properties :
#
#
# Convention : Reuss Voigt Hill
#
# Bulk Modulus (GPa) = 16.46742 49.69868 33.08305
# Shear Modulus (GPa) = 17.49873 29.19058 23.34466
#
# Velocity S-wave (km/s) = 2.98683 3.85770 3.44986
# Velocity P-wave (km/s) = 4.50447 6.72159 5.72145
#
# Compressibility (1/GPa) = 0.06072598
#
# Stress axis : x y z
#
# Youngs Moduli (GPa) = 24.27023 48.92226 34.63383
#
# Poissons Ratio (x) = 0.65673 -0.41132
# Poissons Ratio (y) = 0.32580 0.46229
# Poissons Ratio (z) = -0.28824 0.65300
#
# Static dielectric constant tensor:
#      x y z
#    x 3.762360 0.000000 -0.075850 
#    y 0.000000 3.617890 0.000000 
#    z -0.075850 0.000000 3.579700 
# 
# 
# High freq. dielectric constant tensor:
#      x y z
#    x 1.761460 0.000000 0.005830 
#    y 0.000000 1.774400 0.000000 
#    z 0.005830 0.000000 1.772900 
# 
# From -- ./inp_files/1194.got.cif
#   From: 2010.06.25/outbox.cif.g09.slc.cpg/sg11_1_cif.got.tgz:1194.got - 2010.06.27 23:14:04.
