data_PCOD8074020
_publ_section_title
;
Structure prediction by ZEFSAII (Michael W. Deem and Ramdas Pophale) SiO2 
 PCOD8074020
Probable space group: P 21/M
;
_chemical_formula_sum "Si O2"
_cell_formula_units_Z 32
_cell_length_a 14.536009
_cell_length_b 22.163663
_cell_length_c 13.979965
_cell_angle_alpha 90.000000
_cell_angle_beta 159.773622
_cell_angle_gamma 90.000000
_cell_volume 1557.148955
_symmetry_space_group_name_H-M "P 21/M"
_symmetry_group_IT_number 11
_symmetry_cell_setting 'monoclinic'
loop_
_space_group_symop_operation_xyz
x,y,z
-x,1/2+y,-z
-x,-y,-z
x,1/2-y,z
loop_
_atom_site_type_symbol
_atom_site_label
_atom_site_fract_x
_atom_site_fract_y
_atom_site_fract_z
Si Si1 0.165485 0.603145 0.533478
Si Si2 0.567776 0.818272 0.253410
Si Si3 0.082711 0.055594 0.146150
Si Si4 0.916537 0.318604 0.361657
Si Si5 0.685637 0.541025 0.978660
Si Si6 0.553398 0.071135 0.740905
Si Si7 0.306148 0.376676 0.192637
Si Si8 0.826823 0.181771 0.640976
O O1 0.114382 0.632512 0.585629
O O2 0.453976 0.573030 0.812367
O O3 0.150739 0.657392 0.444160
O O4 0.951016 0.551064 0.299857
O O5 0.591011 0.750000 0.316700
O O6 0.539196 0.863063 0.315013
O O7 0.824801 0.836748 0.444632
O O8 0.324694 0.824565 0.945298
O O9 0.309032 0.038834 0.445419
O O10 0.222070 0.106034 0.217069
O O11 0.815987 0.081195 0.933546
O O12 0.000000 0.000000 0.000000
O O13 0.937100 0.250000 0.422643
O O14 0.625197 0.470413 0.903114
O O15 0.727676 0.567261 0.912866
O O16 0.611107 0.355541 0.491706
O O17 0.113591 0.322900 0.970556
O O18 0.732395 0.250000 0.543234
#
# Coordination Sequence:
#
# PCOD8074020 Si02
#       8
#     4   4   4   4   4   4   4   4
#     4  10  20  35  58  90 121 155 201 240 291 350
#     4  10  23  43  64  87 119 159 205 255 302 348
#     4  12  24  39  65  90 114 150 211 246 290 362
#     4  10  20  39  65  88 117 160 211 251 286 352
#     4  10  21  35  56  87 125 154 188 244 300 358
#     4  12  24  41  64  90 119 159 202 250 309 358
#     4  10  21  36  55  84 116 151 197 244 287 344
#     4  10  20  35  55  81 123 159 186 232 301 363
#
# _framework density 20.550377000000001
#
# number of rings (size 3 to 8) (size 9 to 14) (size 15 to 20)
#    0.000    1.500    1.250    4.125    3.500    0.000 
#    0.000   11.250    0.000    0.000    0.000    0.000 
#    0.000    0.000    0.000    0.000    0.000    0.000 
#
# Total GULP energy -396897.712472 kJ/mol
# GULP energy per Si atom -12403.053515 kJ/mol
# Density = 2.050360 g / cm^3
# Si number density = 20.550377 Si / 1000 Ang^3
#
#
#
# Elastic Constant Matrix: (Units=GPa)
#
#
# Indices 1 2 3 4 5 6 
#
# 1 107.3017 45.4912 40.6560 0.0000 20.3537 0.0000
# 2 45.4912 80.3500 7.7714 0.0000 2.1801 0.0000
# 3 40.6560 7.7714 101.6237 0.0000 21.2883 0.0000
# 4 0.0000 0.0000 0.0000 21.0681 0.0000 3.0186
# 5 20.3537 2.1801 21.2883 0.0000 28.2030 0.0000
# 6 0.0000 0.0000 0.0000 3.0186 0.0000 23.2933
#
#
#
# Elastic Compliance Matrix: (Units=1/GPa)
#
#
# Indices 1 2 3 4 5 6 
#
# 1 0.015898 -0.008395 -0.004099 0.000000 -0.007730 0.000000
# 2 -0.008395 0.016973 0.001266 0.000000 0.003790 0.000000
# 3 -0.004099 0.001266 0.012809 0.000000 -0.006809 0.000000
# 4 0.000000 0.000000 0.000000 0.048363 0.000000 -0.006267
# 5 -0.007730 0.003790 -0.006809 0.000000 0.045883 0.000000
# 6 0.000000 0.000000 0.000000 -0.006267 0.000000 0.043743
#
#
# Mechanical properties :
#
#
# Convention : Reuss Voigt Hill
#
# Bulk Modulus (GPa) = 43.05475 53.01254 48.03364
# Shear Modulus (GPa) = 23.37924 27.53667 25.45796
#
# Velocity S-wave (km/s) = 3.37657 3.66452 3.52349
# Velocity P-wave (km/s) = 6.01648 6.61493 6.32279
#
# Compressibility (1/GPa) = 0.02322624
#
# Stress axis : x y z
#
# Youngs Moduli (GPa) = 62.90165 58.91737 78.06726
#
# Poissons Ratio (x) = 0.49459 0.31998
# Poissons Ratio (y) = 0.52803 -0.09887
# Poissons Ratio (z) = 0.25782 -0.07461
#
# Static dielectric constant tensor:
#      x y z
#    x 3.600700 0.000000 0.164350 
#    y 0.000000 3.601510 0.000000 
#    z 0.164350 0.000000 3.907010 
# 
# 
# High freq. dielectric constant tensor:
#      x y z
#    x 1.794500 0.000000 0.016990 
#    y 0.000000 1.792230 0.000000 
#    z 0.016990 0.000000 1.822370 
# 
# From -- ./inp_files/52710.got.cif
#   From: 2010.06.25/outbox.cif.g09.slc.cpg/sg11_27_cif.got.tgz:52710.got - 2010.06.27 23:14:04.
