data_PCOD8074154
_publ_section_title
;
Structure prediction by ZEFSAII (Michael W. Deem and Ramdas Pophale) SiO2 
 PCOD8074154
Probable space group: P 21/M
;
_chemical_formula_sum "Si O2"
_cell_formula_units_Z 28
_cell_length_a 12.026752
_cell_length_b 8.782024
_cell_length_c 15.183750
_cell_angle_alpha 90.000000
_cell_angle_beta 59.325916
_cell_angle_gamma 90.000000
_cell_volume 1379.311763
_symmetry_space_group_name_H-M "P 21/M"
_symmetry_group_IT_number 11
_symmetry_cell_setting 'monoclinic'
loop_
_space_group_symop_operation_xyz
x,y,z
-x,1/2+y,-z
-x,-y,-z
x,1/2-y,z
loop_
_atom_site_type_symbol
_atom_site_label
_atom_site_fract_x
_atom_site_fract_y
_atom_site_fract_z
Si Si1 0.603616 0.421241 0.518597
Si Si2 0.646805 0.928199 0.682122
Si Si3 0.222417 0.583762 0.709226
Si Si4 0.117453 0.428278 0.008758
Si Si5 0.972014 0.425583 0.786882
Si Si6 0.085241 0.929597 0.386805
Si Si7 0.638674 0.424601 0.174752
O O1 0.500000 0.500000 0.500000
O O2 0.561536 0.250000 0.565413
O O3 0.635643 0.531581 0.584942
O O4 0.733023 0.411287 0.409088
O O5 0.676422 0.750000 0.679453
O O6 0.510566 0.970933 0.785218
O O7 0.764855 0.022963 0.673755
O O8 0.160825 0.750000 0.757703
O O9 0.340990 0.552237 0.728193
O O10 0.117078 0.452142 0.763565
O O11 0.099101 0.250000 0.010084
O O12 0.259241 0.471105 0.916521
O O13 0.119728 0.481565 0.109758
O O14 0.000000 0.500000 0.000000
O O15 0.934321 0.250000 0.808799
O O16 0.964138 0.483823 0.689218
O O17 0.074434 0.750000 0.402236
O O18 0.000000 0.000000 0.500000
O O19 0.662121 0.250000 0.137563
#
# Coordination Sequence:
#
# PCOD8074154 Si02
#       7
#     4   4   4   4   4   4   4
#     4  11  21  34  54  84 122 161 203 251 308 374
#     4  11  23  41  63  89 125 167 209 259 319 375
#     4  10  20  35  56  85 122 161 201 249 307 368
#     4  12  24  39  63  94 127 164 208 258 315 376
#     4  11  24  41  63  91 123 162 209 259 312 370
#     4  11  25  45  68  95 127 167 215 263 311 372
#     4  10  21  39  60  88 126 162 201 252 311 370
#
# _framework density 20.299979
#
# number of rings (size 3 to 8) (size 9 to 14) (size 15 to 20)
#    0.000    1.143    2.857    3.857    0.000    6.857 
#    0.000    0.714    0.000    0.000    0.000    0.000 
#    0.000    0.000    0.000    0.000    0.000    0.000 
#
# Total GULP energy -347107.597377 kJ/mol
# GULP energy per Si atom -12396.699906 kJ/mol
# Density = 2.025378 g / cm^3
# Si number density = 20.299979 Si / 1000 Ang^3
#
#
#
# Elastic Constant Matrix: (Units=GPa)
#
#
# Indices 1 2 3 4 5 6 
#
# 1 99.4492 35.7928 39.8130 0.0000 -11.2098 0.0000
# 2 35.7928 86.4095 53.4082 0.0000 -0.1923 0.0000
# 3 39.8130 53.4082 119.7922 0.0000 -5.0073 0.0000
# 4 0.0000 0.0000 0.0000 34.9793 0.0000 -3.5467
# 5 -11.2098 -0.1923 -5.0073 0.0000 31.8310 0.0000
# 6 0.0000 0.0000 0.0000 -3.5467 0.0000 33.7666
#
#
#
# Elastic Compliance Matrix: (Units=1/GPa)
#
#
# Indices 1 2 3 4 5 6 
#
# 1 0.012860 -0.003841 -0.002389 0.000000 0.004130 0.000000
# 2 -0.003841 0.017156 -0.006467 0.000000 -0.002266 0.000000
# 3 -0.002389 -0.006467 0.012067 0.000000 0.001018 0.000000
# 4 0.000000 0.000000 0.000000 0.028896 0.000000 0.003035
# 5 0.004130 -0.002266 0.001018 0.000000 0.033017 0.000000
# 6 0.000000 0.000000 0.000000 0.003035 0.000000 0.029934
#
#
# Mechanical properties :
#
#
# Convention : Reuss Voigt Hill
#
# Bulk Modulus (GPa) = 59.91825 62.63100 61.27463
# Shear Modulus (GPa) = 30.32388 31.89117 31.10753
#
# Velocity S-wave (km/s) = 3.86915 3.96788 3.91882
# Velocity P-wave (km/s) = 7.03853 7.20498 7.12224
#
# Compressibility (1/GPa) = 0.01668941
#
# Stress axis : x y z
#
# Youngs Moduli (GPa) = 77.76260 58.28885 82.86734
#
# Poissons Ratio (x) = 0.22389 0.19795
# Poissons Ratio (y) = 0.29869 0.53590
# Poissons Ratio (z) = 0.18576 0.37695
#
# Static dielectric constant tensor:
#      x y z
#    x 3.282360 0.000000 -0.126880 
#    y 0.000000 3.717600 0.000000 
#    z -0.126880 0.000000 3.853230 
# 
# 
# High freq. dielectric constant tensor:
#      x y z
#    x 1.780310 0.000000 -0.008830 
#    y 0.000000 1.798600 0.000000 
#    z -0.008830 0.000000 1.796080 
# 
# From -- ./inp_files/49110.got.cif
#   From: 2010.06.25/outbox.cif.g09.slc.cpg/sg11_25_cif.got.tgz:49110.got - 2010.06.27 23:14:04.
