data_PCOD8074999
_publ_section_title
;
Structure prediction by ZEFSAII (Michael W. Deem and Ramdas Pophale) SiO2 
 PCOD8074999
Probable space group: P 21/M
;
_chemical_formula_sum "Si O2"
_cell_formula_units_Z 28
_cell_length_a 9.539733
_cell_length_b 9.591461
_cell_length_c 28.718097
_cell_angle_alpha 90.000000
_cell_angle_beta 145.865916
_cell_angle_gamma 90.000000
_cell_volume 1474.488143
_symmetry_space_group_name_H-M "P 21/M"
_symmetry_group_IT_number 11
_symmetry_cell_setting 'monoclinic'
loop_
_space_group_symop_operation_xyz
x,y,z
-x,1/2+y,-z
-x,-y,-z
x,1/2-y,z
loop_
_atom_site_type_symbol
_atom_site_label
_atom_site_fract_x
_atom_site_fract_y
_atom_site_fract_z
Si Si1 0.478794 0.912959 0.638083
Si Si2 0.201404 0.087856 0.633360
Si Si3 0.013615 0.591562 0.823368
Si Si4 0.545494 0.410669 0.813771
Si Si5 0.903670 0.912476 0.065490
Si Si6 0.637077 0.088147 0.498390
Si Si7 0.539492 0.408502 0.122419
O O1 0.424391 0.750000 0.630683
O O2 0.480365 0.949213 0.583944
O O3 0.743557 0.959432 0.732081
O O4 0.260275 0.998693 0.603504
O O5 0.214893 0.250000 0.623210
O O6 0.404769 0.047530 0.727978
O O7 0.929532 0.049340 0.578199
O O8 0.002120 0.750000 0.838692
O O9 0.117997 0.495023 0.892612
O O10 0.197286 0.579249 0.830507
O O11 0.498987 0.250000 0.813129
O O12 0.433907 0.500577 0.824424
O O13 0.836647 0.445171 0.888403
O O14 0.874592 0.750000 0.069601
O O15 0.683177 0.965354 0.971400
O O16 0.597899 0.250000 0.499596
O O17 0.500000 0.000000 0.500000
O O18 0.480382 0.250000 0.120685
#
# Coordination Sequence:
#
# PCOD8074999 Si02
#       7
#     4   4   4   4   4   4   4
#     4  10  21  38  59  84 113 147 187 229 274 329
#     4  10  21  39  60  84 114 147 187 231 273 327
#     4  10  21  36  55  82 113 145 186 232 277 330
#     4  10  21  36  55  81 112 146 187 232 276 328
#     4  10  20  37  57  80 110 146 189 233 278 330
#     4  10  23  40  60  88 119 147 181 227 276 330
#     4  10  22  36  54  81 113 148 187 232 280 330
#
# _framework density 18.989640000000001
#
# number of rings (size 3 to 8) (size 9 to 14) (size 15 to 20)
#    0.000    2.000    1.429    1.286    2.000    3.429 
#    0.000    0.000    0.000    0.000    0.000    0.000 
#    0.000    0.000    0.000    0.000    0.000    0.000 
#
# Total GULP energy -347341.466122 kJ/mol
# GULP energy per Si atom -12405.052362 kJ/mol
# Density = 1.894642 g / cm^3
# Si number density = 18.989640 Si / 1000 Ang^3
#
#
#
# Elastic Constant Matrix: (Units=GPa)
#
#
# Indices 1 2 3 4 5 6 
#
# 1 120.2722 63.9965 42.8700 0.0000 -6.4499 0.0000
# 2 63.9965 67.2556 34.7689 0.0000 -10.7899 0.0000
# 3 42.8700 34.7689 79.2981 0.0000 3.4620 0.0000
# 4 0.0000 0.0000 0.0000 21.3203 0.0000 -6.7254
# 5 -6.4499 -10.7899 3.4620 0.0000 29.8513 0.0000
# 6 0.0000 0.0000 0.0000 -6.7254 0.0000 40.8333
#
#
#
# Elastic Compliance Matrix: (Units=1/GPa)
#
#
# Indices 1 2 3 4 5 6 
#
# 1 0.017360 -0.015451 -0.002543 0.000000 -0.001539 0.000000
# 2 -0.015451 0.035069 -0.007469 0.000000 0.010204 0.000000
# 3 -0.002543 -0.007469 0.017491 0.000000 -0.005278 0.000000
# 4 0.000000 0.000000 0.000000 0.049474 0.000000 0.008149
# 5 -0.001539 0.010204 -0.005278 0.000000 0.037467 0.000000
# 6 0.000000 0.000000 0.000000 0.008149 0.000000 0.025832
#
#
# Mechanical properties :
#
#
# Convention : Reuss Voigt Hill
#
# Bulk Modulus (GPa) = 52.64889 61.12188 56.88539
# Shear Modulus (GPa) = 20.83780 26.74702 23.79241
#
# Velocity S-wave (km/s) = 3.31618 3.75708 3.54349
# Velocity P-wave (km/s) = 6.51521 7.14687 6.83834
#
# Compressibility (1/GPa) = 0.01899375
#
# Stress axis : x y z
#
# Youngs Moduli (GPa) = 57.60470 28.51560 57.17293
#
# Poissons Ratio (x) = 0.44058 0.14541
# Poissons Ratio (y) = 0.89002 0.42701
# Poissons Ratio (z) = 0.14651 0.21298
#
# Static dielectric constant tensor:
#      x y z
#    x 3.318260 0.000000 0.098330 
#    y 0.000000 3.366050 0.000000 
#    z 0.098330 0.000000 3.643010 
# 
# 
# High freq. dielectric constant tensor:
#      x y z
#    x 1.739060 0.000000 0.005430 
#    y 0.000000 1.731820 0.000000 
#    z 0.005430 0.000000 1.752140 
# 
# From -- ./inp_files/28257.got.cif
#   From: 2010.06.25/outbox.cif.g09.slc.cpg/sg11_15_cif.got.tgz:28257.got - 2010.06.27 23:14:04.
