data_PCOD8074959
_publ_section_title
;
Structure prediction by ZEFSAII (Michael W. Deem and Ramdas Pophale) SiO2 
 PCOD8074959
Probable space group: P 21/M
;
_chemical_formula_sum "Si O2"
_cell_formula_units_Z 32
_cell_length_a 12.478610
_cell_length_b 14.644291
_cell_length_c 18.512889
_cell_angle_alpha 90.000000
_cell_angle_beta 26.453768
_cell_angle_gamma 90.000000
_cell_volume 1507.067231
_symmetry_space_group_name_H-M "P 21/M"
_symmetry_group_IT_number 11
_symmetry_cell_setting 'monoclinic'
loop_
_space_group_symop_operation_xyz
x,y,z
-x,1/2+y,-z
-x,-y,-z
x,1/2-y,z
loop_
_atom_site_type_symbol
_atom_site_label
_atom_site_fract_x
_atom_site_fract_y
_atom_site_fract_z
Si Si1 0.663943 0.026238 0.238370
Si Si2 0.688397 0.529940 0.806802
Si Si3 0.138963 0.051289 0.016639
Si Si4 0.165830 0.551998 0.138061
Si Si5 0.483288 0.355035 0.594310
Si Si6 0.314644 0.354325 0.536584
Si Si7 0.578758 0.351247 0.786157
Si Si8 0.880297 0.148635 0.463381
O O1 0.424312 0.080581 0.407647
O O2 0.902000 0.083647 0.116983
O O3 0.689072 0.926576 0.261121
O O4 0.679774 0.011116 0.142566
O O5 0.772350 0.523295 0.839028
O O6 0.680067 0.428175 0.778582
O O7 0.900971 0.586229 0.641803
O O8 0.436292 0.586522 0.952346
O O9 0.046119 0.994191 0.141072
O O10 0.290284 0.138112 0.952952
O O11 0.971783 0.626730 0.281718
O O12 0.407194 0.250000 0.658177
O O13 0.466594 0.371951 0.518312
O O14 0.753272 0.374993 0.462575
O O15 0.340876 0.250000 0.495736
O O16 0.636636 0.250000 0.782432
O O17 0.678056 0.362730 0.645797
O O18 0.985370 0.250000 0.396208
#
# Coordination Sequence:
#
# PCOD8074959 Si02
#       8
#     4   4   4   4   4   4   4   4
#     4  11  21  38  64  93 128 162 211 251 309 383
#     4  10  22  39  63  88 120 165 215 258 313 367
#     4  10  22  37  62  94 122 165 201 259 319 364
#     4  10  22  41  61  86 123 161 210 254 313 369
#     4  10  20  36  63  96 124 161 206 253 311 371
#     4  11  24  40  62  92 128 170 208 253 311 378
#     4  10  21  39  62  92 125 160 210 263 315 370
#     4  10  20  36  62  93 123 160 208 260 311 371
#
# _framework density 21.233291999999999
#
# number of rings (size 3 to 8) (size 9 to 14) (size 15 to 20)
#    0.000    1.750    2.500    1.500    1.750    1.500 
#    0.000    7.500    0.000    0.000    0.000    0.000 
#    0.000    0.000    0.000    0.000    0.000    0.000 
#
# Total GULP energy -396497.205274 kJ/mol
# GULP energy per Si atom -12390.537665 kJ/mol
# Density = 2.118496 g / cm^3
# Si number density = 21.233292 Si / 1000 Ang^3
#
#
#
# Elastic Constant Matrix: (Units=GPa)
#
#
# Indices 1 2 3 4 5 6 
#
# 1 71.9855 24.8272 22.0751 0.0000 -5.1133 0.0000
# 2 24.8272 90.3975 46.4422 0.0000 -11.3567 0.0000
# 3 22.0751 46.4422 87.9230 0.0000 -16.9692 0.0000
# 4 0.0000 0.0000 0.0000 19.1513 0.0000 -7.1665
# 5 -5.1133 -11.3567 -16.9692 0.0000 36.1218 0.0000
# 6 0.0000 0.0000 0.0000 -7.1665 0.0000 25.0329
#
#
#
# Elastic Compliance Matrix: (Units=1/GPa)
#
#
# Indices 1 2 3 4 5 6 
#
# 1 0.015672 -0.003126 -0.002249 0.000000 0.000179 0.000000
# 2 -0.003126 0.015846 -0.007378 0.000000 0.001073 0.000000
# 3 -0.002249 -0.007378 0.016854 0.000000 0.005280 0.000000
# 4 0.000000 0.000000 0.000000 0.058481 0.000000 0.016742
# 5 0.000179 0.001073 0.005280 0.000000 0.030527 0.000000
# 6 0.000000 0.000000 0.000000 0.016742 0.000000 0.044740
#
#
# Mechanical properties :
#
#
# Convention : Reuss Voigt Hill
#
# Bulk Modulus (GPa) = 43.73267 48.55500 46.14383
# Shear Modulus (GPa) = 23.22873 26.52530 24.87702
#
# Velocity S-wave (km/s) = 3.31112 3.53828 3.42658
# Velocity P-wave (km/s) = 5.93793 6.29362 6.11836
#
# Compressibility (1/GPa) = 0.02286620
#
# Stress axis : x y z
#
# Youngs Moduli (GPa) = 63.80674 63.10611 59.33142
#
# Poissons Ratio (x) = 0.19730 0.13343
# Poissons Ratio (y) = 0.19949 0.43775
# Poissons Ratio (z) = 0.14349 0.46561
#
# Static dielectric constant tensor:
#      x y z
#    x 3.876440 0.000000 -0.029330 
#    y 0.000000 3.630830 0.000000 
#    z -0.029330 0.000000 3.836650 
# 
# 
# High freq. dielectric constant tensor:
#      x y z
#    x 1.836280 0.000000 -0.003230 
#    y 0.000000 1.805100 0.000000 
#    z -0.003230 0.000000 1.832550 
# 
# From -- ./inp_files/59469.got.cif
#   From: 2010.06.25/outbox.cif.g09.slc.cpg/sg11_30_cif.got.tgz:59469.got - 2010.06.27 23:14:04.
