data_PCOD8074723
_publ_section_title
;
Structure prediction by ZEFSAII (Michael W. Deem and Ramdas Pophale) SiO2 
 PCOD8074723
Probable space group: P 21/M
;
_chemical_formula_sum "Si O2"
_cell_formula_units_Z 24
_cell_length_a 24.561118
_cell_length_b 9.068317
_cell_length_c 12.100627
_cell_angle_alpha 90.000000
_cell_angle_beta 28.668394
_cell_angle_gamma 90.000000
_cell_volume 1292.969369
_symmetry_space_group_name_H-M "P 21/M"
_symmetry_group_IT_number 11
_symmetry_cell_setting 'monoclinic'
loop_
_space_group_symop_operation_xyz
x,y,z
-x,1/2+y,-z
-x,-y,-z
x,1/2-y,z
loop_
_atom_site_type_symbol
_atom_site_label
_atom_site_fract_x
_atom_site_fract_y
_atom_site_fract_z
Si Si1 0.996777 0.579327 0.842348
Si Si2 0.327779 0.076930 0.814436
Si Si3 0.820713 0.578389 0.343901
Si Si4 0.420225 0.923573 0.230520
Si Si5 0.472422 0.920935 0.384897
Si Si6 0.074051 0.076754 0.276571
O O1 0.032888 0.750000 0.788340
O O2 0.970426 0.532287 0.764755
O O3 0.100056 0.477860 0.697905
O O4 0.883909 0.549811 0.115353
O O5 0.326087 0.250000 0.797199
O O6 0.407634 0.030834 0.774945
O O7 0.370356 0.007355 0.624396
O O8 0.202218 0.018441 0.063449
O O9 0.793754 0.750000 0.410739
O O10 0.705457 0.487591 0.551009
O O11 0.414913 0.750000 0.216809
O O12 0.475633 0.959418 0.250367
O O13 0.500000 0.000000 0.000000
O O14 0.449177 0.750000 0.447158
O O15 0.067077 0.250000 0.307271
O O16 0.000000 0.000000 0.500000
#
# Coordination Sequence:
#
# PCOD8074723 Si02
#       6
#     4   4   4   4   4   4
#     4   9  19  36  56  80 109 140 178 224 272 321
#     4   9  18  35  57  79 105 137 174 217 263 311
#     4  10  20  36  59  82 104 137 181 226 273 321
#     4  11  23  37  53  78 113 147 180 219 265 319
#     4   9  19  35  56  81 106 135 174 218 262 311
#     4  10  21  35  52  77 110 145 178 215 262 315
#
# _framework density 18.561926
#
# number of rings (size 3 to 8) (size 9 to 14) (size 15 to 20)
#    0.000    2.333    0.000    2.000    0.000    6.000 
#    0.000    1.667    0.000    0.000    0.000    0.000 
#    0.000    0.000    0.000    0.000    0.000    0.000 
#
# Total GULP energy -297666.799509 kJ/mol
# GULP energy per Si atom -12402.783313 kJ/mol
# Density = 1.851968 g / cm^3
# Si number density = 18.561926 Si / 1000 Ang^3
#
#
#
# Elastic Constant Matrix: (Units=GPa)
#
#
# Indices 1 2 3 4 5 6 
#
# 1 135.6643 63.0095 90.8977 0.0000 10.3700 0.0000
# 2 63.0095 73.6464 63.7206 0.0000 3.1108 0.0000
# 3 90.8977 63.7206 116.5439 0.0000 16.1372 0.0000
# 4 0.0000 0.0000 0.0000 37.2707 0.0000 2.2493
# 5 10.3700 3.1108 16.1372 0.0000 20.3823 0.0000
# 6 0.0000 0.0000 0.0000 2.2493 0.0000 24.7431
#
#
#
# Elastic Compliance Matrix: (Units=1/GPa)
#
#
# Indices 1 2 3 4 5 6 
#
# 1 0.016611 -0.005661 -0.009895 0.000000 0.000246 0.000000
# 2 -0.005661 0.028950 -0.012579 0.000000 0.008421 0.000000
# 3 -0.009895 -0.012579 0.024947 0.000000 -0.012797 0.000000
# 4 0.000000 0.000000 0.000000 0.026979 0.000000 -0.002453
# 5 0.000246 0.008421 -0.012797 0.000000 0.057784 0.000000
# 6 0.000000 0.000000 0.000000 -0.002453 0.000000 0.040638
#
#
# Mechanical properties :
#
#
# Convention : Reuss Voigt Hill
#
# Bulk Modulus (GPa) = 70.23134 84.56779 77.39957
# Shear Modulus (GPa) = 19.46092 23.69435 21.57763
#
# Velocity S-wave (km/s) = 3.24146 3.57669 3.41320
# Velocity P-wave (km/s) = 7.20610 7.91933 7.57111
#
# Compressibility (1/GPa) = 0.01423866
#
# Stress axis : x y z
#
# Youngs Moduli (GPa) = 60.19968 34.54240 40.08464
#
# Poissons Ratio (x) = 0.19556 0.39662
# Poissons Ratio (y) = 0.34082 0.50422
# Poissons Ratio (z) = 0.59566 0.43450
#
# Static dielectric constant tensor:
#      x y z
#    x 3.560250 0.000000 -0.100260 
#    y 0.000000 3.396910 0.000000 
#    z -0.100260 0.000000 3.435630 
# 
# 
# High freq. dielectric constant tensor:
#      x y z
#    x 1.730620 0.000000 -0.005590 
#    y 0.000000 1.720310 0.000000 
#    z -0.005590 0.000000 1.719430 
# 
# From -- ./inp_files/33794.got.cif
#   From: 2010.06.25/outbox.cif.g09.slc.cpg/sg11_17_cif.got.tgz:33794.got - 2010.06.27 23:14:04.
