data_PCOD8074163
_publ_section_title
;
Structure prediction by ZEFSAII (Michael W. Deem and Ramdas Pophale) SiO2 
 PCOD8074163
Probable space group: P 21/M
;
_chemical_formula_sum "Si O2"
_cell_formula_units_Z 20
_cell_length_a 5.353701
_cell_length_b 9.499290
_cell_length_c 18.738485
_cell_angle_alpha 90.000000
_cell_angle_beta 67.538942
_cell_angle_gamma 90.000000
_cell_volume 880.678164
_symmetry_space_group_name_H-M "P 21/M"
_symmetry_group_IT_number 11
_symmetry_cell_setting 'monoclinic'
loop_
_space_group_symop_operation_xyz
x,y,z
-x,1/2+y,-z
-x,-y,-z
x,1/2-y,z
loop_
_atom_site_type_symbol
_atom_site_label
_atom_site_fract_x
_atom_site_fract_y
_atom_site_fract_z
Si Si1 0.607287 0.087176 0.422425
Si Si2 0.178281 0.594887 0.204142
Si Si3 0.335946 0.403429 0.948726
Si Si4 0.993555 0.909579 0.888389
Si Si5 0.236217 0.413671 0.328626
O O1 0.564979 0.250000 0.445038
O O2 0.428636 0.044588 0.373292
O O3 0.922248 0.051494 0.378024
O O4 0.500000 0.000000 0.500000
O O5 0.070093 0.750000 0.239502
O O6 0.366105 0.611722 0.114722
O O7 0.955852 0.492490 0.192307
O O8 0.321980 0.515057 0.254109
O O9 0.193068 0.250000 0.948381
O O10 0.198291 0.534141 0.924692
O O11 0.305574 0.423016 0.039212
O O12 0.063059 0.750000 0.860722
O O13 0.273447 0.250000 0.303811
#
# Coordination Sequence:
#
# PCOD8074163 Si02
#       5
#     4   4   4   4   4
#     4  10  22  42  68  95 127 160 202 250 300 369
#     4  11  23  37  56  83 119 157 202 259 310 368
#     4   9  20  37  55  80 113 153 205 258 310 366
#     4  10  20  35  57  81 111 155 203 256 315 372
#     4  10  23  41  62  94 129 165 205 250 306 369
#
# _framework density 22.709772000000001
#
# number of rings (size 3 to 8) (size 9 to 14) (size 15 to 20)
#    0.000    2.000    0.000    2.400    2.800    4.000 
#    0.000    0.000    0.000    0.000    0.000    0.000 
#    0.000    0.000    0.000    0.000    0.000    0.000 
#
# Total GULP energy -247768.269802 kJ/mol
# GULP energy per Si atom -12388.413490 kJ/mol
# Density = 2.265808 g / cm^3
# Si number density = 22.709772 Si / 1000 Ang^3
#
#
#
# Elastic Constant Matrix: (Units=GPa)
#
#
# Indices 1 2 3 4 5 6 
#
# 1 74.6843 14.4341 26.7227 0.0000 18.9754 0.0000
# 2 14.4341 147.8119 68.2310 0.0000 26.4983 0.0000
# 3 26.7227 68.2310 95.1968 0.0000 30.7583 0.0000
# 4 0.0000 0.0000 0.0000 40.5136 0.0000 7.0969
# 5 18.9754 26.4983 30.7583 0.0000 37.4585 0.0000
# 6 0.0000 0.0000 0.0000 7.0969 0.0000 19.0579
#
#
#
# Elastic Compliance Matrix: (Units=1/GPa)
#
#
# Indices 1 2 3 4 5 6 
#
# 1 0.015903 0.001035 -0.003221 0.000000 -0.006143 0.000000
# 2 0.001035 0.010252 -0.006977 0.000000 -0.002048 0.000000
# 3 -0.003221 -0.006977 0.019447 0.000000 -0.009401 0.000000
# 4 0.000000 0.000000 0.000000 0.026406 0.000000 -0.009833
# 5 -0.006143 -0.002048 -0.009401 0.000000 0.038976 0.000000
# 6 0.000000 0.000000 0.000000 -0.009833 0.000000 0.056133
#
#
# Mechanical properties :
#
#
# Convention : Reuss Voigt Hill
#
# Bulk Modulus (GPa) = 36.66201 59.60761 48.13481
# Shear Modulus (GPa) = 25.70228 33.29301 29.49764
#
# Velocity S-wave (km/s) = 3.36783 3.83302 3.60793
# Velocity P-wave (km/s) = 5.59480 6.77451 6.21272
#
# Compressibility (1/GPa) = 0.02727619
#
# Stress axis : x y z
#
# Youngs Moduli (GPa) = 62.88098 97.54227 51.42195
#
# Poissons Ratio (x) = -0.10099 0.16564
# Poissons Ratio (y) = -0.06510 0.35877
# Poissons Ratio (z) = 0.20256 0.68055
#
# Static dielectric constant tensor:
#      x y z
#    x 3.890120 0.000000 -0.052760 
#    y 0.000000 4.688150 0.000000 
#    z -0.052760 0.000000 4.035370 
# 
# 
# High freq. dielectric constant tensor:
#      x y z
#    x 1.877040 0.000000 0.005730 
#    y 0.000000 1.915860 0.000000 
#    z 0.005730 0.000000 1.890510 
# 
# From -- ./inp_files/8529.got.cif
#   From: 2010.06.25/outbox.cif.g09.slc.cpg/sg11_5_cif.got.tgz:8529.got - 2010.06.27 23:14:04.
