data_PCOD8074121
_publ_section_title
;
Structure prediction by ZEFSAII (Michael W. Deem and Ramdas Pophale) SiO2 
 PCOD8074121
Probable space group: P 21/M
;
_chemical_formula_sum "Si O2"
_cell_formula_units_Z 32
_cell_length_a 21.450852
_cell_length_b 8.806259
_cell_length_c 26.045264
_cell_angle_alpha 90.000000
_cell_angle_beta 19.131143
_cell_angle_gamma 90.000000
_cell_volume 1612.437605
_symmetry_space_group_name_H-M "P 21/M"
_symmetry_group_IT_number 11
_symmetry_cell_setting 'monoclinic'
loop_
_space_group_symop_operation_xyz
x,y,z
-x,1/2+y,-z
-x,-y,-z
x,1/2-y,z
loop_
_atom_site_type_symbol
_atom_site_label
_atom_site_fract_x
_atom_site_fract_y
_atom_site_fract_z
Si Si1 0.688276 0.569055 0.095387
Si Si2 0.726475 0.577078 0.727535
Si Si3 0.709887 0.582041 0.236843
Si Si4 0.049069 0.929296 0.651385
Si Si5 0.569861 0.570596 0.617365
Si Si6 0.981260 0.082156 0.092554
Si Si7 0.688744 0.426928 0.984340
Si Si8 0.020182 0.074623 0.566094
O O1 0.666260 0.750000 0.114193
O O2 0.526649 0.499154 0.257112
O O3 0.661327 0.506305 0.060007
O O4 0.899050 0.520775 0.951704
O O5 0.775276 0.750000 0.704537
O O6 0.815139 0.468406 0.701840
O O7 0.815345 0.539808 0.602893
O O8 0.501963 0.549167 0.900247
O O9 0.626775 0.750000 0.311085
O O10 0.541518 0.473738 0.347987
O O11 0.799512 0.522017 0.220683
O O12 0.875158 0.587631 0.066588
O O13 0.056368 0.750000 0.653167
O O14 0.218293 0.005009 0.552202
O O15 0.852202 0.992992 0.825402
O O16 0.069354 0.970929 0.576095
O O17 0.574939 0.750000 0.619153
O O18 0.901999 0.250000 0.165618
O O19 0.733535 0.250000 0.957790
O O20 0.015919 0.250000 0.586479
#
# Coordination Sequence:
#
# PCOD8074121 Si02
#       8
#     4   4   4   4   4   4   4   4
#     4  10  20  35  56  83 113 146 186 229 276 328
#     4   9  20  38  60  86 114 144 179 222 271 325
#     4   9  16  27  46  75 108 140 178 225 276 326
#     4  12  25  40  57  79 111 148 187 231 279 330
#     4  11  21  35  56  81 110 145 186 230 278 331
#     4   8  15  27  45  73 108 142 177 221 271 324
#     4  11  23  39  58  81 112 149 189 230 275 327
#     4  10  20  37  62  89 114 142 180 224 272 327
#
# _framework density 19.84573
#
# number of rings (size 3 to 8) (size 9 to 14) (size 15 to 20)
#    0.000    2.000    0.000    5.250    0.000    6.500 
#    0.000    0.000    0.000    0.750    0.000    0.000 
#    0.000    0.000    0.000    0.000    0.000    0.000 
#
# Total GULP energy -396839.710257 kJ/mol
# GULP energy per Si atom -12401.240946 kJ/mol
# Density = 1.980056 g / cm^3
# Si number density = 19.845730 Si / 1000 Ang^3
#
#
#
# Elastic Constant Matrix: (Units=GPa)
#
#
# Indices 1 2 3 4 5 6 
#
# 1 37.4159 27.9605 25.0703 0.0000 -23.3149 0.0000
# 2 27.9605 128.9133 46.2736 0.0000 -14.7444 0.0000
# 3 25.0703 46.2736 97.3745 0.0000 -21.2046 0.0000
# 4 0.0000 0.0000 0.0000 28.2268 0.0000 -7.7884
# 5 -23.3149 -14.7444 -21.2046 0.0000 22.5793 0.0000
# 6 0.0000 0.0000 0.0000 -7.7884 0.0000 34.4877
#
#
#
# Elastic Compliance Matrix: (Units=1/GPa)
#
#
# Indices 1 2 3 4 5 6 
#
# 1 0.083469 -0.009007 0.000349 0.000000 0.080635 0.000000
# 2 -0.009007 0.010432 -0.003998 0.000000 -0.006243 0.000000
# 3 0.000349 -0.003998 0.014569 0.000000 0.011432 0.000000
# 4 0.000000 0.000000 0.000000 0.037781 0.000000 0.008532
# 5 0.080635 -0.006243 0.011432 0.000000 0.134210 0.000000
# 6 0.000000 0.000000 0.000000 0.008532 0.000000 0.030923
#
#
# Mechanical properties :
#
#
# Convention : Reuss Voigt Hill
#
# Bulk Modulus (GPa) = 12.02513 51.36805 31.69659
# Shear Modulus (GPa) = 13.72067 28.01873 20.86970
#
# Velocity S-wave (km/s) = 2.63224 3.76150 3.24635
# Velocity P-wave (km/s) = 3.91289 6.69366 5.48251
#
# Compressibility (1/GPa) = 0.08315919
#
# Stress axis : x y z
#
# Youngs Moduli (GPa) = 11.98051 95.86199 68.63901
#
# Poissons Ratio (x) = 0.86340 -0.02398
# Poissons Ratio (y) = 0.10791 0.27440
# Poissons Ratio (z) = -0.00418 0.38323
#
# Static dielectric constant tensor:
#      x y z
#    x 3.632030 0.000000 -0.321430 
#    y 0.000000 3.764380 0.000000 
#    z -0.321430 0.000000 3.477160 
# 
# 
# High freq. dielectric constant tensor:
#      x y z
#    x 1.769160 0.000000 -0.028760 
#    y 0.000000 1.784800 0.000000 
#    z -0.028760 0.000000 1.755270 
# 
# From -- ./inp_files/71992.got.cif
#   From: 2010.06.25/outbox.cif.g09.slc.cpg/sg11_36_cif.got.tgz:71992.got - 2010.06.27 23:14:04.
