data_PCOD8074691
_publ_section_title
;
Structure prediction by ZEFSAII (Michael W. Deem and Ramdas Pophale) SiO2 
 PCOD8074691
Probable space group: P 21/M
;
_chemical_formula_sum "Si O2"
_cell_formula_units_Z 32
_cell_length_a 19.293319
_cell_length_b 14.394503
_cell_length_c 6.744973
_cell_angle_alpha 90.000000
_cell_angle_beta 66.328655
_cell_angle_gamma 90.000000
_cell_volume 1715.594273
_symmetry_space_group_name_H-M "P 21/M"
_symmetry_group_IT_number 11
_symmetry_cell_setting 'monoclinic'
loop_
_space_group_symop_operation_xyz
x,y,z
-x,1/2+y,-z
-x,-y,-z
x,1/2-y,z
loop_
_atom_site_type_symbol
_atom_site_label
_atom_site_fract_x
_atom_site_fract_y
_atom_site_fract_z
Si Si1 0.417392 0.997346 0.002560
Si Si2 0.666997 0.992751 0.502821
Si Si3 0.095984 0.644049 0.095480
Si Si4 0.578089 0.643060 0.336306
Si Si5 0.592514 0.143004 0.329907
Si Si6 0.946391 0.072025 0.454078
Si Si7 0.957494 0.854843 0.996794
Si Si8 0.160207 0.000347 0.756178
O O1 0.354040 0.994971 0.243900
O O2 0.403038 0.089141 0.887688
O O3 0.500000 0.000000 0.000000
O O4 0.408537 0.903555 0.885110
O O5 0.649979 0.088209 0.406022
O O6 0.755165 0.969433 0.388561
O O7 0.621511 0.905196 0.467816
O O8 0.110463 0.750000 0.019240
O O9 0.097252 0.632425 0.330243
O O10 0.014510 0.609560 0.103823
O O11 0.160930 0.585089 0.910998
O O12 0.604012 0.750000 0.287272
O O13 0.489355 0.634954 0.477300
O O14 0.618362 0.250000 0.279312
O O15 0.881483 0.023311 0.400442
O O16 0.000000 0.000000 0.500000
O O17 0.999218 0.138506 0.262020
O O18 0.932217 0.750000 0.064163
O O19 0.881852 0.915144 0.085798
#
# Coordination Sequence:
#
# PCOD8074691 Si02
#       8
#     4   4   4   4   4   4   4   4
#     4  11  19  37  61  89 115 151 195 242 288 345
#     4  11  23  39  57  83 123 154 192 244 299 346
#     4  10  20  37  61  84 112 148 193 239 280 338
#     4  10  21  38  62  86 112 151 197 241 289 347
#     4  10  21  38  61  87 113 150 196 241 290 348
#     4  11  18  36  62  86 110 148 197 236 283 339
#     4  10  20  36  58  85 111 148 195 234 279 342
#     4  11  23  37  57  83 118 157 186 237 298 347
#
# _framework density 18.652428
#
# number of rings (size 3 to 8) (size 9 to 14) (size 15 to 20)
#    0.000    1.500    5.000    1.875    0.000    5.000 
#    0.000    0.000    0.000    0.000    0.000    0.000 
#    0.000    0.000    0.000    0.000    0.000    0.000 
#
# Total GULP energy -396899.871652 kJ/mol
# GULP energy per Si atom -12403.120989 kJ/mol
# Density = 1.860997 g / cm^3
# Si number density = 18.652428 Si / 1000 Ang^3
#
#
#
# Elastic Constant Matrix: (Units=GPa)
#
#
# Indices 1 2 3 4 5 6 
#
# 1 59.6155 19.2065 23.2987 0.0000 -5.7060 0.0000
# 2 19.2065 107.0858 30.3198 0.0000 6.6407 0.0000
# 3 23.2987 30.3198 114.5541 0.0000 10.6277 0.0000
# 4 0.0000 0.0000 0.0000 21.1117 0.0000 5.7152
# 5 -5.7060 6.6407 10.6277 0.0000 28.4967 0.0000
# 6 0.0000 0.0000 0.0000 5.7152 0.0000 10.1623
#
#
#
# Elastic Compliance Matrix: (Units=1/GPa)
#
#
# Indices 1 2 3 4 5 6 
#
# 1 0.019763 -0.002835 -0.003830 0.000000 0.006046 0.000000
# 2 -0.002835 0.010556 -0.002006 0.000000 -0.002280 0.000000
# 3 -0.003830 -0.002006 0.010428 0.000000 -0.004189 0.000000
# 4 0.000000 0.000000 0.000000 0.055874 0.000000 -0.031423
# 5 0.006046 -0.002280 -0.004189 0.000000 0.038396 0.000000
# 6 0.000000 0.000000 0.000000 -0.031423 0.000000 0.116075
#
#
# Mechanical properties :
#
#
# Convention : Reuss Voigt Hill
#
# Bulk Modulus (GPa) = 42.72584 47.43393 45.07988
# Shear Modulus (GPa) = 18.10051 25.84949 21.97500
#
# Velocity S-wave (km/s) = 3.11852 3.72674 3.43611
# Velocity P-wave (km/s) = 5.99357 6.63353 6.32166
#
# Compressibility (1/GPa) = 0.02340504
#
# Stress axis : x y z
#
# Youngs Moduli (GPa) = 50.59925 94.73203 95.89593
#
# Poissons Ratio (x) = 0.26858 0.36729
# Poissons Ratio (y) = 0.14346 0.19235
# Poissons Ratio (z) = 0.19380 0.19002
#
# Static dielectric constant tensor:
#      x y z
#    x 3.216270 0.000000 0.165670 
#    y 0.000000 3.462560 0.000000 
#    z 0.165670 0.000000 3.681970 
# 
# 
# High freq. dielectric constant tensor:
#      x y z
#    x 1.703430 0.000000 0.008330 
#    y 0.000000 1.728590 0.000000 
#    z 0.008330 0.000000 1.732710 
# 
# From -- ./inp_files/9021.got.cif
#   From: 2010.06.25/outbox.cif.g09.slc.cpg/sg11_5_cif.got.tgz:9021.got - 2010.06.27 23:14:04.
