data_PCOD8074684
_publ_section_title
;
Structure prediction by ZEFSAII (Michael W. Deem and Ramdas Pophale) SiO2 
 PCOD8074684
Probable space group: P 21/M
;
_chemical_formula_sum "Si O2"
_cell_formula_units_Z 32
_cell_length_a 14.907633
_cell_length_b 13.958470
_cell_length_c 8.757204
_cell_angle_alpha 90.000000
_cell_angle_beta 115.243952
_cell_angle_gamma 90.000000
_cell_volume 1648.240680
_symmetry_space_group_name_H-M "P 21/M"
_symmetry_group_IT_number 11
_symmetry_cell_setting 'monoclinic'
loop_
_space_group_symop_operation_xyz
x,y,z
-x,1/2+y,-z
-x,-y,-z
x,1/2-y,z
loop_
_atom_site_type_symbol
_atom_site_label
_atom_site_fract_x
_atom_site_fract_y
_atom_site_fract_z
Si Si1 0.225147 0.640276 0.299267
Si Si2 0.747526 0.497791 0.110320
Si Si3 0.754349 0.638390 0.374364
Si Si4 0.076559 0.940508 0.958791
Si Si5 0.968960 0.639085 0.601191
Si Si6 0.607514 0.024812 0.733874
Si Si7 0.419102 0.363579 0.516208
Si Si8 0.162977 0.637063 0.588455
O O1 0.258976 0.750000 0.328990
O O2 0.319573 0.576953 0.330187
O O3 0.187498 0.604814 0.435956
O O4 0.138125 0.629641 0.112755
O O5 0.723963 0.592170 0.191025
O O6 0.846674 0.508955 0.078013
O O7 0.760454 0.408715 0.235405
O O8 0.652123 0.480693 0.935392
O O9 0.759756 0.750000 0.345819
O O10 0.861108 0.590877 0.497465
O O11 0.679173 0.616671 0.456736
O O12 0.010286 0.876175 0.800212
O O13 0.000000 0.000000 0.000000
O O14 0.950373 0.750000 0.562613
O O15 0.050108 0.601159 0.538003
O O16 0.508959 0.088885 0.675621
O O17 0.588383 0.917937 0.652690
O O18 0.435752 0.250000 0.500247
O O19 0.171155 0.750000 0.619730
#
# Coordination Sequence:
#
# PCOD8074684 Si02
#       8
#     4   4   4   4   4   4   4   4
#     4  10  20  36  58  84 116 152 194 241 284 336
#     4  10  22  36  56  82 115 147 184 236 279 339
#     4  10  22  38  57  80 112 154 193 230 279 338
#     4  10  22  32  51  82 113 151 194 236 284 334
#     4   9  19  35  52  74 110 152 190 229 276 330
#     4  10  22  39  62  89 113 146 186 236 293 341
#     4  10  22  41  63  85 112 146 188 236 287 344
#     4   9  19  34  55  83 113 149 191 231 277 333
#
# _framework density 19.414641
#
# number of rings (size 3 to 8) (size 9 to 14) (size 15 to 20)
#    0.000    2.250    0.000    1.500    7.000    5.500 
#    0.000    0.625    0.000    3.000    0.000    0.000 
#    0.000    0.000    0.000    0.000    0.000    0.000 
#
# Total GULP energy -396775.114838 kJ/mol
# GULP energy per Si atom -12399.222339 kJ/mol
# Density = 1.937045 g / cm^3
# Si number density = 19.414641 Si / 1000 Ang^3
#
#
#
# Elastic Constant Matrix: (Units=GPa)
#
#
# Indices 1 2 3 4 5 6 
#
# 1 85.0192 44.3190 54.8359 0.0000 6.7412 0.0000
# 2 44.3190 77.7560 36.4838 0.0000 2.5368 0.0000
# 3 54.8359 36.4838 131.9360 0.0000 6.5669 0.0000
# 4 0.0000 0.0000 0.0000 28.4358 0.0000 -3.2821
# 5 6.7412 2.5368 6.5669 0.0000 33.7904 0.0000
# 6 0.0000 0.0000 0.0000 -3.2821 0.0000 28.9311
#
#
#
# Elastic Compliance Matrix: (Units=1/GPa)
#
#
# Indices 1 2 3 4 5 6 
#
# 1 0.020302 -0.008723 -0.005914 0.000000 -0.002246 0.000000
# 2 -0.008723 0.018530 -0.001531 0.000000 0.000647 0.000000
# 3 -0.005914 -0.001531 0.010498 0.000000 -0.000745 0.000000
# 4 0.000000 0.000000 0.000000 0.035634 0.000000 0.004043
# 5 -0.002246 0.000647 -0.000745 0.000000 0.030139 0.000000
# 6 0.000000 0.000000 0.000000 0.004043 0.000000 0.035024
#
#
# Mechanical properties :
#
#
# Convention : Reuss Voigt Hill
#
# Bulk Modulus (GPa) = 58.84499 62.88761 60.86630
# Shear Modulus (GPa) = 26.57799 28.83628 27.70713
#
# Velocity S-wave (km/s) = 3.70397 3.85812 3.78183
# Velocity P-wave (km/s) = 6.97624 7.23249 7.10552
#
# Compressibility (1/GPa) = 0.01699380
#
# Stress axis : x y z
#
# Youngs Moduli (GPa) = 49.25655 53.96675 95.25868
#
# Poissons Ratio (x) = 0.47078 0.56335
# Poissons Ratio (y) = 0.42969 0.14580
# Poissons Ratio (z) = 0.29130 0.08260
#
# Static dielectric constant tensor:
#      x y z
#    x 3.693430 0.000000 0.064880 
#    y 0.000000 3.575160 0.000000 
#    z 0.064880 0.000000 3.824000 
# 
# 
# High freq. dielectric constant tensor:
#      x y z
#    x 1.758770 0.000000 -0.000040 
#    y 0.000000 1.757260 0.000000 
#    z -0.000040 0.000000 1.755640 
# 
# From -- ./inp_files/22244.got.cif
#   From: 2010.06.25/outbox.cif.g09.slc.cpg/sg11_12_cif.got.tgz:22244.got - 2010.06.27 23:14:04.
