data_PCOD8074292
_publ_section_title
;
Structure prediction by ZEFSAII (Michael W. Deem and Ramdas Pophale) SiO2 
 PCOD8074292
Probable space group: P 21/M
;
_chemical_formula_sum "Si O2"
_cell_formula_units_Z 32
_cell_length_a 21.515535
_cell_length_b 8.697209
_cell_length_c 27.876181
_cell_angle_alpha 90.000000
_cell_angle_beta 18.994082
_cell_angle_gamma 90.000000
_cell_volume 1697.762558
_symmetry_space_group_name_H-M "P 21/M"
_symmetry_group_IT_number 11
_symmetry_cell_setting 'monoclinic'
loop_
_space_group_symop_operation_xyz
x,y,z
-x,1/2+y,-z
-x,-y,-z
x,1/2-y,z
loop_
_atom_site_type_symbol
_atom_site_label
_atom_site_fract_x
_atom_site_fract_y
_atom_site_fract_z
Si Si1 0.977382 0.428845 0.568374
Si Si2 0.774876 0.433121 0.371397
Si Si3 0.920617 0.067515 0.163286
Si Si4 0.637125 0.932262 0.294254
Si Si5 0.709143 0.566889 0.841830
Si Si6 0.976816 0.070650 0.315783
Si Si7 0.302657 0.927660 0.853096
Si Si8 0.283779 0.076273 0.421192
O O1 0.928029 0.250000 0.600194
O O2 0.804341 0.509548 0.723072
O O3 0.000000 0.500000 0.500000
O O4 0.179406 0.458945 0.447235
O O5 0.772851 0.250000 0.374242
O O6 0.826970 0.494940 0.280835
O O7 0.565316 0.494974 0.538399
O O8 0.932907 0.495607 0.294524
O O9 0.924074 0.250000 0.159324
O O10 0.804684 0.005001 0.203064
O O11 0.134151 0.003978 0.006069
O O12 0.651127 0.750000 0.287325
O O13 0.667024 0.983937 0.218391
O O14 0.701341 0.750000 0.846598
O O15 0.834625 0.502835 0.795562
O O16 0.500000 0.500000 0.000000
O O17 0.006093 0.250000 0.290427
O O18 0.790834 0.038101 0.483573
O O19 0.257348 0.750000 0.875226
O O20 0.489858 0.946934 0.749807
O O21 0.236449 0.250000 0.472447
#
# Coordination Sequence:
#
# PCOD8074292 Si02
#       8
#     4   4   4   4   4   4   4   4
#     4  10  20  37  59  85 116 149 188 231 281 334
#     4   9  19  36  58  82 109 139 181 228 272 323
#     4  11  23  38  54  79 114 147 179 225 278 327
#     4  11  21  37  61  83 105 140 184 229 276 329
#     4  10  20  35  58  85 117 151 188 231 277 331
#     4   9  17  34  59  83 108 142 186 228 267 322
#     4  11  22  38  57  81 111 144 184 226 273 328
#     4   9  19  35  57  82 111 143 182 230 273 321
#
# _framework density 18.848337000000001
#
# number of rings (size 3 to 8) (size 9 to 14) (size 15 to 20)
#    0.000    2.000    1.250    2.625    0.000    1.500 
#    2.250    3.125    0.000    0.000    0.000    0.000 
#    0.000    0.000    0.000    0.000    0.000    0.000 
#
# Total GULP energy -396770.899891 kJ/mol
# GULP energy per Si atom -12399.090622 kJ/mol
# Density = 1.880544 g / cm^3
# Si number density = 18.848337 Si / 1000 Ang^3
#
#
#
# Elastic Constant Matrix: (Units=GPa)
#
#
# Indices 1 2 3 4 5 6 
#
# 1 100.0257 29.2178 47.1253 0.0000 -3.7416 0.0000
# 2 29.2178 67.3590 32.0298 0.0000 0.2527 0.0000
# 3 47.1253 32.0298 127.4649 0.0000 -8.2244 0.0000
# 4 0.0000 0.0000 0.0000 29.1927 0.0000 -0.7736
# 5 -3.7416 0.2527 -8.2244 0.0000 32.0189 0.0000
# 6 0.0000 0.0000 0.0000 -0.7736 0.0000 20.1928
#
#
#
# Elastic Compliance Matrix: (Units=1/GPa)
#
#
# Indices 1 2 3 4 5 6 
#
# 1 0.012911 -0.003805 -0.003781 0.000000 0.000568 0.000000
# 2 -0.003805 0.018030 -0.003215 0.000000 -0.001413 0.000000
# 3 -0.003781 -0.003215 0.010193 0.000000 0.002202 0.000000
# 4 0.000000 0.000000 0.000000 0.034290 0.000000 0.001314
# 5 0.000568 -0.001413 0.002202 0.000000 0.031875 0.000000
# 6 0.000000 0.000000 0.000000 0.001314 0.000000 0.049573
#
#
# Mechanical properties :
#
#
# Convention : Reuss Voigt Hill
#
# Bulk Modulus (GPa) = 51.19478 56.84393 54.01935
# Shear Modulus (GPa) = 27.02925 28.71265 27.87095
#
# Velocity S-wave (km/s) = 3.79098 3.90725 3.84955
# Velocity P-wave (km/s) = 6.81046 7.11193 6.96283
#
# Compressibility (1/GPa) = 0.01953324
#
# Stress axis : x y z
#
# Youngs Moduli (GPa) = 77.45162 55.46206 98.10576
#
# Poissons Ratio (x) = 0.21102 0.37091
# Poissons Ratio (y) = 0.29469 0.31543
# Poissons Ratio (z) = 0.29283 0.17832
#
# Static dielectric constant tensor:
#      x y z
#    x 3.724320 0.000000 -0.152250 
#    y 0.000000 3.446780 0.000000 
#    z -0.152250 0.000000 3.517000 
# 
# 
# High freq. dielectric constant tensor:
#      x y z
#    x 1.739300 0.000000 -0.011850 
#    y 0.000000 1.728350 0.000000 
#    z -0.011850 0.000000 1.728940 
# 
# From -- ./inp_files/67254.got.cif
#   From: 2010.06.25/outbox.cif.g09.slc.cpg/sg11_34_cif.got.tgz:67254.got - 2010.06.27 23:14:04.
