data_PCOD8074855
_publ_section_title
;
Structure prediction by ZEFSAII (Michael W. Deem and Ramdas Pophale) SiO2 
 PCOD8074855
Probable space group: P 21/M
;
_chemical_formula_sum "Si O2"
_cell_formula_units_Z 32
_cell_length_a 12.334346
_cell_length_b 8.800065
_cell_length_c 28.212180
_cell_angle_alpha 90.000000
_cell_angle_beta 32.143666
_cell_angle_gamma 90.000000
_cell_volume 1629.244364
_symmetry_space_group_name_H-M "P 21/M"
_symmetry_group_IT_number 11
_symmetry_cell_setting 'monoclinic'
loop_
_space_group_symop_operation_xyz
x,y,z
-x,1/2+y,-z
-x,-y,-z
x,1/2-y,z
loop_
_atom_site_type_symbol
_atom_site_label
_atom_site_fract_x
_atom_site_fract_y
_atom_site_fract_z
Si Si1 0.276254 0.571200 0.629837
Si Si2 0.862882 0.571398 0.091641
Si Si3 0.596173 0.426748 0.761438
Si Si4 0.130617 0.430159 0.170403
Si Si5 0.015879 0.571904 0.442589
Si Si6 0.302781 0.927774 0.511219
Si Si7 0.540249 0.929197 0.877615
Si Si8 0.862188 0.929940 0.938896
O O1 0.312763 0.750000 0.622844
O O2 0.467013 0.483879 0.581643
O O3 0.238511 0.531412 0.588701
O O4 0.081476 0.508712 0.730306
O O5 0.897306 0.750000 0.077782
O O6 0.626720 0.527453 0.174637
O O7 0.933280 0.503173 0.115830
O O8 0.000000 0.500000 0.000000
O O9 0.606729 0.250000 0.771424
O O10 0.761049 0.468060 0.660476
O O11 0.647664 0.526826 0.788586
O O12 0.126110 0.250000 0.174076
O O13 0.317748 0.490102 0.132522
O O14 0.162704 0.490367 0.105392
O O15 0.983876 0.750000 0.459478
O O16 0.000000 0.500000 0.500000
O O17 0.844010 0.510446 0.471093
O O18 0.290595 0.750000 0.505548
O O19 0.503655 0.750000 0.893891
O O20 0.326745 0.016074 0.959496
O O21 0.879417 0.750000 0.934938
#
# Coordination Sequence:
#
# PCOD8074855 Si02
#       8
#     4   4   4   4   4   4   4   4
#     4   9  18  36  60  85 115 153 196 242 290 348
#     4  11  22  39  61  85 114 149 193 244 293 345
#     4  10  23  41  62  87 117 151 192 243 297 347
#     4   9  20  36  55  83 117 153 194 240 288 343
#     4  11  24  42  62  87 120 157 195 243 298 354
#     4  10  20  36  60  88 118 152 193 242 294 349
#     4  11  21  36  60  86 115 152 196 239 287 347
#     4  11  22  37  56  81 117 155 193 239 290 343
#
# _framework density 19.641007999999999
#
# number of rings (size 3 to 8) (size 9 to 14) (size 15 to 20)
#    0.000    1.750    1.250    3.000    0.000    4.000 
#    0.000    6.875    0.000    0.000    0.000    0.000 
#    0.000    0.000    0.000    0.000    0.000    0.000 
#
# Total GULP energy -396923.346180 kJ/mol
# GULP energy per Si atom -12403.854568 kJ/mol
# Density = 1.959630 g / cm^3
# Si number density = 19.641008 Si / 1000 Ang^3
#
#
#
# Elastic Constant Matrix: (Units=GPa)
#
#
# Indices 1 2 3 4 5 6 
#
# 1 160.5737 58.9431 68.3986 0.0000 -7.5355 0.0000
# 2 58.9431 71.2645 36.9614 0.0000 -1.2067 0.0000
# 3 68.3986 36.9614 107.7451 0.0000 -1.0334 0.0000
# 4 0.0000 0.0000 0.0000 24.2438 0.0000 -0.3314
# 5 -7.5355 -1.2067 -1.0334 0.0000 29.6563 0.0000
# 6 0.0000 0.0000 0.0000 -0.3314 0.0000 34.0643
#
#
#
# Elastic Compliance Matrix: (Units=1/GPa)
#
#
# Indices 1 2 3 4 5 6 
#
# 1 0.010604 -0.006389 -0.004518 0.000000 0.002277 0.000000
# 2 -0.006389 0.020926 -0.003131 0.000000 -0.000881 0.000000
# 3 -0.004518 -0.003131 0.013216 0.000000 -0.000815 0.000000
# 4 0.000000 0.000000 0.000000 0.041253 0.000000 0.000401
# 5 0.002277 -0.000881 -0.000815 0.000000 0.034234 0.000000
# 6 0.000000 0.000000 0.000000 0.000401 0.000000 0.029360
#
#
# Mechanical properties :
#
#
# Convention : Reuss Voigt Hill
#
# Bulk Modulus (GPa) = 59.99132 74.24328 67.11730
# Shear Modulus (GPa) = 27.28869 29.27821 28.28345
#
# Velocity S-wave (km/s) = 3.73147 3.86511 3.79888
# Velocity P-wave (km/s) = 7.01252 7.60269 7.31356
#
# Compressibility (1/GPa) = 0.01666908
#
# Stress axis : x y z
#
# Youngs Moduli (GPa) = 94.30019 47.78851 75.66718
#
# Poissons Ratio (x) = 0.30532 0.34189
# Poissons Ratio (y) = 0.60248 0.23692
# Poissons Ratio (z) = 0.42608 0.14963
#
# Static dielectric constant tensor:
#      x y z
#    x 3.702340 0.000000 -0.011220 
#    y 0.000000 3.481970 0.000000 
#    z -0.011220 0.000000 3.671970 
# 
# 
# High freq. dielectric constant tensor:
#      x y z
#    x 1.776410 0.000000 -0.005990 
#    y 0.000000 1.759820 0.000000 
#    z -0.005990 0.000000 1.769180 
# 
# From -- ./inp_files/73111.got.cif
#   From: 2010.06.25/outbox.cif.g09.slc.cpg/sg11_37_cif.got.tgz:73111.got - 2010.06.27 23:14:04.
