data_PCOD8074468
_publ_section_title
;
Structure prediction by ZEFSAII (Michael W. Deem and Ramdas Pophale) SiO2 
 PCOD8074468
Probable space group: P 21/M
;
_chemical_formula_sum "Si O2"
_cell_formula_units_Z 24
_cell_length_a 12.304654
_cell_length_b 9.228390
_cell_length_c 11.531234
_cell_angle_alpha 90.000000
_cell_angle_beta 109.932476
_cell_angle_gamma 90.000000
_cell_volume 1230.957035
_symmetry_space_group_name_H-M "P 21/M"
_symmetry_group_IT_number 11
_symmetry_cell_setting 'monoclinic'
loop_
_space_group_symop_operation_xyz
x,y,z
-x,1/2+y,-z
-x,-y,-z
x,1/2-y,z
loop_
_atom_site_type_symbol
_atom_site_label
_atom_site_fract_x
_atom_site_fract_y
_atom_site_fract_z
Si Si1 0.953523 0.416220 0.277649
Si Si2 0.742021 0.084758 0.356249
Si Si3 0.781594 0.579229 0.595916
Si Si4 0.900692 0.921518 0.033493
Si Si5 0.312352 0.420419 0.196596
Si Si6 0.472948 0.579506 0.870850
O O1 0.951443 0.250000 0.231639
O O2 0.873839 0.434272 0.361856
O O3 0.899448 0.522770 0.163668
O O4 0.083547 0.464686 0.353182
O O5 0.715513 0.250000 0.380331
O O6 0.653836 0.036683 0.222170
O O7 0.720637 0.990572 0.462612
O O8 0.766862 0.750000 0.580076
O O9 0.718984 0.514774 0.688103
O O10 0.920130 0.750000 0.036987
O O11 0.780752 0.969803 0.932262
O O12 0.000000 0.000000 0.000000
O O13 0.306895 0.250000 0.209164
O O14 0.436955 0.471750 0.196066
O O15 0.485171 0.750000 0.899249
O O16 0.500000 0.500000 0.000000
#
# Coordination Sequence:
#
# PCOD8074468 Si02
#       6
#     4   4   4   4   4   4
#     4  10  20  36  55  79 114 147 181 226 275 321
#     4  10  22  37  55  82 113 143 180 232 275 311
#     4  10  20  36  56  77 108 149 187 222 268 331
#     4  11  20  33  55  82 111 142 180 224 272 325
#     4   9  19  36  56  79 110 147 180 219 272 324
#     4  10  21  39  60  81 109 142 180 225 272 323
#
# _framework density 19.497024
#
# number of rings (size 3 to 8) (size 9 to 14) (size 15 to 20)
#    0.000    2.000    1.667    2.000    0.000    2.667 
#    0.000    1.667    0.000    0.000    0.000    0.000 
#    0.000    0.000    0.000    0.000    0.000    0.000 
#
# Total GULP energy -297613.126488 kJ/mol
# GULP energy per Si atom -12400.546937 kJ/mol
# Density = 1.945265 g / cm^3
# Si number density = 19.497024 Si / 1000 Ang^3
#
#
#
# Elastic Constant Matrix: (Units=GPa)
#
#
# Indices 1 2 3 4 5 6 
#
# 1 114.5521 25.0310 45.4832 0.0000 -4.9121 0.0000
# 2 25.0310 50.9448 48.4089 0.0000 -4.9326 0.0000
# 3 45.4832 48.4089 141.4794 0.0000 -10.1453 0.0000
# 4 0.0000 0.0000 0.0000 40.3166 0.0000 -3.2634
# 5 -4.9121 -4.9326 -10.1453 0.0000 25.3337 0.0000
# 6 0.0000 0.0000 0.0000 -3.2634 0.0000 19.0099
#
#
#
# Elastic Compliance Matrix: (Units=1/GPa)
#
#
# Indices 1 2 3 4 5 6 
#
# 1 0.010282 -0.002809 -0.002307 0.000000 0.000523 0.000000
# 2 -0.002809 0.029927 -0.009223 0.000000 0.001589 0.000000
# 3 -0.002307 -0.009223 0.011124 0.000000 0.002212 0.000000
# 4 0.000000 0.000000 0.000000 0.025153 0.000000 0.004318
# 5 0.000523 0.001589 0.002212 0.000000 0.040770 0.000000
# 6 0.000000 0.000000 0.000000 0.004318 0.000000 0.053345
#
#
# Mechanical properties :
#
#
# Convention : Reuss Voigt Hill
#
# Bulk Modulus (GPa) = 44.14004 60.53585 52.33795
# Shear Modulus (GPa) = 24.17439 29.46891 26.82165
#
# Velocity S-wave (km/s) = 3.52504 3.89196 3.71304
# Velocity P-wave (km/s) = 6.26550 7.16329 6.72938
#
# Compressibility (1/GPa) = 0.02265517
#
# Stress axis : x y z
#
# Youngs Moduli (GPa) = 97.25903 33.41468 89.89546
#
# Poissons Ratio (x) = 0.09387 0.20736
# Poissons Ratio (y) = 0.27323 0.82909
# Poissons Ratio (z) = 0.22435 0.30818
#
# Static dielectric constant tensor:
#      x y z
#    x 3.982150 0.000000 0.623030 
#    y 0.000000 3.616380 0.000000 
#    z 0.623030 0.000000 6.242700 
# 
# 
# High freq. dielectric constant tensor:
#      x y z
#    x 1.768630 0.000000 -0.003880 
#    y 0.000000 1.735550 0.000000 
#    z -0.003880 0.000000 1.762580 
# 
# From -- ./inp_files/33698.got.cif
#   From: 2010.06.25/outbox.cif.g09.slc.cpg/sg11_17_cif.got.tgz:33698.got - 2010.06.27 23:14:04.
