data_PCOD8074743
_publ_section_title
;
Structure prediction by ZEFSAII (Michael W. Deem and Ramdas Pophale) SiO2 
 PCOD8074743
Probable space group: P 21/M
;
_chemical_formula_sum "Si O2"
_cell_formula_units_Z 32
_cell_length_a 12.310619
_cell_length_b 8.567965
_cell_length_c 15.070135
_cell_angle_alpha 90.000000
_cell_angle_beta 89.784460
_cell_angle_gamma 90.000000
_cell_volume 1589.540669
_symmetry_space_group_name_H-M "P 21/M"
_symmetry_group_IT_number 11
_symmetry_cell_setting 'monoclinic'
loop_
_space_group_symop_operation_xyz
x,y,z
-x,1/2+y,-z
-x,-y,-z
x,1/2-y,z
loop_
_atom_site_type_symbol
_atom_site_label
_atom_site_fract_x
_atom_site_fract_y
_atom_site_fract_z
Si Si1 0.881933 0.935424 0.984046
Si Si2 0.255889 0.563517 0.167876
Si Si3 0.512586 0.427055 0.855290
Si Si4 0.259993 0.930170 0.671033
Si Si5 0.500192 0.426907 0.325752
Si Si6 0.118885 0.932739 0.511292
Si Si7 0.265893 0.429069 0.362779
Si Si8 0.720560 0.564416 0.136310
O O1 0.881926 0.750000 0.977698
O O2 0.843163 0.008689 0.891921
O O3 0.806526 0.996914 0.064585
O O4 0.000000 0.000000 0.000000
O O5 0.256630 0.750000 0.179984
O O6 0.368829 0.503716 0.118858
O O7 0.243421 0.482349 0.262603
O O8 0.510706 0.250000 0.885889
O O9 0.507801 0.441697 0.749189
O O10 0.399961 0.505267 0.891165
O O11 0.234024 0.750000 0.687138
O O12 0.382015 0.951040 0.628967
O O13 0.175912 0.002596 0.599898
O O14 0.244489 0.012400 0.765684
O O15 0.494794 0.250000 0.285392
O O16 0.394248 0.450280 0.388638
O O17 0.108538 0.750000 0.521685
O O18 0.192953 0.967577 0.426659
O O19 0.000000 0.000000 0.500000
O O20 0.229955 0.250000 0.373037
O O21 0.714891 0.750000 0.137013
#
# Coordination Sequence:
#
# PCOD8074743 Si02
#       8
#     4   4   4   4   4   4   4   4
#     4  11  24  40  56  78 110 147 191 236 276 324
#     4  10  20  36  59  85 113 145 180 222 274 330
#     4   8  15  30  53  82 112 139 172 215 268 330
#     4   9  19  36  58  83 111 143 178 222 275 329
#     4   8  15  30  53  82 112 139 172 215 268 330
#     4  11  24  40  56  78 110 147 191 236 276 324
#     4  10  20  36  59  85 113 145 180 222 274 330
#     4   9  19  36  58  83 111 143 178 222 275 329
#
# _framework density 20.131602999999998
#
# number of rings (size 3 to 8) (size 9 to 14) (size 15 to 20)
#    0.000    2.500    0.000    1.500    0.000    5.000 
#    0.000    2.500    0.000    0.000    0.000    0.000 
#    0.000    0.000    0.000    0.000    0.000    0.000 
#
# Total GULP energy -396428.426122 kJ/mol
# GULP energy per Si atom -12388.388316 kJ/mol
# Density = 2.008578 g / cm^3
# Si number density = 20.131603 Si / 1000 Ang^3
#
#
#
# Elastic Constant Matrix: (Units=GPa)
#
#
# Indices 1 2 3 4 5 6 
#
# 1 86.5056 11.4645 9.5643 0.0000 5.2833 0.0000
# 2 11.4645 35.9120 4.1829 0.0000 2.2047 0.0000
# 3 9.5643 4.1829 50.0020 0.0000 1.0906 0.0000
# 4 0.0000 0.0000 0.0000 27.4061 0.0000 -2.2530
# 5 5.2833 2.2047 1.0906 0.0000 36.5225 0.0000
# 6 0.0000 0.0000 0.0000 -2.2530 0.0000 21.9161
#
#
#
# Elastic Compliance Matrix: (Units=1/GPa)
#
#
# Indices 1 2 3 4 5 6 
#
# 1 0.012355 -0.003616 -0.002028 0.000000 -0.001509 0.000000
# 2 -0.003616 0.029275 -0.001731 0.000000 -0.001192 0.000000
# 3 -0.002028 -0.001731 0.020537 0.000000 -0.000215 0.000000
# 4 0.000000 0.000000 0.000000 0.036799 0.000000 0.003783
# 5 -0.001509 -0.001192 -0.000215 0.000000 0.027677 0.000000
# 6 0.000000 0.000000 0.000000 0.003783 0.000000 0.046017
#
#
# Mechanical properties :
#
#
# Convention : Reuss Voigt Hill
#
# Bulk Modulus (GPa) = 21.08935 24.76031 22.92483
# Shear Modulus (GPa) = 24.60435 26.98281 25.79358
#
# Velocity S-wave (km/s) = 3.49976 3.66501 3.58334
# Velocity P-wave (km/s) = 5.17972 5.49870 5.34159
#
# Compressibility (1/GPa) = 0.04741730
#
# Stress axis : x y z
#
# Youngs Moduli (GPa) = 80.93595 34.15890 48.69347
#
# Poissons Ratio (x) = 0.12350 0.09875
# Poissons Ratio (y) = 0.29262 0.08431
# Poissons Ratio (z) = 0.16414 0.05914
#
# Static dielectric constant tensor:
#      x y z
#    x 4.108530 0.000000 0.062540 
#    y 0.000000 3.571950 0.000000 
#    z 0.062540 0.000000 3.482830 
# 
# 
# High freq. dielectric constant tensor:
#      x y z
#    x 1.802860 0.000000 0.000530 
#    y 0.000000 1.778710 0.000000 
#    z 0.000530 0.000000 1.761390 
# 
# From -- ./inp_files/49362.got.cif
#   From: 2010.06.25/outbox.cif.g09.slc.cpg/sg11_25_cif.got.tgz:49362.got - 2010.06.27 23:14:04.
