data_PCOD8074285
_publ_section_title
;
Structure prediction by ZEFSAII (Michael W. Deem and Ramdas Pophale) SiO2 
 PCOD8074285
Probable space group: P 21/M
;
_chemical_formula_sum "Si O2"
_cell_formula_units_Z 24
_cell_length_a 14.531600
_cell_length_b 8.846796
_cell_length_c 19.072898
_cell_angle_alpha 90.000000
_cell_angle_beta 32.129244
_cell_angle_gamma 90.000000
_cell_volume 1304.036322
_symmetry_space_group_name_H-M "P 21/M"
_symmetry_group_IT_number 11
_symmetry_cell_setting 'monoclinic'
loop_
_space_group_symop_operation_xyz
x,y,z
-x,1/2+y,-z
-x,-y,-z
x,1/2-y,z
loop_
_atom_site_type_symbol
_atom_site_label
_atom_site_fract_x
_atom_site_fract_y
_atom_site_fract_z
Si Si1 0.286215 0.922870 0.458780
Si Si2 0.532408 0.071514 0.403988
Si Si3 0.434223 0.072270 0.112815
Si Si4 0.811864 0.928786 0.125385
Si Si5 0.442946 0.422082 0.832825
Si Si6 0.943987 0.573765 0.607528
O O1 0.316616 0.750000 0.464401
O O2 0.379748 0.947592 0.323976
O O3 0.084068 0.960018 0.578340
O O4 0.363541 0.035401 0.466386
O O5 0.557314 0.250000 0.394375
O O6 0.500000 0.000000 0.500000
O O7 0.704729 0.000622 0.258611
O O8 0.437512 0.250000 0.102225
O O9 0.240375 0.009105 0.249368
O O10 0.556581 0.026531 0.098908
O O11 0.500000 0.000000 0.000000
O O12 0.822312 0.750000 0.131130
O O13 0.717926 0.967212 0.112713
O O14 0.000000 0.000000 0.000000
O O15 0.425492 0.250000 0.869412
O O16 0.930841 0.750000 0.601175
O O17 0.000000 0.500000 0.500000
#
# Coordination Sequence:
#
# PCOD8074285 Si02
#       6
#     4   4   4   4   4   4
#     4   9  18  35  58  84 113 146 185 234 285 338
#     4  11  22  38  60  86 117 152 189 238 291 342
#     4  11  23  37  55  81 114 152 189 230 280 334
#     4  10  21  39  62  88 116 150 192 235 284 343
#     4   9  18  35  59  82 111 148 183 227 282 335
#     4  10  20  35  58  85 111 144 187 233 278 333
#
# _framework density 18.404394
#
# number of rings (size 3 to 8) (size 9 to 14) (size 15 to 20)
#    0.000    2.000    1.667    3.500    0.000    4.667 
#    3.000    0.000    0.000    0.000    0.000    0.000 
#    0.000    0.000    0.000    0.000    0.000    0.000 
#
# Total GULP energy -297632.090668 kJ/mol
# GULP energy per Si atom -12401.337111 kJ/mol
# Density = 1.836251 g / cm^3
# Si number density = 18.404394 Si / 1000 Ang^3
#
#
#
# Elastic Constant Matrix: (Units=GPa)
#
#
# Indices 1 2 3 4 5 6 
#
# 1 114.0322 58.2503 84.3095 0.0000 2.2987 0.0000
# 2 58.2503 99.8467 63.2052 0.0000 4.0068 0.0000
# 3 84.3095 63.2052 138.2085 0.0000 0.0369 0.0000
# 4 0.0000 0.0000 0.0000 30.4936 0.0000 2.6133
# 5 2.2987 4.0068 0.0369 0.0000 32.5080 0.0000
# 6 0.0000 0.0000 0.0000 2.6133 0.0000 36.4279
#
#
#
# Elastic Compliance Matrix: (Units=1/GPa)
#
#
# Indices 1 2 3 4 5 6 
#
# 1 0.017515 -0.004827 -0.008477 0.000000 -0.000634 0.000000
# 2 -0.004827 0.015524 -0.004155 0.000000 -0.001567 0.000000
# 3 -0.008477 -0.004155 0.014306 0.000000 0.001095 0.000000
# 4 0.000000 0.000000 0.000000 0.032997 0.000000 -0.002367
# 5 -0.000634 -0.001567 0.001095 0.000000 0.030998 0.000000
# 6 0.000000 0.000000 0.000000 -0.002367 0.000000 0.027621
#
#
# Mechanical properties :
#
#
# Convention : Reuss Voigt Hill
#
# Bulk Modulus (GPa) = 80.45841 84.84637 82.65239
# Shear Modulus (GPa) = 28.08634 29.64072 28.86353
#
# Velocity S-wave (km/s) = 3.91073 4.01749 3.96447
# Velocity P-wave (km/s) = 8.01271 8.22931 8.12173
#
# Compressibility (1/GPa) = 0.01242878
#
# Stress axis : x y z
#
# Youngs Moduli (GPa) = 57.09247 64.41568 69.89898
#
# Poissons Ratio (x) = 0.31092 0.59255
# Poissons Ratio (y) = 0.27557 0.29041
# Poissons Ratio (z) = 0.48398 0.26762
#
# Static dielectric constant tensor:
#      x y z
#    x 3.378460 0.000000 -0.148540 
#    y 0.000000 3.389570 0.000000 
#    z -0.148540 0.000000 3.399290 
# 
# 
# High freq. dielectric constant tensor:
#      x y z
#    x 1.719650 0.000000 -0.006990 
#    y 0.000000 1.717250 0.000000 
#    z -0.006990 0.000000 1.704230 
# 
# From -- ./inp_files/53140.got.cif
#   From: 2010.06.25/outbox.cif.g09.slc.cpg/sg11_27_cif.got.tgz:53140.got - 2010.06.27 23:14:04.
