data_PCOD8074036
_publ_section_title
;
Structure prediction by ZEFSAII (Michael W. Deem and Ramdas Pophale) SiO2 
 PCOD8074036
Probable space group: P 21/M
;
_chemical_formula_sum "Si O2"
_cell_formula_units_Z 32
_cell_length_a 24.026106
_cell_length_b 9.095795
_cell_length_c 25.189793
_cell_angle_alpha 90.000000
_cell_angle_beta 162.334029
_cell_angle_gamma 90.000000
_cell_volume 1670.553602
_symmetry_space_group_name_H-M "P 21/M"
_symmetry_group_IT_number 11
_symmetry_cell_setting 'monoclinic'
loop_
_space_group_symop_operation_xyz
x,y,z
-x,1/2+y,-z
-x,-y,-z
x,1/2-y,z
loop_
_atom_site_type_symbol
_atom_site_label
_atom_site_fract_x
_atom_site_fract_y
_atom_site_fract_z
Si Si1 0.892144 0.079008 0.948311
Si Si2 0.526654 0.416403 0.078363
Si Si3 0.001575 0.924350 0.258338
Si Si4 0.129534 0.082633 0.577279
Si Si5 0.399506 0.081286 0.072619
Si Si6 0.111612 0.077495 0.251410
Si Si7 0.496791 0.079040 0.552945
Si Si8 0.232683 0.419224 0.557934
O O1 0.924131 0.250000 0.967876
O O2 0.676848 0.037268 0.750799
O O3 0.973032 0.032055 0.078496
O O4 0.000000 0.000000 0.000000
O O5 0.576917 0.250000 0.108829
O O6 0.684462 0.496144 0.252843
O O7 0.369280 0.426018 0.980353
O O8 0.500000 0.500000 0.000000
O O9 0.019017 0.750000 0.278155
O O10 0.057239 0.979334 0.251414
O O11 0.140363 0.993398 0.426604
O O12 0.792104 0.975430 0.077692
O O13 0.146972 0.250000 0.613221
O O14 0.088195 0.074670 0.476702
O O15 0.000000 0.000000 0.500000
O O16 0.441335 0.250000 0.126543
O O17 0.565444 0.983617 0.246158
O O18 0.096537 0.250000 0.251552
O O19 0.318405 0.032360 0.423946
O O20 0.489693 0.250000 0.533339
O O21 0.500000 0.000000 0.500000
O O22 0.262249 0.250000 0.568167
#
# Coordination Sequence:
#
# PCOD8074036 Si02
#       8
#     4   4   4   4   4   4   4   4
#     4  10  20  35  58  86 118 154 192 237 289 341
#     4  10  20  35  55  83 115 150 191 242 300 363
#     4  11  24  41  63  89 119 160 205 250 299 358
#     4  10  21  36  55  84 116 150 191 240 299 361
#     4   9  21  41  61  84 117 157 199 248 305 356
#     4  10  22  39  56  85 123 157 199 246 290 346
#     4  10  20  35  58  87 120 156 194 237 290 344
#     4  10  22  40  62  88 117 155 200 249 303 360
#
# _framework density 19.155325000000001
#
# number of rings (size 3 to 8) (size 9 to 14) (size 15 to 20)
#    0.000    2.000    1.250    1.500    1.750    5.000 
#    0.000    1.250    0.000    0.000    0.000    0.000 
#    0.000    0.000    0.000    0.000    0.000    0.000 
#
# Total GULP energy -396591.108990 kJ/mol
# GULP energy per Si atom -12393.472156 kJ/mol
# Density = 1.911173 g / cm^3
# Si number density = 19.155325 Si / 1000 Ang^3
#
#
#
# Elastic Constant Matrix: (Units=GPa)
#
#
# Indices 1 2 3 4 5 6 
#
# 1 145.2223 65.4870 79.0261 0.0000 0.8414 0.0000
# 2 65.4870 106.4574 55.6892 0.0000 -3.0928 0.0000
# 3 79.0261 55.6892 138.8542 0.0000 -0.9778 0.0000
# 4 0.0000 0.0000 0.0000 29.4254 0.0000 -2.5947
# 5 0.8414 -3.0928 -0.9778 0.0000 33.5755 0.0000
# 6 0.0000 0.0000 0.0000 -2.5947 0.0000 36.8387
#
#
#
# Elastic Compliance Matrix: (Units=1/GPa)
#
#
# Indices 1 2 3 4 5 6 
#
# 1 0.011562 -0.004672 -0.004713 0.000000 -0.000857 0.000000
# 2 -0.004672 0.013806 -0.002869 0.000000 0.001305 0.000000
# 3 -0.004713 -0.002869 0.011036 0.000000 0.000175 0.000000
# 4 0.000000 0.000000 0.000000 0.034197 0.000000 0.002409
# 5 -0.000857 0.001305 0.000175 0.000000 0.029930 0.000000
# 6 0.000000 0.000000 0.000000 0.002409 0.000000 0.027315
#
#
# Mechanical properties :
#
#
# Convention : Reuss Voigt Hill
#
# Bulk Modulus (GPa) = 84.05611 87.88205 85.96908
# Shear Modulus (GPa) = 31.98576 32.65669 32.32123
#
# Velocity S-wave (km/s) = 4.09076 4.13345 4.11216
# Velocity P-wave (km/s) = 8.14181 8.29209 8.21729
#
# Compressibility (1/GPa) = 0.01189681
#
# Stress axis : x y z
#
# Youngs Moduli (GPa) = 86.48739 72.43134 90.61456
#
# Poissons Ratio (x) = 0.33841 0.42704
# Poissons Ratio (y) = 0.40409 0.25996
# Poissons Ratio (z) = 0.40759 0.20779
#
# Static dielectric constant tensor:
#      x y z
#    x 3.587640 0.000000 0.119480 
#    y 0.000000 3.579600 0.000000 
#    z 0.119480 0.000000 3.543590 
# 
# 
# High freq. dielectric constant tensor:
#      x y z
#    x 1.750820 0.000000 0.000240 
#    y 0.000000 1.751420 0.000000 
#    z 0.000240 0.000000 1.743560 
# 
# From -- ./inp_files/70028.got.cif
#   From: 2010.06.25/outbox.cif.g09.slc.cpg/sg11_36_cif.got.tgz:70028.got - 2010.06.27 23:14:04.
