data_PCOD8074060
_publ_section_title
;
Structure prediction by ZEFSAII (Michael W. Deem and Ramdas Pophale) SiO2 
 PCOD8074060
Probable space group: P 21/M
;
_chemical_formula_sum "Si O2"
_cell_formula_units_Z 32
_cell_length_a 13.850730
_cell_length_b 9.171635
_cell_length_c 34.044637
_cell_angle_alpha 90.000000
_cell_angle_beta 156.226841
_cell_angle_gamma 90.000000
_cell_volume 1743.407240
_symmetry_space_group_name_H-M "P 21/M"
_symmetry_group_IT_number 11
_symmetry_cell_setting 'monoclinic'
loop_
_space_group_symop_operation_xyz
x,y,z
-x,1/2+y,-z
-x,-y,-z
x,1/2-y,z
loop_
_atom_site_type_symbol
_atom_site_label
_atom_site_fract_x
_atom_site_fract_y
_atom_site_fract_z
Si Si1 0.735081 0.582035 0.600530
Si Si2 0.218810 0.578429 0.233605
Si Si3 0.461000 0.084765 0.391608
Si Si4 0.959210 0.420343 0.619100
Si Si5 0.583172 0.082172 0.224601
Si Si6 0.194851 0.078786 0.145318
Si Si7 0.710356 0.581308 0.960604
Si Si8 0.327659 0.082008 0.965243
O O1 0.500000 0.500000 0.500000
O O2 0.723403 0.750000 0.582954
O O3 0.745155 0.569948 0.651581
O O4 0.953305 0.502926 0.659307
O O5 0.246137 0.750000 0.237466
O O6 0.401644 0.526284 0.334946
O O7 0.289872 0.498972 0.219866
O O8 0.947848 0.536047 0.144667
O O9 0.462691 0.250000 0.376037
O O10 0.722176 0.044255 0.505734
O O11 0.985170 0.250000 0.636815
O O12 0.188297 0.481089 0.681089
O O13 0.660571 0.250000 0.257361
O O14 0.379296 0.041901 0.179580
O O15 0.490733 0.047535 0.146352
O O16 0.171852 0.250000 0.144522
O O17 0.939436 0.017426 0.036713
O O18 0.793717 0.750000 0.990036
O O19 0.604053 0.545401 0.964155
O O20 0.365089 0.250000 0.969971
O O21 0.500000 0.000000 0.000000
#
# Coordination Sequence:
#
# PCOD8074060 Si02
#       8
#     4   4   4   4   4   4   4   4
#     4   9  17  31  51  74 103 137 172 213 259 306
#     4  10  21  36  55  78 104 138 178 218 261 314
#     4   9  19  35  54  77 104 138 179 219 259 307
#     4  10  21  35  52  78 110 141 177 221 265 313
#     4  10  21  36  55  79 106 137 174 220 271 317
#     4  10  20  35  56  80 104 133 173 219 267 321
#     4   9  19  36  55  77 106 138 174 214 260 315
#     4   9  19  34  51  75 107 138 168 206 251 301
#
# _framework density 18.354862000000001
#
# number of rings (size 3 to 8) (size 9 to 14) (size 15 to 20)
#    0.000    2.500    0.000    3.375    0.000    8.000 
#    0.000    4.375    0.000    0.000    0.000    0.000 
#    0.000    0.000    0.000    0.000    0.000    0.000 
#
# Total GULP energy -396763.648975 kJ/mol
# GULP energy per Si atom -12398.864030 kJ/mol
# Density = 1.831309 g / cm^3
# Si number density = 18.354862 Si / 1000 Ang^3
#
#
#
# Elastic Constant Matrix: (Units=GPa)
#
#
# Indices 1 2 3 4 5 6 
#
# 1 115.2861 60.8597 55.6443 0.0000 3.3709 0.0000
# 2 60.8597 98.2103 48.2321 0.0000 1.1458 0.0000
# 3 55.6443 48.2321 77.3434 0.0000 -3.6584 0.0000
# 4 0.0000 0.0000 0.0000 31.7872 0.0000 4.1583
# 5 3.3709 1.1458 -3.6584 0.0000 24.2259 0.0000
# 6 0.0000 0.0000 0.0000 4.1583 0.0000 33.9725
#
#
#
# Elastic Compliance Matrix: (Units=1/GPa)
#
#
# Indices 1 2 3 4 5 6 
#
# 1 0.015555 -0.005819 -0.007707 0.000000 -0.003053 0.000000
# 2 -0.005819 0.016960 -0.006436 0.000000 -0.000964 0.000000
# 3 -0.007707 -0.006436 0.022715 0.000000 0.004807 0.000000
# 4 0.000000 0.000000 0.000000 0.031971 0.000000 -0.003913
# 5 -0.003053 -0.000964 0.004807 0.000000 0.042474 0.000000
# 6 0.000000 0.000000 0.000000 -0.003913 0.000000 0.029915
#
#
# Mechanical properties :
#
#
# Convention : Reuss Voigt Hill
#
# Bulk Modulus (GPa) = 65.32888 68.92357 67.12622
# Shear Modulus (GPa) = 24.43630 26.40405 25.42018
#
# Velocity S-wave (km/s) = 3.65269 3.79691 3.72550
# Velocity P-wave (km/s) = 7.31156 7.54017 7.42675
#
# Compressibility (1/GPa) = 0.01530717
#
# Stress axis : x y z
#
# Youngs Moduli (GPa) = 64.28929 58.96254 44.02459
#
# Poissons Ratio (x) = 0.34308 0.33928
# Poissons Ratio (y) = 0.37408 0.28333
# Poissons Ratio (z) = 0.49545 0.37947
#
# Static dielectric constant tensor:
#      x y z
#    x 3.443220 0.000000 -0.074690 
#    y 0.000000 3.454470 0.000000 
#    z -0.074690 0.000000 3.216270 
# 
# 
# High freq. dielectric constant tensor:
#      x y z
#    x 1.712900 0.000000 -0.001150 
#    y 0.000000 1.719660 0.000000 
#    z -0.001150 0.000000 1.694520 
# 
# From -- ./inp_files/73155.got.cif
#   From: 2010.06.25/outbox.cif.g09.slc.cpg/sg11_37_cif.got.tgz:73155.got - 2010.06.27 23:14:04.
