data_PCOD8074615
_publ_section_title
;
Structure prediction by ZEFSAII (Michael W. Deem and Ramdas Pophale) SiO2 
 PCOD8074615
Probable space group: P 21/M
;
_chemical_formula_sum "Si O2"
_cell_formula_units_Z 28
_cell_length_a 14.983024
_cell_length_b 8.660860
_cell_length_c 11.121644
_cell_angle_alpha 90.000000
_cell_angle_beta 113.178548
_cell_angle_gamma 90.000000
_cell_volume 1326.717944
_symmetry_space_group_name_H-M "P 21/M"
_symmetry_group_IT_number 11
_symmetry_cell_setting 'monoclinic'
loop_
_space_group_symop_operation_xyz
x,y,z
-x,1/2+y,-z
-x,-y,-z
x,1/2-y,z
loop_
_atom_site_type_symbol
_atom_site_label
_atom_site_fract_x
_atom_site_fract_y
_atom_site_fract_z
Si Si1 0.264124 0.928504 0.820992
Si Si2 0.656169 0.930719 0.926175
Si Si3 0.743083 0.568516 0.723972
Si Si4 0.049620 0.931663 0.646296
Si Si5 0.041097 0.434215 0.146892
Si Si6 0.584707 0.567476 0.467923
Si Si7 0.547468 0.930548 0.183978
O O1 0.288199 0.750000 0.811610
O O2 0.164071 0.974500 0.702258
O O3 0.354266 0.037128 0.834843
O O4 0.259986 0.970521 0.960407
O O5 0.671428 0.750000 0.957063
O O6 0.672930 0.977895 0.797072
O O7 0.547280 0.977430 0.912386
O O8 0.757782 0.750000 0.729511
O O9 0.849984 0.496860 0.787745
O O10 0.688728 0.510472 0.574833
O O11 0.033034 0.750000 0.632273
O O12 0.009680 0.992192 0.754931
O O13 0.000000 0.000000 0.500000
O O14 0.034772 0.250000 0.136173
O O15 0.000000 0.500000 0.000000
O O16 0.500000 0.500000 0.500000
O O17 0.578761 0.750000 0.470813
O O18 0.573197 0.504682 0.328723
O O19 0.522727 0.750000 0.167477
#
# Coordination Sequence:
#
# PCOD8074615 Si02
#       7
#     4   4   4   4   4   4   4
#     4  11  24  41  59  84 120 157 199 247 294 349
#     4  11  21  37  61  88 120 157 194 240 294 355
#     4   9  19  35  59  87 117 152 189 234 294 353
#     4  10  24  43  65  91 124 163 205 257 310 361
#     4  10  21  40  65  92 122 157 201 254 305 361
#     4  10  20  36  57  84 116 152 192 238 290 349
#     4  11  23  37  59  88 117 156 199 241 293 354
#
# _framework density 21.104711999999999
#
# number of rings (size 3 to 8) (size 9 to 14) (size 15 to 20)
#    0.000    1.714    1.429    2.571    2.000    2.286 
#    0.000    1.429    0.000    0.000    0.000    0.000 
#    0.000    0.000    0.000    0.000    0.000    0.000 
#
# Total GULP energy -347004.378073 kJ/mol
# GULP energy per Si atom -12393.013503 kJ/mol
# Density = 2.105668 g / cm^3
# Si number density = 21.104712 Si / 1000 Ang^3
#
#
#
# Elastic Constant Matrix: (Units=GPa)
#
#
# Indices 1 2 3 4 5 6 
#
# 1 103.3061 19.2528 45.7044 0.0000 14.8970 0.0000
# 2 19.2528 37.1078 32.1542 0.0000 7.1576 0.0000
# 3 45.7044 32.1542 157.3183 0.0000 19.8740 0.0000
# 4 0.0000 0.0000 0.0000 33.7406 0.0000 -0.1999
# 5 14.8970 7.1576 19.8740 0.0000 38.8707 0.0000
# 6 0.0000 0.0000 0.0000 -0.1999 0.0000 22.6251
#
#
#
# Elastic Compliance Matrix: (Units=1/GPa)
#
#
# Indices 1 2 3 4 5 6 
#
# 1 0.011767 -0.003551 -0.002358 0.000000 -0.002650 0.000000
# 2 -0.003551 0.034105 -0.005685 0.000000 -0.002013 0.000000
# 3 -0.002358 -0.005685 0.008507 0.000000 -0.002399 0.000000
# 4 0.000000 0.000000 0.000000 0.029639 0.000000 0.000262
# 5 -0.002650 -0.002013 -0.002399 0.000000 0.028339 0.000000
# 6 0.000000 0.000000 0.000000 0.000262 0.000000 0.044201
#
#
# Mechanical properties :
#
#
# Convention : Reuss Voigt Hill
#
# Bulk Modulus (GPa) = 32.06015 54.66166 43.36090
# Shear Modulus (GPa) = 26.29605 32.42199 29.35902
#
# Velocity S-wave (km/s) = 3.53367 3.92375 3.73381
# Velocity P-wave (km/s) = 5.64563 6.81793 6.25928
#
# Compressibility (1/GPa) = 0.03119137
#
# Stress axis : x y z
#
# Youngs Moduli (GPa) = 84.98246 29.32124 117.55618
#
# Poissons Ratio (x) = 0.10411 0.27721
# Poissons Ratio (y) = 0.30175 0.66829
# Poissons Ratio (z) = 0.20040 0.16669
#
# Static dielectric constant tensor:
#      x y z
#    x 3.909640 0.000000 0.061890 
#    y 0.000000 3.485100 0.000000 
#    z 0.061890 0.000000 2.853510 
# 
# 
# High freq. dielectric constant tensor:
#      x y z
#    x 1.829050 0.000000 0.002620 
#    y 0.000000 1.801070 0.000000 
#    z 0.002620 0.000000 1.854530 
# 
# From -- ./inp_files/38394.got.cif
#   From: 2010.06.25/outbox.cif.g09.slc.cpg/sg11_20_cif.got.tgz:38394.got - 2010.06.27 23:14:04.
