data_PCOD8074592
_publ_section_title
;
Structure prediction by ZEFSAII (Michael W. Deem and Ramdas Pophale) SiO2 
 PCOD8074592
Probable space group: P 21/M
;
_chemical_formula_sum "Si O2"
_cell_formula_units_Z 32
_cell_length_a 11.814477
_cell_length_b 8.911759
_cell_length_c 30.584130
_cell_angle_alpha 90.000000
_cell_angle_beta 30.759950
_cell_angle_gamma 90.000000
_cell_volume 1646.913273
_symmetry_space_group_name_H-M "P 21/M"
_symmetry_group_IT_number 11
_symmetry_cell_setting 'monoclinic'
loop_
_space_group_symop_operation_xyz
x,y,z
-x,1/2+y,-z
-x,-y,-z
x,1/2-y,z
loop_
_atom_site_type_symbol
_atom_site_label
_atom_site_fract_x
_atom_site_fract_y
_atom_site_fract_z
Si Si1 0.850086 0.425781 0.277115
Si Si2 0.665278 0.572769 0.257839
Si Si3 0.442747 0.425252 0.473557
Si Si4 0.005194 0.422284 0.383325
Si Si5 0.795563 0.577181 0.591359
Si Si6 0.871961 0.422803 0.106916
Si Si7 0.212111 0.072099 0.225251
Si Si8 0.707225 0.076315 0.064712
O O1 0.865588 0.250000 0.261559
O O2 0.845380 0.516866 0.233441
O O3 0.631560 0.466578 0.376561
O O4 0.063458 0.480510 0.233816
O O5 0.645895 0.750000 0.265347
O O6 0.428929 0.502727 0.348730
O O7 0.740757 0.520931 0.185222
O O8 0.500000 0.500000 0.500000
O O9 0.426839 0.250000 0.486700
O O10 0.212170 0.485546 0.531234
O O11 0.934590 0.250000 0.399212
O O12 0.181072 0.436481 0.364028
O O13 0.112212 0.491768 0.303802
O O14 0.783524 0.750000 0.580497
O O15 0.000000 0.500000 0.500000
O O16 0.870033 0.250000 0.122259
O O17 0.747690 0.446680 0.102564
O O18 0.124558 0.478274 0.019686
O O19 0.214041 0.250000 0.229097
O O20 0.462110 0.015062 0.135166
O O21 0.737562 0.250000 0.041611
#
# Coordination Sequence:
#
# PCOD8074592 Si02
#       8
#     4   4   4   4   4   4   4   4
#     4  10  21  38  58  79 110 152 196 240 287 342
#     4  12  25  40  59  83 116 155 198 239 282 342
#     4  11  21  34  54  80 112 150 192 237 282 335
#     4  10  20  36  57  82 111 147 190 234 285 340
#     4  11  23  39  60  85 117 152 191 238 289 343
#     4  10  20  37  61  89 119 151 187 229 286 348
#     4   9  17  34  58  83 110 143 184 232 288 341
#     4   9  18  35  62  91 117 145 183 233 290 347
#
# _framework density 19.430288000000001
#
# number of rings (size 3 to 8) (size 9 to 14) (size 15 to 20)
#    0.000    1.750    1.250    3.750    0.000    6.500 
#    0.000    1.875    0.000    0.000    0.000    0.000 
#    0.000    0.000    0.000    0.000    0.000    0.000 
#
# Total GULP energy -396939.000566 kJ/mol
# GULP energy per Si atom -12404.343768 kJ/mol
# Density = 1.938606 g / cm^3
# Si number density = 19.430288 Si / 1000 Ang^3
#
#
#
# Elastic Constant Matrix: (Units=GPa)
#
#
# Indices 1 2 3 4 5 6 
#
# 1 90.2446 37.3742 44.3149 0.0000 -15.0256 0.0000
# 2 37.3742 86.7916 42.8061 0.0000 -1.3459 0.0000
# 3 44.3149 42.8061 105.3658 0.0000 -19.0947 0.0000
# 4 0.0000 0.0000 0.0000 33.3129 0.0000 0.7209
# 5 -15.0256 -1.3459 -19.0947 0.0000 34.7160 0.0000
# 6 0.0000 0.0000 0.0000 0.7209 0.0000 26.9784
#
#
#
# Elastic Compliance Matrix: (Units=1/GPa)
#
#
# Indices 1 2 3 4 5 6 
#
# 1 0.015703 -0.004798 -0.003840 0.000000 0.004498 0.000000
# 2 -0.004798 0.016154 -0.005340 0.000000 -0.004387 0.000000
# 3 -0.003840 -0.005340 0.014368 0.000000 0.006034 0.000000
# 4 0.000000 0.000000 0.000000 0.030036 0.000000 -0.000803
# 5 0.004498 -0.004387 0.006034 0.000000 0.033901 0.000000
# 6 0.000000 0.000000 0.000000 -0.000803 0.000000 0.037088
#
#
# Mechanical properties :
#
#
# Convention : Reuss Voigt Hill
#
# Bulk Modulus (GPa) = 54.73611 59.04359 56.88985
# Shear Modulus (GPa) = 27.57944 29.52860 28.55402
#
# Velocity S-wave (km/s) = 3.77159 3.90259 3.83765
# Velocity P-wave (km/s) = 6.87009 7.12463 6.99852
#
# Compressibility (1/GPa) = 0.01826947
#
# Stress axis : x y z
#
# Youngs Moduli (GPa) = 63.68346 61.90568 69.59709
#
# Poissons Ratio (x) = 0.29705 0.26723
# Poissons Ratio (y) = 0.30558 0.37162
# Poissons Ratio (z) = 0.24452 0.33055
#
# Static dielectric constant tensor:
#      x y z
#    x 3.648150 0.000000 -0.133170 
#    y 0.000000 3.472610 0.000000 
#    z -0.133170 0.000000 3.572720 
# 
# 
# High freq. dielectric constant tensor:
#      x y z
#    x 1.762300 0.000000 -0.004410 
#    y 0.000000 1.744200 0.000000 
#    z -0.004410 0.000000 1.754010 
# 
# From -- ./inp_files/73056.got.cif
#   From: 2010.06.25/outbox.cif.g09.slc.cpg/sg11_37_cif.got.tgz:73056.got - 2010.06.27 23:14:04.
