data_PCOD8074018
_publ_section_title
;
Structure prediction by ZEFSAII (Michael W. Deem and Ramdas Pophale) SiO2 
 PCOD8074018
Probable space group: P 21/M
;
_chemical_formula_sum "Si O2"
_cell_formula_units_Z 24
_cell_length_a 15.786307
_cell_length_b 13.141034
_cell_length_c 12.264356
_cell_angle_alpha 90.000000
_cell_angle_beta 27.499795
_cell_angle_gamma 90.000000
_cell_volume 1174.782441
_symmetry_space_group_name_H-M "P 21/M"
_symmetry_group_IT_number 11
_symmetry_cell_setting 'monoclinic'
loop_
_space_group_symop_operation_xyz
x,y,z
-x,1/2+y,-z
-x,-y,-z
x,1/2-y,z
loop_
_atom_site_type_symbol
_atom_site_label
_atom_site_fract_x
_atom_site_fract_y
_atom_site_fract_z
Si Si1 0.370423 0.634503 0.621686
Si Si2 0.640573 0.640933 0.901847
Si Si3 0.986554 0.091070 0.599671
Si Si4 0.006744 0.631291 0.168722
Si Si5 0.414727 0.574492 0.951256
Si Si6 0.355281 0.064329 0.521025
O O1 0.355925 0.750000 0.594654
O O2 0.562085 0.619105 0.466638
O O3 0.362698 0.558141 0.527689
O O4 0.203944 0.606713 0.892546
O O5 0.572059 0.750000 0.029114
O O6 0.523146 0.612402 0.930944
O O7 0.849872 0.663734 0.625627
O O8 0.620644 0.548139 0.009177
O O9 0.018374 0.064627 0.691879
O O10 0.000000 0.000000 0.500000
O O11 0.779514 0.135138 0.828096
O O12 0.989991 0.750000 0.218690
O O13 0.853560 0.599894 0.255676
O O14 0.528452 0.601745 0.714827
#
# Coordination Sequence:
#
# PCOD8074018 Si02
#       6
#     4   4   4   4   4   4
#     4  10  23  39  58  84 110 143 187 231 281 333
#     4  10  21  36  55  81 112 147 183 225 272 326
#     4  10  20  35  55  81 115 146 182 224 271 324
#     4  11  21  36  60  86 111 146 188 227 273 329
#     4  10  21  36  56  82 111 143 185 226 274 329
#     4  11  21  38  61  81 112 146 181 235 281 324
#
# _framework density 20.429316
#
# number of rings (size 3 to 8) (size 9 to 14) (size 15 to 20)
#    0.000    1.667    3.333    1.500    0.000    2.667 
#    0.000    0.000    0.000    1.000    0.000    0.000 
#    0.000    0.000    0.000    0.000    0.000    0.000 
#
# Total GULP energy -297403.890366 kJ/mol
# GULP energy per Si atom -12391.828765 kJ/mol
# Density = 2.038282 g / cm^3
# Si number density = 20.429316 Si / 1000 Ang^3
#
#
#
# Elastic Constant Matrix: (Units=GPa)
#
#
# Indices 1 2 3 4 5 6 
#
# 1 83.8703 10.1408 24.5776 0.0000 -22.6546 0.0000
# 2 10.1408 64.1225 13.6988 0.0000 -20.9459 0.0000
# 3 24.5776 13.6988 58.0367 0.0000 -19.9840 0.0000
# 4 0.0000 0.0000 0.0000 6.1569 0.0000 26.7042
# 5 -22.6546 -20.9459 -19.9840 0.0000 28.4933 0.0000
# 6 0.0000 0.0000 0.0000 26.7042 0.0000 -37.4857
#
#
#
# Elastic Compliance Matrix: (Units=1/GPa)
#
#
# Indices 1 2 3 4 5 6 
#
# 1 0.015792 0.002048 -0.003071 0.000000 0.011908 0.000000
# 2 0.002048 0.020799 0.000064 0.000000 0.016963 0.000000
# 3 -0.003071 0.000064 0.023324 0.000000 0.013964 0.000000
# 4 0.000000 0.000000 0.000000 0.039713 0.000000 0.028291
# 5 0.011908 0.016963 0.013964 0.000000 0.066828 0.000000
# 6 0.000000 0.000000 0.000000 0.028291 0.000000 -0.006523
#
#
# Mechanical properties :
#
#
# Convention : Reuss Voigt Hill
#
# Bulk Modulus (GPa) = 17.24186 33.65156 25.44671
# Shear Modulus (GPa) = 27.59660 9.94039 18.76849
#
# Velocity S-wave (km/s) = 3.67936 2.20824 3.03430
# Velocity P-wave (km/s) = 5.14862 4.79684 4.97584
#
# Compressibility (1/GPa) = 0.05799837
#
# Stress axis : x y z
#
# Youngs Moduli (GPa) = 63.32363 48.08025 42.87406
#
# Poissons Ratio (x) = -0.09849 0.13166
# Poissons Ratio (y) = -0.12971 -0.00276
# Poissons Ratio (z) = 0.19445 -0.00309
#
# Static dielectric constant tensor:
#      x y z
#    x 3.694290 0.000000 -0.349200 
#    y 0.000000 3.581650 0.000000 
#    z -0.349200 0.000000 3.964640 
# 
# 
# High freq. dielectric constant tensor:
#      x y z
#    x 1.793780 0.000000 -0.023130 
#    y 0.000000 1.786780 0.000000 
#    z -0.023130 0.000000 1.802130 
# 
# From -- ./inp_files/39577.got.cif
#   From: 2010.06.25/outbox.cif.g09.slc.cpg/sg11_20_cif.got.tgz:39577.got - 2010.06.27 23:14:04.
