data_PCOD8074452
_publ_section_title
;
Structure prediction by ZEFSAII (Michael W. Deem and Ramdas Pophale) SiO2 
 PCOD8074452
Probable space group: P 21/M
;
_chemical_formula_sum "Si O2"
_cell_formula_units_Z 28
_cell_length_a 9.653475
_cell_length_b 9.617283
_cell_length_c 27.327638
_cell_angle_alpha 90.000000
_cell_angle_beta 141.195193
_cell_angle_gamma 90.000000
_cell_volume 1589.924546
_symmetry_space_group_name_H-M "P 21/M"
_symmetry_group_IT_number 11
_symmetry_cell_setting 'monoclinic'
loop_
_space_group_symop_operation_xyz
x,y,z
-x,1/2+y,-z
-x,-y,-z
x,1/2-y,z
loop_
_atom_site_type_symbol
_atom_site_label
_atom_site_fract_x
_atom_site_fract_y
_atom_site_fract_z
Si Si1 0.649740 0.086886 0.697836
Si Si2 0.024212 0.087482 0.275606
Si Si3 0.183270 0.409676 0.524616
Si Si4 0.308540 0.910751 0.179593
Si Si5 0.715492 0.591358 0.556266
Si Si6 0.104089 0.406408 0.988368
Si Si7 0.528277 0.411530 0.154652
O O1 0.700879 0.250000 0.705703
O O2 0.426072 0.042996 0.608705
O O3 0.624544 0.044547 0.747552
O O4 0.850926 0.000889 0.730795
O O5 0.051026 0.250000 0.270525
O O6 0.116664 0.051459 0.354672
O O7 0.769896 0.039023 0.204894
O O8 0.143152 0.250000 0.528067
O O9 0.159132 0.434705 0.460158
O O10 0.000000 0.500000 0.500000
O O11 0.370588 0.750000 0.187205
O O12 0.038891 0.932984 0.100409
O O13 0.444517 0.002584 0.178482
O O14 0.500000 0.500000 0.500000
O O15 0.635933 0.750000 0.538303
O O16 0.064423 0.250000 0.994999
O O17 0.368961 0.435335 0.062703
O O18 0.000000 0.500000 0.000000
O O19 0.534897 0.250000 0.172312
#
# Coordination Sequence:
#
# PCOD8074452 Si02
#       7
#     4   4   4   4   4   4   4
#     4  10  21  37  52  72 103 135 166 204 249 295
#     4  10  21  35  52  75 101 132 169 206 246 294
#     4  10  22  37  53  75 102 130 164 206 249 295
#     4   9  18  32  52  76 101 131 167 204 247 296
#     4  10  20  36  55  74  98 131 169 205 244 292
#     4   8  14  28  49  72  99 129 161 201 245 290
#     4   9  18  32  52  77 102 129 165 207 248 292
#
# _framework density 17.610900000000001
#
# number of rings (size 3 to 8) (size 9 to 14) (size 15 to 20)
#    0.000    2.571    1.429    0.000    2.000    2.286 
#    0.000    0.714    0.000    0.000    0.000    0.000 
#    0.000    0.000    0.000    0.000    0.000    0.000 
#
# Total GULP energy -347007.969818 kJ/mol
# GULP energy per Si atom -12393.141779 kJ/mol
# Density = 1.757082 g / cm^3
# Si number density = 17.610900 Si / 1000 Ang^3
#
#
#
# Elastic Constant Matrix: (Units=GPa)
#
#
# Indices 1 2 3 4 5 6 
#
# 1 85.1526 42.0024 30.5491 0.0000 18.2180 0.0000
# 2 42.0024 51.7691 26.4945 0.0000 12.6359 0.0000
# 3 30.5491 26.4945 71.2081 0.0000 19.8652 0.0000
# 4 0.0000 0.0000 0.0000 22.5884 0.0000 3.8713
# 5 18.2180 12.6359 19.8652 0.0000 31.6103 0.0000
# 6 0.0000 0.0000 0.0000 3.8713 0.0000 33.6951
#
#
#
# Elastic Compliance Matrix: (Units=1/GPa)
#
#
# Indices 1 2 3 4 5 6 
#
# 1 0.020704 -0.014536 -0.002141 0.000000 -0.004776 0.000000
# 2 -0.014536 0.034682 -0.006230 0.000000 -0.001571 0.000000
# 3 -0.002141 -0.006230 0.019694 0.000000 -0.008652 0.000000
# 4 0.000000 0.000000 0.000000 0.045160 0.000000 -0.005188
# 5 -0.004776 -0.001571 -0.008652 0.000000 0.040453 0.000000
# 6 0.000000 0.000000 0.000000 -0.005188 0.000000 0.030274
#
#
# Mechanical properties :
#
#
# Convention : Reuss Voigt Hill
#
# Bulk Modulus (GPa) = 34.17059 45.13576 39.65318
# Shear Modulus (GPa) = 20.28104 24.85100 22.56602
#
# Velocity S-wave (km/s) = 3.39723 3.76056 3.58350
# Velocity P-wave (km/s) = 5.90199 6.67389 6.29977
#
# Compressibility (1/GPa) = 0.02926493
#
# Stress axis : x y z
#
# Youngs Moduli (GPa) = 48.30044 28.83329 50.77810
#
# Poissons Ratio (x) = 0.41913 0.10873
# Poissons Ratio (y) = 0.70211 0.31633
# Poissons Ratio (z) = 0.10343 0.17962
#
# Static dielectric constant tensor:
#      x y z
#    x 2.719370 0.000000 0.072540 
#    y 0.000000 3.299140 0.000000 
#    z 0.072540 0.000000 4.149370 
# 
# 
# High freq. dielectric constant tensor:
#      x y z
#    x 1.653180 0.000000 0.002520 
#    y 0.000000 1.681930 0.000000 
#    z 0.002520 0.000000 1.701150 
# 
# From -- ./inp_files/28229.got.cif
#   From: 2010.06.25/outbox.cif.g09.slc.cpg/sg11_15_cif.got.tgz:28229.got - 2010.06.27 23:14:04.
