data_PCOD8074033
_publ_section_title
;
Structure prediction by ZEFSAII (Michael W. Deem and Ramdas Pophale) SiO2 
 PCOD8074033
Probable space group: P 21/M
;
_chemical_formula_sum "Si O2"
_cell_formula_units_Z 24
_cell_length_a 9.477700
_cell_length_b 8.672773
_cell_length_c 15.261059
_cell_angle_alpha 90.000000
_cell_angle_beta 89.063885
_cell_angle_gamma 90.000000
_cell_volume 1254.260198
_symmetry_space_group_name_H-M "P 21/M"
_symmetry_group_IT_number 11
_symmetry_cell_setting 'monoclinic'
loop_
_space_group_symop_operation_xyz
x,y,z
-x,1/2+y,-z
-x,-y,-z
x,1/2-y,z
loop_
_atom_site_type_symbol
_atom_site_label
_atom_site_fract_x
_atom_site_fract_y
_atom_site_fract_z
Si Si1 0.153715 0.931208 0.004977
Si Si2 0.846171 0.067610 0.492521
Si Si3 0.650420 0.431932 0.156202
Si Si4 0.328212 0.067841 0.658571
Si Si5 0.354738 0.931564 0.354617
Si Si6 0.350558 0.932239 0.158453
O O1 0.139216 0.750000 0.005175
O O2 0.247272 0.986540 0.922488
O O3 0.227468 0.986423 0.094351
O O4 0.000000 0.000000 0.000000
O O5 0.854537 0.250000 0.498845
O O6 0.749279 0.996536 0.571658
O O7 0.783418 0.019010 0.400327
O O8 0.000000 0.000000 0.500000
O O9 0.657494 0.250000 0.172809
O O10 0.703122 0.522054 0.241347
O O11 0.492684 0.479272 0.130808
O O12 0.310735 0.250000 0.647600
O O13 0.485447 0.009984 0.631184
O O14 0.353588 0.750000 0.364582
O O15 0.303871 0.978662 0.257596
O O16 0.381224 0.750000 0.151508
#
# Coordination Sequence:
#
# PCOD8074033 Si02
#       6
#     4   4   4   4   4   4
#     4  10  22  36  53  79 113 147 181 218 264 319
#     4  11  22  36  53  79 113 146 178 220 269 322
#     4  10  20  35  55  83 111 138 176 225 271 316
#     4  10  20  37  59  81 103 138 183 225 270 322
#     4   8  17  34  57  80 104 135 177 222 266 315
#     4   9  18  36  58  80 104 138 181 222 264 320
#
# _framework density 19.134784
#
# number of rings (size 3 to 8) (size 9 to 14) (size 15 to 20)
#    0.000    2.333    0.000    3.500    0.000    3.333 
#    0.000    9.167    0.000    0.000    0.000    0.000 
#    0.000    0.000    0.000    0.000    0.000    0.000 
#
# Total GULP energy -297619.052060 kJ/mol
# GULP energy per Si atom -12400.793836 kJ/mol
# Density = 1.909123 g / cm^3
# Si number density = 19.134784 Si / 1000 Ang^3
#
#
#
# Elastic Constant Matrix: (Units=GPa)
#
#
# Indices 1 2 3 4 5 6 
#
# 1 128.9619 27.4911 80.8566 0.0000 23.1885 0.0000
# 2 27.4911 42.6741 25.8210 0.0000 0.7321 0.0000
# 3 80.8566 25.8210 124.1155 0.0000 19.9314 0.0000
# 4 0.0000 0.0000 0.0000 24.6760 0.0000 2.5017
# 5 23.1885 0.7321 19.9314 0.0000 25.7472 0.0000
# 6 0.0000 0.0000 0.0000 2.5017 0.0000 33.6886
#
#
#
# Elastic Compliance Matrix: (Units=1/GPa)
#
#
# Indices 1 2 3 4 5 6 
#
# 1 0.014790 -0.004911 -0.007419 0.000000 -0.007437 0.000000
# 2 -0.004911 0.028816 -0.003853 0.000000 0.006587 0.000000
# 3 -0.007419 -0.003853 0.014390 0.000000 -0.004348 0.000000
# 4 0.000000 0.000000 0.000000 0.040833 0.000000 -0.003032
# 5 -0.007437 0.006587 -0.004348 0.000000 0.048716 0.000000
# 6 0.000000 0.000000 0.000000 -0.003032 0.000000 0.029909
#
#
# Mechanical properties :
#
#
# Convention : Reuss Voigt Hill
#
# Bulk Modulus (GPa) = 39.01808 62.67656 50.84732
# Shear Modulus (GPa) = 22.89760 27.59456 25.24608
#
# Velocity S-wave (km/s) = 3.46301 3.80164 3.63627
# Velocity P-wave (km/s) = 6.03535 7.21778 6.65288
#
# Compressibility (1/GPa) = 0.02562914
#
# Stress axis : x y z
#
# Youngs Moduli (GPa) = 67.61259 34.70334 69.49184
#
# Poissons Ratio (x) = 0.17044 0.51557
# Poissons Ratio (y) = 0.33206 0.26775
# Poissons Ratio (z) = 0.50163 0.13371
#
# Static dielectric constant tensor:
#      x y z
#    x 3.320000 0.000000 -0.047820 
#    y 0.000000 3.346420 0.000000 
#    z -0.047820 0.000000 3.822990 
# 
# 
# High freq. dielectric constant tensor:
#      x y z
#    x 1.740700 0.000000 0.002650 
#    y 0.000000 1.730740 0.000000 
#    z 0.002650 0.000000 1.759380 
# 
# From -- ./inp_files/20370.got.cif
#   From: 2010.06.25/outbox.cif.g09.slc.cpg/sg11_11_cif.got.tgz:20370.got - 2010.06.27 23:14:04.
