data_PCOD8074719
_publ_section_title
;
Structure prediction by ZEFSAII (Michael W. Deem and Ramdas Pophale) SiO2 
 PCOD8074719
Probable space group: P 21/M
;
_chemical_formula_sum "Si O2"
_cell_formula_units_Z 32
_cell_length_a 10.699325
_cell_length_b 22.753932
_cell_length_c 6.597903
_cell_angle_alpha 90.000000
_cell_angle_beta 108.962771
_cell_angle_gamma 90.000000
_cell_volume 1519.098346
_symmetry_space_group_name_H-M "P 21/M"
_symmetry_group_IT_number 11
_symmetry_cell_setting 'monoclinic'
loop_
_space_group_symop_operation_xyz
x,y,z
-x,1/2+y,-z
-x,-y,-z
x,1/2-y,z
loop_
_atom_site_type_symbol
_atom_site_label
_atom_site_fract_x
_atom_site_fract_y
_atom_site_fract_z
Si Si1 0.139161 0.524351 0.020201
Si Si2 0.671684 0.813765 0.284737
Si Si3 0.462144 0.940689 0.873039
Si Si4 0.864688 0.359720 0.239629
Si Si5 0.739753 0.597485 0.994800
Si Si6 0.265720 0.592840 0.445928
Si Si7 0.141799 0.315700 0.253138
Si Si8 0.375030 0.652013 0.131250
O O1 0.125706 0.575992 0.852956
O O2 0.219079 0.470421 0.960573
O O3 0.195055 0.546294 0.264536
O O4 0.000000 0.500000 0.000000
O O5 0.713187 0.750000 0.214213
O O6 0.740020 0.868034 0.207427
O O7 0.728226 0.818884 0.539668
O O8 0.511415 0.812461 0.195642
O O9 0.364317 0.946854 0.632254
O O10 0.586137 0.904160 0.847522
O O11 0.390380 0.909303 0.021970
O O12 0.500000 0.000000 0.000000
O O13 0.830819 0.369047 0.459569
O O14 0.005506 0.327346 0.301394
O O15 0.752068 0.320689 0.058920
O O16 0.837393 0.633662 0.901557
O O17 0.341166 0.641042 0.348437
O O18 0.133822 0.250000 0.153426
#
# Coordination Sequence:
#
# PCOD8074719 Si02
#       8
#     4   4   4   4   4   4   4   4
#     4  11  23  38  58  92 122 160 206 240 302 374
#     4  10  23  41  62  88 118 157 204 254 308 364
#     4  10  20  36  58  90 120 152 195 237 296 360
#     4  10  22  40  60  90 123 161 205 250 302 369
#     4  11  22  39  63  86 123 157 195 251 307 362
#     4  10  21  37  59  83 125 159 191 250 299 348
#     4  11  24  40  60  88 119 157 207 252 305 365
#     4   9  20  38  59  85 115 151 203 243 293 358
#
# _framework density 21.065128000000001
#
# number of rings (size 3 to 8) (size 9 to 14) (size 15 to 20)
#    0.000    1.750    1.250    3.375    1.750    6.000 
#    0.000    0.625    0.000    0.000    0.000    0.000 
#    0.000    0.000    0.000    0.000    0.000    0.000 
#
# Total GULP energy -396472.629321 kJ/mol
# GULP energy per Si atom -12389.769666 kJ/mol
# Density = 2.101718 g / cm^3
# Si number density = 21.065128 Si / 1000 Ang^3
#
#
#
# Elastic Constant Matrix: (Units=GPa)
#
#
# Indices 1 2 3 4 5 6 
#
# 1 101.9714 7.8569 26.8279 0.0000 -5.1381 0.0000
# 2 7.8569 76.7507 29.7281 0.0000 -0.8419 0.0000
# 3 26.8279 29.7281 85.9257 0.0000 -8.4810 0.0000
# 4 0.0000 0.0000 0.0000 20.3208 0.0000 -0.1981
# 5 -5.1381 -0.8419 -8.4810 0.0000 35.8601 0.0000
# 6 0.0000 0.0000 0.0000 -0.1981 0.0000 24.2974
#
#
#
# Elastic Compliance Matrix: (Units=1/GPa)
#
#
# Indices 1 2 3 4 5 6 
#
# 1 0.010707 0.000206 -0.003340 0.000000 0.000749 0.000000
# 2 0.000206 0.015078 -0.005368 0.000000 -0.000886 0.000000
# 3 -0.003340 -0.005368 0.014825 0.000000 0.002901 0.000000
# 4 0.000000 0.000000 0.000000 0.049214 0.000000 0.000401
# 5 0.000749 -0.000886 0.002901 0.000000 0.028659 0.000000
# 6 0.000000 0.000000 0.000000 0.000401 0.000000 0.041160
#
#
# Mechanical properties :
#
#
# Convention : Reuss Voigt Hill
#
# Bulk Modulus (GPa) = 42.36529 43.71927 43.04228
# Shear Modulus (GPa) = 27.09786 29.44466 28.27126
#
# Velocity S-wave (km/s) = 3.59051 3.74276 3.66743
# Velocity P-wave (km/s) = 6.11100 6.28308 6.19763
#
# Compressibility (1/GPa) = 0.02360423
#
# Stress axis : x y z
#
# Youngs Moduli (GPa) = 93.39357 66.32310 67.45564
#
# Poissons Ratio (x) = -0.01366 0.22533
# Poissons Ratio (y) = -0.01924 0.36212
# Poissons Ratio (z) = 0.31197 0.35604
#
# Static dielectric constant tensor:
#      x y z
#    x 6.544470 0.000000 -0.210610 
#    y 0.000000 3.050730 0.000000 
#    z -0.210610 0.000000 3.720070 
# 
# 
# High freq. dielectric constant tensor:
#      x y z
#    x 1.849150 0.000000 0.003660 
#    y 0.000000 1.814720 0.000000 
#    z 0.003660 0.000000 1.813560 
# 
# From -- ./inp_files/5485.got.cif
#   From: 2010.06.25/outbox.cif.g09.slc.cpg/sg11_3_cif.got.tgz:5485.got - 2010.06.27 23:14:04.
