data_PCOD8074795
_publ_section_title
;
Structure prediction by ZEFSAII (Michael W. Deem and Ramdas Pophale) SiO2 
 PCOD8074795
Probable space group: P 21/M
;
_chemical_formula_sum "Si O2"
_cell_formula_units_Z 28
_cell_length_a 25.906731
_cell_length_b 9.106216
_cell_length_c 9.810308
_cell_angle_alpha 90.000000
_cell_angle_beta 140.769848
_cell_angle_gamma 90.000000
_cell_volume 1463.694689
_symmetry_space_group_name_H-M "P 21/M"
_symmetry_group_IT_number 11
_symmetry_cell_setting 'monoclinic'
loop_
_space_group_symop_operation_xyz
x,y,z
-x,1/2+y,-z
-x,-y,-z
x,1/2-y,z
loop_
_atom_site_type_symbol
_atom_site_label
_atom_site_fract_x
_atom_site_fract_y
_atom_site_fract_z
Si Si1 0.760825 0.917242 0.999283
Si Si2 0.067794 0.422688 0.047944
Si Si3 0.689827 0.918602 0.142214
Si Si4 0.481752 0.080476 0.322849
Si Si5 0.761435 0.424067 0.544078
Si Si6 0.064030 0.420852 0.725749
Si Si7 0.345998 0.918465 0.423150
O O1 0.756408 0.750000 0.941183
O O2 0.751608 0.931462 0.142175
O O3 0.846904 0.985983 0.128309
O O4 0.686585 0.998501 0.775568
O O5 0.071387 0.250000 0.088891
O O6 0.154606 0.493045 0.257655
O O7 0.044098 0.450863 0.842618
O O8 0.000000 0.500000 0.000000
O O9 0.685959 0.750000 0.186708
O O10 0.724121 0.026865 0.325295
O O11 0.600215 0.977476 0.916967
O O12 0.469204 0.250000 0.335095
O O13 0.556517 0.056315 0.370110
O O14 0.500000 0.000000 0.500000
O O15 0.776749 0.250000 0.573962
O O16 0.696657 0.474336 0.526301
O O17 0.060917 0.250000 0.683499
O O18 0.000000 0.500000 0.500000
O O19 0.324226 0.750000 0.355495
#
# Coordination Sequence:
#
# PCOD8074795 Si02
#       7
#     4   4   4   4   4   4   4
#     4  10  20  38  61  87 116 154 199 241 292 355
#     4  11  24  43  65  90 121 158 199 243 297 356
#     4  10  22  38  59  88 121 158 199 247 299 354
#     4  10  20  36  59  88 120 154 198 248 302 354
#     4  11  24  41  60  87 122 160 201 244 295 355
#     4  10  23  40  61  90 120 152 195 240 290 352
#     4  10  21  37  60  88 119 156 197 246 297 351
#
# _framework density 19.129673
#
# number of rings (size 3 to 8) (size 9 to 14) (size 15 to 20)
#    0.000    1.714    2.857    0.857    2.000    4.000 
#    0.000    0.000    0.000    0.000    0.000    0.000 
#    0.000    0.000    0.000    0.000    0.000    0.000 
#
# Total GULP energy -347276.966153 kJ/mol
# GULP energy per Si atom -12402.748791 kJ/mol
# Density = 1.908613 g / cm^3
# Si number density = 19.129673 Si / 1000 Ang^3
#
#
#
# Elastic Constant Matrix: (Units=GPa)
#
#
# Indices 1 2 3 4 5 6 
#
# 1 131.4634 48.4712 47.5998 0.0000 8.2236 0.0000
# 2 48.4712 73.1617 55.0256 0.0000 -0.6721 0.0000
# 3 47.5998 55.0256 113.8598 0.0000 -1.1175 0.0000
# 4 0.0000 0.0000 0.0000 37.2457 0.0000 -2.5485
# 5 8.2236 -0.6721 -1.1175 0.0000 29.8189 0.0000
# 6 0.0000 0.0000 0.0000 -2.5485 0.0000 27.1139
#
#
#
# Elastic Compliance Matrix: (Units=1/GPa)
#
#
# Indices 1 2 3 4 5 6 
#
# 1 0.010520 -0.005762 -0.001644 0.000000 -0.003093 0.000000
# 2 -0.005762 0.024629 -0.009476 0.000000 0.001789 0.000000
# 3 -0.001644 -0.009476 0.014057 0.000000 0.000767 0.000000
# 4 0.000000 0.000000 0.000000 0.027023 0.000000 0.002540
# 5 -0.003093 0.001789 0.000767 0.000000 0.034458 0.000000
# 6 0.000000 0.000000 0.000000 0.002540 0.000000 0.037120
#
#
# Mechanical properties :
#
#
# Convention : Reuss Voigt Hill
#
# Bulk Modulus (GPa) = 64.75647 68.96422 66.86035
# Shear Modulus (GPa) = 26.77841 29.99494 28.38668
#
# Velocity S-wave (km/s) = 3.74550 3.96407 3.85633
# Velocity P-wave (km/s) = 7.25464 7.55519 7.40644
#
# Compressibility (1/GPa) = 0.01544247
#
# Stress axis : x y z
#
# Youngs Moduli (GPa) = 95.06046 40.60201 71.13819
#
# Poissons Ratio (x) = 0.23393 0.11693
# Poissons Ratio (y) = 0.54770 0.67414
# Poissons Ratio (z) = 0.15625 0.38476
#
# Static dielectric constant tensor:
#      x y z
#    x 3.864750 0.000000 0.187180 
#    y 0.000000 3.473440 0.000000 
#    z 0.187180 0.000000 3.486210 
# 
# 
# High freq. dielectric constant tensor:
#      x y z
#    x 1.761340 0.000000 0.007770 
#    y 0.000000 1.740800 0.000000 
#    z 0.007770 0.000000 1.742610 
# 
# From -- ./inp_files/28579.got.cif
#   From: 2010.06.25/outbox.cif.g09.slc.cpg/sg11_15_cif.got.tgz:28579.got - 2010.06.27 23:14:04.
