data_PCOD8074180
_publ_section_title
;
Structure prediction by ZEFSAII (Michael W. Deem and Ramdas Pophale) SiO2 
 PCOD8074180
Probable space group: P 21/M
;
_chemical_formula_sum "Si O2"
_cell_formula_units_Z 28
_cell_length_a 20.817914
_cell_length_b 8.940366
_cell_length_c 15.897143
_cell_angle_alpha 90.000000
_cell_angle_beta 28.339265
_cell_angle_gamma 90.000000
_cell_volume 1404.504183
_symmetry_space_group_name_H-M "P 21/M"
_symmetry_group_IT_number 11
_symmetry_cell_setting 'monoclinic'
loop_
_space_group_symop_operation_xyz
x,y,z
-x,1/2+y,-z
-x,-y,-z
x,1/2-y,z
loop_
_atom_site_type_symbol
_atom_site_label
_atom_site_fract_x
_atom_site_fract_y
_atom_site_fract_z
Si Si1 0.927383 0.420470 0.660243
Si Si2 0.799278 0.073614 0.406736
Si Si3 0.655377 0.418886 0.890767
Si Si4 0.669003 0.077112 0.236922
Si Si5 0.633383 0.576500 0.450979
Si Si6 0.647121 0.577175 0.731319
Si Si7 0.942661 0.073709 0.830395
O O1 0.973991 0.250000 0.602645
O O2 0.765872 0.436383 0.836199
O O3 0.963860 0.486036 0.710118
O O4 0.000000 0.500000 0.500000
O O5 0.808970 0.250000 0.390515
O O6 0.714816 0.016273 0.425407
O O7 0.727696 0.025191 0.574742
O O8 0.951092 0.007282 0.230768
O O9 0.653217 0.250000 0.856369
O O10 0.690540 0.533130 0.775479
O O11 0.511640 0.455790 0.098579
O O12 0.676007 0.250000 0.257473
O O13 0.527096 0.045502 0.353194
O O14 0.682580 0.973458 0.302643
O O15 0.790684 0.034716 0.034294
O O16 0.667261 0.750000 0.424621
O O17 0.684128 0.750000 0.672685
O O18 0.968121 0.250000 0.805381
#
# Coordination Sequence:
#
# PCOD8074180 Si02
#       7
#     4   4   4   4   4   4   4
#     4  10  21  36  56  81 113 154 196 240 290 346
#     4  12  25  39  57  85 121 158 199 247 295 347
#     4   9  19  35  56  81 112 150 194 244 298 353
#     4   9  20  40  66  93 121 151 193 244 295 356
#     4  10  21  39  66  93 121 155 192 238 299 359
#     4  10  20  35  57  82 114 151 196 246 298 354
#     4  10  22  40  62  87 117 157 202 244 296 355
#
# _framework density 19.935860000000002
#
# number of rings (size 3 to 8) (size 9 to 14) (size 15 to 20)
#    0.000    2.000    0.000    3.000    2.000    5.714 
#    0.000    0.000    0.000    0.000    0.000    0.000 
#    0.000    0.000    0.000    0.000    0.000    0.000 
#
# Total GULP energy -347256.819390 kJ/mol
# GULP energy per Si atom -12402.029264 kJ/mol
# Density = 1.989049 g / cm^3
# Si number density = 19.935860 Si / 1000 Ang^3
#
#
#
# Elastic Constant Matrix: (Units=GPa)
#
#
# Indices 1 2 3 4 5 6 
#
# 1 115.6630 51.7742 53.4243 0.0000 -13.2114 0.0000
# 2 51.7742 92.3567 51.3464 0.0000 -2.3434 0.0000
# 3 53.4243 51.3464 114.2628 0.0000 -2.1365 0.0000
# 4 0.0000 0.0000 0.0000 28.7924 0.0000 2.8196
# 5 -13.2114 -2.3434 -2.1365 0.0000 19.3765 0.0000
# 6 0.0000 0.0000 0.0000 2.8196 0.0000 29.2925
#
#
#
# Elastic Compliance Matrix: (Units=1/GPa)
#
#
# Indices 1 2 3 4 5 6 
#
# 1 0.013790 -0.005360 -0.003883 0.000000 0.008326 0.000000
# 2 -0.005360 0.016538 -0.004967 0.000000 -0.002202 0.000000
# 3 -0.003883 -0.004967 0.012765 0.000000 -0.001841 0.000000
# 4 0.000000 0.000000 0.000000 0.035062 0.000000 -0.003375
# 5 0.008326 -0.002202 -0.001841 0.000000 0.056816 0.000000
# 6 0.000000 0.000000 0.000000 -0.003375 0.000000 0.034463
#
#
# Mechanical properties :
#
#
# Convention : Reuss Voigt Hill
#
# Bulk Modulus (GPa) = 68.15485 70.59691 69.37588
# Shear Modulus (GPa) = 24.66156 26.54145 25.60150
#
# Velocity S-wave (km/s) = 3.52098 3.65271 3.58745
# Velocity P-wave (km/s) = 7.12678 7.29922 7.21352
#
# Compressibility (1/GPa) = 0.01467247
#
# Stress axis : x y z
#
# Youngs Moduli (GPa) = 72.51726 60.46730 78.34105
#
# Poissons Ratio (x) = 0.32413 0.30420
# Poissons Ratio (y) = 0.38872 0.38908
# Poissons Ratio (z) = 0.28159 0.30031
#
# Static dielectric constant tensor:
#      x y z
#    x 3.764460 0.000000 -0.180910 
#    y 0.000000 3.618810 0.000000 
#    z -0.180910 0.000000 3.709130 
# 
# 
# High freq. dielectric constant tensor:
#      x y z
#    x 1.781500 0.000000 -0.013130 
#    y 0.000000 1.773020 0.000000 
#    z -0.013130 0.000000 1.781520 
# 
# From -- ./inp_files/54498.got.cif
#   From: 2010.06.25/outbox.cif.g09.slc.cpg/sg11_28_cif.got.tgz:54498.got - 2010.06.27 23:14:04.
