data_PCOD8074103
_publ_section_title
;
Structure prediction by ZEFSAII (Michael W. Deem and Ramdas Pophale) SiO2 
 PCOD8074103
Probable space group: P 21/M
;
_chemical_formula_sum "Si O2"
_cell_formula_units_Z 28
_cell_length_a 20.678836
_cell_length_b 9.048924
_cell_length_c 15.755444
_cell_angle_alpha 90.000000
_cell_angle_beta 151.662237
_cell_angle_gamma 90.000000
_cell_volume 1399.406909
_symmetry_space_group_name_H-M "P 21/M"
_symmetry_group_IT_number 11
_symmetry_cell_setting 'monoclinic'
loop_
_space_group_symop_operation_xyz
x,y,z
-x,1/2+y,-z
-x,-y,-z
x,1/2-y,z
loop_
_atom_site_type_symbol
_atom_site_label
_atom_site_fract_x
_atom_site_fract_y
_atom_site_fract_z
Si Si1 0.125009 0.922740 0.038199
Si Si2 0.839527 0.917010 0.381697
Si Si3 0.708986 0.921133 0.909551
Si Si4 0.429835 0.579277 0.668753
Si Si5 0.145943 0.578085 0.769201
Si Si6 0.148812 0.922710 0.261779
Si Si7 0.430259 0.081023 0.841766
O O1 0.118846 0.750000 0.011944
O O2 0.161412 0.959333 0.177029
O O3 0.244449 0.993548 0.120533
O O4 0.978089 0.990543 0.843972
O O5 0.840065 0.750000 0.345731
O O6 0.732418 0.933653 0.334230
O O7 0.985543 0.957201 0.589113
O O8 0.797806 0.026559 0.257234
O O9 0.746278 0.750000 0.942544
O O10 0.785187 0.983156 0.079042
O O11 0.546883 0.944301 0.733506
O O12 0.418536 0.750000 0.681699
O O13 0.287375 0.521618 0.465995
O O14 0.471950 0.489796 0.800886
O O15 0.179242 0.750000 0.820702
O O16 0.124377 0.750000 0.248480
O O17 0.478800 0.250000 0.897101
O O18 0.500000 0.000000 0.000000
#
# Coordination Sequence:
#
# PCOD8074103 Si02
#       7
#     4   4   4   4   4   4   4
#     4  10  21  38  63  91 120 152 193 243 293 351
#     4   9  20  37  54  77 110 148 189 240 295 345
#     4  11  23  38  57  84 119 157 193 239 294 346
#     4  10  23  41  60  85 119 157 199 244 291 350
#     4  10  20  35  56  82 112 146 193 243 289 345
#     4   9  20  41  64  89 119 154 194 240 295 352
#     4  11  23  38  57  82 115 155 198 244 293 345
#
# _framework density 20.008476000000002
#
# number of rings (size 3 to 8) (size 9 to 14) (size 15 to 20)
#    0.000    2.000    0.000    2.571    2.000    8.000 
#    0.000    0.000    0.000    0.000    0.000    0.000 
#    0.000    0.000    0.000    0.000    0.000    0.000 
#
# Total GULP energy -347319.986533 kJ/mol
# GULP energy per Si atom -12404.285233 kJ/mol
# Density = 1.996294 g / cm^3
# Si number density = 20.008476 Si / 1000 Ang^3
#
#
#
# Elastic Constant Matrix: (Units=GPa)
#
#
# Indices 1 2 3 4 5 6 
#
# 1 102.5184 47.5944 32.1290 0.0000 8.4981 0.0000
# 2 47.5944 91.4995 43.9465 0.0000 4.1726 0.0000
# 3 32.1290 43.9465 95.0566 0.0000 -1.1278 0.0000
# 4 0.0000 0.0000 0.0000 27.9009 0.0000 -1.0898
# 5 8.4981 4.1726 -1.1278 0.0000 18.8291 0.0000
# 6 0.0000 0.0000 0.0000 -1.0898 0.0000 39.1632
#
#
#
# Elastic Compliance Matrix: (Units=1/GPa)
#
#
# Indices 1 2 3 4 5 6 
#
# 1 0.013484 -0.005879 -0.001898 0.000000 -0.004897 0.000000
# 2 -0.005879 0.016847 -0.005818 0.000000 -0.001428 0.000000
# 3 -0.001898 -0.005818 0.013887 0.000000 0.002978 0.000000
# 4 0.000000 0.000000 0.000000 0.035880 0.000000 0.000998
# 5 -0.004897 -0.001428 0.002978 0.000000 0.055814 0.000000
# 6 0.000000 0.000000 0.000000 0.000998 0.000000 0.025562
#
#
# Mechanical properties :
#
#
# Convention : Reuss Voigt Hill
#
# Bulk Modulus (GPa) = 58.72931 59.60158 59.16545
# Shear Modulus (GPa) = 25.72800 28.20563 26.96681
#
# Velocity S-wave (km/s) = 3.58977 3.75865 3.67518
# Velocity P-wave (km/s) = 6.82626 6.97778 6.90244
#
# Compressibility (1/GPa) = 0.01702727
#
# Stress axis : x y z
#
# Youngs Moduli (GPa) = 74.15928 59.35816 72.01111
#
# Poissons Ratio (x) = 0.34899 0.13666
# Poissons Ratio (y) = 0.43601 0.41899
# Poissons Ratio (z) = 0.14073 0.34537
#
# Static dielectric constant tensor:
#      x y z
#    x 3.731420 0.000000 0.212150 
#    y 0.000000 3.684970 0.000000 
#    z 0.212150 0.000000 3.654750 
# 
# 
# High freq. dielectric constant tensor:
#      x y z
#    x 1.783980 0.000000 0.012250 
#    y 0.000000 1.786120 0.000000 
#    z 0.012250 0.000000 1.779890 
# 
# From -- ./inp_files/54596.got.cif
#   From: 2010.06.25/outbox.cif.g09.slc.cpg/sg11_28_cif.got.tgz:54596.got - 2010.06.27 23:14:04.
