data_PCOD8074427
_publ_section_title
;
Structure prediction by ZEFSAII (Michael W. Deem and Ramdas Pophale) SiO2 
 PCOD8074427
Probable space group: P 21/M
;
_chemical_formula_sum "Si O2"
_cell_formula_units_Z 32
_cell_length_a 12.729621
_cell_length_b 9.058916
_cell_length_c 31.475382
_cell_angle_alpha 90.000000
_cell_angle_beta 26.207995
_cell_angle_gamma 90.000000
_cell_volume 1602.958641
_symmetry_space_group_name_H-M "P 21/M"
_symmetry_group_IT_number 11
_symmetry_cell_setting 'monoclinic'
loop_
_space_group_symop_operation_xyz
x,y,z
-x,1/2+y,-z
-x,-y,-z
x,1/2-y,z
loop_
_atom_site_type_symbol
_atom_site_label
_atom_site_fract_x
_atom_site_fract_y
_atom_site_fract_z
Si Si1 0.010856 0.079788 0.141175
Si Si2 0.106547 0.578669 0.420909
Si Si3 0.661433 0.579172 0.205015
Si Si4 0.254884 0.080818 0.596944
Si Si5 0.547061 0.919335 0.077841
Si Si6 0.063024 0.580761 0.210110
Si Si7 0.046379 0.084763 0.360337
Si Si8 0.601481 0.085266 0.143590
O O1 0.933814 0.250000 0.169729
O O2 0.023204 0.021820 0.184404
O O3 0.268864 0.058494 0.027061
O O4 0.813727 0.990558 0.187199
O O5 0.038372 0.750000 0.446247
O O6 0.388331 0.554715 0.316675
O O7 0.977611 0.502619 0.427784
O O8 0.000000 0.500000 0.500000
O O9 0.725224 0.750000 0.177555
O O10 0.728657 0.504171 0.135495
O O11 0.280609 0.250000 0.573574
O O12 0.174010 0.068434 0.675228
O O13 0.500000 0.000000 0.500000
O O14 0.051207 0.004539 0.643764
O O15 0.525846 0.750000 0.100241
O O16 0.291878 0.976181 0.153694
O O17 0.643383 0.010190 0.083007
O O18 0.105951 0.750000 0.180080
O O19 0.937263 0.250000 0.401823
O O20 0.325816 0.091815 0.253841
O O21 0.710121 0.250000 0.102758
#
# Coordination Sequence:
#
# PCOD8074427 Si02
#       8
#     4   4   4   4   4   4   4   4
#     4  11  24  39  60  89 122 158 199 250 300 351
#     4  10  21  37  60  87 114 152 197 243 296 355
#     4  10  22  40  60  83 119 160 197 241 299 360
#     4  11  23  39  61  88 119 156 197 245 299 354
#     4  10  21  39  62  89 119 156 201 245 297 360
#     4  10  22  41  63  85 118 160 200 244 298 359
#     4  10  20  36  58  85 116 149 191 243 294 351
#     4  10  20  35  61  91 117 150 195 247 294 346
#
# _framework density 19.963087000000002
#
# number of rings (size 3 to 8) (size 9 to 14) (size 15 to 20)
#    0.000    1.750    1.250    2.625    0.000    6.500 
#    0.000    1.250    0.000    0.000    0.000    0.000 
#    0.000    0.000    0.000    0.000    0.000    0.000 
#
# Total GULP energy -396921.872714 kJ/mol
# GULP energy per Si atom -12403.808522 kJ/mol
# Density = 1.991765 g / cm^3
# Si number density = 19.963087 Si / 1000 Ang^3
#
#
#
# Elastic Constant Matrix: (Units=GPa)
#
#
# Indices 1 2 3 4 5 6 
#
# 1 116.0121 70.9285 32.1155 0.0000 17.4528 0.0000
# 2 70.9285 155.7416 47.4547 0.0000 8.0125 0.0000
# 3 32.1155 47.4547 58.2470 0.0000 13.4123 0.0000
# 4 0.0000 0.0000 0.0000 31.3181 0.0000 4.6604
# 5 17.4528 8.0125 13.4123 0.0000 27.6932 0.0000
# 6 0.0000 0.0000 0.0000 4.6604 0.0000 43.2093
#
#
#
# Elastic Compliance Matrix: (Units=1/GPa)
#
#
# Indices 1 2 3 4 5 6 
#
# 1 0.013140 -0.005173 -0.001653 0.000000 -0.005984 0.000000
# 2 -0.005173 0.010603 -0.006562 0.000000 0.003371 0.000000
# 3 -0.001653 -0.006562 0.025604 0.000000 -0.009460 0.000000
# 4 0.000000 0.000000 0.000000 0.032451 0.000000 -0.003500
# 5 -0.005984 0.003371 -0.009460 0.000000 0.043488 0.000000
# 6 0.000000 0.000000 0.000000 -0.003500 0.000000 0.023521
#
#
# Mechanical properties :
#
#
# Convention : Reuss Voigt Hill
#
# Bulk Modulus (GPa) = 44.30342 70.11090 57.20716
# Shear Modulus (GPa) = 27.30645 32.41093 29.85869
#
# Velocity S-wave (km/s) = 3.70245 4.03369 3.87162
# Velocity P-wave (km/s) = 6.36541 7.54260 6.97887
#
# Compressibility (1/GPa) = 0.02257162
#
# Stress axis : x y z
#
# Youngs Moduli (GPa) = 76.10225 94.31378 39.05591
#
# Poissons Ratio (x) = 0.48788 0.06455
# Poissons Ratio (y) = 0.39367 0.25630
# Poissons Ratio (z) = 0.12577 0.61891
#
# Static dielectric constant tensor:
#      x y z
#    x 3.775440 0.000000 0.007820 
#    y 0.000000 3.996370 0.000000 
#    z 0.007820 0.000000 3.523810 
# 
# 
# High freq. dielectric constant tensor:
#      x y z
#    x 1.783310 0.000000 0.006570 
#    y 0.000000 1.791750 0.000000 
#    z 0.006570 0.000000 1.774270 
# 
# From -- ./inp_files/45301.got.cif
#   From: 2010.06.25/outbox.cif.g09.slc.cpg/sg11_23_cif.got.tgz:45301.got - 2010.06.27 23:14:04.
