data_PCOD8074851
_publ_section_title
;
Structure prediction by ZEFSAII (Michael W. Deem and Ramdas Pophale) SiO2 
 PCOD8074851
Probable space group: P 21/M
;
_chemical_formula_sum "Si O2"
_cell_formula_units_Z 32
_cell_length_a 21.655540
_cell_length_b 8.689824
_cell_length_c 27.991782
_cell_angle_alpha 90.000000
_cell_angle_beta 18.804012
_cell_angle_gamma 90.000000
_cell_volume 1697.907173
_symmetry_space_group_name_H-M "P 21/M"
_symmetry_group_IT_number 11
_symmetry_cell_setting 'monoclinic'
loop_
_space_group_symop_operation_xyz
x,y,z
-x,1/2+y,-z
-x,-y,-z
x,1/2-y,z
loop_
_atom_site_type_symbol
_atom_site_label
_atom_site_fract_x
_atom_site_fract_y
_atom_site_fract_z
Si Si1 0.579306 0.067849 0.835329
Si Si2 0.789067 0.068302 0.155530
Si Si3 0.489287 0.431695 0.455303
Si Si4 0.104462 0.567281 0.322757
Si Si5 0.816103 0.432149 0.841613
Si Si6 0.685314 0.932147 0.656967
Si Si7 0.507755 0.070545 0.696675
Si Si8 0.189998 0.570540 0.605563
O O1 0.580994 0.250000 0.834466
O O2 0.737679 0.002151 0.756172
O O3 0.623790 0.008412 0.750700
O O4 0.374181 0.008452 0.000261
O O5 0.798572 0.250000 0.142544
O O6 0.677553 0.023267 0.286228
O O7 0.680904 0.997499 0.189465
O O8 0.000000 0.000000 0.000000
O O9 0.500000 0.500000 0.500000
O O10 0.465888 0.250000 0.475230
O O11 0.300555 0.502553 0.569815
O O12 0.103830 0.750000 0.323100
O O13 0.150742 0.504989 0.236160
O O14 0.896912 0.504924 0.489961
O O15 0.796516 0.250000 0.857574
O O16 0.988819 0.483946 0.749131
O O17 0.680257 0.750000 0.665636
O O18 0.537018 0.983994 0.725030
O O19 0.476372 0.250000 0.728942
O O20 0.691393 0.037732 0.529298
O O21 0.155042 0.750000 0.639625
#
# Coordination Sequence:
#
# PCOD8074851 Si02
#       8
#     4   4   4   4   4   4   4   4
#     4  11  23  39  55  83 120 153 190 241 295 345
#     4  10  21  38  61  89 120 154 192 236 285 340
#     4  10  21  38  61  89 120 154 192 236 285 340
#     4   9  20  37  61  85 112 149 194 241 289 347
#     4  11  21  38  60  85 115 152 194 239 291 347
#     4  11  21  38  60  85 115 152 194 239 291 347
#     4  10  20  36  60  88 116 151 194 239 286 342
#     4  10  20  36  60  88 116 151 194 239 286 342
#
# _framework density 18.846730000000001
#
# number of rings (size 3 to 8) (size 9 to 14) (size 15 to 20)
#    0.000    1.750    1.250    3.375    0.000    2.500 
#    2.250    3.750    0.000    0.000    0.000    0.000 
#    0.000    0.000    0.000    0.000    0.000    0.000 
#
# Total GULP energy -396929.024310 kJ/mol
# GULP energy per Si atom -12404.032010 kJ/mol
# Density = 1.880383 g / cm^3
# Si number density = 18.846730 Si / 1000 Ang^3
#
#
#
# Elastic Constant Matrix: (Units=GPa)
#
#
# Indices 1 2 3 4 5 6 
#
# 1 153.7425 41.0119 73.7205 0.0000 -0.6789 0.0000
# 2 41.0119 73.9180 38.0714 0.0000 -2.0309 0.0000
# 3 73.7205 38.0714 141.1670 0.0000 -7.9625 0.0000
# 4 0.0000 0.0000 0.0000 74.6972 0.0000 21.8957
# 5 -0.6789 -2.0309 -7.9625 0.0000 34.3782 0.0000
# 6 0.0000 0.0000 0.0000 21.8957 0.0000 43.3728
#
#
#
# Elastic Compliance Matrix: (Units=1/GPa)
#
#
# Indices 1 2 3 4 5 6 
#
# 1 0.009270 -0.003075 -0.004064 0.000000 -0.000940 0.000000
# 2 -0.003075 0.016731 -0.002892 0.000000 0.000258 0.000000
# 3 -0.004064 -0.002892 0.010104 0.000000 0.002089 0.000000
# 4 0.000000 0.000000 0.000000 0.015712 0.000000 -0.007932
# 5 -0.000940 0.000258 0.002089 0.000000 0.029569 0.000000
# 6 0.000000 0.000000 0.000000 -0.007932 0.000000 0.027060
#
#
# Mechanical properties :
#
#
# Convention : Reuss Voigt Hill
#
# Bulk Modulus (GPa) = 62.33686 74.93722 68.63704
# Shear Modulus (GPa) = 37.35346 44.89123 41.12235
#
# Velocity S-wave (km/s) = 4.45675 4.88578 4.67619
# Velocity P-wave (km/s) = 7.72211 8.46614 8.10267
#
# Compressibility (1/GPa) = 0.01604187
#
# Stress axis : x y z
#
# Youngs Moduli (GPa) = 107.88056 59.76821 98.97101
#
# Poissons Ratio (x) = 0.18382 0.40225
# Poissons Ratio (y) = 0.33179 0.28619
# Poissons Ratio (z) = 0.43846 0.17283
#
# Static dielectric constant tensor:
#      x y z
#    x 3.600420 0.000000 -0.031060 
#    y 0.000000 3.455380 0.000000 
#    z -0.031060 0.000000 3.555300 
# 
# 
# High freq. dielectric constant tensor:
#      x y z
#    x 1.742400 0.000000 -0.007420 
#    y 0.000000 1.737440 0.000000 
#    z -0.007420 0.000000 1.731740 
# 
# From -- ./inp_files/72108.got.cif
#   From: 2010.06.25/outbox.cif.g09.slc.cpg/sg11_37_cif.got.tgz:72108.got - 2010.06.27 23:14:04.
