data_PCOD8074401
_publ_section_title
;
Structure prediction by ZEFSAII (Michael W. Deem and Ramdas Pophale) SiO2 
 PCOD8074401
Probable space group: P 21/M
;
_chemical_formula_sum "Si O2"
_cell_formula_units_Z 32
_cell_length_a 15.002350
_cell_length_b 9.010763
_cell_length_c 12.264429
_cell_angle_alpha 90.000000
_cell_angle_beta 86.781474
_cell_angle_gamma 90.000000
_cell_volume 1655.322522
_symmetry_space_group_name_H-M "P 21/M"
_symmetry_group_IT_number 11
_symmetry_cell_setting 'monoclinic'
loop_
_space_group_symop_operation_xyz
x,y,z
-x,1/2+y,-z
-x,-y,-z
x,1/2-y,z
loop_
_atom_site_type_symbol
_atom_site_label
_atom_site_fract_x
_atom_site_fract_y
_atom_site_fract_z
Si Si1 0.263403 0.421708 0.384235
Si Si2 0.132358 0.424101 0.960469
Si Si3 0.558474 0.077059 0.239088
Si Si4 0.316563 0.579563 0.969591
Si Si5 0.624809 0.423102 0.793377
Si Si6 0.989820 0.924942 0.831948
Si Si7 0.939874 0.923564 0.594157
Si Si8 0.411398 0.076216 0.550953
O O1 0.270376 0.250000 0.348001
O O2 0.289153 0.523428 0.279799
O O3 0.162777 0.462047 0.424858
O O4 0.327072 0.458658 0.480987
O O5 0.127862 0.250000 0.943064
O O6 0.233876 0.474803 0.950964
O O7 0.081566 0.499160 0.862826
O O8 0.088722 0.471505 0.078887
O O9 0.553916 0.250000 0.267710
O O10 0.606730 0.044861 0.122422
O O11 0.458580 0.016053 0.243408
O O12 0.612625 0.992869 0.330095
O O13 0.284734 0.750000 0.966741
O O14 0.359054 0.539815 0.082171
O O15 0.607007 0.250000 0.774845
O O16 0.004443 0.750000 0.832368
O O17 0.964292 0.982504 0.713451
O O18 0.958152 0.750000 0.586270
O O19 0.000000 0.000000 0.500000
O O20 0.429534 0.250000 0.560352
O O21 0.500000 0.000000 0.500000
#
# Coordination Sequence:
#
# PCOD8074401 Si02
#       8
#     4   4   4   4   4   4   4   4
#     4  10  22  40  62  86 116 154 193 240 297 351
#     4  10  20  35  60  88 112 148 194 238 286 347
#     4  11  23  39  58  81 116 158 194 237 293 347
#     4  10  23  39  55  83 121 155 189 236 294 349
#     4  11  22  37  60  87 115 149 195 243 288 347
#     4   9  19  37  59  83 116 152 187 235 294 349
#     4  10  22  40  60  85 118 155 194 239 293 349
#     4  11  22  38  61  87 117 152 196 246 292 343
#
# _framework density 19.331579999999999
#
# number of rings (size 3 to 8) (size 9 to 14) (size 15 to 20)
#    0.000    1.750    1.250    2.625    0.000    6.000 
#    0.000    2.500    0.000    0.000    0.000    0.000 
#    0.000    0.000    0.000    0.000    0.000    0.000 
#
# Total GULP energy -396966.187781 kJ/mol
# GULP energy per Si atom -12405.193368 kJ/mol
# Density = 1.928758 g / cm^3
# Si number density = 19.331580 Si / 1000 Ang^3
#
#
#
# Elastic Constant Matrix: (Units=GPa)
#
#
# Indices 1 2 3 4 5 6 
#
# 1 92.6556 43.8069 73.4511 0.0000 -4.8983 0.0000
# 2 43.8069 69.7615 56.2233 0.0000 3.1313 0.0000
# 3 73.4511 56.2233 139.3696 0.0000 11.9231 0.0000
# 4 0.0000 0.0000 0.0000 28.5265 0.0000 -6.8169
# 5 -4.8983 3.1313 11.9231 0.0000 25.0074 0.0000
# 6 0.0000 0.0000 0.0000 -6.8169 0.0000 28.8270
#
#
#
# Elastic Compliance Matrix: (Units=1/GPa)
#
#
# Indices 1 2 3 4 5 6 
#
# 1 0.022265 -0.006350 -0.010023 0.000000 0.009935 0.000000
# 2 -0.006350 0.023104 -0.005859 0.000000 -0.001343 0.000000
# 3 -0.010023 -0.005859 0.015561 0.000000 -0.008649 0.000000
# 4 0.000000 0.000000 0.000000 0.037155 0.000000 0.008786
# 5 0.009935 -0.001343 -0.008649 0.000000 0.046226 0.000000
# 6 0.000000 0.000000 0.000000 0.008786 0.000000 0.036767
#
#
# Mechanical properties :
#
#
# Convention : Reuss Voigt Hill
#
# Bulk Modulus (GPa) = 60.72667 72.08328 66.40498
# Shear Modulus (GPa) = 21.64210 25.02587 23.33398
#
# Velocity S-wave (km/s) = 3.34955 3.60190 3.47802
# Velocity P-wave (km/s) = 6.81474 7.39372 7.11013
#
# Compressibility (1/GPa) = 0.01646723
#
# Stress axis : x y z
#
# Youngs Moduli (GPa) = 44.91280 43.28189 64.26367
#
# Poissons Ratio (x) = 0.27484 0.64410
# Poissons Ratio (y) = 0.28519 0.37653
# Poissons Ratio (z) = 0.45015 0.25359
#
# Static dielectric constant tensor:
#      x y z
#    x 3.524400 0.000000 0.122730 
#    y 0.000000 3.542580 0.000000 
#    z 0.122730 0.000000 3.812270 
# 
# 
# High freq. dielectric constant tensor:
#      x y z
#    x 1.753200 0.000000 0.006140 
#    y 0.000000 1.754500 0.000000 
#    z 0.006140 0.000000 1.762430 
# 
# From -- ./inp_files/38279.got.cif
#   From: 2010.06.25/outbox.cif.g09.slc.cpg/sg11_20_cif.got.tgz:38279.got - 2010.06.27 23:14:04.
