data_PCOD8074050
_publ_section_title
;
Structure prediction by ZEFSAII (Michael W. Deem and Ramdas Pophale) SiO2 
 PCOD8074050
Probable space group: P 21/M
;
_chemical_formula_sum "Si O2"
_cell_formula_units_Z 22
_cell_length_a 17.606690
_cell_length_b 9.703282
_cell_length_c 10.905498
_cell_angle_alpha 90.000000
_cell_angle_beta 32.675288
_cell_angle_gamma 90.000000
_cell_volume 1005.858657
_symmetry_space_group_name_H-M "P 21/M"
_symmetry_group_IT_number 11
_symmetry_cell_setting 'monoclinic'
loop_
_space_group_symop_operation_xyz
x,y,z
-x,1/2+y,-z
-x,-y,-z
x,1/2-y,z
loop_
_atom_site_type_symbol
_atom_site_label
_atom_site_fract_x
_atom_site_fract_y
_atom_site_fract_z
Si Si1 0.257807 0.250000 0.845030
Si Si2 0.170482 0.590191 0.385532
Si Si3 0.248331 0.750000 0.670172
Si Si4 0.748687 0.250000 0.069878
Si Si5 0.276268 0.474382 0.486506
Si Si6 0.079240 0.250000 0.860977
Si Si7 0.539391 0.750000 0.658451
Si Si8 0.853211 0.977113 0.844122
O O1 0.116283 0.250000 0.955133
O O2 0.388423 0.250000 0.574096
O O3 0.259884 0.381911 0.931883
O O4 0.216829 0.750000 0.306570
O O5 0.263290 0.513075 0.361589
O O6 0.194956 0.500532 0.230370
O O7 0.006310 0.590555 0.644640
O O8 0.326730 0.750000 0.694785
O O9 0.291550 0.615602 0.538609
O O10 0.085567 0.750000 0.927196
O O11 0.627583 0.250000 0.130702
O O12 0.853543 0.122259 0.912675
O O13 0.140881 0.387488 0.713898
O O14 0.415972 0.384631 0.323857
#
# Coordination Sequence:
#
# PCOD8074050 Si02
#       8
#     2   4   2   2   4   2   2   4
#     4  10  20  39  61  92 132 161 208 251 308 371
#     4  11  21  40  64  98 134 154 199 261 310 384
#     4  12  20  31  62  89 115 168 204 250 327 370
#     4  12  24  42  61  91 127 163 220 253 303 367
#     4  10  21  38  61  87 124 169 203 249 318 356
#     4  10  20  35  55  96 130 155 198 261 308 387
#     4  10  26  45  59  86 130 167 214 271 286 355
#     4  11  23  37  66  95 129 165 194 254 320 372
#
# _framework density 21.871860000000002
#
# number of rings (size 3 to 8) (size 9 to 14) (size 15 to 20)
#    0.000    1.455    2.727    4.909    0.000    5.091 
#    0.000    0.909    0.000    0.000    0.000    0.000 
#    0.000    0.000    0.000    0.000    0.000    0.000 
#
# Total GULP energy -272801.904310 kJ/mol
# GULP energy per Si atom -12400.086560 kJ/mol
# Density = 2.182208 g / cm^3
# Si number density = 21.871860 Si / 1000 Ang^3
#
#
#
# Elastic Constant Matrix: (Units=GPa)
#
#
# Indices 1 2 3 4 5 6 
#
# 1 119.1096 36.6043 19.4343 0.0000 22.2866 0.0000
# 2 36.6043 149.9207 13.2644 0.0000 13.5737 0.0000
# 3 19.4343 13.2644 27.8047 0.0000 15.2333 0.0000
# 4 0.0000 0.0000 0.0000 22.2831 0.0000 13.3045
# 5 22.2866 13.5737 15.2333 0.0000 39.0880 0.0000
# 6 0.0000 0.0000 0.0000 13.3045 0.0000 41.6709
#
#
#
# Elastic Compliance Matrix: (Units=1/GPa)
#
#
# Indices 1 2 3 4 5 6 
#
# 1 0.010336 -0.001812 -0.004420 0.000000 -0.003542 0.000000
# 2 -0.001812 0.007345 -0.001788 0.000000 -0.000821 0.000000
# 3 -0.004420 -0.001788 0.048553 0.000000 -0.015781 0.000000
# 4 0.000000 0.000000 0.000000 0.055447 0.000000 -0.017703
# 5 -0.003542 -0.000821 -0.015781 0.000000 0.034038 0.000000
# 6 0.000000 0.000000 0.000000 -0.017703 0.000000 0.029650
#
#
# Mechanical properties :
#
#
# Convention : Reuss Voigt Hill
#
# Bulk Modulus (GPa) = 19.92216 48.38234 34.15225
# Shear Modulus (GPa) = 22.92104 35.77722 29.34913
#
# Velocity S-wave (km/s) = 3.24075 4.04885 3.66712
# Velocity P-wave (km/s) = 4.80953 6.63524 5.79474
#
# Compressibility (1/GPa) = 0.05019536
#
# Stress axis : x y z
#
# Youngs Moduli (GPa) = 96.74625 136.14527 20.59590
#
# Poissons Ratio (x) = 0.24669 0.09103
# Poissons Ratio (y) = 0.17530 0.03682
# Poissons Ratio (z) = 0.42761 0.24341
#
# Static dielectric constant tensor:
#      x y z
#    x 4.066280 0.000000 0.280110 
#    y 0.000000 4.237040 0.000000 
#    z 0.280110 0.000000 3.556510 
# 
# 
# High freq. dielectric constant tensor:
#      x y z
#    x 1.864950 0.000000 0.024220 
#    y 0.000000 1.874930 0.000000 
#    z 0.024220 0.000000 1.831260 
# 
# From -- ./inp_files/40486.got.cif
#   From: 2010.06.25/outbox.cif.g09.slc.cpg/sg11_21_cif.got.tgz:40486.got - 2010.06.27 23:14:04.
