data_PCOD8074077
_publ_section_title
;
Structure prediction by ZEFSAII (Michael W. Deem and Ramdas Pophale) SiO2 
 PCOD8074077
Probable space group: P 21/M
;
_chemical_formula_sum "Si O2"
_cell_formula_units_Z 28
_cell_length_a 24.418869
_cell_length_b 8.996621
_cell_length_c 21.958049
_cell_angle_alpha 90.000000
_cell_angle_beta 17.517260
_cell_angle_gamma 90.000000
_cell_volume 1451.961971
_symmetry_space_group_name_H-M "P 21/M"
_symmetry_group_IT_number 11
_symmetry_cell_setting 'monoclinic'
loop_
_space_group_symop_operation_xyz
x,y,z
-x,1/2+y,-z
-x,-y,-z
x,1/2-y,z
loop_
_atom_site_type_symbol
_atom_site_label
_atom_site_fract_x
_atom_site_fract_y
_atom_site_fract_z
Si Si1 0.695818 0.573934 0.808995
Si Si2 0.542902 0.082282 0.274085
Si Si3 0.009410 0.082290 0.053606
Si Si4 0.058399 0.574800 0.352908
Si Si5 0.575374 0.917586 0.361701
Si Si6 0.107444 0.573376 0.164879
Si Si7 0.851583 0.917896 0.331796
O O1 0.664167 0.750000 0.849393
O O2 0.781095 0.508103 0.780554
O O3 0.851728 0.538805 0.593258
O O4 0.500000 0.500000 0.000000
O O5 0.594667 0.250000 0.238825
O O6 0.361218 0.079319 0.426227
O O7 0.503099 0.991094 0.377105
O O8 0.700572 0.013948 0.064657
O O9 0.944351 0.250000 0.111630
O O10 0.208995 0.074568 0.869403
O O11 0.000000 0.000000 0.000000
O O12 0.878325 0.008096 0.241561
O O13 0.097604 0.750000 0.316571
O O14 0.072706 0.511413 0.269151
O O15 0.502910 0.750000 0.441404
O O16 0.500000 0.000000 0.500000
O O17 0.102125 0.750000 0.174197
O O18 0.954309 0.512301 0.280901
O O19 0.921099 0.750000 0.246256
#
# Coordination Sequence:
#
# PCOD8074077 Si02
#       7
#     4   4   4   4   4   4   4
#     4  10  20  35  58  88 123 159 198 243 288 339
#     4  10  20  35  57  82 107 139 180 226 279 336
#     4  11  23  37  54  77 104 138 178 224 278 336
#     4   9  19  36  59  87 117 156 200 242 288 340
#     4  11  23  37  54  77 105 138 179 225 280 339
#     4   9  18  35  58  83 113 147 186 234 282 331
#     4  10  20  35  56  81 107 138 178 223 276 336
#
# _framework density 19.284251999999999
#
# number of rings (size 3 to 8) (size 9 to 14) (size 15 to 20)
#    0.000    2.000    1.429    2.143    0.000    7.429 
#    0.000    5.714    0.000    1.714    0.000    0.000 
#    0.000    0.000    0.000    0.000    0.000    0.000 
#
# Total GULP energy -347139.412152 kJ/mol
# GULP energy per Si atom -12397.836148 kJ/mol
# Density = 1.924036 g / cm^3
# Si number density = 19.284252 Si / 1000 Ang^3
#
#
#
# Elastic Constant Matrix: (Units=GPa)
#
#
# Indices 1 2 3 4 5 6 
#
# 1 155.9361 48.7122 78.8504 0.0000 11.0714 0.0000
# 2 48.7122 90.1560 40.1466 0.0000 -0.1428 0.0000
# 3 78.8504 40.1466 120.9026 0.0000 -4.7036 0.0000
# 4 0.0000 0.0000 0.0000 24.4122 0.0000 -1.4550
# 5 11.0714 -0.1428 -4.7036 0.0000 39.6894 0.0000
# 6 0.0000 0.0000 0.0000 -1.4550 0.0000 27.7801
#
#
#
# Elastic Compliance Matrix: (Units=1/GPa)
#
#
# Indices 1 2 3 4 5 6 
#
# 1 0.010737 -0.003080 -0.006125 0.000000 -0.003732 0.000000
# 2 -0.003080 0.013909 -0.002586 0.000000 0.000603 0.000000
# 3 -0.006125 -0.002586 0.013252 0.000000 0.003270 0.000000
# 4 0.000000 0.000000 0.000000 0.041091 0.000000 0.002152
# 5 -0.003732 0.000603 0.003270 0.000000 0.026626 0.000000
# 6 0.000000 0.000000 0.000000 0.002152 0.000000 0.036110
#
#
# Mechanical properties :
#
#
# Convention : Reuss Voigt Hill
#
# Bulk Modulus (GPa) = 69.85690 78.04591 73.95141
# Shear Modulus (GPa) = 29.39803 31.66204 30.53004
#
# Velocity S-wave (km/s) = 3.90867 4.05638 3.98321
# Velocity P-wave (km/s) = 7.52819 7.90558 7.71919
#
# Compressibility (1/GPa) = 0.01431498
#
# Stress axis : x y z
#
# Youngs Moduli (GPa) = 93.13459 71.89787 75.46121
#
# Poissons Ratio (x) = 0.22143 0.46221
# Poissons Ratio (y) = 0.28684 0.19518
# Poissons Ratio (z) = 0.57046 0.18596
#
# Static dielectric constant tensor:
#      x y z
#    x 3.566630 0.000000 -0.063560 
#    y 0.000000 3.462710 0.000000 
#    z -0.063560 0.000000 3.780530 
# 
# 
# High freq. dielectric constant tensor:
#      x y z
#    x 1.751010 0.000000 -0.009750 
#    y 0.000000 1.734510 0.000000 
#    z -0.009750 0.000000 1.759730 
# 
# From -- ./inp_files/66668.got.cif
#   From: 2010.06.25/outbox.cif.g09.slc.cpg/sg11_34_cif.got.tgz:66668.got - 2010.06.27 23:14:04.
