data_PCOD8074327
_publ_section_title
;
Structure prediction by ZEFSAII (Michael W. Deem and Ramdas Pophale) SiO2 
 PCOD8074327
Probable space group: P 21/M
;
_chemical_formula_sum "Si O2"
_cell_formula_units_Z 32
_cell_length_a 19.142792
_cell_length_b 8.767552
_cell_length_c 26.824525
_cell_angle_alpha 90.000000
_cell_angle_beta 158.183346
_cell_angle_gamma 90.000000
_cell_volume 1673.152147
_symmetry_space_group_name_H-M "P 21/M"
_symmetry_group_IT_number 11
_symmetry_cell_setting 'monoclinic'
loop_
_space_group_symop_operation_xyz
x,y,z
-x,1/2+y,-z
-x,-y,-z
x,1/2-y,z
loop_
_atom_site_type_symbol
_atom_site_label
_atom_site_fract_x
_atom_site_fract_y
_atom_site_fract_z
Si Si1 0.650682 0.078980 0.665008
Si Si2 0.295496 0.430235 0.866745
Si Si3 0.693089 0.431231 0.928167
Si Si4 0.001917 0.929839 0.947175
Si Si5 0.729504 0.930333 0.348382
Si Si6 0.075768 0.429884 0.624108
Si Si7 0.719170 0.421328 0.593911
Si Si8 0.112376 0.929893 0.841675
O O1 0.656723 0.250000 0.691886
O O2 0.671421 0.088130 0.619969
O O3 0.455263 0.998233 0.550558
O O4 0.814301 0.975356 0.794716
O O5 0.313966 0.250000 0.876527
O O6 0.173282 0.490536 0.738970
O O7 0.197069 0.480189 0.851833
O O8 0.500000 0.500000 0.000000
O O9 0.693571 0.250000 0.929287
O O10 0.480930 0.494238 0.782025
O O11 0.818535 0.491848 0.965158
O O12 0.782029 0.489516 0.038894
O O13 0.011339 0.750000 0.957913
O O14 0.000000 0.000000 0.000000
O O15 0.732792 0.750000 0.355459
O O16 0.795953 0.982635 0.337467
O O17 0.867937 0.998472 0.481885
O O18 0.052149 0.250000 0.609379
O O19 0.755514 0.250000 0.597187
O O20 0.894370 0.530672 0.700961
O O21 0.138770 0.750000 0.851479
#
# Coordination Sequence:
#
# PCOD8074327 Si02
#       8
#     4   4   4   4   4   4   4   4
#     4  10  20  36  59  85 114 148 190 236 290 353
#     4  11  23  39  58  84 120 156 192 235 290 346
#     4   9  19  36  59  83 110 145 189 238 286 341
#     4  11  22  39  59  82 114 152 194 243 297 350
#     4   9  17  34  60  84 106 144 192 232 273 330
#     4   9  19  36  56  81 116 148 181 229 281 333
#     4  10  20  35  58  87 116 147 189 239 289 344
#     4  11  21  37  60  86 116 152 194 239 293 348
#
# _framework density 19.125578000000001
#
# number of rings (size 3 to 8) (size 9 to 14) (size 15 to 20)
#    0.000    2.000    1.250    2.625    0.000    4.000 
#    2.250    5.000    0.000    0.000    0.000    0.000 
#    0.000    0.000    0.000    0.000    0.000    0.000 
#
# Total GULP energy -396842.697838 kJ/mol
# GULP energy per Si atom -12401.334307 kJ/mol
# Density = 1.908205 g / cm^3
# Si number density = 19.125578 Si / 1000 Ang^3
#
#
#
# Elastic Constant Matrix: (Units=GPa)
#
#
# Indices 1 2 3 4 5 6 
#
# 1 97.7408 25.6049 83.1320 0.0000 -3.7387 0.0000
# 2 25.6049 52.3688 37.2063 0.0000 -4.7811 0.0000
# 3 83.1320 37.2063 168.3194 0.0000 22.2093 0.0000
# 4 0.0000 0.0000 0.0000 34.6210 0.0000 1.4404
# 5 -3.7387 -4.7811 22.2093 0.0000 26.9831 0.0000
# 6 0.0000 0.0000 0.0000 1.4404 0.0000 28.9186
#
#
#
# Elastic Compliance Matrix: (Units=1/GPa)
#
#
# Indices 1 2 3 4 5 6 
#
# 1 0.020988 -0.000680 -0.011873 0.000000 0.012560 0.000000
# 2 -0.000680 0.024873 -0.006430 0.000000 0.009605 0.000000
# 3 -0.011873 -0.006430 0.015250 0.000000 -0.015336 0.000000
# 4 0.000000 0.000000 0.000000 0.028944 0.000000 -0.001442
# 5 0.012560 0.009605 -0.015336 0.000000 0.053125 0.000000
# 6 0.000000 0.000000 0.000000 -0.001442 0.000000 0.034652
#
#
# Mechanical properties :
#
#
# Convention : Reuss Voigt Hill
#
# Bulk Modulus (GPa) = 43.20407 67.81280 55.50844
# Shear Modulus (GPa) = 22.37027 29.60361 25.98694
#
# Velocity S-wave (km/s) = 3.42373 3.93855 3.69013
# Velocity P-wave (km/s) = 6.18611 7.49776 6.87330
#
# Compressibility (1/GPa) = 0.02314597
#
# Stress axis : x y z
#
# Youngs Moduli (GPa) = 47.64667 40.20478 65.57482
#
# Poissons Ratio (x) = 0.02733 0.77855
# Poissons Ratio (y) = 0.03239 0.42162
# Poissons Ratio (z) = 0.56570 0.25850
#
# Static dielectric constant tensor:
#      x y z
#    x 3.383070 0.000000 -0.118840 
#    y 0.000000 3.517800 0.000000 
#    z -0.118840 0.000000 3.448100 
# 
# 
# High freq. dielectric constant tensor:
#      x y z
#    x 1.733910 0.000000 0.008990 
#    y 0.000000 1.738180 0.000000 
#    z 0.008990 0.000000 1.757040 
# 
# From -- ./inp_files/72209.got.cif
#   From: 2010.06.25/outbox.cif.g09.slc.cpg/sg11_37_cif.got.tgz:72209.got - 2010.06.27 23:14:04.
