data_PCOD8074013
_publ_section_title
;
Structure prediction by ZEFSAII (Michael W. Deem and Ramdas Pophale) SiO2 
 PCOD8074013
Probable space group: P 21/M
;
_chemical_formula_sum "Si O2"
_cell_formula_units_Z 28
_cell_length_a 29.222679
_cell_length_b 9.051775
_cell_length_c 9.331496
_cell_angle_alpha 90.000000
_cell_angle_beta 36.983104
_cell_angle_gamma 90.000000
_cell_volume 1484.902952
_symmetry_space_group_name_H-M "P 21/M"
_symmetry_group_IT_number 11
_symmetry_cell_setting 'monoclinic'
loop_
_space_group_symop_operation_xyz
x,y,z
-x,1/2+y,-z
-x,-y,-z
x,1/2-y,z
loop_
_atom_site_type_symbol
_atom_site_label
_atom_site_fract_x
_atom_site_fract_y
_atom_site_fract_z
Si Si1 0.499412 0.424408 0.347312
Si Si2 0.057775 0.079044 0.752588
Si Si3 0.370183 0.922201 0.490308
Si Si4 0.646030 0.077007 0.796335
Si Si5 0.231903 0.080424 0.327135
Si Si6 0.230207 0.919018 0.035985
Si Si7 0.059237 0.921992 0.452286
O O1 0.500000 0.500000 0.500000
O O2 0.492199 0.250000 0.386752
O O3 0.429801 0.480962 0.427644
O O4 0.575947 0.467616 0.072396
O O5 0.035982 0.250000 0.788146
O O6 0.144061 0.060886 0.591173
O O7 0.046891 0.993973 0.634507
O O8 0.000000 0.000000 0.000000
O O9 0.392259 0.750000 0.448360
O O10 0.370343 0.974886 0.325123
O O11 0.287467 0.954441 0.763868
O O12 0.662063 0.250000 0.758859
O O13 0.720961 0.997763 0.666262
O O14 0.256115 0.250000 0.259576
O O15 0.250066 0.014944 0.125375
O O16 0.237094 0.750000 0.069813
O O17 0.146004 0.951479 0.184938
O O18 0.040202 0.750000 0.507290
O O19 0.000000 0.000000 0.500000
#
# Coordination Sequence:
#
# PCOD8074013 Si02
#       7
#     4   4   4   4   4   4   4
#     4  11  23  38  57  82 110 144 183 222 267 321
#     4  10  21  37  56  81 111 145 185 230 278 329
#     4  10  21  38  58  81 108 140 180 225 270 320
#     4  10  22  38  56  80 112 146 179 219 272 327
#     4  10  21  36  56  82 110 141 182 226 268 318
#     4   9  19  36  57  79 106 142 182 221 270 329
#     4  10  20  35  55  81 112 146 184 229 278 332
#
# _framework density 18.856451
#
# number of rings (size 3 to 8) (size 9 to 14) (size 15 to 20)
#    0.000    2.000    0.000    3.000    0.000    9.143 
#    0.000    1.429    0.000    0.000    0.000    0.000 
#    0.000    0.000    0.000    0.000    0.000    0.000 
#
# Total GULP energy -347265.125066 kJ/mol
# GULP energy per Si atom -12402.325895 kJ/mol
# Density = 1.881353 g / cm^3
# Si number density = 18.856451 Si / 1000 Ang^3
#
#
#
# Elastic Constant Matrix: (Units=GPa)
#
#
# Indices 1 2 3 4 5 6 
#
# 1 158.4782 75.4419 72.3855 0.0000 -2.7326 0.0000
# 2 75.4419 99.9627 66.3703 0.0000 -0.6200 0.0000
# 3 72.3855 66.3703 133.7031 0.0000 8.2814 0.0000
# 4 0.0000 0.0000 0.0000 28.8848 0.0000 -1.4842
# 5 -2.7326 -0.6200 8.2814 0.0000 24.4090 0.0000
# 6 0.0000 0.0000 0.0000 -1.4842 0.0000 42.1196
#
#
#
# Elastic Compliance Matrix: (Units=1/GPa)
#
#
# Indices 1 2 3 4 5 6 
#
# 1 0.010508 -0.006056 -0.002805 0.000000 0.001974 0.000000
# 2 -0.006056 0.018623 -0.006081 0.000000 0.001858 0.000000
# 3 -0.002805 -0.006081 0.012304 0.000000 -0.004643 0.000000
# 4 0.000000 0.000000 0.000000 0.034683 0.000000 0.001222
# 5 0.001974 0.001858 -0.004643 0.000000 0.042812 0.000000
# 6 0.000000 0.000000 0.000000 0.001222 0.000000 0.023785
#
#
# Mechanical properties :
#
#
# Convention : Reuss Voigt Hill
#
# Bulk Modulus (GPa) = 86.57001 91.17105 88.87053
# Shear Modulus (GPa) = 28.33662 30.94573 29.64117
#
# Velocity S-wave (km/s) = 3.88074 4.05547 3.96907
# Velocity P-wave (km/s) = 8.12957 8.38953 8.26057
#
# Compressibility (1/GPa) = 0.01155134
#
# Stress axis : x y z
#
# Youngs Moduli (GPa) = 95.16452 53.69685 81.27292
#
# Poissons Ratio (x) = 0.32517 0.22799
# Poissons Ratio (y) = 0.57629 0.49423
# Poissons Ratio (z) = 0.26696 0.32654
#
# Static dielectric constant tensor:
#      x y z
#    x 3.472900 0.000000 0.085840 
#    y 0.000000 3.576090 0.000000 
#    z 0.085840 0.000000 3.440350 
# 
# 
# High freq. dielectric constant tensor:
#      x y z
#    x 1.737010 0.000000 -0.004500 
#    y 0.000000 1.740810 0.000000 
#    z -0.004500 0.000000 1.741880 
# 
# From -- ./inp_files/26075.got.cif
#   From: 2010.06.25/outbox.cif.g09.slc.cpg/sg11_14_cif.got.tgz:26075.got - 2010.06.27 23:14:04.
