data_PCOD8074911
_publ_section_title
;
Structure prediction by ZEFSAII (Michael W. Deem and Ramdas Pophale) SiO2 
 PCOD8074911
Probable space group: P 21/M
;
_chemical_formula_sum "Si O2"
_cell_formula_units_Z 28
_cell_length_a 21.512225
_cell_length_b 8.772807
_cell_length_c 14.659980
_cell_angle_alpha 90.000000
_cell_angle_beta 31.159872
_cell_angle_gamma 90.000000
_cell_volume 1431.551760
_symmetry_space_group_name_H-M "P 21/M"
_symmetry_group_IT_number 11
_symmetry_cell_setting 'monoclinic'
loop_
_space_group_symop_operation_xyz
x,y,z
-x,1/2+y,-z
-x,-y,-z
x,1/2-y,z
loop_
_atom_site_type_symbol
_atom_site_label
_atom_site_fract_x
_atom_site_fract_y
_atom_site_fract_z
Si Si1 0.022811 0.929387 0.068990
Si Si2 0.850011 0.072782 0.766108
Si Si3 0.727993 0.571478 0.226329
Si Si4 0.122483 0.073332 0.457825
Si Si5 0.810744 0.071689 0.446459
Si Si6 0.373667 0.073366 0.450055
Si Si7 0.361024 0.926688 0.834281
O O1 0.021648 0.750000 0.060718
O O2 0.149426 0.983274 0.949338
O O3 0.000000 0.000000 0.000000
O O4 0.919527 0.977953 0.267160
O O5 0.837180 0.250000 0.756419
O O6 0.980322 0.038988 0.645628
O O7 0.830156 0.973747 0.700781
O O8 0.749479 0.020659 0.964071
O O9 0.752397 0.750000 0.193153
O O10 0.675810 0.521331 0.389347
O O11 0.635851 0.524163 0.262570
O O12 0.150552 0.250000 0.438974
O O13 0.195581 0.974009 0.439560
O O14 0.833816 0.250000 0.406265
O O15 0.686840 0.027249 0.552566
O O16 0.342968 0.250000 0.471435
O O17 0.515697 0.042566 0.266612
O O18 0.350156 0.750000 0.820809
#
# Coordination Sequence:
#
# PCOD8074911 Si02
#       7
#     4   4   4   4   4   4   4
#     4  12  23  37  57  83 116 151 190 235 286 340
#     4   9  19  37  60  87 115 145 187 238 290 345
#     4  11  22  36  57  85 117 155 197 241 288 343
#     4  10  20  36  61  89 118 150 183 233 294 351
#     4  12  24  38  59  86 117 155 194 237 290 347
#     4  10  22  39  57  80 116 158 199 242 287 342
#     4  10  21  38  60  84 114 155 198 243 292 341
#
# _framework density 19.559194999999999
#
# number of rings (size 3 to 8) (size 9 to 14) (size 15 to 20)
#    0.000    1.429    1.429    4.714    0.000    3.429 
#    0.000    0.714    0.000    0.000    0.000    0.000 
#    0.000    0.000    0.000    0.000    0.000    0.000 
#
# Total GULP energy -347373.875618 kJ/mol
# GULP energy per Si atom -12406.209844 kJ/mol
# Density = 1.951468 g / cm^3
# Si number density = 19.559195 Si / 1000 Ang^3
#
#
#
# Elastic Constant Matrix: (Units=GPa)
#
#
# Indices 1 2 3 4 5 6 
#
# 1 124.4138 52.2667 41.5410 0.0000 1.4024 0.0000
# 2 52.2667 100.2238 27.3280 0.0000 -0.9720 0.0000
# 3 41.5410 27.3280 71.6290 0.0000 -6.1533 0.0000
# 4 0.0000 0.0000 0.0000 25.6901 0.0000 1.0611
# 5 1.4024 -0.9720 -6.1533 0.0000 21.8603 0.0000
# 6 0.0000 0.0000 0.0000 1.0611 0.0000 39.6262
#
#
#
# Elastic Compliance Matrix: (Units=1/GPa)
#
#
# Indices 1 2 3 4 5 6 
#
# 1 0.011815 -0.004754 -0.005248 0.000000 -0.002447 0.000000
# 2 -0.004754 0.013060 -0.002203 0.000000 0.000266 0.000000
# 3 -0.005248 -0.002203 0.018308 0.000000 0.005392 0.000000
# 4 0.000000 0.000000 0.000000 0.038969 0.000000 -0.001044
# 5 -0.002447 0.000266 0.005392 0.000000 0.047432 0.000000
# 6 0.000000 0.000000 0.000000 -0.001044 0.000000 0.025264
#
#
# Mechanical properties :
#
#
# Convention : Reuss Voigt Hill
#
# Bulk Modulus (GPa) = 53.26876 59.83753 56.55314
# Shear Modulus (GPa) = 26.95192 29.11071 28.03132
#
# Velocity S-wave (km/s) = 3.71612 3.86208 3.78981
# Velocity P-wave (km/s) = 6.76066 7.10965 6.93735
#
# Compressibility (1/GPa) = 0.01877273
#
# Stress axis : x y z
#
# Youngs Moduli (GPa) = 84.63895 76.56881 54.62025
#
# Poissons Ratio (x) = 0.36402 0.28667
# Poissons Ratio (y) = 0.40238 0.12032
# Poissons Ratio (z) = 0.44422 0.16866
#
# Static dielectric constant tensor:
#      x y z
#    x 3.710580 0.000000 0.008170 
#    y 0.000000 3.482140 0.000000 
#    z 0.008170 0.000000 3.586360 
# 
# 
# High freq. dielectric constant tensor:
#      x y z
#    x 1.768930 0.000000 -0.001740 
#    y 0.000000 1.764810 0.000000 
#    z -0.001740 0.000000 1.750890 
# 
# From -- ./inp_files/37423.got.cif
#   From: 2010.06.25/outbox.cif.g09.slc.cpg/sg11_19_cif.got.tgz:37423.got - 2010.06.27 23:14:04.
