data_PCOD8074393
_publ_section_title
;
Structure prediction by ZEFSAII (Michael W. Deem and Ramdas Pophale) SiO2 
 PCOD8074393
Probable space group: P 21/M
;
_chemical_formula_sum "Si O2"
_cell_formula_units_Z 28
_cell_length_a 11.539369
_cell_length_b 8.761673
_cell_length_c 15.085777
_cell_angle_alpha 90.000000
_cell_angle_beta 63.808928
_cell_angle_gamma 90.000000
_cell_volume 1368.634856
_symmetry_space_group_name_H-M "P 21/M"
_symmetry_group_IT_number 11
_symmetry_cell_setting 'monoclinic'
loop_
_space_group_symop_operation_xyz
x,y,z
-x,1/2+y,-z
-x,-y,-z
x,1/2-y,z
loop_
_atom_site_type_symbol
_atom_site_label
_atom_site_fract_x
_atom_site_fract_y
_atom_site_fract_z
Si Si1 0.336061 0.075205 0.837114
Si Si2 0.638560 0.569268 0.969981
Si Si3 0.875670 0.431640 0.794225
Si Si4 0.292844 0.074000 0.548272
Si Si5 0.974071 0.069668 0.413403
Si Si6 0.950874 0.574864 0.104931
Si Si7 0.457726 0.925257 0.641835
O O1 0.381612 0.250000 0.817630
O O2 0.201121 0.048630 0.832410
O O3 0.441850 0.973303 0.750029
O O4 0.320562 0.023963 0.944011
O O5 0.639274 0.750000 0.954922
O O6 0.734667 0.490702 0.868276
O O7 0.500000 0.500000 0.000000
O O8 0.874913 0.250000 0.785530
O O9 0.915199 0.504804 0.687941
O O10 0.978106 0.492184 0.832812
O O11 0.249917 0.250000 0.570019
O O12 0.393218 0.046912 0.434054
O O13 0.167412 0.973236 0.574080
O O14 0.362413 0.028793 0.615895
O O15 0.986796 0.250000 0.414367
O O16 0.000000 0.000000 0.500000
O O17 0.987063 0.750000 0.083395
O O18 0.000000 0.500000 0.000000
O O19 0.419473 0.750000 0.640075
#
# Coordination Sequence:
#
# PCOD8074393 Si02
#       7
#     4   4   4   4   4   4   4
#     4  10  21  37  58  87 123 162 201 248 307 367
#     4  11  24  42  62  86 122 166 211 256 306 369
#     4  11  23  41  66  95 126 163 204 257 317 374
#     4  10  21  40  62  89 126 162 204 257 310 369
#     4  12  26  44  67  93 123 164 212 262 314 373
#     4  10  20  35  59  90 123 157 197 248 304 363
#     4  10  21  36  61  93 123 160 203 252 311 370
#
# _framework density 20.458341999999998
#
# number of rings (size 3 to 8) (size 9 to 14) (size 15 to 20)
#    0.000    1.429    1.429    3.857    0.000    6.286 
#    0.000    2.857    0.000    0.000    0.000    0.000 
#    0.000    0.000    0.000    0.000    0.000    0.000 
#
# Total GULP energy -347327.640251 kJ/mol
# GULP energy per Si atom -12404.558580 kJ/mol
# Density = 2.041178 g / cm^3
# Si number density = 20.458342 Si / 1000 Ang^3
#
#
#
# Elastic Constant Matrix: (Units=GPa)
#
#
# Indices 1 2 3 4 5 6 
#
# 1 92.2550 39.8757 42.3897 0.0000 -9.5107 0.0000
# 2 39.8757 108.5535 67.9015 0.0000 -6.9445 0.0000
# 3 42.3897 67.9015 166.0923 0.0000 -8.7367 0.0000
# 4 0.0000 0.0000 0.0000 40.9095 0.0000 -1.9926
# 5 -9.5107 -6.9445 -8.7367 0.0000 27.1344 0.0000
# 6 0.0000 0.0000 0.0000 -1.9926 0.0000 33.1621
#
#
#
# Elastic Compliance Matrix: (Units=1/GPa)
#
#
# Indices 1 2 3 4 5 6 
#
# 1 0.013581 -0.003655 -0.001801 0.000000 0.003245 0.000000
# 2 -0.003655 0.013426 -0.004519 0.000000 0.000700 0.000000
# 3 -0.001801 -0.004519 0.008376 0.000000 0.000909 0.000000
# 4 0.000000 0.000000 0.000000 0.024516 0.000000 0.001473
# 5 0.003245 0.000700 0.000909 0.000000 0.038463 0.000000
# 6 0.000000 0.000000 0.000000 0.001473 0.000000 0.030243
#
#
# Mechanical properties :
#
#
# Convention : Reuss Voigt Hill
#
# Bulk Modulus (GPa) = 64.79700 74.13717 69.46708
# Shear Modulus (GPa) = 32.53078 34.69012 33.61045
#
# Velocity S-wave (km/s) = 3.99193 4.12229 4.05763
# Velocity P-wave (km/s) = 7.27934 7.67948 7.48209
#
# Compressibility (1/GPa) = 0.01543281
#
# Stress axis : x y z
#
# Youngs Moduli (GPa) = 73.63008 74.48141 119.39005
#
# Poissons Ratio (x) = 0.27219 0.21508
# Poissons Ratio (y) = 0.26908 0.53956
# Poissons Ratio (z) = 0.13264 0.33661
#
# Static dielectric constant tensor:
#      x y z
#    x 3.726410 0.000000 0.024250 
#    y 0.000000 3.721420 0.000000 
#    z 0.024250 0.000000 3.848660 
# 
# 
# High freq. dielectric constant tensor:
#      x y z
#    x 1.791770 0.000000 -0.006240 
#    y 0.000000 1.804540 0.000000 
#    z -0.006240 0.000000 1.816050 
# 
# From -- ./inp_files/49152.got.cif
#   From: 2010.06.25/outbox.cif.g09.slc.cpg/sg11_25_cif.got.tgz:49152.got - 2010.06.27 23:14:04.
