data_PCOD8074707
_publ_section_title
;
Structure prediction by ZEFSAII (Michael W. Deem and Ramdas Pophale) SiO2 
 PCOD8074707
Probable space group: P 21/M
;
_chemical_formula_sum "Si O2"
_cell_formula_units_Z 28
_cell_length_a 23.338994
_cell_length_b 13.177178
_cell_length_c 6.427747
_cell_angle_alpha 90.000000
_cell_angle_beta 45.247882
_cell_angle_gamma 90.000000
_cell_volume 1403.844901
_symmetry_space_group_name_H-M "P 21/M"
_symmetry_group_IT_number 11
_symmetry_cell_setting 'monoclinic'
loop_
_space_group_symop_operation_xyz
x,y,z
-x,1/2+y,-z
-x,-y,-z
x,1/2-y,z
loop_
_atom_site_type_symbol
_atom_site_label
_atom_site_fract_x
_atom_site_fract_y
_atom_site_fract_z
Si Si1 0.418280 0.132568 0.729702
Si Si2 0.299429 0.634659 0.504212
Si Si3 0.943236 0.136398 0.240993
Si Si4 0.549802 0.464760 0.676280
Si Si5 0.891597 0.545707 0.091450
Si Si6 0.828218 0.051723 0.871330
Si Si7 0.737020 0.533944 0.726016
O O1 0.421221 0.250000 0.657069
O O2 0.496450 0.105912 0.664712
O O3 0.418036 0.064882 0.522759
O O4 0.337319 0.111542 0.069964
O O5 0.308832 0.750000 0.405671
O O6 0.375695 0.603078 0.445088
O O7 0.292665 0.568093 0.313094
O O8 0.219918 0.624262 0.848616
O O9 0.927254 0.250000 0.203328
O O10 0.891912 0.116912 0.579366
O O11 0.916330 0.062746 0.125659
O O12 0.037671 0.125895 0.053596
O O13 0.500000 0.500000 0.000000
O O14 0.809848 0.586077 0.410754
O O15 0.876791 0.531739 0.883346
O O16 0.766114 0.992917 0.882491
#
# Coordination Sequence:
#
# PCOD8074707 Si02
#       7
#     4   4   4   4   4   4   4
#     4  11  24  42  65  90 121 163 202 247 302 356
#     4  11  22  37  61  89 119 160 199 246 305 352
#     4  10  20  36  58  86 114 151 198 240 292 354
#     4  11  23  44  62  89 123 154 204 256 295 357
#     4   9  21  37  58  84 119 155 188 247 293 340
#     4  10  20  37  58  83 122 154 192 247 296 349
#     4  10  21  40  58  87 123 152 201 246 290 359
#
# _framework density 19.945222999999999
#
# number of rings (size 3 to 8) (size 9 to 14) (size 15 to 20)
#    0.000    1.714    2.857    1.286    0.000    8.000 
#    0.000    0.714    0.000    0.000    0.000    0.000 
#    0.000    0.000    0.000    0.000    0.000    0.000 
#
# Total GULP energy -347287.711064 kJ/mol
# GULP energy per Si atom -12403.132538 kJ/mol
# Density = 1.989983 g / cm^3
# Si number density = 19.945223 Si / 1000 Ang^3
#
#
#
# Elastic Constant Matrix: (Units=GPa)
#
#
# Indices 1 2 3 4 5 6 
#
# 1 103.6609 12.5178 31.1664 0.0000 -1.2575 0.0000
# 2 12.5178 77.6810 33.0627 0.0000 -4.6370 0.0000
# 3 31.1664 33.0627 80.5696 0.0000 -12.1584 0.0000
# 4 0.0000 0.0000 0.0000 19.3292 0.0000 1.8168
# 5 -1.2575 -4.6370 -12.1584 0.0000 39.6226 0.0000
# 6 0.0000 0.0000 0.0000 1.8168 0.0000 19.9642
#
#
#
# Elastic Compliance Matrix: (Units=1/GPa)
#
#
# Indices 1 2 3 4 5 6 
#
# 1 0.010954 0.000052 -0.004409 0.000000 -0.000999 0.000000
# 2 0.000052 0.015598 -0.006444 0.000000 -0.000150 0.000000
# 3 -0.004409 -0.006444 0.017434 0.000000 0.004456 0.000000
# 4 0.000000 0.000000 0.000000 0.052182 0.000000 -0.004749
# 5 -0.000999 -0.000150 0.004456 0.000000 0.026556 0.000000
# 6 0.000000 0.000000 0.000000 -0.004749 0.000000 0.050522
#
#
# Mechanical properties :
#
#
# Convention : Reuss Voigt Hill
#
# Bulk Modulus (GPa) = 44.67480 46.15615 45.41547
# Shear Modulus (GPa) = 24.71455 28.12751 26.42103
#
# Velocity S-wave (km/s) = 3.52393 3.75939 3.64356
# Velocity P-wave (km/s) = 6.24539 6.48349 6.36555
#
# Compressibility (1/GPa) = 0.02238398
#
# Stress axis : x y z
#
# Youngs Moduli (GPa) = 91.28931 64.10905 57.35933
#
# Poissons Ratio (x) = -0.00333 0.25292
# Poissons Ratio (y) = -0.00474 0.36961
# Poissons Ratio (z) = 0.40254 0.41310
#
# Static dielectric constant tensor:
#      x y z
#    x 4.000350 0.000000 -0.176860 
#    y 0.000000 3.291400 0.000000 
#    z -0.176860 0.000000 3.769290 
# 
# 
# High freq. dielectric constant tensor:
#      x y z
#    x 1.797090 0.000000 -0.009380 
#    y 0.000000 1.748260 0.000000 
#    z -0.009380 0.000000 1.789370 
# 
# From -- ./inp_files/9000.got.cif
#   From: 2010.06.25/outbox.cif.g09.slc.cpg/sg11_5_cif.got.tgz:9000.got - 2010.06.27 23:14:04.
