data_PCOD8074840
_publ_section_title
;
Structure prediction by ZEFSAII (Michael W. Deem and Ramdas Pophale) SiO2 
 PCOD8074840
Probable space group: P 21/M
;
_chemical_formula_sum "Si O2"
_cell_formula_units_Z 32
_cell_length_a 14.683875
_cell_length_b 8.904405
_cell_length_c 12.276376
_cell_angle_alpha 90.000000
_cell_angle_beta 91.428034
_cell_angle_gamma 90.000000
_cell_volume 1604.651991
_symmetry_space_group_name_H-M "P 21/M"
_symmetry_group_IT_number 11
_symmetry_cell_setting 'monoclinic'
loop_
_space_group_symop_operation_xyz
x,y,z
-x,1/2+y,-z
-x,-y,-z
x,1/2-y,z
loop_
_atom_site_type_symbol
_atom_site_label
_atom_site_fract_x
_atom_site_fract_y
_atom_site_fract_z
Si Si1 0.906017 0.073115 0.960867
Si Si2 0.520338 0.425489 0.326733
Si Si3 0.159808 0.423690 0.477904
Si Si4 0.136503 0.578641 0.698907
Si Si5 0.447805 0.074283 0.899024
Si Si6 0.369016 0.077642 0.493582
Si Si7 0.931460 0.921703 0.746096
Si Si8 0.763967 0.924976 0.114054
O O1 0.915324 0.250000 0.972593
O O2 0.885901 0.026069 0.836038
O O3 0.821595 0.019179 0.029822
O O4 0.000000 0.000000 0.000000
O O5 0.529223 0.250000 0.303903
O O6 0.513996 0.509376 0.212297
O O7 0.607158 0.478824 0.399817
O O8 0.429506 0.467616 0.391280
O O9 0.140113 0.250000 0.504000
O O10 0.124540 0.523519 0.575784
O O11 0.265674 0.452732 0.457537
O O12 0.104019 0.478380 0.371376
O O13 0.170316 0.750000 0.700385
O O14 0.210215 0.476239 0.762999
O O15 0.040269 0.563885 0.757174
O O16 0.467129 0.250000 0.900703
O O17 0.341255 0.038721 0.908702
O O18 0.500000 0.000000 0.000000
O O19 0.386820 0.250000 0.526497
O O20 0.900478 0.750000 0.764577
O O21 0.786111 0.750000 0.101407
#
# Coordination Sequence:
#
# PCOD8074840 Si02
#       8
#     4   4   4   4   4   4   4   4
#     4  12  24  40  64  91 120 156 202 253 301 355
#     4  10  20  36  60  87 117 153 197 247 299 356
#     4  10  21  37  57  82 118 158 198 243 296 359
#     4  11  22  36  58  87 120 156 200 249 298 356
#     4  11  25  43  63  89 122 159 200 249 306 365
#     4   9  19  36  58  85 115 154 198 242 297 358
#     4  10  22  39  58  84 119 160 200 246 302 356
#     4  11  24  42  65  90 119 160 204 247 302 364
#
# _framework density 19.942018999999998
#
# number of rings (size 3 to 8) (size 9 to 14) (size 15 to 20)
#    0.000    1.500    1.250    3.750    0.000    8.000 
#    0.000    2.500    0.000    0.000    0.000    0.000 
#    0.000    0.000    0.000    0.000    0.000    0.000 
#
# Total GULP energy -397003.068726 kJ/mol
# GULP energy per Si atom -12406.345898 kJ/mol
# Density = 1.989663 g / cm^3
# Si number density = 19.942019 Si / 1000 Ang^3
#
#
#
# Elastic Constant Matrix: (Units=GPa)
#
#
# Indices 1 2 3 4 5 6 
#
# 1 66.3445 41.8256 42.7249 0.0000 9.9882 0.0000
# 2 41.8256 104.9085 67.5834 0.0000 2.4935 0.0000
# 3 42.7249 67.5834 147.6081 0.0000 5.1153 0.0000
# 4 0.0000 0.0000 0.0000 42.1694 0.0000 -1.3682
# 5 9.9882 2.4935 5.1153 0.0000 33.0370 0.0000
# 6 0.0000 0.0000 0.0000 -1.3682 0.0000 29.1820
#
#
#
# Elastic Compliance Matrix: (Units=1/GPa)
#
#
# Indices 1 2 3 4 5 6 
#
# 1 0.022174 -0.006663 -0.003170 0.000000 -0.005710 0.000000
# 2 -0.006663 0.015522 -0.005236 0.000000 0.001654 0.000000
# 3 -0.003170 -0.005236 0.010097 0.000000 -0.000210 0.000000
# 4 0.000000 0.000000 0.000000 0.023750 0.000000 0.001114
# 5 -0.005710 0.001654 -0.000210 0.000000 0.031903 0.000000
# 6 0.000000 0.000000 0.000000 0.001114 0.000000 0.034320
#
#
# Mechanical properties :
#
#
# Convention : Reuss Voigt Hill
#
# Bulk Modulus (GPa) = 56.63656 69.23653 62.93655
# Shear Modulus (GPa) = 28.77069 31.99284 30.38176
#
# Velocity S-wave (km/s) = 3.80243 4.00971 3.90744
# Velocity P-wave (km/s) = 6.90943 7.49875 7.21012
#
# Compressibility (1/GPa) = 0.01765644
#
# Stress axis : x y z
#
# Youngs Moduli (GPa) = 45.09737 64.42445 99.04294
#
# Poissons Ratio (x) = 0.42925 0.31394
# Poissons Ratio (y) = 0.30048 0.51855
# Poissons Ratio (z) = 0.14295 0.33730
#
# Static dielectric constant tensor:
#      x y z
#    x 3.615700 0.000000 -0.029740 
#    y 0.000000 3.736970 0.000000 
#    z -0.029740 0.000000 3.738550 
# 
# 
# High freq. dielectric constant tensor:
#      x y z
#    x 1.777350 0.000000 -0.003470 
#    y 0.000000 1.782290 0.000000 
#    z -0.003470 0.000000 1.788660 
# 
# From -- ./inp_files/38061.got.cif
#   From: 2010.06.25/outbox.cif.g09.slc.cpg/sg11_20_cif.got.tgz:38061.got - 2010.06.27 23:14:04.
