data_PCOD8074255
_publ_section_title
;
Structure prediction by ZEFSAII (Michael W. Deem and Ramdas Pophale) SiO2 
 PCOD8074255
Probable space group: P 21/M
;
_chemical_formula_sum "Si O2"
_cell_formula_units_Z 24
_cell_length_a 22.994747
_cell_length_b 8.697303
_cell_length_c 11.410857
_cell_angle_alpha 90.000000
_cell_angle_beta 30.616750
_cell_angle_gamma 90.000000
_cell_volume 1162.249125
_symmetry_space_group_name_H-M "P 21/M"
_symmetry_group_IT_number 11
_symmetry_cell_setting 'monoclinic'
loop_
_space_group_symop_operation_xyz
x,y,z
-x,1/2+y,-z
-x,-y,-z
x,1/2-y,z
loop_
_atom_site_type_symbol
_atom_site_label
_atom_site_fract_x
_atom_site_fract_y
_atom_site_fract_z
Si Si1 0.110718 0.424659 0.359767
Si Si2 0.126168 0.568385 0.780709
Si Si3 0.332472 0.076756 0.832887
Si Si4 0.546177 0.933310 0.149286
Si Si5 0.317891 0.066726 0.599162
Si Si6 0.755933 0.430218 0.665115
O O1 0.088058 0.250000 0.439783
O O2 0.150945 0.521882 0.400937
O O3 0.000000 0.500000 0.500000
O O4 0.201698 0.429822 0.098158
O O5 0.116793 0.750000 0.809599
O O6 0.197535 0.500009 0.765055
O O7 0.193529 0.519459 0.547060
O O8 0.000000 0.500000 0.000000
O O9 0.375494 0.250000 0.744993
O O10 0.410660 0.000054 0.798850
O O11 0.340982 0.998889 0.690258
O O12 0.540840 0.750000 0.157305
O O13 0.422021 0.004943 0.337990
O O14 0.635179 0.984729 0.894949
O O15 0.311264 0.250000 0.607957
O O16 0.733574 0.250000 0.711086
#
# Coordination Sequence:
#
# PCOD8074255 Si02
#       6
#     4   4   4   4   4   4
#     4  10  20  35  57  87 120 156 198 244 298 356
#     4  11  26  45  63  86 118 158 204 253 301 356
#     4   8  18  35  56  86 123 157 192 240 294 350
#     4  10  20  38  63  92 124 156 196 248 301 358
#     4  11  22  38  62  90 122 162 201 243 298 359
#     4  10  22  41  62  85 117 156 200 251 301 354
#
# _framework density 20.649618
#
# number of rings (size 3 to 8) (size 9 to 14) (size 15 to 20)
#    0.000    2.000    0.000    4.000    2.333    3.333 
#    0.000    8.333    0.000    0.000    0.000    0.000 
#    0.000    0.000    0.000    0.000    0.000    0.000 
#
# Total GULP energy -297592.277351 kJ/mol
# GULP energy per Si atom -12399.678223 kJ/mol
# Density = 2.060262 g / cm^3
# Si number density = 20.649618 Si / 1000 Ang^3
#
#
#
# Elastic Constant Matrix: (Units=GPa)
#
#
# Indices 1 2 3 4 5 6 
#
# 1 64.7829 31.1651 57.9522 0.0000 -5.2902 0.0000
# 2 31.1651 74.7953 52.5819 0.0000 0.8256 0.0000
# 3 57.9522 52.5819 112.1716 0.0000 -12.4391 0.0000
# 4 0.0000 0.0000 0.0000 36.6022 0.0000 -5.9742
# 5 -5.2902 0.8256 -12.4391 0.0000 41.2784 0.0000
# 6 0.0000 0.0000 0.0000 -5.9742 0.0000 33.2723
#
#
#
# Elastic Compliance Matrix: (Units=1/GPa)
#
#
# Indices 1 2 3 4 5 6 
#
# 1 0.028974 -0.002251 -0.013964 0.000000 -0.000450 0.000000
# 2 -0.002251 0.020568 -0.008852 0.000000 -0.003367 0.000000
# 3 -0.013964 -0.008852 0.020795 0.000000 0.004654 0.000000
# 4 0.000000 0.000000 0.000000 0.028146 0.000000 0.005054
# 5 -0.000450 -0.003367 0.004654 0.000000 0.025638 0.000000
# 6 0.000000 0.000000 0.000000 0.005054 0.000000 0.030962
#
#
# Mechanical properties :
#
#
# Convention : Reuss Voigt Hill
#
# Bulk Modulus (GPa) = 49.49732 59.46087 54.47910
# Shear Modulus (GPa) = 23.59053 29.56727 26.57890
#
# Velocity S-wave (km/s) = 3.38364 3.78809 3.59156
# Velocity P-wave (km/s) = 6.26797 6.92752 6.60598
#
# Compressibility (1/GPa) = 0.02020311
#
# Stress axis : x y z
#
# Youngs Moduli (GPa) = 34.51421 48.61933 48.08945
#
# Poissons Ratio (x) = 0.10944 0.67150
# Poissons Ratio (y) = 0.07769 0.42569
# Poissons Ratio (z) = 0.48194 0.43038
#
# Static dielectric constant tensor:
#      x y z
#    x 3.865620 0.000000 0.079640 
#    y 0.000000 3.644020 0.000000 
#    z 0.079640 0.000000 3.830630 
# 
# 
# High freq. dielectric constant tensor:
#      x y z
#    x 1.808180 0.000000 -0.005070 
#    y 0.000000 1.802470 0.000000 
#    z -0.005070 0.000000 1.816780 
# 
# From -- ./inp_files/43875.got.cif
#   From: 2010.06.25/outbox.cif.g09.slc.cpg/sg11_22_cif.got.tgz:43875.got - 2010.06.27 23:14:04.
