data_PCOD8074081
_publ_section_title
;
Structure prediction by ZEFSAII (Michael W. Deem and Ramdas Pophale) SiO2 
 PCOD8074081
Probable space group: P 21/M
;
_chemical_formula_sum "Si O2"
_cell_formula_units_Z 28
_cell_length_a 20.360045
_cell_length_b 8.464341
_cell_length_c 14.802312
_cell_angle_alpha 90.000000
_cell_angle_beta 147.133759
_cell_angle_gamma 90.000000
_cell_volume 1384.347028
_symmetry_space_group_name_H-M "P 21/M"
_symmetry_group_IT_number 11
_symmetry_cell_setting 'monoclinic'
loop_
_space_group_symop_operation_xyz
x,y,z
-x,1/2+y,-z
-x,-y,-z
x,1/2-y,z
loop_
_atom_site_type_symbol
_atom_site_label
_atom_site_fract_x
_atom_site_fract_y
_atom_site_fract_z
Si Si1 0.055366 0.566737 0.721743
Si Si2 0.564628 0.565247 0.805061
Si Si3 0.135340 0.562663 0.153013
Si Si4 0.795516 0.065644 0.409707
Si Si5 0.297046 0.938318 0.505634
Si Si6 0.259682 0.433336 0.837576
Si Si7 0.216150 0.062589 0.060034
O O1 0.021040 0.750000 0.684524
O O2 0.150471 0.535296 0.752141
O O3 0.937159 0.466234 0.562992
O O4 0.106312 0.514442 0.877770
O O5 0.551550 0.750000 0.775650
O O6 0.431063 0.489828 0.641387
O O7 0.656265 0.500693 0.833911
O O8 0.617862 0.526898 0.965951
O O9 0.134016 0.750000 0.144390
O O10 0.205045 0.502474 0.322554
O O11 0.208715 0.491020 0.154232
O O12 0.000000 0.500000 0.000000
O O13 0.768899 0.250000 0.371109
O O14 0.748839 0.997070 0.451138
O O15 0.721122 0.978388 0.244454
O O16 0.300258 0.750000 0.510977
O O17 0.226188 0.250000 0.810290
O O18 0.204010 0.250000 0.036957
#
# Coordination Sequence:
#
# PCOD8074081 Si02
#       7
#     4   4   4   4   4   4   4
#     4  11  21  35  56  82 112 144 186 232 275 328
#     4   8  17  36  58  79 107 144 184 225 274 329
#     4  11  22  37  59  85 114 146 185 229 276 330
#     4  11  21  34  54  80 112 148 187 230 278 328
#     4   9  20  37  56  79 108 145 186 229 274 324
#     4  10  20  35  56  81 111 145 182 227 279 333
#     4  10  20  36  59  84 113 146 179 223 280 334
#
# _framework density 20.226141999999999
#
# number of rings (size 3 to 8) (size 9 to 14) (size 15 to 20)
#    0.000    2.000    0.000    5.143    0.000    2.286 
#    0.000    2.143    0.000   18.857    0.000    0.000 
#    0.000    0.000    0.000    0.000    0.000    0.000 
#
# Total GULP energy -347242.696400 kJ/mol
# GULP energy per Si atom -12401.524871 kJ/mol
# Density = 2.018011 g / cm^3
# Si number density = 20.226142 Si / 1000 Ang^3
#
#
#
# Elastic Constant Matrix: (Units=GPa)
#
#
# Indices 1 2 3 4 5 6 
#
# 1 125.7850 23.2796 76.6679 0.0000 -25.0313 0.0000
# 2 23.2796 43.8190 16.2784 0.0000 -0.2632 0.0000
# 3 76.6679 16.2784 139.0241 0.0000 -0.5728 0.0000
# 4 0.0000 0.0000 0.0000 22.1287 0.0000 -7.2601
# 5 -25.0313 -0.2632 -0.5728 0.0000 36.0575 0.0000
# 6 0.0000 0.0000 0.0000 -7.2601 0.0000 28.5434
#
#
#
# Elastic Compliance Matrix: (Units=1/GPa)
#
#
# Indices 1 2 3 4 5 6 
#
# 1 0.016188 -0.005472 -0.008241 0.000000 0.011067 0.000000
# 2 -0.005472 0.025709 -0.000007 0.000000 -0.003611 0.000000
# 3 -0.008241 -0.000007 0.011716 0.000000 -0.005535 0.000000
# 4 0.000000 0.000000 0.000000 0.049305 0.000000 0.012541
# 5 0.011067 -0.003611 -0.005535 0.000000 0.035302 0.000000
# 6 0.000000 0.000000 0.000000 0.012541 0.000000 0.038224
#
#
# Mechanical properties :
#
#
# Convention : Reuss Voigt Hill
#
# Bulk Modulus (GPa) = 38.20873 60.11998 49.16436
# Shear Modulus (GPa) = 23.51729 30.17275 26.84502
#
# Velocity S-wave (km/s) = 3.41356 3.86653 3.64709
# Velocity P-wave (km/s) = 5.87097 7.05137 6.48807
#
# Compressibility (1/GPa) = 0.02617203
#
# Stress axis : x y z
#
# Youngs Moduli (GPa) = 61.77332 38.89619 85.35532
#
# Poissons Ratio (x) = 0.21285 0.70341
# Poissons Ratio (y) = 0.33804 0.00063
# Poissons Ratio (z) = 0.50907 0.00029
#
# Static dielectric constant tensor:
#      x y z
#    x 3.842780 0.000000 -0.043920 
#    y 0.000000 3.417100 0.000000 
#    z -0.043920 0.000000 3.860160 
# 
# 
# High freq. dielectric constant tensor:
#      x y z
#    x 1.794490 0.000000 -0.006530 
#    y 0.000000 1.769980 0.000000 
#    z -0.006530 0.000000 1.794120 
# 
# From -- ./inp_files/54624.got.cif
#   From: 2010.06.25/outbox.cif.g09.slc.cpg/sg11_28_cif.got.tgz:54624.got - 2010.06.27 23:14:04.
