data_PCOD8074003
_publ_section_title
;
Structure prediction by ZEFSAII (Michael W. Deem and Ramdas Pophale) SiO2 
 PCOD8074003
Probable space group: P 21/M
;
_chemical_formula_sum "Si O2"
_cell_formula_units_Z 28
_cell_length_a 11.919984
_cell_length_b 8.980844
_cell_length_c 15.797509
_cell_angle_alpha 90.000000
_cell_angle_beta 56.243547
_cell_angle_gamma 90.000000
_cell_volume 1406.031763
_symmetry_space_group_name_H-M "P 21/M"
_symmetry_group_IT_number 11
_symmetry_cell_setting 'monoclinic'
loop_
_space_group_symop_operation_xyz
x,y,z
-x,1/2+y,-z
-x,-y,-z
x,1/2-y,z
loop_
_atom_site_type_symbol
_atom_site_label
_atom_site_fract_x
_atom_site_fract_y
_atom_site_fract_z
Si Si1 0.866329 0.426763 0.518069
Si Si2 0.858162 0.924872 0.044711
Si Si3 0.673053 0.423571 0.257717
Si Si4 0.136381 0.424554 0.147037
Si Si5 0.392368 0.077933 0.303756
Si Si6 0.143251 0.573571 0.669120
Si Si7 0.592150 0.923249 0.892588
O O1 0.883423 0.250000 0.514973
O O2 0.735254 0.474507 0.625412
O O3 0.842187 0.485963 0.432492
O O4 0.000000 0.500000 0.500000
O O5 0.873388 0.750000 0.051887
O O6 0.745194 0.985518 0.154156
O O7 0.816083 0.967331 0.967023
O O8 0.000000 0.000000 0.000000
O O9 0.704040 0.250000 0.229074
O O10 0.512682 0.455272 0.319985
O O11 0.729392 0.475431 0.325918
O O12 0.114249 0.250000 0.163874
O O13 0.253334 0.479347 0.161266
O O14 0.992973 0.497474 0.233173
O O15 0.346055 0.250000 0.327597
O O16 0.450155 0.040472 0.185876
O O17 0.134983 0.750000 0.669997
O O18 0.582824 0.750000 0.916792
O O19 0.500000 0.000000 0.000000
#
# Coordination Sequence:
#
# PCOD8074003 Si02
#       7
#     4   4   4   4   4   4   4
#     4  11  23  40  64  87 112 148 193 241 289 344
#     4  11  20  32  53  81 114 153 192 235 283 337
#     4  10  20  37  59  83 115 153 191 233 286 346
#     4   9  17  31  53  76 105 147 188 223 275 341
#     4  10  22  39  60  86 119 153 187 234 289 341
#     4   9  18  35  58  82 109 147 189 231 287 346
#     4  10  20  35  55  80 111 149 188 230 279 335
#
# _framework density 19.914200000000001
#
# number of rings (size 3 to 8) (size 9 to 14) (size 15 to 20)
#    0.000    2.000    1.429    2.571    0.000    4.000 
#    0.000    2.143    0.000    0.000    0.000    0.000 
#    0.000    0.000    0.000    0.000    0.000    0.000 
#
# Total GULP energy -347138.549105 kJ/mol
# GULP energy per Si atom -12397.805325 kJ/mol
# Density = 1.986887 g / cm^3
# Si number density = 19.914200 Si / 1000 Ang^3
#
#
#
# Elastic Constant Matrix: (Units=GPa)
#
#
# Indices 1 2 3 4 5 6 
#
# 1 154.3753 37.3791 60.7208 0.0000 9.0768 0.0000
# 2 37.3791 57.5823 38.4443 0.0000 -0.5543 0.0000
# 3 60.7208 38.4443 112.6750 0.0000 2.9329 0.0000
# 4 0.0000 0.0000 0.0000 30.6852 0.0000 -4.9807
# 5 9.0768 -0.5543 2.9329 0.0000 33.3242 0.0000
# 6 0.0000 0.0000 0.0000 -4.9807 0.0000 24.8388
#
#
#
# Elastic Compliance Matrix: (Units=1/GPa)
#
#
# Indices 1 2 3 4 5 6 
#
# 1 0.008815 -0.003378 -0.003542 0.000000 -0.002145 0.000000
# 2 -0.003378 0.023821 -0.006356 0.000000 0.001876 0.000000
# 3 -0.003542 -0.006356 0.012960 0.000000 -0.000282 0.000000
# 4 0.000000 0.000000 0.000000 0.033685 0.000000 0.006755
# 5 -0.002145 0.001876 -0.000282 0.000000 0.030649 0.000000
# 6 0.000000 0.000000 0.000000 0.006755 0.000000 0.041614
#
#
# Mechanical properties :
#
#
# Convention : Reuss Voigt Hill
#
# Bulk Modulus (GPa) = 52.51096 66.41345 59.46221
# Shear Modulus (GPa) = 27.10857 30.30886 28.70872
#
# Velocity S-wave (km/s) = 3.69354 3.90548 3.80099
# Velocity P-wave (km/s) = 6.67948 7.33207 7.01337
#
# Compressibility (1/GPa) = 0.01904364
#
# Stress axis : x y z
#
# Youngs Moduli (GPa) = 113.44333 41.98000 77.16146
#
# Poissons Ratio (x) = 0.14181 0.27331
# Poissons Ratio (y) = 0.38322 0.49044
# Poissons Ratio (z) = 0.40182 0.26682
#
# Static dielectric constant tensor:
#      x y z
#    x 3.967250 0.000000 0.037440 
#    y 0.000000 3.177420 0.000000 
#    z 0.037440 0.000000 1.690000 
# 
# 
# High freq. dielectric constant tensor:
#      x y z
#    x 1.796470 0.000000 0.006540 
#    y 0.000000 1.743260 0.000000 
#    z 0.006540 0.000000 1.775760 
# 
# From -- ./inp_files/49161.got.cif
#   From: 2010.06.25/outbox.cif.g09.slc.cpg/sg11_25_cif.got.tgz:49161.got - 2010.06.27 23:14:04.
