data_PCOD8074695
_publ_section_title
;
Structure prediction by ZEFSAII (Michael W. Deem and Ramdas Pophale) SiO2 
 PCOD8074695
Probable space group: P 21/M
;
_chemical_formula_sum "Si O2"
_cell_formula_units_Z 32
_cell_length_a 12.318669
_cell_length_b 9.100750
_cell_length_c 28.898653
_cell_angle_alpha 90.000000
_cell_angle_beta 30.917062
_cell_angle_gamma 90.000000
_cell_volume 1664.600129
_symmetry_space_group_name_H-M "P 21/M"
_symmetry_group_IT_number 11
_symmetry_cell_setting 'monoclinic'
loop_
_space_group_symop_operation_xyz
x,y,z
-x,1/2+y,-z
-x,-y,-z
x,1/2-y,z
loop_
_atom_site_type_symbol
_atom_site_label
_atom_site_fract_x
_atom_site_fract_y
_atom_site_fract_z
Si Si1 0.748287 0.080098 0.687886
Si Si2 0.915956 0.584056 0.281303
Si Si3 0.035848 0.415008 0.839981
Si Si4 0.523870 0.415907 0.444170
Si Si5 0.506608 0.580347 0.307244
Si Si6 0.255155 0.423767 0.214972
Si Si7 0.418015 0.575264 0.983515
Si Si8 0.807040 0.915391 0.511066
O O1 0.781608 0.250000 0.690121
O O2 0.549907 0.061899 0.726043
O O3 0.957604 0.022330 0.584244
O O4 0.695480 0.984964 0.752285
O O5 0.880656 0.750000 0.312367
O O6 0.040535 0.495346 0.274802
O O7 0.028227 0.582378 0.190743
O O8 0.695177 0.503894 0.351658
O O9 0.066617 0.250000 0.846892
O O10 0.260129 0.494514 0.769918
O O11 0.822006 0.480826 0.941068
O O12 0.500000 0.500000 0.500000
O O13 0.601170 0.250000 0.424685
O O14 0.303612 0.419080 0.498253
O O15 0.513186 0.750000 0.320228
O O16 0.321573 0.509114 0.405010
O O17 0.225546 0.250000 0.228455
O O18 0.442290 0.469635 0.111717
O O19 0.420984 0.750000 0.990664
O O20 0.500000 0.500000 0.000000
O O21 0.818514 0.750000 0.526483
#
# Coordination Sequence:
#
# PCOD8074695 Si02
#       8
#     4   4   4   4   4   4   4   4
#     4  10  22  39  58  81 113 152 193 233 278 336
#     4  11  20  34  57  80 111 150 185 228 288 343
#     4   9  18  34  57  84 111 142 179 227 284 336
#     4  11  22  34  50  77 115 154 193 235 283 339
#     4  10  20  37  61  85 109 147 196 235 274 334
#     4  11  23  37  57  85 116 148 188 236 286 343
#     4  10  20  36  58  85 114 145 183 230 285 345
#     4  10  21  36  54  80 112 147 187 235 283 327
#
# _framework density 19.223837
#
# number of rings (size 3 to 8) (size 9 to 14) (size 15 to 20)
#    0.000    1.750    2.500    2.250    0.000    3.000 
#    0.000    1.250    0.000    0.000    0.000    0.000 
#    0.000    0.000    0.000    0.000    0.000    0.000 
#
# Total GULP energy -396687.772180 kJ/mol
# GULP energy per Si atom -12396.492881 kJ/mol
# Density = 1.918008 g / cm^3
# Si number density = 19.223837 Si / 1000 Ang^3
#
#
#
# Elastic Constant Matrix: (Units=GPa)
#
#
# Indices 1 2 3 4 5 6 
#
# 1 97.2233 35.8001 45.7305 0.0000 -5.5299 0.0000
# 2 35.8001 79.6210 37.9125 0.0000 2.8568 0.0000
# 3 45.7305 37.9125 117.6729 0.0000 -9.1015 0.0000
# 4 0.0000 0.0000 0.0000 23.1121 0.0000 2.8938
# 5 -5.5299 2.8568 -9.1015 0.0000 22.1904 0.0000
# 6 0.0000 0.0000 0.0000 2.8938 0.0000 26.9190
#
#
#
# Elastic Compliance Matrix: (Units=1/GPa)
#
#
# Indices 1 2 3 4 5 6 
#
# 1 0.013855 -0.004546 -0.003726 0.000000 0.002510 0.000000
# 2 -0.004546 0.016678 -0.003987 0.000000 -0.004915 0.000000
# 3 -0.003726 -0.003987 0.011565 0.000000 0.004329 0.000000
# 4 0.000000 0.000000 0.000000 0.043858 0.000000 -0.004715
# 5 0.002510 -0.004915 0.004329 0.000000 0.048098 0.000000
# 6 0.000000 0.000000 0.000000 -0.004715 0.000000 0.037655
#
#
# Mechanical properties :
#
#
# Convention : Reuss Voigt Hill
#
# Bulk Modulus (GPa) = 56.87762 59.26703 58.07232
# Shear Modulus (GPa) = 24.74192 26.11591 25.42892
#
# Velocity S-wave (km/s) = 3.59143 3.68981 3.64095
# Velocity P-wave (km/s) = 6.84464 7.00355 6.92455
#
# Compressibility (1/GPa) = 0.01758161
#
# Stress axis : x y z
#
# Youngs Moduli (GPa) = 72.17868 59.95848 86.46495
#
# Poissons Ratio (x) = 0.27254 0.32213
# Poissons Ratio (y) = 0.32809 0.34475
# Poissons Ratio (z) = 0.26891 0.23906
#
# Static dielectric constant tensor:
#      x y z
#    x 3.442350 0.000000 -0.215470 
#    y 0.000000 3.678400 0.000000 
#    z -0.215470 0.000000 3.901480 
# 
# 
# High freq. dielectric constant tensor:
#      x y z
#    x 1.742910 0.000000 -0.009170 
#    y 0.000000 1.733470 0.000000 
#    z -0.009170 0.000000 1.753090 
# 
# From -- ./inp_files/38164.got.cif
#   From: 2010.06.25/outbox.cif.g09.slc.cpg/sg11_20_cif.got.tgz:38164.got - 2010.06.27 23:14:04.
