data_PCOD8074506
_publ_section_title
;
Structure prediction by ZEFSAII (Michael W. Deem and Ramdas Pophale) SiO2 
 PCOD8074506
Probable space group: P 21/M
;
_chemical_formula_sum "Si O2"
_cell_formula_units_Z 28
_cell_length_a 18.158256
_cell_length_b 9.595156
_cell_length_c 15.076995
_cell_angle_alpha 90.000000
_cell_angle_beta 35.423380
_cell_angle_gamma 90.000000
_cell_volume 1522.578315
_symmetry_space_group_name_H-M "P 21/M"
_symmetry_group_IT_number 11
_symmetry_cell_setting 'monoclinic'
loop_
_space_group_symop_operation_xyz
x,y,z
-x,1/2+y,-z
-x,-y,-z
x,1/2-y,z
loop_
_atom_site_type_symbol
_atom_site_label
_atom_site_fract_x
_atom_site_fract_y
_atom_site_fract_z
Si Si1 0.964906 0.409782 0.307906
Si Si2 0.728740 0.908181 0.563140
Si Si3 0.054466 0.088239 0.027270
Si Si4 0.434186 0.088095 0.440193
Si Si5 0.654463 0.591354 0.279045
Si Si6 0.621518 0.591463 0.857278
Si Si7 0.895204 0.588652 0.655420
O O1 0.920941 0.250000 0.346642
O O2 0.851779 0.499590 0.459555
O O3 0.082889 0.426215 0.260087
O O4 0.998440 0.462835 0.176223
O O5 0.773612 0.750000 0.502051
O O6 0.654190 0.967517 0.551634
O O7 0.636240 0.917648 0.737378
O O8 0.024144 0.250000 0.038546
O O9 0.203280 0.062002 0.889295
O O10 0.000000 0.000000 0.000000
O O11 0.465827 0.250000 0.397654
O O12 0.359998 0.054028 0.603329
O O13 0.566414 0.006256 0.305703
O O14 0.613711 0.750000 0.301441
O O15 0.595107 0.750000 0.913670
O O16 0.751769 0.536179 0.775707
O O17 0.500000 0.500000 0.000000
O O18 0.908326 0.750000 0.611706
O O19 0.000000 0.500000 0.500000
#
# Coordination Sequence:
#
# PCOD8074506 Si02
#       7
#     4   4   4   4   4   4   4
#     4  10  21  35  56  84 110 142 187 232 276 332
#     4  10  20  36  56  80 109 140 181 227 275 333
#     4  10  21  36  53  78 111 144 181 227 276 327
#     4   9  18  32  52  75 102 137 177 220 264 318
#     4   9  18  33  51  73 103 140 177 216 267 321
#     4  10  22  38  57  83 114 146 182 229 283 338
#     4  10  20  37  59  83 112 147 188 235 283 337
#
# _framework density 18.389859000000001
#
# number of rings (size 3 to 8) (size 9 to 14) (size 15 to 20)
#    0.000    2.286    1.429    0.857    0.000    5.143 
#    0.000    4.286    0.000    0.000    0.000    0.000 
#    0.000    0.000    0.000    0.000    0.000    0.000 
#
# Total GULP energy -347224.498249 kJ/mol
# GULP energy per Si atom -12400.874937 kJ/mol
# Density = 1.834800 g / cm^3
# Si number density = 18.389859 Si / 1000 Ang^3
#
#
#
# Elastic Constant Matrix: (Units=GPa)
#
#
# Indices 1 2 3 4 5 6 
#
# 1 122.0497 44.0902 40.3405 0.0000 -6.4525 0.0000
# 2 44.0902 61.8555 46.2302 0.0000 -10.4482 0.0000
# 3 40.3405 46.2302 94.3738 0.0000 -10.5375 0.0000
# 4 0.0000 0.0000 0.0000 31.9171 0.0000 -5.0735
# 5 -6.4525 -10.4482 -10.5375 0.0000 27.8972 0.0000
# 6 0.0000 0.0000 0.0000 -5.0735 0.0000 31.2655
#
#
#
# Elastic Compliance Matrix: (Units=1/GPa)
#
#
# Indices 1 2 3 4 5 6 
#
# 1 0.011155 -0.006999 -0.001404 0.000000 -0.000571 0.000000
# 2 -0.006999 0.030594 -0.011376 0.000000 0.005542 0.000000
# 3 -0.001404 -0.011376 0.016973 0.000000 0.001826 0.000000
# 4 0.000000 0.000000 0.000000 0.032161 0.000000 0.005219
# 5 -0.000571 0.005542 0.001826 0.000000 0.038479 0.000000
# 6 0.000000 0.000000 0.000000 0.005219 0.000000 0.032831
#
#
# Mechanical properties :
#
#
# Convention : Reuss Voigt Hill
#
# Bulk Modulus (GPa) = 52.17975 59.95564 56.06769
# Shear Modulus (GPa) = 24.02229 28.05718 26.03974
#
# Velocity S-wave (km/s) = 3.61817 3.91024 3.76704
# Velocity P-wave (km/s) = 6.77427 7.28423 7.03387
#
# Compressibility (1/GPa) = 0.01916452
#
# Stress axis : x y z
#
# Youngs Moduli (GPa) = 89.64198 32.68578 58.91725
#
# Poissons Ratio (x) = 0.22876 0.08270
# Poissons Ratio (y) = 0.62740 0.67027
# Poissons Ratio (z) = 0.12583 0.37185
#
# Static dielectric constant tensor:
#      x y z
#    x 3.638130 0.000000 0.019880 
#    y 0.000000 3.384380 0.000000 
#    z 0.019880 0.000000 3.266670 
# 
# 
# High freq. dielectric constant tensor:
#      x y z
#    x 1.726150 0.000000 0.002970 
#    y 0.000000 1.707670 0.000000 
#    z 0.002970 0.000000 1.703580 
# 
# From -- ./inp_files/53222.got.cif
#   From: 2010.06.25/outbox.cif.g09.slc.cpg/sg11_27_cif.got.tgz:53222.got - 2010.06.27 23:14:04.
