data_PCOD8074101
_publ_section_title
;
Structure prediction by ZEFSAII (Michael W. Deem and Ramdas Pophale) SiO2 
 PCOD8074101
Probable space group: P 21/M
;
_chemical_formula_sum "Si O2"
_cell_formula_units_Z 32
_cell_length_a 25.997005
_cell_length_b 9.063969
_cell_length_c 20.670606
_cell_angle_alpha 90.000000
_cell_angle_beta 21.313530
_cell_angle_gamma 90.000000
_cell_volume 1770.373834
_symmetry_space_group_name_H-M "P 21/M"
_symmetry_group_IT_number 11
_symmetry_cell_setting 'monoclinic'
loop_
_space_group_symop_operation_xyz
x,y,z
-x,1/2+y,-z
-x,-y,-z
x,1/2-y,z
loop_
_atom_site_type_symbol
_atom_site_label
_atom_site_fract_x
_atom_site_fract_y
_atom_site_fract_z
Si Si1 0.244457 0.422806 0.433081
Si Si2 0.521059 0.576418 0.155096
Si Si3 0.593475 0.082526 0.572452
Si Si4 0.883195 0.418517 0.300832
Si Si5 0.594824 0.923551 0.441358
Si Si6 0.912630 0.921998 0.047586
Si Si7 0.892337 0.920103 0.543349
Si Si8 0.203944 0.921423 0.219212
O O1 0.271589 0.250000 0.409175
O O2 0.395113 0.504435 0.260754
O O3 0.136127 0.475272 0.615458
O O4 0.170538 0.462171 0.452254
O O5 0.517405 0.750000 0.145554
O O6 0.499394 0.541521 0.256112
O O7 0.671537 0.511136 0.960191
O O8 0.564217 0.250000 0.584902
O O9 0.757672 0.058781 0.396491
O O10 0.549706 0.975390 0.565700
O O11 0.883229 0.250000 0.326109
O O12 0.027369 0.459954 0.094346
O O13 0.575493 0.750000 0.459809
O O14 0.752437 0.976001 0.239452
O O15 0.500000 0.000000 0.500000
O O16 0.926480 0.750000 0.044945
O O17 0.000000 0.000000 0.000000
O O18 0.862297 0.750000 0.596484
O O19 0.060702 0.950614 0.346427
O O20 0.814248 0.023108 0.686347
O O21 0.244376 0.750000 0.173461
#
# Coordination Sequence:
#
# PCOD8074101 Si02
#       8
#     4   4   4   4   4   4   4   4
#     4  10  20  35  56  82 112 143 178 224 271 319
#     4  10  21  37  57  82 112 145 181 222 270 324
#     4   9  18  35  57  77 106 143 179 221 272 322
#     4   9  18  34  55  80 110 140 176 224 273 325
#     4  11  23  37  55  79 110 145 182 225 273 323
#     4  10  20  35  57  82 106 139 183 226 270 323
#     4   9  20  38  57  80 113 145 178 224 273 320
#     4  10  20  36  59  83 109 144 187 225 264 322
#
# _framework density 18.075278000000001
#
# number of rings (size 3 to 8) (size 9 to 14) (size 15 to 20)
#    0.000    2.250    1.250    2.250    0.000    5.500 
#    2.250    0.000    0.000    0.000    0.000    0.000 
#    0.000    0.000    0.000    0.000    0.000    0.000 
#
# Total GULP energy -396863.975519 kJ/mol
# GULP energy per Si atom -12401.999235 kJ/mol
# Density = 1.803414 g / cm^3
# Si number density = 18.075278 Si / 1000 Ang^3
#
#
#
# Elastic Constant Matrix: (Units=GPa)
#
#
# Indices 1 2 3 4 5 6 
#
# 1 130.1795 67.8917 70.3420 0.0000 -0.6355 0.0000
# 2 67.8917 93.1553 63.2742 0.0000 0.0751 0.0000
# 3 70.3420 63.2742 130.8844 0.0000 2.0479 0.0000
# 4 0.0000 0.0000 0.0000 33.0831 0.0000 4.0939
# 5 -0.6355 0.0751 2.0479 0.0000 18.2607 0.0000
# 6 0.0000 0.0000 0.0000 4.0939 0.0000 32.4424
#
#
#
# Elastic Compliance Matrix: (Units=1/GPa)
#
#
# Indices 1 2 3 4 5 6 
#
# 1 0.013525 -0.007312 -0.003748 0.000000 0.000921 0.000000
# 2 -0.007312 0.019947 -0.005719 0.000000 0.000305 0.000000
# 3 -0.003748 -0.005719 0.012443 0.000000 -0.001502 0.000000
# 4 0.000000 0.000000 0.000000 0.030706 0.000000 -0.003875
# 5 0.000921 0.000305 -0.001502 0.000000 0.054962 0.000000
# 6 0.000000 0.000000 0.000000 -0.003875 0.000000 0.031313
#
#
# Mechanical properties :
#
#
# Convention : Reuss Voigt Hill
#
# Bulk Modulus (GPa) = 80.91920 84.13723 82.52822
# Shear Modulus (GPa) = 24.92862 26.93800 25.93331
#
# Velocity S-wave (km/s) = 3.71773 3.86466 3.79190
# Velocity P-wave (km/s) = 7.95574 8.15864 8.05783
#
# Compressibility (1/GPa) = 0.01235801
#
# Stress axis : x y z
#
# Youngs Moduli (GPa) = 73.93817 50.13174 80.36667
#
# Poissons Ratio (x) = 0.36654 0.30125
# Poissons Ratio (y) = 0.54060 0.45958
# Poissons Ratio (z) = 0.27715 0.28668
#
# Static dielectric constant tensor:
#      x y z
#    x 3.207530 0.000000 0.015590 
#    y 0.000000 3.413540 0.000000 
#    z 0.015590 0.000000 3.360130 
# 
# 
# High freq. dielectric constant tensor:
#      x y z
#    x 1.692860 0.000000 0.007270 
#    y 0.000000 1.707620 0.000000 
#    z 0.007270 0.000000 1.703270 
# 
# From -- ./inp_files/67054.got.cif
#   From: 2010.06.25/outbox.cif.g09.slc.cpg/sg11_34_cif.got.tgz:67054.got - 2010.06.27 23:14:04.
