data_PCOD8074754
_publ_section_title
;
Structure prediction by ZEFSAII (Michael W. Deem and Ramdas Pophale) SiO2 
 PCOD8074754
Probable space group: P 21/M
;
_chemical_formula_sum "Si O2"
_cell_formula_units_Z 32
_cell_length_a 9.018179
_cell_length_b 14.793370
_cell_length_c 24.052225
_cell_angle_alpha 90.000000
_cell_angle_beta 149.172352
_cell_angle_gamma 90.000000
_cell_volume 1644.367591
_symmetry_space_group_name_H-M "P 21/M"
_symmetry_group_IT_number 11
_symmetry_cell_setting 'monoclinic'
loop_
_space_group_symop_operation_xyz
x,y,z
-x,1/2+y,-z
-x,-y,-z
x,1/2-y,z
loop_
_atom_site_type_symbol
_atom_site_label
_atom_site_fract_x
_atom_site_fract_y
_atom_site_fract_z
Si Si1 0.230411 0.506186 0.622557
Si Si2 0.024739 0.350035 0.382939
Si Si3 0.833499 0.536017 0.023102
Si Si4 0.797297 0.145686 0.945721
Si Si5 0.834635 0.485138 0.761620
Si Si6 0.805951 0.074494 0.209314
Si Si7 0.341431 0.850961 0.389904
Si Si8 0.816825 0.601152 0.287398
O O1 0.547434 0.517705 0.699502
O O2 0.204085 0.417191 0.653091
O O3 0.000000 0.500000 0.500000
O O4 0.185311 0.594705 0.644699
O O5 0.027195 0.250000 0.408192
O O6 0.351735 0.391682 0.489903
O O7 0.904475 0.343511 0.280744
O O8 0.040893 0.599895 0.053815
O O9 0.929929 0.546239 0.117596
O O10 0.840596 0.428268 0.009316
O O11 0.518862 0.581055 0.917574
O O12 0.905866 0.250000 0.994340
O O13 0.460628 0.157331 0.822030
O O14 0.775701 0.402967 0.701286
O O15 0.973158 0.567305 0.771073
O O16 0.831232 0.992034 0.259683
O O17 0.391570 0.750000 0.384970
O O18 0.114223 0.848185 0.367982
#
# Coordination Sequence:
#
# PCOD8074754 Si02
#       8
#     4   4   4   4   4   4   4   4
#     4  11  21  36  59  87 116 154 192 237 299 352
#     4  10  22  40  58  83 118 156 198 239 286 351
#     4  10  21  39  56  89 118 149 200 243 287 352
#     4  10  20  36  59  85 116 154 193 240 296 347
#     4  11  21  38  61  86 117 151 192 244 295 347
#     4   9  21  37  61  79 111 155 192 234 287 349
#     4  10  21  37  58  86 118 153 195 243 291 344
#     4   9  19  36  58  84 112 147 194 237 284 352
#
# _framework density 19.460370000000001
#
# number of rings (size 3 to 8) (size 9 to 14) (size 15 to 20)
#    0.000    2.000    2.500    0.750    3.500    2.500 
#    0.000    2.500    0.000    1.500    0.000    0.000 
#    0.000    0.000    0.000    0.000    0.000    0.000 
#
# Total GULP energy -396579.614483 kJ/mol
# GULP energy per Si atom -12393.112953 kJ/mol
# Density = 1.941608 g / cm^3
# Si number density = 19.460370 Si / 1000 Ang^3
#
#
#
# Elastic Constant Matrix: (Units=GPa)
#
#
# Indices 1 2 3 4 5 6 
#
# 1 137.7390 27.1060 59.7163 0.0000 9.2475 0.0000
# 2 27.1060 79.6740 22.4818 0.0000 2.8835 0.0000
# 3 59.7163 22.4818 126.4164 0.0000 -9.9052 0.0000
# 4 0.0000 0.0000 0.0000 19.3982 0.0000 -2.3709
# 5 9.2475 2.8835 -9.9052 0.0000 35.2190 0.0000
# 6 0.0000 0.0000 0.0000 -2.3709 0.0000 11.2055
#
#
#
# Elastic Compliance Matrix: (Units=1/GPa)
#
#
# Indices 1 2 3 4 5 6 
#
# 1 0.009896 -0.001926 -0.004625 0.000000 -0.003741 0.000000
# 2 -0.001926 0.013699 -0.001610 0.000000 -0.001069 0.000000
# 3 -0.004625 -0.001610 0.010723 0.000000 0.004362 0.000000
# 4 0.000000 0.000000 0.000000 0.052920 0.000000 0.011197
# 5 -0.003741 -0.001069 0.004362 0.000000 0.030690 0.000000
# 6 0.000000 0.000000 0.000000 0.011197 0.000000 0.091611
#
#
# Mechanical properties :
#
#
# Convention : Reuss Voigt Hill
#
# Bulk Modulus (GPa) = 55.56919 62.49306 59.03112
# Shear Modulus (GPa) = 21.56473 28.79958 25.18215
#
# Velocity S-wave (km/s) = 3.33248 3.85113 3.60115
# Velocity P-wave (km/s) = 6.58971 7.20817 6.90586
#
# Compressibility (1/GPa) = 0.01799558
#
# Stress axis : x y z
#
# Youngs Moduli (GPa) = 101.05597 72.99563 93.25519
#
# Poissons Ratio (x) = 0.14060 0.43131
# Poissons Ratio (y) = 0.19464 0.15016
# Poissons Ratio (z) = 0.46739 0.11754
#
# Static dielectric constant tensor:
#      x y z
#    x 3.829730 0.000000 0.161870 
#    y 0.000000 3.458070 0.000000 
#    z 0.161870 0.000000 3.945420 
# 
# 
# High freq. dielectric constant tensor:
#      x y z
#    x 1.761490 0.000000 0.009820 
#    y 0.000000 1.734490 0.000000 
#    z 0.009820 0.000000 1.768850 
# 
# From -- ./inp_files/22196.got.cif
#   From: 2010.06.25/outbox.cif.g09.slc.cpg/sg11_12_cif.got.tgz:22196.got - 2010.06.27 23:14:04.
