data_PCOD8074104
_publ_section_title
;
Structure prediction by ZEFSAII (Michael W. Deem and Ramdas Pophale) SiO2 
 PCOD8074104
Probable space group: P 21/M
;
_chemical_formula_sum "Si O2"
_cell_formula_units_Z 24
_cell_length_a 17.832897
_cell_length_b 8.943683
_cell_length_c 15.066348
_cell_angle_alpha 90.000000
_cell_angle_beta 147.928670
_cell_angle_gamma 90.000000
_cell_volume 1275.910056
_symmetry_space_group_name_H-M "P 21/M"
_symmetry_group_IT_number 11
_symmetry_cell_setting 'monoclinic'
loop_
_space_group_symop_operation_xyz
x,y,z
-x,1/2+y,-z
-x,-y,-z
x,1/2-y,z
loop_
_atom_site_type_symbol
_atom_site_label
_atom_site_fract_x
_atom_site_fract_y
_atom_site_fract_z
Si Si1 0.897892 0.576758 0.965950
Si Si2 0.914985 0.927840 0.495126
Si Si3 0.093987 0.423237 0.822299
Si Si4 0.396078 0.576866 0.328886
Si Si5 0.590936 0.574988 0.167120
Si Si6 0.388895 0.577831 0.120977
O O1 0.883570 0.750000 0.928637
O O2 0.751754 0.498140 0.802881
O O3 0.948208 0.552373 0.117540
O O4 0.000000 0.500000 0.000000
O O5 0.925975 0.750000 0.500420
O O6 0.752307 0.982695 0.328160
O O7 0.000000 0.000000 0.500000
O O8 0.981305 0.982742 0.653712
O O9 0.086530 0.250000 0.787164
O O10 0.252847 0.477978 0.961786
O O11 0.500000 0.500000 0.500000
O O12 0.385156 0.750000 0.341203
O O13 0.444815 0.549629 0.276530
O O14 0.588081 0.750000 0.146977
O O15 0.519076 0.533068 0.188722
O O16 0.500000 0.500000 0.000000
O O17 0.343133 0.750000 0.061884
#
# Coordination Sequence:
#
# PCOD8074104 Si02
#       6
#     4   4   4   4   4   4
#     4  10  21  37  57  82 113 148 187 232 280 333
#     4  11  23  38  57  82 112 146 183 225 273 327
#     4  10  21  37  57  83 112 143 182 227 275 327
#     4  10  20  35  56  82 112 147 186 229 279 334
#     4  10  22  38  56  80 107 138 178 221 267 319
#     4   9  19  37  58  79 107 144 182 222 273 330
#
# _framework density 18.810103000000002
#
# number of rings (size 3 to 8) (size 9 to 14) (size 15 to 20)
#    0.000    2.000    0.000    3.000    0.000    8.667 
#    0.000    1.667    0.000    0.000    0.000    0.000 
#    0.000    0.000    0.000    0.000    0.000    0.000 
#
# Total GULP energy -297649.131690 kJ/mol
# GULP energy per Si atom -12402.047154 kJ/mol
# Density = 1.876729 g / cm^3
# Si number density = 18.810103 Si / 1000 Ang^3
#
#
#
# Elastic Constant Matrix: (Units=GPa)
#
#
# Indices 1 2 3 4 5 6 
#
# 1 161.8335 70.8421 81.3992 0.0000 12.8819 0.0000
# 2 70.8421 108.7260 75.7029 0.0000 0.6646 0.0000
# 3 81.3992 75.7029 152.6595 0.0000 -6.3500 0.0000
# 4 0.0000 0.0000 0.0000 39.7534 0.0000 -1.8690
# 5 12.8819 0.6646 -6.3500 0.0000 24.4857 0.0000
# 6 0.0000 0.0000 0.0000 -1.8690 0.0000 32.6152
#
#
#
# Elastic Compliance Matrix: (Units=1/GPa)
#
#
# Indices 1 2 3 4 5 6 
#
# 1 0.010366 -0.004100 -0.003757 0.000000 -0.006317 0.000000
# 2 -0.004100 0.015789 -0.005632 0.000000 0.000268 0.000000
# 3 -0.003757 -0.005632 0.011560 0.000000 0.005127 0.000000
# 4 0.000000 0.000000 0.000000 0.025223 0.000000 0.001445
# 5 -0.006317 0.000268 0.005127 0.000000 0.045486 0.000000
# 6 0.000000 0.000000 0.000000 0.001445 0.000000 0.030743
#
#
# Mechanical properties :
#
#
# Convention : Reuss Voigt Hill
#
# Bulk Modulus (GPa) = 93.13798 97.67860 95.40829
# Shear Modulus (GPa) = 29.45937 32.38919 30.92428
#
# Velocity S-wave (km/s) = 3.96175 4.15408 4.05906
# Velocity P-wave (km/s) = 8.39938 8.66315 8.53228
#
# Compressibility (1/GPa) = 0.01073676
#
# Stress axis : x y z
#
# Youngs Moduli (GPa) = 96.46485 63.33625 86.50362
#
# Poissons Ratio (x) = 0.25967 0.32501
# Poissons Ratio (y) = 0.39549 0.48722
# Poissons Ratio (z) = 0.36243 0.35673
#
# Static dielectric constant tensor:
#      x y z
#    x 3.324680 0.000000 -0.035770 
#    y 0.000000 3.609470 0.000000 
#    z -0.035770 0.000000 3.354000 
# 
# 
# High freq. dielectric constant tensor:
#      x y z
#    x 1.741280 0.000000 -0.004700 
#    y 0.000000 1.741380 0.000000 
#    z -0.004700 0.000000 1.733050 
# 
# From -- ./inp_files/20552.got.cif
#   From: 2010.06.25/outbox.cif.g09.slc.cpg/sg11_11_cif.got.tgz:20552.got - 2010.06.27 23:14:04.
