data_PCOD8074368
_publ_section_title
;
Structure prediction by ZEFSAII (Michael W. Deem and Ramdas Pophale) SiO2 
 PCOD8074368
Probable space group: P 21/M
;
_chemical_formula_sum "Si O2"
_cell_formula_units_Z 32
_cell_length_a 29.297439
_cell_length_b 8.983797
_cell_length_c 12.166074
_cell_angle_alpha 90.000000
_cell_angle_beta 149.021564
_cell_angle_gamma 90.000000
_cell_volume 1648.189838
_symmetry_space_group_name_H-M "P 21/M"
_symmetry_group_IT_number 11
_symmetry_cell_setting 'monoclinic'
loop_
_space_group_symop_operation_xyz
x,y,z
-x,1/2+y,-z
-x,-y,-z
x,1/2-y,z
loop_
_atom_site_type_symbol
_atom_site_label
_atom_site_fract_x
_atom_site_fract_y
_atom_site_fract_z
Si Si1 0.541564 0.581267 0.864385
Si Si2 0.018324 0.574477 0.868510
Si Si3 0.360017 0.424327 0.511554
Si Si4 0.313963 0.424060 0.662897
Si Si5 0.935900 0.076238 0.281274
Si Si6 0.733037 0.075490 0.874459
Si Si7 0.130988 0.924958 0.309382
Si Si8 0.589211 0.919918 0.720779
O O1 0.507251 0.750000 0.812754
O O2 0.459005 0.471377 0.683970
O O3 0.598816 0.572343 0.871603
O O4 0.603693 0.528275 0.091702
O O5 0.002675 0.750000 0.837748
O O6 0.927163 0.495740 0.713667
O O7 0.046986 0.516969 0.807264
O O8 0.094161 0.529040 0.112998
O O9 0.349565 0.250000 0.469436
O O10 0.340047 0.470345 0.594369
O O11 0.290191 0.511257 0.292740
O O12 0.292781 0.250000 0.630322
O O13 0.229550 0.515625 0.527403
O O14 0.955357 0.250000 0.324917
O O15 0.835566 0.040420 0.109614
O O16 0.000000 0.000000 0.500000
O O17 0.712829 0.250000 0.832346
O O18 0.675161 0.999250 0.849157
O O19 0.130189 0.750000 0.324275
O O20 0.586158 0.750000 0.672331
O O21 0.500000 0.000000 0.500000
#
# Coordination Sequence:
#
# PCOD8074368 Si02
#       8
#     4   4   4   4   4   4   4   4
#     4  10  22  39  58  80 114 156 191 233 291 347
#     4   9  19  38  60  82 114 152 189 235 292 347
#     4  11  22  36  59  87 115 149 195 242 285 341
#     4  10  22  38  55  83 120 154 188 231 289 351
#     4  10  23  41  61  86 118 156 196 242 296 350
#     4  11  23  40  62  87 118 156 196 242 296 353
#     4  10  20  35  59  88 113 147 192 237 285 343
#     4  11  22  38  61  87 115 152 198 245 291 343
#
# _framework density 19.415239
#
# number of rings (size 3 to 8) (size 9 to 14) (size 15 to 20)
#    0.000    1.750    1.250    2.625    0.000    6.000 
#    0.000    3.750    0.000    0.000    0.000    0.000 
#    0.000    0.000    0.000    0.000    0.000    0.000 
#
# Total GULP energy -396952.929201 kJ/mol
# GULP energy per Si atom -12404.779038 kJ/mol
# Density = 1.937105 g / cm^3
# Si number density = 19.415239 Si / 1000 Ang^3
#
#
#
# Elastic Constant Matrix: (Units=GPa)
#
#
# Indices 1 2 3 4 5 6 
#
# 1 106.0503 45.5802 41.3721 0.0000 11.0366 0.0000
# 2 45.5802 81.1095 47.3764 0.0000 7.8689 0.0000
# 3 41.3721 47.3764 105.7170 0.0000 7.9022 0.0000
# 4 0.0000 0.0000 0.0000 29.3554 0.0000 0.4271
# 5 11.0366 7.8689 7.9022 0.0000 23.9879 0.0000
# 6 0.0000 0.0000 0.0000 0.4271 0.0000 31.8440
#
#
#
# Elastic Compliance Matrix: (Units=1/GPa)
#
#
# Indices 1 2 3 4 5 6 
#
# 1 0.013142 -0.005688 -0.002339 0.000000 -0.003410 0.000000
# 2 -0.005688 0.019389 -0.006339 0.000000 -0.001655 0.000000
# 3 -0.002339 -0.006339 0.013307 0.000000 -0.001228 0.000000
# 4 0.000000 0.000000 0.000000 0.034072 0.000000 -0.000457
# 5 -0.003410 -0.001655 -0.001228 0.000000 0.044204 0.000000
# 6 0.000000 0.000000 0.000000 -0.000457 0.000000 0.031409
#
#
# Mechanical properties :
#
#
# Convention : Reuss Voigt Hill
#
# Bulk Modulus (GPa) = 58.46209 62.39268 60.42738
# Shear Modulus (GPa) = 26.32176 27.60733 26.96455
#
# Velocity S-wave (km/s) = 3.68601 3.77495 3.73075
# Velocity P-wave (km/s) = 6.94927 7.15584 7.05331
#
# Compressibility (1/GPa) = 0.01710510
#
# Stress axis : x y z
#
# Youngs Moduli (GPa) = 76.09474 51.57628 75.14688
#
# Poissons Ratio (x) = 0.29336 0.17577
# Poissons Ratio (y) = 0.43282 0.47638
# Poissons Ratio (z) = 0.17798 0.32696
#
# Static dielectric constant tensor:
#      x y z
#    x 3.804610 0.000000 -0.108430 
#    y 0.000000 3.548080 0.000000 
#    z -0.108430 0.000000 3.509050 
# 
# 
# High freq. dielectric constant tensor:
#      x y z
#    x 1.767590 0.000000 -0.001210 
#    y 0.000000 1.758530 0.000000 
#    z -0.001210 0.000000 1.754620 
# 
# From -- ./inp_files/45292.got.cif
#   From: 2010.06.25/outbox.cif.g09.slc.cpg/sg11_23_cif.got.tgz:45292.got - 2010.06.27 23:14:04.
