data_PCOD8074976
_publ_section_title
;
Structure prediction by ZEFSAII (Michael W. Deem and Ramdas Pophale) SiO2 
 PCOD8074976
Probable space group: P 21/M
;
_chemical_formula_sum "Si O2"
_cell_formula_units_Z 28
_cell_length_a 9.115997
_cell_length_b 15.157203
_cell_length_c 11.431184
_cell_angle_alpha 90.000000
_cell_angle_beta 62.474025
_cell_angle_gamma 90.000000
_cell_volume 1400.686137
_symmetry_space_group_name_H-M "P 21/M"
_symmetry_group_IT_number 11
_symmetry_cell_setting 'monoclinic'
loop_
_space_group_symop_operation_xyz
x,y,z
-x,1/2+y,-z
-x,-y,-z
x,1/2-y,z
loop_
_atom_site_type_symbol
_atom_site_label
_atom_site_fract_x
_atom_site_fract_y
_atom_site_fract_z
Si Si1 0.763797 0.955130 0.182164
Si Si2 0.944729 0.351090 0.812349
Si Si3 0.540151 0.850786 0.416285
Si Si4 0.695443 0.998235 0.942350
Si Si5 0.168963 0.400992 0.528716
Si Si6 0.805007 0.081747 0.375204
Si Si7 0.147209 0.151798 0.270937
O O1 0.595287 0.904879 0.280923
O O2 0.923417 0.892795 0.145111
O O3 0.776894 0.042689 0.256329
O O4 0.753439 0.981933 0.052631
O O5 0.902968 0.250000 0.863148
O O6 0.776869 0.409101 0.872482
O O7 0.024518 0.351024 0.653331
O O8 0.567824 0.750000 0.374766
O O9 0.651779 0.879484 0.484202
O O10 0.352354 0.867830 0.518147
O O11 0.755747 0.917714 0.842132
O O12 0.500000 0.000000 0.000000
O O13 0.140870 0.505920 0.552413
O O14 0.173810 0.370039 0.395800
O O15 0.953298 0.150970 0.312389
O O16 0.214789 0.250000 0.219669
#
# Coordination Sequence:
#
# PCOD8074976 Si02
#       7
#     4   4   4   4   4   4   4
#     4  10  21  43  63  90 126 170 210 253 311 370
#     4  10  21  43  71  94 119 168 219 260 312 374
#     4  10  20  36  64  99 122 156 205 257 309 370
#     4  12  28  43  63  89 133 172 212 260 315 376
#     4  10  20  40  65  92 129 160 198 257 322 371
#     4  10  21  38  67  91 122 161 207 257 313 369
#     4  12  25  41  62  95 128 164 204 257 318 377
#
# _framework density 19.990203000000001
#
# number of rings (size 3 to 8) (size 9 to 14) (size 15 to 20)
#    0.000    1.714    2.857    5.571    4.000    1.714 
#    0.000    2.143    0.000    0.000    0.000    0.000 
#    0.000    0.000    0.000    0.000    0.000    0.000 
#
# Total GULP energy -347202.183266 kJ/mol
# GULP energy per Si atom -12400.077974 kJ/mol
# Density = 1.994470 g / cm^3
# Si number density = 19.990203 Si / 1000 Ang^3
#
#
#
# Elastic Constant Matrix: (Units=GPa)
#
#
# Indices 1 2 3 4 5 6 
#
# 1 32.5936 -28.6369 4.2716 0.0000 -22.4229 0.0000
# 2 -28.6369 25.0845 -19.3345 0.0000 4.9732 0.0000
# 3 4.2716 -19.3345 53.1999 0.0000 -1.3106 0.0000
# 4 0.0000 0.0000 0.0000 9.0900 0.0000 -0.3969
# 5 -22.4229 4.9732 -1.3106 0.0000 39.8876 0.0000
# 6 0.0000 0.0000 0.0000 -0.3969 0.0000 10.7217
#
#
#
# Elastic Compliance Matrix: (Units=1/GPa)
#
#
# Indices 1 2 3 4 5 6 
#
# 1 -0.068336 -0.095654 -0.029953 0.000000 -0.027473 0.000000
# 2 -0.095654 -0.076914 -0.021378 0.000000 -0.044885 0.000000
# 3 -0.029953 -0.021378 0.013094 0.000000 -0.013743 0.000000
# 4 0.000000 0.000000 0.000000 0.110189 0.000000 0.004079
# 5 -0.027473 -0.044885 -0.013743 0.000000 0.014771 0.000000
# 6 0.000000 0.000000 0.000000 0.004079 0.000000 0.093419
#
#
# Mechanical properties :
#
#
# Convention : Reuss Voigt Hill
#
# Bulk Modulus (GPa) = -2.34672 2.60872 0.13100
# Shear Modulus (GPa) = 20.99497 22.24505 21.62001
#
# Velocity S-wave (km/s) = 3.24429 3.33948 3.29223
# Velocity P-wave (km/s) = 3.58573 4.02211 3.81017
#
# Compressibility (1/GPa) = -0.42612745
#
# Stress axis : x y z
#
# Youngs Moduli (GPa) = -14.63356 -13.00154 76.37048
#
# Poissons Ratio (x) = -1.24365 2.28756
# Poissons Ratio (y) = -1.39976 1.63266
# Poissons Ratio (z) = -0.43833 -0.27795
#
# Static dielectric constant tensor:
#      x y z
#    x 3.594490 0.000000 -0.125710 
#    y 0.000000 3.747470 0.000000 
#    z -0.125710 0.000000 3.687810 
# 
# 
# High freq. dielectric constant tensor:
#      x y z
#    x 1.774890 0.000000 -0.007650 
#    y 0.000000 1.785270 0.000000 
#    z -0.007650 0.000000 1.777080 
# 
# From -- ./inp_files/31809.got.cif
#   From: 2010.06.25/outbox.cif.g09.slc.cpg/sg11_16_cif.got.tgz:31809.got - 2010.06.27 23:14:04.
