data_PCOD8074125
_publ_section_title
;
Structure prediction by ZEFSAII (Michael W. Deem and Ramdas Pophale) SiO2 
 PCOD8074125
Probable space group: P 21/M
;
_chemical_formula_sum "Si O2"
_cell_formula_units_Z 28
_cell_length_a 20.350610
_cell_length_b 8.794237
_cell_length_c 14.437954
_cell_angle_alpha 90.000000
_cell_angle_beta 32.527957
_cell_angle_gamma 90.000000
_cell_volume 1389.409386
_symmetry_space_group_name_H-M "P 21/M"
_symmetry_group_IT_number 11
_symmetry_cell_setting 'monoclinic'
loop_
_space_group_symop_operation_xyz
x,y,z
-x,1/2+y,-z
-x,-y,-z
x,1/2-y,z
loop_
_atom_site_type_symbol
_atom_site_label
_atom_site_fract_x
_atom_site_fract_y
_atom_site_fract_z
Si Si1 0.747362 0.427762 0.330687
Si Si2 0.938498 0.927004 0.229192
Si Si3 0.867138 0.071677 0.659970
Si Si4 0.802438 0.575071 0.081797
Si Si5 0.237347 0.073199 0.394849
Si Si6 0.297620 0.075227 0.997360
Si Si7 0.426444 0.928103 0.297202
O O1 0.750763 0.250000 0.305116
O O2 0.877060 0.476835 0.220052
O O3 0.725538 0.518328 0.261513
O O4 0.638130 0.473023 0.529524
O O5 0.926952 0.750000 0.218121
O O6 0.872652 0.964448 0.404347
O O7 0.078088 0.973106 0.073063
O O8 0.883845 0.250000 0.635058
O O9 0.784543 0.016386 0.673366
O O10 0.800941 0.028013 0.833871
O O11 0.000000 0.000000 0.500000
O O12 0.841200 0.750000 0.047974
O O13 0.715910 0.552600 0.096243
O O14 0.245502 0.250000 0.361600
O O15 0.365812 0.019714 0.285077
O O16 0.275282 0.250000 0.052104
O O17 0.433100 0.022795 0.864506
O O18 0.409579 0.750000 0.298345
#
# Coordination Sequence:
#
# PCOD8074125 Si02
#       7
#     4   4   4   4   4   4   4
#     4  10  20  35  57  83 113 149 189 235 285 339
#     4  10  20  35  56  83 114 147 188 236 284 339
#     4  12  25  41  63  90 119 151 187 231 285 343
#     4  11  22  35  54  81 114 152 191 235 288 339
#     4  10  21  38  62  89 117 151 190 236 288 340
#     4  10  23  42  61  83 115 153 194 239 283 336
#     4   9  20  40  62  85 114 151 195 238 283 335
#
# _framework density 20.152448
#
# number of rings (size 3 to 8) (size 9 to 14) (size 15 to 20)
#    0.000    1.714    0.000    4.286    0.000    7.429 
#    0.000    0.000    0.000    0.000    0.000    0.000 
#    0.000    0.000    0.000    0.000    0.000    0.000 
#
# Total GULP energy -347383.086368 kJ/mol
# GULP energy per Si atom -12406.538799 kJ/mol
# Density = 2.010658 g / cm^3
# Si number density = 20.152448 Si / 1000 Ang^3
#
#
#
# Elastic Constant Matrix: (Units=GPa)
#
#
# Indices 1 2 3 4 5 6 
#
# 1 114.2150 48.6049 43.8154 0.0000 4.1626 0.0000
# 2 48.6049 90.1486 35.4799 0.0000 4.4025 0.0000
# 3 43.8154 35.4799 84.2125 0.0000 -11.3635 0.0000
# 4 0.0000 0.0000 0.0000 31.6380 0.0000 3.7181
# 5 4.1626 4.4025 -11.3635 0.0000 32.5910 0.0000
# 6 0.0000 0.0000 0.0000 3.7181 0.0000 34.4157
#
#
#
# Elastic Compliance Matrix: (Units=1/GPa)
#
#
# Indices 1 2 3 4 5 6 
#
# 1 0.012826 -0.004807 -0.005017 0.000000 -0.002738 0.000000
# 2 -0.004807 0.015598 -0.004483 0.000000 -0.003056 0.000000
# 3 -0.005017 -0.004483 0.017359 0.000000 0.007299 0.000000
# 4 0.000000 0.000000 0.000000 0.032014 0.000000 -0.003459
# 5 -0.002738 -0.003056 0.007299 0.000000 0.033991 0.000000
# 6 0.000000 0.000000 0.000000 -0.003459 0.000000 0.029430
#
#
# Mechanical properties :
#
#
# Convention : Reuss Voigt Hill
#
# Bulk Modulus (GPa) = 58.24782 60.48627 59.36705
# Shear Modulus (GPa) = 28.48112 30.44068 29.46090
#
# Velocity S-wave (km/s) = 3.76344 3.89076 3.82763
# Velocity P-wave (km/s) = 6.91744 7.08968 7.00409
#
# Compressibility (1/GPa) = 0.01716802
#
# Stress axis : x y z
#
# Youngs Moduli (GPa) = 77.96965 64.11045 57.60684
#
# Poissons Ratio (x) = 0.30815 0.28904
# Poissons Ratio (y) = 0.37477 0.25827
# Poissons Ratio (z) = 0.39121 0.28742
#
# Static dielectric constant tensor:
#      x y z
#    x 3.722390 0.000000 0.094190 
#    y 0.000000 3.700920 0.000000 
#    z 0.094190 0.000000 3.623040 
# 
# 
# High freq. dielectric constant tensor:
#      x y z
#    x 1.792860 0.000000 0.005700 
#    y 0.000000 1.792130 0.000000 
#    z 0.005700 0.000000 1.784410 
# 
# From -- ./inp_files/49451.got.cif
#   From: 2010.06.25/outbox.cif.g09.slc.cpg/sg11_25_cif.got.tgz:49451.got - 2010.06.27 23:14:04.
