data_PCOD8074279
_publ_section_title
;
Structure prediction by ZEFSAII (Michael W. Deem and Ramdas Pophale) SiO2 
 PCOD8074279
Probable space group: P 21/M
;
_chemical_formula_sum "Si O2"
_cell_formula_units_Z 28
_cell_length_a 11.840700
_cell_length_b 9.051195
_cell_length_c 15.191276
_cell_angle_alpha 90.000000
_cell_angle_beta 119.061498
_cell_angle_gamma 90.000000
_cell_volume 1423.108772
_symmetry_space_group_name_H-M "P 21/M"
_symmetry_group_IT_number 11
_symmetry_cell_setting 'monoclinic'
loop_
_space_group_symop_operation_xyz
x,y,z
-x,1/2+y,-z
-x,-y,-z
x,1/2-y,z
loop_
_atom_site_type_symbol
_atom_site_label
_atom_site_fract_x
_atom_site_fract_y
_atom_site_fract_z
Si Si1 0.035248 0.084894 0.274278
Si Si2 0.641638 0.580786 0.308598
Si Si3 0.115533 0.075131 0.489515
Si Si4 0.361303 0.917442 0.170458
Si Si5 0.619633 0.922989 0.999214
Si Si6 0.748043 0.085365 0.186910
Si Si7 0.073422 0.921906 0.109398
O O1 0.076106 0.250000 0.258983
O O2 0.122434 0.026501 0.388780
O O3 0.896670 0.090039 0.270216
O O4 0.029635 0.980901 0.187500
O O5 0.671931 0.750000 0.296139
O O6 0.743376 0.526535 0.420570
O O7 0.490257 0.562725 0.280744
O O8 0.659264 0.486617 0.227442
O O9 0.093648 0.250000 0.487909
O O10 0.000000 0.000000 0.500000
O O11 0.359570 0.750000 0.131456
O O12 0.227855 0.948831 0.170051
O O13 0.370292 0.038097 0.098334
O O14 0.613197 0.750000 0.009773
O O15 0.500000 0.000000 0.000000
O O16 0.744007 0.989913 0.095691
O O17 0.692982 0.250000 0.149586
O O18 0.038305 0.750000 0.088961
O O19 0.000000 0.000000 0.000000
#
# Coordination Sequence:
#
# PCOD8074279 Si02
#       7
#     4   4   4   4   4   4   4
#     4  10  22  39  59  86 122 157 196 247 298 350
#     4  10  20  35  58  84 115 153 191 235 296 356
#     4  10  20  36  59  89 121 157 197 243 297 356
#     4  10  22  40  58  82 116 153 195 249 301 346
#     4  12  23  34  52  81 115 151 191 235 291 357
#     4  11  21  34  54  83 118 152 190 240 294 347
#     4  11  24  42  64  87 116 155 203 251 297 355
#
# _framework density 19.675236999999999
#
# number of rings (size 3 to 8) (size 9 to 14) (size 15 to 20)
#    0.000    1.429    2.857    3.000    0.000    6.286 
#    0.000    0.714    0.000    0.000    0.000    0.000 
#    0.000    0.000    0.000    0.000    0.000    0.000 
#
# Total GULP energy -347013.670854 kJ/mol
# GULP energy per Si atom -12393.345388 kJ/mol
# Density = 1.963046 g / cm^3
# Si number density = 19.675237 Si / 1000 Ang^3
#
#
#
# Elastic Constant Matrix: (Units=GPa)
#
#
# Indices 1 2 3 4 5 6 
#
# 1 87.0451 30.1516 44.4428 0.0000 12.7733 0.0000
# 2 30.1516 106.5463 44.6111 0.0000 0.3043 0.0000
# 3 44.4428 44.6111 136.0286 0.0000 10.6066 0.0000
# 4 0.0000 0.0000 0.0000 27.0647 0.0000 -2.2736
# 5 12.7733 0.3043 10.6066 0.0000 33.9184 0.0000
# 6 0.0000 0.0000 0.0000 -2.2736 0.0000 24.7217
#
#
#
# Elastic Compliance Matrix: (Units=1/GPa)
#
#
# Indices 1 2 3 4 5 6 
#
# 1 0.014937 -0.002685 -0.003652 0.000000 -0.004459 0.000000
# 2 -0.002685 0.011398 -0.003005 0.000000 0.001849 0.000000
# 3 -0.003652 -0.003005 0.009656 0.000000 -0.001617 0.000000
# 4 0.000000 0.000000 0.000000 0.037236 0.000000 0.003424
# 5 -0.004459 0.001849 -0.001617 0.000000 0.031651 0.000000
# 6 0.000000 0.000000 0.000000 0.003424 0.000000 0.040765
#
#
# Mechanical properties :
#
#
# Convention : Reuss Voigt Hill
#
# Bulk Modulus (GPa) = 57.77843 63.11458 60.44651
# Shear Modulus (GPa) = 29.39484 31.16860 30.28172
#
# Velocity S-wave (km/s) = 3.86943 3.98446 3.92736
# Velocity P-wave (km/s) = 7.02802 7.30176 7.16620
#
# Compressibility (1/GPa) = 0.01730750
#
# Stress axis : x y z
#
# Youngs Moduli (GPa) = 66.94605 87.73151 103.56106
#
# Poissons Ratio (x) = 0.23559 0.37820
# Poissons Ratio (y) = 0.17977 0.31120
# Poissons Ratio (z) = 0.24448 0.26363
#
# Static dielectric constant tensor:
#      x y z
#    x 3.586920 0.000000 0.395680 
#    y 0.000000 3.688560 0.000000 
#    z 0.395680 0.000000 4.107630 
# 
# 
# High freq. dielectric constant tensor:
#      x y z
#    x 1.751750 0.000000 0.025320 
#    y 0.000000 1.768990 0.000000 
#    z 0.025320 0.000000 1.770210 
# 
# From -- ./inp_files/37857.got.cif
#   From: 2010.06.25/outbox.cif.g09.slc.cpg/sg11_19_cif.got.tgz:37857.got - 2010.06.27 23:14:04.
