data_PCOD8074584
_publ_section_title
;
Structure prediction by ZEFSAII (Michael W. Deem and Ramdas Pophale) SiO2 
 PCOD8074584
Probable space group: P 21/M
;
_chemical_formula_sum "Si O2"
_cell_formula_units_Z 32
_cell_length_a 24.396315
_cell_length_b 8.700559
_cell_length_c 16.312969
_cell_angle_alpha 90.000000
_cell_angle_beta 27.404047
_cell_angle_gamma 90.000000
_cell_volume 1593.712523
_symmetry_space_group_name_H-M "P 21/M"
_symmetry_group_IT_number 11
_symmetry_cell_setting 'monoclinic'
loop_
_space_group_symop_operation_xyz
x,y,z
-x,1/2+y,-z
-x,-y,-z
x,1/2-y,z
loop_
_atom_site_type_symbol
_atom_site_label
_atom_site_fract_x
_atom_site_fract_y
_atom_site_fract_z
Si Si1 0.126934 0.567383 0.310352
Si Si2 0.317591 0.569269 0.187482
Si Si3 0.370142 0.069982 0.684413
Si Si4 0.305997 0.431436 0.952619
Si Si5 0.827814 0.429355 0.165873
Si Si6 0.498690 0.568105 0.814302
Si Si7 0.274275 0.567907 0.424760
Si Si8 0.091776 0.429804 0.775236
O O1 0.121864 0.750000 0.307886
O O2 0.208546 0.511455 0.277045
O O3 0.182230 0.498316 0.153082
O O4 0.000000 0.500000 0.500000
O O5 0.310396 0.750000 0.205085
O O6 0.308614 0.498479 0.290076
O O7 0.439072 0.520927 0.980596
O O8 0.385290 0.250000 0.656661
O O9 0.500000 0.000000 0.500000
O O10 0.281053 0.014903 0.732210
O O11 0.313824 0.024012 0.846771
O O12 0.310280 0.250000 0.961397
O O13 0.419491 0.508897 0.844795
O O14 0.800014 0.250000 0.200401
O O15 0.839910 0.481690 0.243312
O O16 0.952098 0.470233 0.955836
O O17 0.513605 0.750000 0.785658
O O18 0.625990 0.485244 0.642487
O O19 0.261003 0.750000 0.442767
O O20 0.149036 0.490496 0.615000
O O21 0.111895 0.250000 0.761438
#
# Coordination Sequence:
#
# PCOD8074584 Si02
#       8
#     4   4   4   4   4   4   4   4
#     4  10  20  37  60  86 117 155 197 242 294 352
#     4   8  18  35  53  78 112 150 191 235 284 337
#     4  11  25  42  64  91 123 160 204 253 306 363
#     4  10  22  40  59  85 117 155 200 244 296 357
#     4  10  22  42  65  87 117 152 195 247 301 358
#     4  10  20  36  57  81 115 154 192 239 292 347
#     4  11  21  34  56  84 114 150 193 239 286 345
#     4  10  22  40  61  87 117 154 195 240 297 359
#
# _framework density 20.078904000000001
#
# number of rings (size 3 to 8) (size 9 to 14) (size 15 to 20)
#    0.000    2.000    0.000    3.750    1.750    4.500 
#    0.000   10.625    0.000    0.000    0.000    0.000 
#    0.000    0.000    0.000    0.000    0.000    0.000 
#
# Total GULP energy -396828.307911 kJ/mol
# GULP energy per Si atom -12400.884622 kJ/mol
# Density = 2.003320 g / cm^3
# Si number density = 20.078904 Si / 1000 Ang^3
#
#
#
# Elastic Constant Matrix: (Units=GPa)
#
#
# Indices 1 2 3 4 5 6 
#
# 1 74.5981 23.6761 39.9209 0.0000 -6.6975 0.0000
# 2 23.6761 60.4476 45.5279 0.0000 -1.1888 0.0000
# 3 39.9209 45.5279 110.7410 0.0000 -12.2247 0.0000
# 4 0.0000 0.0000 0.0000 37.8830 0.0000 -1.7841
# 5 -6.6975 -1.1888 -12.2247 0.0000 28.3077 0.0000
# 6 0.0000 0.0000 0.0000 -1.7841 0.0000 30.2408
#
#
#
# Elastic Compliance Matrix: (Units=1/GPa)
#
#
# Indices 1 2 3 4 5 6 
#
# 1 0.017061 -0.003144 -0.004648 0.000000 0.001897 0.000000
# 2 -0.003144 0.024861 -0.009507 0.000000 -0.003806 0.000000
# 3 -0.004648 -0.009507 0.015172 0.000000 0.005053 0.000000
# 4 0.000000 0.000000 0.000000 0.026471 0.000000 0.001562
# 5 0.001897 -0.003806 0.005053 0.000000 0.037797 0.000000
# 6 0.000000 0.000000 0.000000 0.001562 0.000000 0.033160
#
#
# Mechanical properties :
#
#
# Convention : Reuss Voigt Hill
#
# Bulk Modulus (GPa) = 44.45580 51.55960 48.00770
# Shear Modulus (GPa) = 25.42985 28.39710 26.91347
#
# Velocity S-wave (km/s) = 3.56265 3.76477 3.66510
# Velocity P-wave (km/s) = 6.25395 6.68073 6.47086
#
# Compressibility (1/GPa) = 0.02249425
#
# Stress axis : x y z
#
# Youngs Moduli (GPa) = 58.61368 40.22407 65.90986
#
# Poissons Ratio (x) = 0.12647 0.30636
# Poissons Ratio (y) = 0.18429 0.62663
# Poissons Ratio (z) = 0.27245 0.38243
#
# Static dielectric constant tensor:
#      x y z
#    x 3.632670 0.000000 0.174770 
#    y 0.000000 3.589320 0.000000 
#    z 0.174770 0.000000 3.853690 
# 
# 
# High freq. dielectric constant tensor:
#      x y z
#    x 1.777120 0.000000 0.000740 
#    y 0.000000 1.785960 0.000000 
#    z 0.000740 0.000000 1.797520 
# 
# From -- ./inp_files/55644.got.cif
#   From: 2010.06.25/outbox.cif.g09.slc.cpg/sg11_28_cif.got.tgz:55644.got - 2010.06.27 23:14:04.
