data_PCOD8074941
_publ_section_title
;
Structure prediction by ZEFSAII (Michael W. Deem and Ramdas Pophale) SiO2 
 PCOD8074941
Probable space group: P 21/M
;
_chemical_formula_sum "Si O2"
_cell_formula_units_Z 28
_cell_length_a 11.677947
_cell_length_b 14.339818
_cell_length_c 9.354876
_cell_angle_alpha 90.000000
_cell_angle_beta 66.291236
_cell_angle_gamma 90.000000
_cell_volume 1434.347829
_symmetry_space_group_name_H-M "P 21/M"
_symmetry_group_IT_number 11
_symmetry_cell_setting 'monoclinic'
loop_
_space_group_symop_operation_xyz
x,y,z
-x,1/2+y,-z
-x,-y,-z
x,1/2-y,z
loop_
_atom_site_type_symbol
_atom_site_label
_atom_site_fract_x
_atom_site_fract_y
_atom_site_fract_z
Si Si1 0.135124 0.002343 0.686386
Si Si2 0.505310 0.143239 0.352249
Si Si3 0.220950 0.642550 0.421639
Si Si4 0.493799 0.143913 0.679175
Si Si5 0.693493 0.497557 0.133574
Si Si6 0.148384 0.997253 0.222740
Si Si7 0.226184 0.141984 0.410205
O O1 0.193965 0.012253 0.812607
O O2 0.169978 0.094037 0.578867
O O3 0.185228 0.907908 0.587255
O O4 0.986853 0.996566 0.780879
O O5 0.546721 0.250000 0.343365
O O6 0.493124 0.102104 0.518715
O O7 0.375603 0.129963 0.334381
O O8 0.613541 0.093234 0.210694
O O9 0.177696 0.750000 0.450882
O O10 0.369140 0.634249 0.321937
O O11 0.151116 0.591494 0.326921
O O12 0.446967 0.250000 0.701295
O O13 0.397113 0.086899 0.823588
O O14 0.747579 0.483888 0.949397
O O15 0.172586 0.092814 0.296264
O O16 0.186380 0.250000 0.429688
#
# Coordination Sequence:
#
# PCOD8074941 Si02
#       7
#     4   4   4   4   4   4   4
#     4  11  22  39  61  83 112 158 202 229 268 339
#     4  10  20  36  62  90 111 143 193 240 286 340
#     4  10  21  40  64  86 111 148 195 243 284 330
#     4  10  20  36  62  90 111 143 193 240 286 340
#     4  12  22  38  60  85 122 153 180 237 294 337
#     4  11  26  38  53  88 123 154 190 227 285 347
#     4  10  21  40  64  86 111 148 195 243 284 330
#
# _framework density 19.521065
#
# number of rings (size 3 to 8) (size 9 to 14) (size 15 to 20)
#    0.000    1.429    2.857    4.286    0.000    5.714 
#    0.000    2.857    0.000    5.143    0.000    0.000 
#    0.000    0.000    0.000    0.000    0.000    0.000 
#
# Total GULP energy -347340.163065 kJ/mol
# GULP energy per Si atom -12405.005824 kJ/mol
# Density = 1.947663 g / cm^3
# Si number density = 19.521065 Si / 1000 Ang^3
#
#
#
# Elastic Constant Matrix: (Units=GPa)
#
#
# Indices 1 2 3 4 5 6 
#
# 1 75.0205 24.6572 -14.2888 0.0000 -5.7742 0.0000
# 2 24.6572 95.5866 24.6935 0.0000 -10.2884 0.0000
# 3 -14.2888 24.6935 52.7286 0.0000 -3.6335 0.0000
# 4 0.0000 0.0000 0.0000 5.7892 0.0000 3.6466
# 5 -5.7742 -10.2884 -3.6335 0.0000 26.4581 0.0000
# 6 0.0000 0.0000 0.0000 3.6466 0.0000 11.8389
#
#
#
# Elastic Compliance Matrix: (Units=1/GPa)
#
#
# Indices 1 2 3 4 5 6 
#
# 1 0.016963 -0.006085 0.007611 0.000000 0.002381 0.000000
# 2 -0.006085 0.014497 -0.008219 0.000000 0.003180 0.000000
# 3 0.007611 -0.008219 0.025007 0.000000 0.001899 0.000000
# 4 0.000000 0.000000 0.000000 0.214319 0.000000 -0.066014
# 5 0.002381 0.003180 0.001899 0.000000 0.039813 0.000000
# 6 0.000000 0.000000 0.000000 -0.066014 0.000000 0.104801
#
#
# Mechanical properties :
#
#
# Convention : Reuss Voigt Hill
#
# Bulk Modulus (GPa) = 23.21301 32.60660 27.90980
# Shear Modulus (GPa) = 11.28293 21.36881 16.32587
#
# Velocity S-wave (km/s) = 2.40675 3.31214 2.89506
# Velocity P-wave (km/s) = 4.43174 5.60059 5.05010
#
# Compressibility (1/GPa) = 0.04307930
#
# Stress axis : x y z
#
# Youngs Moduli (GPa) = 58.95305 68.97912 39.98807
#
# Poissons Ratio (x) = 0.41977 -0.30434
# Poissons Ratio (y) = 0.35876 0.32867
# Poissons Ratio (z) = -0.44867 0.56695
#
# Static dielectric constant tensor:
#      x y z
#    x 3.659290 0.000000 0.008960 
#    y 0.000000 3.674660 0.000000 
#    z 0.008960 0.000000 3.293750 
# 
# 
# High freq. dielectric constant tensor:
#      x y z
#    x 1.774760 0.000000 -0.002770 
#    y 0.000000 1.767880 0.000000 
#    z -0.002770 0.000000 1.736870 
# 
# From -- ./inp_files/17672.got.cif
#   From: 2010.06.25/outbox.cif.g09.slc.cpg/sg11_9_cif.got.tgz:17672.got - 2010.06.27 23:14:04.
