data_PCOD8074632
_publ_section_title
;
Structure prediction by ZEFSAII (Michael W. Deem and Ramdas Pophale) SiO2 
 PCOD8074632
Probable space group: P 21/M
;
_chemical_formula_sum "Si O2"
_cell_formula_units_Z 26
_cell_length_a 12.705857
_cell_length_b 14.183599
_cell_length_c 7.227297
_cell_angle_alpha 90.000000
_cell_angle_beta 68.834759
_cell_angle_gamma 90.000000
_cell_volume 1214.605328
_symmetry_space_group_name_H-M "P 21/M"
_symmetry_group_IT_number 11
_symmetry_cell_setting 'monoclinic'
loop_
_space_group_symop_operation_xyz
x,y,z
-x,1/2+y,-z
-x,-y,-z
x,1/2-y,z
loop_
_atom_site_type_symbol
_atom_site_label
_atom_site_fract_x
_atom_site_fract_y
_atom_site_fract_z
Si Si1 0.537248 0.860449 0.087360
Si Si2 0.022493 0.750000 0.519724
Si Si3 0.693632 0.921579 0.313578
Si Si4 0.047159 0.750000 0.943152
Si Si5 0.112879 0.943457 0.456362
Si Si6 0.349895 0.008368 0.268262
Si Si7 0.840641 0.750000 0.342631
Si Si8 0.118206 0.549746 0.879984
O O1 0.514934 0.750000 0.069869
O O2 0.601514 0.875279 0.240089
O O3 0.418910 0.914997 0.169359
O O4 0.608332 0.899769 0.868783
O O5 0.897417 0.750000 0.510171
O O6 0.013303 0.750000 0.747719
O O7 0.091800 0.838379 0.396056
O O8 0.634188 0.976967 0.520709
O O9 0.767384 0.843338 0.370937
O O10 0.773335 0.987445 0.128554
O O11 0.117626 0.656676 0.958362
O O12 0.930111 0.750000 0.122018
O O13 0.141164 0.941601 0.650886
O O14 0.220021 0.989771 0.286960
O O15 0.000000 0.000000 0.500000
O O16 0.000000 0.500000 0.000000
#
# Coordination Sequence:
#
# PCOD8074632 Si02
#       8
#     4   2   4   2   4   4   2   4
#     4  11  25  45  72  94 124 173 218 271 321 380
#     4  10  22  36  57  88 128 170 211 251 320 386
#     4  11  23  41  64  95 126 169 215 271 324 378
#     4  10  22  36  54  86 128 180 210 253 323 389
#     4  10  22  39  61  93 125 169 200 258 325 379
#     4  10  25  45  67  96 133 164 220 270 322 383
#     4  12  22  34  61  96 126 168 213 258 315 387
#     4  10  20  36  57  85 131 163 210 259 313 387
#
# _framework density 21.406130999999998
#
# number of rings (size 3 to 8) (size 9 to 14) (size 15 to 20)
#    0.000    1.538    2.308    2.308    4.308    1.231 
#    2.769    0.000    6.769    0.000    0.000    0.000 
#    0.000    0.000    0.000    0.000    0.000    0.000 
#
# Total GULP energy -322294.996259 kJ/mol
# GULP energy per Si atom -12395.961395 kJ/mol
# Density = 2.135741 g / cm^3
# Si number density = 21.406131 Si / 1000 Ang^3
#
#
#
# Elastic Constant Matrix: (Units=GPa)
#
#
# Indices 1 2 3 4 5 6 
#
# 1 82.4171 33.0353 23.2261 0.0000 -16.2461 0.0000
# 2 33.0353 173.6472 40.7319 0.0000 -21.6532 0.0000
# 3 23.2261 40.7319 98.2081 0.0000 -18.3172 0.0000
# 4 0.0000 0.0000 0.0000 17.3788 0.0000 -7.2826
# 5 -16.2461 -21.6532 -18.3172 0.0000 33.3898 0.0000
# 6 0.0000 0.0000 0.0000 -7.2826 0.0000 28.2281
#
#
#
# Elastic Compliance Matrix: (Units=1/GPa)
#
#
# Indices 1 2 3 4 5 6 
#
# 1 0.014270 -0.001693 -0.001763 0.000000 0.004878 0.000000
# 2 -0.001693 0.006860 -0.001970 0.000000 0.002544 0.000000
# 3 -0.001763 -0.001970 0.012274 0.000000 0.004598 0.000000
# 4 0.000000 0.000000 0.000000 0.064516 0.000000 0.016645
# 5 0.004878 0.002544 0.004598 0.000000 0.036495 0.000000
# 6 0.000000 0.000000 0.000000 0.016645 0.000000 0.039720
#
#
# Mechanical properties :
#
#
# Convention : Reuss Voigt Hill
#
# Bulk Modulus (GPa) = 44.34124 60.91766 52.62945
# Shear Modulus (GPa) = 25.97318 32.95129 29.46223
#
# Velocity S-wave (km/s) = 3.48710 3.92770 3.71394
# Velocity P-wave (km/s) = 6.08049 7.00635 6.55977
#
# Compressibility (1/GPa) = 0.02255237
#
# Stress axis : x y z
#
# Youngs Moduli (GPa) = 70.07489 145.76537 81.47181
#
# Poissons Ratio (x) = 0.24679 0.14362
# Poissons Ratio (y) = 0.11864 0.16053
# Poissons Ratio (z) = 0.12353 0.28722
#
# Static dielectric constant tensor:
#      x y z
#    x 3.853310 0.000000 -0.097830 
#    y 0.000000 4.254850 0.000000 
#    z -0.097830 0.000000 3.954070 
# 
# 
# High freq. dielectric constant tensor:
#      x y z
#    x 1.824440 0.000000 0.000180 
#    y 0.000000 1.854580 0.000000 
#    z 0.000180 0.000000 1.847700 
# 
# From -- ./inp_files/17651.got.cif
#   From: 2010.06.25/outbox.cif.g09.slc.cpg/sg11_9_cif.got.tgz:17651.got - 2010.06.27 23:14:04.
