data_PCOD8074396
_publ_section_title
;
Structure prediction by ZEFSAII (Michael W. Deem and Ramdas Pophale) SiO2 
 PCOD8074396
Probable space group: P 21/M
;
_chemical_formula_sum "Si O2"
_cell_formula_units_Z 32
_cell_length_a 16.947071
_cell_length_b 13.416880
_cell_length_c 11.107590
_cell_angle_alpha 90.000000
_cell_angle_beta 146.808305
_cell_angle_gamma 90.000000
_cell_volume 1382.623973
_symmetry_space_group_name_H-M "P 21/M"
_symmetry_group_IT_number 11
_symmetry_cell_setting 'monoclinic'
loop_
_space_group_symop_operation_xyz
x,y,z
-x,1/2+y,-z
-x,-y,-z
x,1/2-y,z
loop_
_atom_site_type_symbol
_atom_site_label
_atom_site_fract_x
_atom_site_fract_y
_atom_site_fract_z
Si Si1 0.795798 0.363485 0.344182
Si Si2 0.967197 0.633090 0.748723
Si Si3 0.681441 0.939471 0.275838
Si Si4 0.548544 0.541749 0.353257
Si Si5 0.389222 0.134980 0.069672
Si Si6 0.251500 0.636935 0.997220
Si Si7 0.180033 0.366480 0.195858
Si Si8 0.896351 0.866611 0.168402
O O1 0.764834 0.250000 0.350285
O O2 0.679301 0.440415 0.251295
O O3 0.789355 0.369892 0.193762
O O4 0.952704 0.403023 0.585480
O O5 0.978989 0.750000 0.742954
O O6 0.844520 0.595219 0.502458
O O7 0.933366 0.606076 0.843975
O O8 0.120751 0.583942 0.905595
O O9 0.586332 0.910713 0.270787
O O10 0.612924 0.882094 0.075937
O O11 0.677518 0.565065 0.609675
O O12 0.522808 0.423342 0.302190
O O13 0.403579 0.587827 0.221728
O O14 0.411339 0.250000 0.129765
O O15 0.241069 0.087526 0.935956
O O16 0.265936 0.750000 0.058694
O O17 0.225208 0.250000 0.261755
O O18 0.105139 0.392827 0.974900
O O19 0.882490 0.750000 0.172362
#
# Coordination Sequence:
#
# PCOD8074396 Si02
#       8
#     4   4   4   4   4   4   4   4
#     4  10  21  36  60  90 121 155 195 249 303 357
#     4   9  19  35  59  88 116 153 201 250 294 345
#     4  11  22  38  59  90 120 158 201 240 304 363
#     4  11  23  38  58  93 122 161 204 241 301 356
#     4  11  23  37  59  88 124 161 197 245 299 362
#     4  10  20  35  59  92 124 152 193 251 309 354
#     4   9  19  40  66  87 119 160 204 248 287 352
#     4   9  20  39  62  89 117 160 206 242 298 355
#
# _framework density 23.144397999999999
#
# number of rings (size 3 to 8) (size 9 to 14) (size 15 to 20)
#    0.000    2.000    1.250    1.875    1.750    5.500 
#    0.000    2.500    2.750    0.000    0.000    0.875 
#    0.000    0.000    0.000    0.000    0.000    0.000 
#
# Total GULP energy -396827.128993 kJ/mol
# GULP energy per Si atom -12400.847781 kJ/mol
# Density = 2.309172 g / cm^3
# Si number density = 23.144398 Si / 1000 Ang^3
#
#
#
# Elastic Constant Matrix: (Units=GPa)
#
#
# Indices 1 2 3 4 5 6 
#
# 1 57.5643 10.1762 20.7281 0.0000 19.1921 0.0000
# 2 10.1762 44.4489 13.4451 0.0000 9.5855 0.0000
# 3 20.7281 13.4451 41.6507 0.0000 9.1666 0.0000
# 4 0.0000 0.0000 0.0000 28.2218 0.0000 7.7310
# 5 19.1921 9.5855 9.1666 0.0000 35.0731 0.0000
# 6 0.0000 0.0000 0.0000 7.7310 0.0000 26.1210
#
#
#
# Elastic Compliance Matrix: (Units=1/GPa)
#
#
# Indices 1 2 3 4 5 6 
#
# 1 0.024531 -0.000349 -0.009721 0.000000 -0.010787 0.000000
# 2 -0.000349 0.025791 -0.007048 0.000000 -0.005016 0.000000
# 3 -0.009721 -0.007048 0.031330 0.000000 -0.000943 0.000000
# 4 0.000000 0.000000 0.000000 0.038560 0.000000 -0.011413
# 5 -0.010787 -0.005016 -0.000943 0.000000 0.036032 0.000000
# 6 0.000000 0.000000 0.000000 -0.011413 0.000000 0.041661
#
#
# Mechanical properties :
#
#
# Convention : Reuss Voigt Hill
#
# Bulk Modulus (GPa) = 21.09054 25.81809 23.45431
# Shear Modulus (GPa) = 20.16569 24.50414 22.33492
#
# Velocity S-wave (km/s) = 2.95498 3.25737 3.10985
# Velocity P-wave (km/s) = 4.55795 5.03257 4.80113
#
# Compressibility (1/GPa) = 0.04741463
#
# Stress axis : x y z
#
# Youngs Moduli (GPa) = 40.76557 38.77283 31.91861
#
# Poissons Ratio (x) = 0.01354 0.31029
# Poissons Ratio (y) = 0.01424 0.22496
# Poissons Ratio (z) = 0.39629 0.27327
#
# Static dielectric constant tensor:
#      x y z
#    x 4.213880 0.000000 0.224530 
#    y 0.000000 4.279370 0.000000 
#    z 0.224530 0.000000 3.993820 
# 
# 
# High freq. dielectric constant tensor:
#      x y z
#    x 1.914280 0.000000 0.011630 
#    y 0.000000 1.921900 0.000000 
#    z 0.011630 0.000000 1.901580 
# 
# From -- ./inp_files/41685.got.cif
#   From: 2010.06.25/outbox.cif.g09.slc.cpg/sg11_21_cif.got.tgz:41685.got - 2010.06.27 23:14:04.
