data_PCOD8074900
_publ_section_title
;
Structure prediction by ZEFSAII (Michael W. Deem and Ramdas Pophale) SiO2 
 PCOD8074900
Probable space group: P 21/M
;
_chemical_formula_sum "Si O2"
_cell_formula_units_Z 24
_cell_length_a 7.348838
_cell_length_b 18.843170
_cell_length_c 11.485514
_cell_angle_alpha 90.000000
_cell_angle_beta 127.908045
_cell_angle_gamma 90.000000
_cell_volume 1254.870417
_symmetry_space_group_name_H-M "P 21/M"
_symmetry_group_IT_number 11
_symmetry_cell_setting 'monoclinic'
loop_
_space_group_symop_operation_xyz
x,y,z
-x,1/2+y,-z
-x,-y,-z
x,1/2-y,z
loop_
_atom_site_type_symbol
_atom_site_label
_atom_site_fract_x
_atom_site_fract_y
_atom_site_fract_z
Si Si1 0.750671 0.920426 0.163926
Si Si2 0.644897 0.422857 0.178978
Si Si3 0.374344 0.332453 0.667366
Si Si4 0.549461 0.581052 0.651367
Si Si5 0.916585 0.831828 0.670918
Si Si6 0.267861 0.930047 0.311099
O O1 0.716896 0.858699 0.244644
O O2 0.998616 0.912381 0.201437
O O3 0.727189 0.995889 0.218643
O O4 0.565818 0.911902 0.990233
O O5 0.573580 0.396493 0.278328
O O6 0.852892 0.375260 0.214525
O O7 0.437417 0.250000 0.700082
O O8 0.172702 0.346668 0.494687
O O9 0.605631 0.373268 0.720937
O O10 0.723261 0.643751 0.686263
O O11 0.689068 0.508045 0.724273
O O12 0.352347 0.572193 0.477196
O O13 0.969548 0.750000 0.713956
#
# Coordination Sequence:
#
# PCOD8074900 Si02
#       6
#     4   4   4   4   4   4
#     4  11  23  37  58  88 121 156 194 237 289 352
#     4  11  23  37  58  88 121 156 194 237 289 352
#     4  10  22  40  61  86 116 151 195 246 295 345
#     4  10  20  36  61  88 114 150 197 244 290 342
#     4  10  22  40  61  86 116 151 195 246 295 345
#     4  10  20  36  61  88 114 150 197 244 290 342
#
# _framework density 19.12548
#
# number of rings (size 3 to 8) (size 9 to 14) (size 15 to 20)
#    0.000    1.667    3.333    1.000    0.000    5.333 
#    0.000    3.333    0.000    0.000    0.000    0.000 
#    0.000    0.000    0.000    0.000    0.000    0.000 
#
# Total GULP energy -297765.890562 kJ/mol
# GULP energy per Si atom -12406.912107 kJ/mol
# Density = 1.908195 g / cm^3
# Si number density = 19.125480 Si / 1000 Ang^3
#
#
#
# Elastic Constant Matrix: (Units=GPa)
#
#
# Indices 1 2 3 4 5 6 
#
# 1 63.3299 6.2724 25.9368 0.0000 17.8111 0.0000
# 2 6.2724 72.0354 26.8181 0.0000 7.7882 0.0000
# 3 25.9368 26.8181 47.2678 0.0000 20.4736 0.0000
# 4 0.0000 0.0000 0.0000 21.4324 0.0000 0.4160
# 5 17.8111 7.7882 20.4736 0.0000 30.9207 0.0000
# 6 0.0000 0.0000 0.0000 0.4160 0.0000 31.5332
#
#
#
# Elastic Compliance Matrix: (Units=1/GPa)
#
#
# Indices 1 2 3 4 5 6 
#
# 1 0.021651 0.002815 -0.010893 0.000000 -0.005968 0.000000
# 2 0.002815 0.018174 -0.012859 0.000000 0.002315 0.000000
# 3 -0.010893 -0.012859 0.042496 0.000000 -0.018625 0.000000
# 4 0.000000 0.000000 0.000000 0.046670 0.000000 -0.000616
# 5 -0.005968 0.002315 -0.018625 0.000000 0.047528 0.000000
# 6 0.000000 0.000000 0.000000 -0.000616 0.000000 0.031721
#
#
# Mechanical properties :
#
#
# Convention : Reuss Voigt Hill
#
# Bulk Modulus (GPa) = 24.72269 33.40975 29.06622
# Shear Modulus (GPa) = 18.96855 25.01764 21.99310
#
# Velocity S-wave (km/s) = 3.15269 3.62066 3.39475
# Velocity P-wave (km/s) = 5.11930 5.91486 5.53140
#
# Compressibility (1/GPa) = 0.04044868
#
# Stress axis : x y z
#
# Youngs Moduli (GPa) = 46.18699 55.02416 23.53177
#
# Poissons Ratio (x) = -0.15491 0.25632
# Poissons Ratio (y) = -0.13003 0.30259
# Poissons Ratio (z) = 0.50309 0.70754
#
# Static dielectric constant tensor:
#      x y z
#    x 3.450780 0.000000 0.039170 
#    y 0.000000 3.489360 0.000000 
#    z 0.039170 0.000000 3.366320 
# 
# 
# High freq. dielectric constant tensor:
#      x y z
#    x 1.752400 0.000000 0.003820 
#    y 0.000000 1.742020 0.000000 
#    z 0.003820 0.000000 1.736360 
# 
# From -- ./inp_files/19078.got.cif
#   From: 2010.06.25/outbox.cif.g09.slc.cpg/sg11_10_cif.got.tgz:19078.got - 2010.06.27 23:14:04.
