data_PCOD8074886
_publ_section_title
;
Structure prediction by ZEFSAII (Michael W. Deem and Ramdas Pophale) SiO2 
 PCOD8074886
Probable space group: P 21/M
;
_chemical_formula_sum "Si O2"
_cell_formula_units_Z 32
_cell_length_a 13.814340
_cell_length_b 14.808917
_cell_length_c 20.063920
_cell_angle_alpha 90.000000
_cell_angle_beta 20.456967
_cell_angle_gamma 90.000000
_cell_volume 1434.567879
_symmetry_space_group_name_H-M "P 21/M"
_symmetry_group_IT_number 11
_symmetry_cell_setting 'monoclinic'
loop_
_space_group_symop_operation_xyz
x,y,z
-x,1/2+y,-z
-x,-y,-z
x,1/2-y,z
loop_
_atom_site_type_symbol
_atom_site_label
_atom_site_fract_x
_atom_site_fract_y
_atom_site_fract_z
Si Si1 0.212975 0.146410 0.035208
Si Si2 0.208213 0.476289 0.509758
Si Si3 0.406903 0.850321 0.817529
Si Si4 0.244216 0.352366 0.745036
Si Si5 0.553964 0.148328 0.682939
Si Si6 0.321849 0.846839 0.011553
Si Si7 0.604745 0.091547 0.902067
Si Si8 0.842642 0.513804 0.308201
O O1 0.115991 0.250000 0.105592
O O2 0.347650 0.129072 0.876757
O O3 0.444265 0.123779 0.940918
O O4 0.940338 0.084246 0.218409
O O5 0.464383 0.420625 0.315687
O O6 0.198711 0.574277 0.478426
O O7 0.929813 0.420005 0.674752
O O8 0.293954 0.494678 0.531113
O O9 0.463293 0.750000 0.752943
O O10 0.529947 0.862188 0.814122
O O11 0.080816 0.869703 0.035685
O O12 0.306361 0.250000 0.679535
O O13 0.382961 0.367476 0.726119
O O14 0.346868 0.428885 0.623256
O O15 0.677125 0.250000 0.608036
O O16 0.171647 0.750000 0.094276
O O17 0.458828 0.838605 0.996431
O O18 0.113993 0.928924 0.149084
O O19 0.500000 0.000000 0.000000
#
# Coordination Sequence:
#
# PCOD8074886 Si02
#       8
#     4   4   4   4   4   4   4   4
#     4  11  23  41  62  84 120 164 207 248 294 361
#     4  11  23  36  61  89 125 153 192 261 301 349
#     4   9  19  35  59  93 120 148 196 250 300 352
#     4   9  19  40  67  88 120 163 202 240 294 365
#     4  10  23  42  62  90 122 161 201 245 302 357
#     4   9  17  34  59  83 113 152 195 244 295 351
#     4  11  22  41  59  84 113 161 204 240 297 365
#     4  10  20  36  60  91 120 155 205 242 299 351
#
# _framework density 22.306369
#
# number of rings (size 3 to 8) (size 9 to 14) (size 15 to 20)
#    0.000    2.000    2.500    3.000    0.000    6.500 
#    0.000    0.000    0.000    3.000    0.000    0.000 
#    0.000    0.000    0.000    0.000    0.000    0.000 
#
# Total GULP energy -396446.183911 kJ/mol
# GULP energy per Si atom -12388.943247 kJ/mol
# Density = 2.225560 g / cm^3
# Si number density = 22.306369 Si / 1000 Ang^3
#
#
#
# Elastic Constant Matrix: (Units=GPa)
#
#
# Indices 1 2 3 4 5 6 
#
# 1 85.8270 32.8860 2.8718 0.0000 16.6517 0.0000
# 2 32.8860 133.6526 31.1931 0.0000 29.9557 0.0000
# 3 2.8718 31.1931 38.9643 0.0000 23.8106 0.0000
# 4 0.0000 0.0000 0.0000 -4.4107 0.0000 13.8916
# 5 16.6517 29.9557 23.8106 0.0000 34.8579 0.0000
# 6 0.0000 0.0000 0.0000 13.8916 0.0000 33.8893
#
#
#
# Elastic Compliance Matrix: (Units=1/GPa)
#
#
# Indices 1 2 3 4 5 6 
#
# 1 0.014343 -0.003151 0.006862 0.000000 -0.008831 0.000000
# 2 -0.003151 0.010417 -0.006105 0.000000 -0.003276 0.000000
# 3 0.006862 -0.006105 0.049509 0.000000 -0.031851 0.000000
# 4 0.000000 0.000000 0.000000 -0.098961 0.000000 0.040565
# 5 -0.008831 -0.003276 -0.031851 0.000000 0.057478 0.000000
# 6 0.000000 0.000000 0.000000 0.040565 0.000000 0.012880
#
#
# Mechanical properties :
#
#
# Convention : Reuss Voigt Hill
#
# Bulk Modulus (GPa) = 14.39255 43.59397 28.99326
# Shear Modulus (GPa) = 67.92159 25.63349 46.77754
#
# Velocity S-wave (km/s) = 5.52409 3.39360 4.58432
# Velocity P-wave (km/s) = 6.86685 5.91110 6.40682
#
# Compressibility (1/GPa) = 0.06948037
#
# Stress axis : x y z
#
# Youngs Moduli (GPa) = 69.72282 96.00082 20.19815
#
# Poissons Ratio (x) = 0.30254 -0.13860
# Poissons Ratio (y) = 0.21972 0.12330
# Poissons Ratio (z) = -0.47844 0.58606
#
# Static dielectric constant tensor:
#      x y z
#    x 4.904380 0.000000 -0.118870 
#    y 0.000000 4.591310 0.000000 
#    z -0.118870 0.000000 2.948950 
# 
# 
# High freq. dielectric constant tensor:
#      x y z
#    x 1.889890 0.000000 0.023250 
#    y 0.000000 1.900800 0.000000 
#    z 0.023250 0.000000 1.848860 
# 
# From -- ./inp_files/65748.got.cif
#   From: 2010.06.25/outbox.cif.g09.slc.cpg/sg11_33_cif.got.tgz:65748.got - 2010.06.27 23:14:04.
