data_PCOD8074010
_publ_section_title
;
Structure prediction by ZEFSAII (Michael W. Deem and Ramdas Pophale) SiO2 
 PCOD8074010
Probable space group: P 21/M
;
_chemical_formula_sum "Si O2"
_cell_formula_units_Z 32
_cell_length_a 20.295173
_cell_length_b 8.850959
_cell_length_c 14.069754
_cell_angle_alpha 90.000000
_cell_angle_beta 43.898588
_cell_angle_gamma 90.000000
_cell_volume 1752.441185
_symmetry_space_group_name_H-M "P 21/M"
_symmetry_group_IT_number 11
_symmetry_cell_setting 'monoclinic'
loop_
_space_group_symop_operation_xyz
x,y,z
-x,1/2+y,-z
-x,-y,-z
x,1/2-y,z
loop_
_atom_site_type_symbol
_atom_site_label
_atom_site_fract_x
_atom_site_fract_y
_atom_site_fract_z
Si Si1 0.012913 0.428086 0.088755
Si Si2 0.505395 0.429241 0.097365
Si Si3 0.012704 0.074999 0.587769
Si Si4 0.497213 0.075755 0.603808
Si Si5 0.857007 0.074377 0.403474
Si Si6 0.649535 0.570446 0.087502
Si Si7 0.359651 0.926467 0.385424
Si Si8 0.147955 0.927066 0.093412
O O1 0.030062 0.250000 0.062341
O O2 0.104257 0.503753 0.042856
O O3 0.918907 0.467268 0.246850
O O4 0.000000 0.500000 0.000000
O O5 0.512851 0.250000 0.083323
O O6 0.599519 0.494112 0.049371
O O7 0.410274 0.475616 0.252117
O O8 0.500000 0.500000 0.000000
O O9 0.027975 0.250000 0.555395
O O10 0.920938 0.039653 0.746810
O O11 0.000000 0.000000 0.500000
O O12 0.106491 0.012396 0.541655
O O13 0.487432 0.250000 0.593121
O O14 0.406726 0.020318 0.759008
O O15 0.593527 0.038408 0.561153
O O16 0.500000 0.000000 0.500000
O O17 0.864618 0.250000 0.419136
O O18 0.749627 0.024399 0.494255
O O19 0.646825 0.750000 0.076639
O O20 0.755650 0.512049 0.983737
O O21 0.372416 0.750000 0.346416
O O22 0.165839 0.750000 0.059583
#
# Coordination Sequence:
#
# PCOD8074010 Si02
#       8
#     4   4   4   4   4   4   4   4
#     4  10  20  35  55  81 111 145 182 223 269 318
#     4  11  22  37  57  81 108 141 178 219 266 319
#     4  10  21  36  55  79 108 139 175 218 264 315
#     4   9  19  34  53  78 108 140 175 215 263 314
#     4   9  19  36  57  78 105 141 179 219 267 316
#     4  10  21  38  57  80 109 141 178 223 269 317
#     4   9  19  37  56  77 107 141 177 221 266 313
#     4  10  21  37  56  80 108 142 182 224 268 318
#
# _framework density 18.260242000000002
#
# number of rings (size 3 to 8) (size 9 to 14) (size 15 to 20)
#    0.000    2.250    0.000    3.375    0.000    7.000 
#    0.000    2.500    0.000    0.000    0.000    0.000 
#    0.000    0.000    0.000    0.000    0.000    0.000 
#
# Total GULP energy -396877.821506 kJ/mol
# GULP energy per Si atom -12402.431922 kJ/mol
# Density = 1.821868 g / cm^3
# Si number density = 18.260242 Si / 1000 Ang^3
#
#
#
# Elastic Constant Matrix: (Units=GPa)
#
#
# Indices 1 2 3 4 5 6 
#
# 1 158.6094 69.4744 83.1066 0.0000 4.1734 0.0000
# 2 69.4744 93.6017 45.4256 0.0000 3.6996 0.0000
# 3 83.1066 45.4256 74.0704 0.0000 -4.0354 0.0000
# 4 0.0000 0.0000 0.0000 32.8208 0.0000 2.9690
# 5 4.1734 3.6996 -4.0354 0.0000 43.7200 0.0000
# 6 0.0000 0.0000 0.0000 2.9690 0.0000 39.0036
#
#
#
# Elastic Compliance Matrix: (Units=1/GPa)
#
#
# Indices 1 2 3 4 5 6 
#
# 1 0.016942 -0.004511 -0.016392 0.000000 -0.002748 0.000000
# 2 -0.004511 0.016617 -0.005209 0.000000 -0.001456 0.000000
# 3 -0.016392 -0.005209 0.035374 0.000000 0.005271 0.000000
# 4 0.000000 0.000000 0.000000 0.030680 0.000000 -0.002335
# 5 -0.002748 -0.001456 0.005271 0.000000 0.023745 0.000000
# 6 0.000000 0.000000 0.000000 -0.002335 0.000000 0.025816
#
#
# Mechanical properties :
#
#
# Convention : Reuss Voigt Hill
#
# Bulk Modulus (GPa) = 59.84682 80.25497 70.05090
# Shear Modulus (GPa) = 24.15830 31.66054 27.90942
#
# Velocity S-wave (km/s) = 3.64125 4.16847 3.91375
# Velocity P-wave (km/s) = 7.10801 8.19843 7.67262
#
# Compressibility (1/GPa) = 0.01670933
#
# Stress axis : x y z
#
# Youngs Moduli (GPa) = 59.02489 60.17801 28.26937
#
# Poissons Ratio (x) = 0.27147 0.46339
# Poissons Ratio (y) = 0.26627 0.14725
# Poissons Ratio (z) = 0.96753 0.31346
#
# Static dielectric constant tensor:
#      x y z
#    x 3.436860 0.000000 -0.162310 
#    y 0.000000 3.290030 0.000000 
#    z -0.162310 0.000000 3.528650 
# 
# 
# High freq. dielectric constant tensor:
#      x y z
#    x 1.717750 0.000000 -0.001020 
#    y 0.000000 1.716790 0.000000 
#    z -0.001020 0.000000 1.705710 
# 
# From -- ./inp_files/54274.got.cif
#   From: 2010.06.25/outbox.cif.g09.slc.cpg/sg11_28_cif.got.tgz:54274.got - 2010.06.27 23:14:04.
