data_PCOD8074672
_publ_section_title
;
Structure prediction by ZEFSAII (Michael W. Deem and Ramdas Pophale) SiO2 
 PCOD8074672
Probable space group: P 21/M
;
_chemical_formula_sum "Si O2"
_cell_formula_units_Z 32
_cell_length_a 15.144435
_cell_length_b 8.223905
_cell_length_c 21.605285
_cell_angle_alpha 90.000000
_cell_angle_beta 35.371082
_cell_angle_gamma 90.000000
_cell_volume 1557.657504
_symmetry_space_group_name_H-M "P 21/M"
_symmetry_group_IT_number 11
_symmetry_cell_setting 'monoclinic'
loop_
_space_group_symop_operation_xyz
x,y,z
-x,1/2+y,-z
-x,-y,-z
x,1/2-y,z
loop_
_atom_site_type_symbol
_atom_site_label
_atom_site_fract_x
_atom_site_fract_y
_atom_site_fract_z
Si Si1 0.397343 0.943114 0.615011
Si Si2 0.911138 0.056039 0.392610
Si Si3 0.247556 0.436034 0.023740
Si Si4 0.420520 0.560922 0.375541
Si Si5 0.801760 0.933097 0.708173
Si Si6 0.665674 0.433781 0.901613
Si Si7 0.479164 0.061429 0.208965
Si Si8 0.924120 0.437746 0.246199
O O1 0.405787 0.750000 0.618310
O O2 0.226499 0.010044 0.700047
O O3 0.500000 0.000000 0.500000
O O4 0.451859 0.029233 0.646283
O O5 0.924315 0.250000 0.385729
O O6 0.742061 0.997411 0.506669
O O7 0.950886 0.987338 0.300517
O O8 0.027340 0.988832 0.380939
O O9 0.279133 0.250000 0.025329
O O10 0.271890 0.560698 0.065185
O O11 0.065178 0.460568 0.117040
O O12 0.360782 0.478718 0.902743
O O13 0.414499 0.750000 0.361726
O O14 0.464224 0.459566 0.290224
O O15 0.816846 0.750000 0.675358
O O16 0.672163 0.018123 0.738595
O O17 0.749465 0.940101 0.809143
O O18 0.675086 0.250000 0.870304
O O19 0.500000 0.500000 0.000000
O O20 0.489083 0.250000 0.185105
O O21 0.889399 0.250000 0.278343
#
# Coordination Sequence:
#
# PCOD8074672 Si02
#       8
#     4   4   4   4   4   4   4   4
#     4  11  21  38  64  94 123 152 192 242 301 358
#     4   9  17  34  59  88 119 155 193 240 296 353
#     4  11  21  37  61  86 117 157 200 242 295 353
#     4  11  23  41  63  86 117 159 205 244 293 357
#     4  10  20  36  58  83 117 158 199 244 296 347
#     4  12  22  32  51  82 117 154 198 246 291 339
#     4  11  24  40  58  84 120 161 204 246 293 348
#     4   9  18  34  60  92 122 151 186 239 303 358
#
# _framework density 20.543668
#
# number of rings (size 3 to 8) (size 9 to 14) (size 15 to 20)
#    0.000    1.500    3.750    2.625    0.000    1.000 
#    0.000    5.625    0.000    0.000    0.000    0.000 
#    0.000    0.000    0.000    0.000    0.000    0.000 
#
# Total GULP energy -396432.374543 kJ/mol
# GULP energy per Si atom -12388.511704 kJ/mol
# Density = 2.049691 g / cm^3
# Si number density = 20.543668 Si / 1000 Ang^3
#
#
#
# Elastic Constant Matrix: (Units=GPa)
#
#
# Indices 1 2 3 4 5 6 
#
# 1 140.9417 8.9192 72.2739 0.0000 -18.9747 0.0000
# 2 8.9192 43.9069 9.3437 0.0000 -6.3357 0.0000
# 3 72.2739 9.3437 119.1859 0.0000 -15.0213 0.0000
# 4 0.0000 0.0000 0.0000 23.5112 0.0000 2.4936
# 5 -18.9747 -6.3357 -15.0213 0.0000 39.9703 0.0000
# 6 0.0000 0.0000 0.0000 2.4936 0.0000 23.2552
#
#
#
# Elastic Compliance Matrix: (Units=1/GPa)
#
#
# Indices 1 2 3 4 5 6 
#
# 1 0.010585 -0.000478 -0.006044 0.000000 0.002678 0.000000
# 2 -0.000478 0.023564 -0.001171 0.000000 0.003068 0.000000
# 3 -0.006044 -0.001171 0.012347 0.000000 0.001585 0.000000
# 4 0.000000 0.000000 0.000000 0.043022 0.000000 -0.004613
# 5 0.002678 0.003068 0.001585 0.000000 0.027372 0.000000
# 6 0.000000 0.000000 0.000000 -0.004613 0.000000 0.043496
#
#
# Mechanical properties :
#
#
# Convention : Reuss Voigt Hill
#
# Bulk Modulus (GPa) = 32.14253 53.90088 43.02171
# Shear Modulus (GPa) = 26.86126 31.58053 29.22089
#
# Velocity S-wave (km/s) = 3.61989 3.92502 3.77554
# Velocity P-wave (km/s) = 5.75772 6.84362 6.32402
#
# Compressibility (1/GPa) = 0.03111143
#
# Stress axis : x y z
#
# Youngs Moduli (GPa) = 94.47231 42.43684 80.99256
#
# Poissons Ratio (x) = 0.02027 0.48950
# Poissons Ratio (y) = 0.04513 0.09484
# Poissons Ratio (z) = 0.57097 0.04969
#
# Static dielectric constant tensor:
#      x y z
#    x 3.842640 0.000000 -0.364020 
#    y 0.000000 -23.516500 0.000000 
#    z -0.364020 0.000000 3.777660 
# 
# 
# High freq. dielectric constant tensor:
#      x y z
#    x 1.799050 0.000000 -0.023410 
#    y 0.000000 1.777350 0.000000 
#    z -0.023410 0.000000 1.802230 
# 
# From -- ./inp_files/65193.got.cif
#   From: 2010.06.25/outbox.cif.g09.slc.cpg/sg11_33_cif.got.tgz:65193.got - 2010.06.27 23:14:04.
