data_PCOD8074956
_publ_section_title
;
Structure prediction by ZEFSAII (Michael W. Deem and Ramdas Pophale) SiO2 
 PCOD8074956
Probable space group: P 21/M
;
_chemical_formula_sum "Si O2"
_cell_formula_units_Z 32
_cell_length_a 11.774558
_cell_length_b 18.170601
_cell_length_c 13.759268
_cell_angle_alpha 90.000000
_cell_angle_beta 148.319411
_cell_angle_gamma 90.000000
_cell_volume 1546.038154
_symmetry_space_group_name_H-M "P 21/M"
_symmetry_group_IT_number 11
_symmetry_cell_setting 'monoclinic'
loop_
_space_group_symop_operation_xyz
x,y,z
-x,1/2+y,-z
-x,-y,-z
x,1/2-y,z
loop_
_atom_site_type_symbol
_atom_site_label
_atom_site_fract_x
_atom_site_fract_y
_atom_site_fract_z
Si Si1 0.786763 0.027559 0.027109
Si Si2 0.637927 0.165869 0.424694
Si Si3 0.010430 0.948827 0.365086
Si Si4 0.401312 0.333239 0.609491
Si Si5 0.192386 0.400709 0.091983
Si Si6 0.052386 0.164043 0.189888
Si Si7 0.754153 0.334437 0.723506
Si Si8 0.313216 0.445065 0.706668
O O1 0.839119 0.114978 0.056207
O O2 0.949983 0.986090 0.218814
O O3 0.546123 0.018096 0.894588
O O4 0.801290 0.987811 0.930973
O O5 0.661843 0.250000 0.409810
O O6 0.418160 0.133766 0.217721
O O7 0.617495 0.156638 0.525855
O O8 0.854337 0.125595 0.548143
O O9 0.795143 0.928257 0.268525
O O10 0.159526 0.004177 0.531883
O O11 0.453027 0.250000 0.673420
O O12 0.197465 0.338483 0.390196
O O13 0.610416 0.368966 0.706800
O O14 0.349824 0.371013 0.673148
O O15 0.170697 0.379984 0.189102
O O16 0.989478 0.369438 0.884619
O O17 0.997906 0.250000 0.123086
O O18 0.791390 0.250000 0.775059
#
# Coordination Sequence:
#
# PCOD8074956 Si02
#       8
#     4   4   4   4   4   4   4   4
#     4  12  24  42  67  98 124 172 220 266 320 391
#     4  11  22  40  64  93 131 171 211 263 325 384
#     4  11  24  45  64  92 125 165 221 270 314 381
#     4  10  21  40  66  94 126 170 216 263 325 385
#     4  12  22  38  63  96 132 168 211 259 320 392
#     4  11  23  40  63  96 136 171 210 267 326 389
#     4  10  20  36  62  92 127 168 205 257 323 384
#     4  11  24  43  68  87 124 171 215 271 324 363
#
# _framework density 20.698066000000001
#
# number of rings (size 3 to 8) (size 9 to 14) (size 15 to 20)
#    0.000    1.000    5.000    2.625    0.000    2.000 
#    0.000    2.500    0.000    0.000    0.000    0.000 
#    0.000    0.000    0.000    0.000    0.000    0.000 
#
# Total GULP energy -396649.796979 kJ/mol
# GULP energy per Si atom -12395.306156 kJ/mol
# Density = 2.065096 g / cm^3
# Si number density = 20.698066 Si / 1000 Ang^3
#
#
#
# Elastic Constant Matrix: (Units=GPa)
#
#
# Indices 1 2 3 4 5 6 
#
# 1 86.0446 53.2189 19.3336 0.0000 18.4418 0.0000
# 2 53.2189 105.2996 39.1153 0.0000 5.4742 0.0000
# 3 19.3336 39.1153 94.7423 0.0000 18.3771 0.0000
# 4 0.0000 0.0000 0.0000 37.5803 0.0000 -3.9364
# 5 18.4418 5.4742 18.3771 0.0000 35.1320 0.0000
# 6 0.0000 0.0000 0.0000 -3.9364 0.0000 34.4776
#
#
#
# Elastic Compliance Matrix: (Units=1/GPa)
#
#
# Indices 1 2 3 4 5 6 
#
# 1 0.019508 -0.010130 0.002094 0.000000 -0.009757 0.000000
# 2 -0.010130 0.016495 -0.005872 0.000000 0.005819 0.000000
# 3 0.002094 -0.005872 0.014009 0.000000 -0.007512 0.000000
# 4 0.000000 0.000000 0.000000 0.026932 0.000000 0.003075
# 5 -0.009757 0.005819 -0.007512 0.000000 0.036609 0.000000
# 6 0.000000 0.000000 0.000000 0.003075 0.000000 0.029355
#
#
# Mechanical properties :
#
#
# Convention : Reuss Voigt Hill
#
# Bulk Modulus (GPa) = 45.05163 56.60245 50.82704
# Shear Modulus (GPa) = 28.07055 33.06590 30.56823
#
# Velocity S-wave (km/s) = 3.68665 4.00125 3.84717
# Velocity P-wave (km/s) = 6.31943 6.98232 6.65913
#
# Compressibility (1/GPa) = 0.02219675
#
# Stress axis : x y z
#
# Youngs Moduli (GPa) = 51.26060 60.62397 71.38305
#
# Poissons Ratio (x) = 0.61413 -0.14948
# Poissons Ratio (y) = 0.51928 0.41914
# Poissons Ratio (z) = -0.10734 0.35596
#
# Static dielectric constant tensor:
#      x y z
#    x 3.755910 0.000000 0.151280 
#    y 0.000000 3.777840 0.000000 
#    z 0.151280 0.000000 3.909870 
# 
# 
# High freq. dielectric constant tensor:
#      x y z
#    x 1.790540 0.000000 0.006380 
#    y 0.000000 1.805980 0.000000 
#    z 0.006380 0.000000 1.831300 
# 
# From -- ./inp_files/39975.got.cif
#   From: 2010.06.25/outbox.cif.g09.slc.cpg/sg11_20_cif.got.tgz:39975.got - 2010.06.27 23:14:04.
