data_PCOD8074833
_publ_section_title
;
Structure prediction by ZEFSAII (Michael W. Deem and Ramdas Pophale) SiO2 
 PCOD8074833
Probable space group: P 21/M
;
_chemical_formula_sum "Si O2"
_cell_formula_units_Z 24
_cell_length_a 14.755113
_cell_length_b 8.802334
_cell_length_c 14.981127
_cell_angle_alpha 90.000000
_cell_angle_beta 139.604990
_cell_angle_gamma 90.000000
_cell_volume 1260.943943
_symmetry_space_group_name_H-M "P 21/M"
_symmetry_group_IT_number 11
_symmetry_cell_setting 'monoclinic'
loop_
_space_group_symop_operation_xyz
x,y,z
-x,1/2+y,-z
-x,-y,-z
x,1/2-y,z
loop_
_atom_site_type_symbol
_atom_site_label
_atom_site_fract_x
_atom_site_fract_y
_atom_site_fract_z
Si Si1 0.342769 0.574864 0.109670
Si Si2 0.848967 0.929184 0.892455
Si Si3 0.351561 0.429503 0.612433
Si Si4 0.648387 0.425891 0.091218
Si Si5 0.152614 0.069139 0.618824
Si Si6 0.353352 0.070841 0.414292
O O1 0.332247 0.750000 0.131683
O O2 0.225503 0.480039 0.072738
O O3 0.494989 0.506164 0.248255
O O4 0.313978 0.556155 0.983843
O O5 0.863047 0.750000 0.902163
O O6 0.762407 0.988195 0.741695
O O7 0.000000 0.000000 0.000000
O O8 0.357942 0.250000 0.627593
O O9 0.237456 0.492585 0.596218
O O10 0.308368 0.479879 0.480274
O O11 0.642812 0.250000 0.115291
O O12 0.770079 0.512039 0.234857
O O13 0.500000 0.500000 0.000000
O O14 0.143342 0.250000 0.613571
O O15 0.000000 0.000000 0.500000
O O16 0.370917 0.250000 0.422058
O O17 0.500000 0.000000 0.500000
#
# Coordination Sequence:
#
# PCOD8074833 Si02
#       6
#     4   4   4   4   4   4
#     4  10  20  38  63  87 115 158 200 242 300 360
#     4  11  24  39  58  89 123 158 196 246 300 354
#     4   9  18  36  61  85 115 154 195 239 295 359
#     4  11  22  38  62  91 120 158 203 251 305 364
#     4  11  23  41  61  89 124 161 202 249 305 362
#     4  10  20  36  60  87 113 148 194 240 290 348
#
# _framework density 19.033359999999998
#
# number of rings (size 3 to 8) (size 9 to 14) (size 15 to 20)
#    0.000    1.667    3.333    1.500    0.000    3.333 
#    0.000    5.000    0.000    0.000    0.000    0.000 
#    0.000    0.000    0.000    0.000    0.000    0.000 
#
# Total GULP energy -297665.223057 kJ/mol
# GULP energy per Si atom -12402.717627 kJ/mol
# Density = 1.899004 g / cm^3
# Si number density = 19.033360 Si / 1000 Ang^3
#
#
#
# Elastic Constant Matrix: (Units=GPa)
#
#
# Indices 1 2 3 4 5 6 
#
# 1 148.7913 44.6694 80.0603 0.0000 10.6885 0.0000
# 2 44.6694 67.6390 50.6783 0.0000 3.9305 0.0000
# 3 80.0603 50.6783 159.8443 0.0000 11.7056 0.0000
# 4 0.0000 0.0000 0.0000 32.8243 0.0000 3.4710
# 5 10.6885 3.9305 11.7056 0.0000 40.5992 0.0000
# 6 0.0000 0.0000 0.0000 3.4710 0.0000 33.4371
#
#
#
# Elastic Compliance Matrix: (Units=1/GPa)
#
#
# Indices 1 2 3 4 5 6 
#
# 1 0.009910 -0.003701 -0.003703 0.000000 -0.001183 0.000000
# 2 -0.003701 0.020773 -0.004757 0.000000 0.000335 0.000000
# 3 -0.003703 -0.004757 0.009719 0.000000 -0.001367 0.000000
# 4 0.000000 0.000000 0.000000 0.030803 0.000000 -0.003198
# 5 -0.001183 0.000335 -0.001367 0.000000 0.025304 0.000000
# 6 0.000000 0.000000 0.000000 -0.003198 0.000000 0.030239
#
#
# Mechanical properties :
#
#
# Convention : Reuss Voigt Hill
#
# Bulk Modulus (GPa) = 62.19087 80.78783 71.48935
# Shear Modulus (GPa) = 31.96310 34.76322 33.36316
#
# Velocity S-wave (km/s) = 4.10240 4.27832 4.19128
# Velocity P-wave (km/s) = 7.42867 8.18186 7.81435
#
# Compressibility (1/GPa) = 0.01607953
#
# Stress axis : x y z
#
# Youngs Moduli (GPa) = 100.91307 48.13909 102.88876
#
# Poissons Ratio (x) = 0.17816 0.38103
# Poissons Ratio (y) = 0.37347 0.48944
# Poissons Ratio (z) = 0.37372 0.22900
#
# Static dielectric constant tensor:
#      x y z
#    x 3.519720 0.000000 -0.110440 
#    y 0.000000 3.405470 0.000000 
#    z -0.110440 0.000000 3.635450 
# 
# 
# High freq. dielectric constant tensor:
#      x y z
#    x 1.749400 0.000000 -0.007520 
#    y 0.000000 1.728850 0.000000 
#    z -0.007520 0.000000 1.749570 
# 
# From -- ./inp_files/20394.got.cif
#   From: 2010.06.25/outbox.cif.g09.slc.cpg/sg11_11_cif.got.tgz:20394.got - 2010.06.27 23:14:04.
