data_PCOD8074088
_publ_section_title
;
Structure prediction by ZEFSAII (Michael W. Deem and Ramdas Pophale) SiO2 
 PCOD8074088
Probable space group: P 21/M
;
_chemical_formula_sum "Si O2"
_cell_formula_units_Z 32
_cell_length_a 9.418471
_cell_length_b 11.654799
_cell_length_c 30.612271
_cell_angle_alpha 90.000000
_cell_angle_beta 28.795465
_cell_angle_gamma 90.000000
_cell_volume 1618.613821
_symmetry_space_group_name_H-M "P 21/M"
_symmetry_group_IT_number 11
_symmetry_cell_setting 'monoclinic'
loop_
_space_group_symop_operation_xyz
x,y,z
-x,1/2+y,-z
-x,-y,-z
x,1/2-y,z
loop_
_atom_site_type_symbol
_atom_site_label
_atom_site_fract_x
_atom_site_fract_y
_atom_site_fract_z
Si Si1 0.852228 0.881357 0.020795
Si Si2 0.620923 0.617197 0.332900
Si Si3 0.620890 0.379071 0.513727
Si Si4 0.474178 0.380059 0.737208
Si Si5 0.974590 0.954743 0.362755
Si Si6 0.075089 0.006201 0.086082
Si Si7 0.358858 0.118614 0.090189
Si Si8 0.775206 0.465295 0.797482
O O1 0.967687 0.750000 0.003111
O O2 0.893597 0.890751 0.957325
O O3 0.509658 0.882750 0.126746
O O4 0.000000 0.000000 0.000000
O O5 0.546160 0.750000 0.354527
O O6 0.438377 0.561200 0.422766
O O7 0.517656 0.566563 0.314109
O O8 0.968896 0.601724 0.246037
O O9 0.726484 0.250000 0.491010
O O10 0.314884 0.379967 0.569049
O O11 0.884878 0.438560 0.416909
O O12 0.355859 0.250000 0.766781
O O13 0.795742 0.379210 0.671860
O O14 0.252835 0.454176 0.826716
O O15 0.127153 0.000356 0.277445
O O16 0.142772 0.050867 0.116127
O O17 0.301381 0.904540 0.013110
O O18 0.282926 0.250000 0.106171
O O19 0.298759 0.081031 0.156183
#
# Coordination Sequence:
#
# PCOD8074088 Si02
#       8
#     4   4   4   4   4   4   4   4
#     4  11  24  39  59  86 122 162 204 249 300 351
#     4   9  18  34  59  83 109 145 190 240 291 353
#     4   9  19  38  58  80 111 150 188 233 298 361
#     4  11  21  35  58  89 117 149 198 249 295 345
#     4  10  21  35  58  86 112 145 186 244 289 352
#     4  10  21  37  55  82 116 155 195 244 292 339
#     4  10  20  35  56  81 113 154 198 241 287 345
#     4  10  20  37  57  82 113 151 197 241 295 345
#
# _framework density 19.770004
#
# number of rings (size 3 to 8) (size 9 to 14) (size 15 to 20)
#    0.000    2.000    1.250    2.250    0.000    6.000 
#    0.000    2.500    0.000    0.000    0.000    0.000 
#    0.000    0.000    0.000    0.000    0.000    0.000 
#
# Total GULP energy -396586.989872 kJ/mol
# GULP energy per Si atom -12393.343433 kJ/mol
# Density = 1.972501 g / cm^3
# Si number density = 19.770004 Si / 1000 Ang^3
#
#
#
# Elastic Constant Matrix: (Units=GPa)
#
#
# Indices 1 2 3 4 5 6 
#
# 1 88.6596 20.1095 42.1513 0.0000 9.8094 0.0000
# 2 20.1095 85.5922 40.4196 0.0000 13.7041 0.0000
# 3 42.1513 40.4196 103.0886 0.0000 18.3473 0.0000
# 4 0.0000 0.0000 0.0000 15.8315 0.0000 -0.7096
# 5 9.8094 13.7041 18.3473 0.0000 28.9000 0.0000
# 6 0.0000 0.0000 0.0000 -0.7096 0.0000 20.8114
#
#
#
# Elastic Compliance Matrix: (Units=1/GPa)
#
#
# Indices 1 2 3 4 5 6 
#
# 1 0.014068 -0.000619 -0.005312 0.000000 -0.001109 0.000000
# 2 -0.000619 0.014714 -0.004861 0.000000 -0.003681 0.000000
# 3 -0.005312 -0.004861 0.014709 0.000000 -0.005230 0.000000
# 4 0.000000 0.000000 0.000000 0.063262 0.000000 0.002157
# 5 -0.001109 -0.003681 -0.005230 0.000000 0.040044 0.000000
# 6 0.000000 0.000000 0.000000 0.002157 0.000000 0.048124
#
#
# Mechanical properties :
#
#
# Convention : Reuss Voigt Hill
#
# Bulk Modulus (GPa) = 45.64793 53.63345 49.64069
# Shear Modulus (GPa) = 22.34075 24.75258 23.54666
#
# Velocity S-wave (km/s) = 3.36524 3.54224 3.45487
# Velocity P-wave (km/s) = 6.18380 6.62703 6.40925
#
# Compressibility (1/GPa) = 0.02190680
#
# Stress axis : x y z
#
# Youngs Moduli (GPa) = 71.08502 67.96469 67.98558
#
# Poissons Ratio (x) = 0.04208 0.36113
# Poissons Ratio (y) = 0.04401 0.33046
# Poissons Ratio (z) = 0.37760 0.33035
#
# Static dielectric constant tensor:
#      x y z
#    x 3.796580 0.000000 0.237660 
#    y 0.000000 3.309290 0.000000 
#    z 0.237660 0.000000 3.655380 
# 
# 
# High freq. dielectric constant tensor:
#      x y z
#    x 1.779830 0.000000 0.014240 
#    y 0.000000 1.742900 0.000000 
#    z 0.014240 0.000000 1.769450 
# 
# From -- ./inp_files/29279.got.cif
#   From: 2010.06.25/outbox.cif.g09.slc.cpg/sg11_15_cif.got.tgz:29279.got - 2010.06.27 23:14:04.
