data_PCOD8074065
_publ_section_title
;
Structure prediction by ZEFSAII (Michael W. Deem and Ramdas Pophale) SiO2 
 PCOD8074065
Probable space group: P 21/M
;
_chemical_formula_sum "Si O2"
_cell_formula_units_Z 28
_cell_length_a 19.673117
_cell_length_b 10.524716
_cell_length_c 15.587219
_cell_angle_alpha 90.000000
_cell_angle_beta 25.034336
_cell_angle_gamma 90.000000
_cell_volume 1365.708949
_symmetry_space_group_name_H-M "P 21/M"
_symmetry_group_IT_number 11
_symmetry_cell_setting 'monoclinic'
loop_
_space_group_symop_operation_xyz
x,y,z
-x,1/2+y,-z
-x,-y,-z
x,1/2-y,z
loop_
_atom_site_type_symbol
_atom_site_label
_atom_site_fract_x
_atom_site_fract_y
_atom_site_fract_z
Si Si1 0.008669 0.110179 0.873266
Si Si2 0.868289 0.106439 0.520272
Si Si3 0.149058 0.956238 0.115751
Si Si4 0.549827 0.891207 0.273192
Si Si5 0.216093 0.603456 0.713883
Si Si6 0.538664 0.395734 0.819217
Si Si7 0.287923 0.611666 0.129490
O O1 0.083543 0.250000 0.809365
O O2 0.949590 0.120054 0.842652
O O3 0.135046 0.995942 0.740076
O O4 0.857198 0.083405 0.108258
O O5 0.876923 0.250000 0.481145
O O6 0.708662 0.049892 0.657769
O O7 0.855513 0.089357 0.637958
O O8 0.033573 0.051582 0.297353
O O9 0.221485 0.871332 0.108888
O O10 0.294263 0.021980 0.897810
O O11 0.612030 0.750000 0.221255
O O12 0.406425 0.928700 0.502958
O O13 0.463455 0.900384 0.280285
O O14 0.191352 0.750000 0.709806
O O15 0.504526 0.250000 0.890166
O O16 0.406580 0.493306 0.006483
O O17 0.369440 0.750000 0.057266
#
# Coordination Sequence:
#
# PCOD8074065 Si02
#       7
#     4   4   4   4   4   4   4
#     4  10  21  37  57  83 112 141 177 221 270 322
#     4  10  20  35  56  80 106 141 187 231 267 314
#     4  11  21  34  52  79 113 146 177 218 273 325
#     4   9  18  33  54  80 108 139 178 222 267 318
#     4   9  19  38  61  82 107 141 181 223 264 315
#     4   9  18  34  56  80 104 135 180 229 272 315
#     4  10  21  37  54  77 110 145 181 223 273 323
#
# _framework density 20.502172000000002
#
# number of rings (size 3 to 8) (size 9 to 14) (size 15 to 20)
#    0.000    2.286    0.000    2.571    0.000    3.429 
#    0.000    9.286    0.000    0.000    0.000    0.000 
#    0.000    0.000    0.000    0.000    0.000    0.000 
#
# Total GULP energy -346943.536366 kJ/mol
# GULP energy per Si atom -12390.840584 kJ/mol
# Density = 2.045551 g / cm^3
# Si number density = 20.502172 Si / 1000 Ang^3
#
#
#
# Elastic Constant Matrix: (Units=GPa)
#
#
# Indices 1 2 3 4 5 6 
#
# 1 46.9630 18.2078 5.5603 0.0000 0.3641 0.0000
# 2 18.2078 101.0658 53.1860 0.0000 -2.0407 0.0000
# 3 5.5603 53.1860 106.8807 0.0000 4.3080 0.0000
# 4 0.0000 0.0000 0.0000 16.8243 0.0000 6.2687
# 5 0.3641 -2.0407 4.3080 0.0000 20.3664 0.0000
# 6 0.0000 0.0000 0.0000 6.2687 0.0000 18.5248
#
#
#
# Elastic Compliance Matrix: (Units=1/GPa)
#
#
# Indices 1 2 3 4 5 6 
#
# 1 0.023027 -0.004831 0.001253 0.000000 -0.001161 0.000000
# 2 -0.004831 0.014576 -0.007125 0.000000 0.003054 0.000000
# 3 0.001253 -0.007125 0.012977 0.000000 -0.003481 0.000000
# 4 0.000000 0.000000 0.000000 0.068014 0.000000 -0.023015
# 5 -0.001161 0.003054 -0.003481 0.000000 0.050164 0.000000
# 6 0.000000 0.000000 0.000000 -0.023015 0.000000 0.061770
#
#
# Mechanical properties :
#
#
# Convention : Reuss Voigt Hill
#
# Bulk Modulus (GPa) = 34.27788 45.42419 39.85104
# Shear Modulus (GPa) = 19.10883 23.00678 21.05780
#
# Velocity S-wave (km/s) = 3.05624 3.35350 3.20832
# Velocity P-wave (km/s) = 5.40459 6.09906 5.76230
#
# Compressibility (1/GPa) = 0.02917333
#
# Stress axis : x y z
#
# Youngs Moduli (GPa) = 43.42700 68.60467 77.05936
#
# Poissons Ratio (x) = 0.33145 -0.09656
# Poissons Ratio (y) = 0.20981 0.54906
# Poissons Ratio (z) = -0.05441 0.48882
#
# Static dielectric constant tensor:
#      x y z
#    x 3.658940 0.000000 0.081580 
#    y 0.000000 3.724630 0.000000 
#    z 0.081580 0.000000 3.706700 
# 
# 
# High freq. dielectric constant tensor:
#      x y z
#    x 1.793130 0.000000 0.013170 
#    y 0.000000 1.799230 0.000000 
#    z 0.013170 0.000000 1.795830 
# 
# From -- ./inp_files/61482.got.cif
#   From: 2010.06.25/outbox.cif.g09.slc.cpg/sg11_31_cif.got.tgz:61482.got - 2010.06.27 23:14:04.
