data_PCOD8074852
_publ_section_title
;
Structure prediction by ZEFSAII (Michael W. Deem and Ramdas Pophale) SiO2 
 PCOD8074852
Probable space group: P 21/M
;
_chemical_formula_sum "Si O2"
_cell_formula_units_Z 32
_cell_length_a 15.401702
_cell_length_b 8.685496
_cell_length_c 26.610868
_cell_angle_alpha 90.000000
_cell_angle_beta 154.076099
_cell_angle_gamma 90.000000
_cell_volume 1556.251163
_symmetry_space_group_name_H-M "P 21/M"
_symmetry_group_IT_number 11
_symmetry_cell_setting 'monoclinic'
loop_
_space_group_symop_operation_xyz
x,y,z
-x,1/2+y,-z
-x,-y,-z
x,1/2-y,z
loop_
_atom_site_type_symbol
_atom_site_label
_atom_site_fract_x
_atom_site_fract_y
_atom_site_fract_z
Si Si1 0.782862 0.930379 0.385060
Si Si2 0.585852 0.569934 0.095626
Si Si3 0.992680 0.927044 0.679610
Si Si4 0.943846 0.429702 0.023448
Si Si5 0.276987 0.428174 0.275941
Si Si6 0.538705 0.433752 0.860911
Si Si7 0.716692 0.430637 0.618499
Si Si8 0.344866 0.426537 0.572064
O O1 0.811273 0.750000 0.394723
O O2 0.650513 0.994964 0.269869
O O3 0.666376 0.971825 0.375500
O O4 0.000000 0.000000 0.500000
O O5 0.555169 0.750000 0.075170
O O6 0.475152 0.507616 0.088441
O O7 0.816173 0.533837 0.222293
O O8 0.500000 0.500000 0.000000
O O9 0.056956 0.750000 0.720063
O O10 0.871489 0.951359 0.565037
O O11 0.860544 0.976964 0.657377
O O12 0.914316 0.250000 0.000614
O O13 0.125827 0.470766 0.153732
O O14 0.740660 0.499307 0.941080
O O15 0.000000 0.500000 0.000000
O O16 0.263583 0.250000 0.285041
O O17 0.212397 0.536905 0.288127
O O18 0.500262 0.462128 0.374439
O O19 0.539584 0.250000 0.860475
O O20 0.500000 0.500000 0.500000
O O21 0.718771 0.250000 0.607263
O O22 0.414411 0.250000 0.600859
#
# Coordination Sequence:
#
# PCOD8074852 Si02
#       8
#     4   4   4   4   4   4   4   4
#     4  10  20  36  60  88 116 153 197 244 304 370
#     4  11  24  42  64  90 120 165 216 266 320 376
#     4  11  23  40  62  89 125 164 204 259 316 370
#     4  10  22  41  64  92 124 165 209 256 312 373
#     4  11  23  37  60  91 123 160 206 253 310 372
#     4   9  20  40  63  86 121 164 204 250 312 373
#     4  12  24  40  62  92 127 165 208 256 312 376
#     4  10  21  37  60  88 121 159 198 245 309 375
#
# _framework density 20.562234
#
# number of rings (size 3 to 8) (size 9 to 14) (size 15 to 20)
#    0.000    1.500    1.250    3.750    1.750    3.000 
#    0.000    2.500    0.000    0.000    0.000    0.000 
#    0.000    0.000    0.000    0.000    0.000    0.000 
#
# Total GULP energy -396868.973074 kJ/mol
# GULP energy per Si atom -12402.155409 kJ/mol
# Density = 2.051543 g / cm^3
# Si number density = 20.562234 Si / 1000 Ang^3
#
#
#
# Elastic Constant Matrix: (Units=GPa)
#
#
# Indices 1 2 3 4 5 6 
#
# 1 140.6440 18.0886 62.1817 0.0000 -13.1670 0.0000
# 2 18.0886 33.4583 25.7625 0.0000 -12.7762 0.0000
# 3 62.1817 25.7625 116.0580 0.0000 -10.4025 0.0000
# 4 0.0000 0.0000 0.0000 32.3291 0.0000 0.1366
# 5 -13.1670 -12.7762 -10.4025 0.0000 42.1756 0.0000
# 6 0.0000 0.0000 0.0000 0.1366 0.0000 31.7709
#
#
#
# Elastic Compliance Matrix: (Units=1/GPa)
#
#
# Indices 1 2 3 4 5 6 
#
# 1 0.009460 -0.000889 -0.004735 0.000000 0.001516 0.000000
# 2 -0.000889 0.039951 -0.007498 0.000000 0.009975 0.000000
# 3 -0.004735 -0.007498 0.012764 0.000000 -0.000601 0.000000
# 4 0.000000 0.000000 0.000000 0.030932 0.000000 -0.000133
# 5 0.001516 0.009975 -0.000601 0.000000 0.027057 0.000000
# 6 0.000000 0.000000 0.000000 -0.000133 0.000000 0.031476
#
#
# Mechanical properties :
#
#
# Convention : Reuss Voigt Hill
#
# Bulk Modulus (GPa) = 27.83166 55.80288 41.81727
# Shear Modulus (GPa) = 26.33497 33.53029 29.93263
#
# Velocity S-wave (km/s) = 3.58263 4.04254 3.81951
# Velocity P-wave (km/s) = 5.53881 6.99907 6.31131
#
# Compressibility (1/GPa) = 0.03593031
#
# Stress axis : x y z
#
# Youngs Moduli (GPa) = 105.70832 25.03066 78.34649
#
# Poissons Ratio (x) = 0.02226 0.37098
# Poissons Ratio (y) = 0.09402 0.58741
# Poissons Ratio (z) = 0.50055 0.18767
#
# Static dielectric constant tensor:
#      x y z
#    x 3.968940 0.000000 -0.275700 
#    y 0.000000 3.529440 0.000000 
#    z -0.275700 0.000000 3.801310 
# 
# 
# High freq. dielectric constant tensor:
#      x y z
#    x 1.819040 0.000000 -0.007630 
#    y 0.000000 1.788170 0.000000 
#    z -0.007630 0.000000 1.815650 
# 
# From -- ./inp_files/69132.got.cif
#   From: 2010.06.25/outbox.cif.g09.slc.cpg/sg11_35_cif.got.tgz:69132.got - 2010.06.27 23:14:04.
