data_PCOD8074966
_publ_section_title
;
Structure prediction by ZEFSAII (Michael W. Deem and Ramdas Pophale) SiO2 
 PCOD8074966
Probable space group: P 21/M
;
_chemical_formula_sum "Si O2"
_cell_formula_units_Z 28
_cell_length_a 15.397814
_cell_length_b 13.806284
_cell_length_c 9.230363
_cell_angle_alpha 90.000000
_cell_angle_beta 130.571051
_cell_angle_gamma 90.000000
_cell_volume 1490.526215
_symmetry_space_group_name_H-M "P 21/M"
_symmetry_group_IT_number 11
_symmetry_cell_setting 'monoclinic'
loop_
_space_group_symop_operation_xyz
x,y,z
-x,1/2+y,-z
-x,-y,-z
x,1/2-y,z
loop_
_atom_site_type_symbol
_atom_site_label
_atom_site_fract_x
_atom_site_fract_y
_atom_site_fract_z
Si Si1 0.809063 0.634748 0.999074
Si Si2 0.842054 0.854839 0.483656
Si Si3 0.584464 0.359388 0.109960
Si Si4 0.212207 0.856977 0.467907
Si Si5 0.997836 0.101701 0.576158
Si Si6 0.120897 0.027560 0.196604
Si Si7 0.655925 0.942550 0.080555
O O1 0.794772 0.750000 0.976186
O O2 0.931585 0.604274 0.197275
O O3 0.707955 0.588373 0.983729
O O4 0.802723 0.589329 0.832144
O O5 0.791530 0.750000 0.475676
O O6 0.940731 0.828999 0.473171
O O7 0.897907 0.909438 0.679497
O O8 0.744246 0.922206 0.307508
O O9 0.597480 0.250000 0.058410
O O10 0.658649 0.369017 0.336608
O O11 0.625148 0.442822 0.041495
O O12 0.454173 0.376787 0.012264
O O13 0.192494 0.750000 0.381795
O O14 0.130587 0.869800 0.521136
O O15 0.189245 0.930646 0.312476
O O16 0.000000 0.000000 0.500000
O O17 0.000000 0.000000 0.000000
#
# Coordination Sequence:
#
# PCOD8074966 Si02
#       7
#     4   4   4   4   4   4   4
#     4  11  22  37  58  83 116 154 191 236 291 341
#     4  11  21  35  58  85 112 144 193 244 285 330
#     4  10  20  36  63  90 116 150 188 238 296 342
#     4  11  21  36  56  81 116 155 189 228 292 353
#     4  11  18  34  55  83 112 145 187 239 285 338
#     4  12  23  37  53  83 119 151 192 234 287 344
#     4  10  20  39  63  90 114 145 196 245 282 339
#
# _framework density 18.785311
#
# number of rings (size 3 to 8) (size 9 to 14) (size 15 to 20)
#    0.000    1.143    4.286    4.714    0.000    0.571 
#    0.000    1.429    0.000    0.000    0.000    0.000 
#    0.000    0.000    0.000    0.000    0.000    0.000 
#
# Total GULP energy -347100.806541 kJ/mol
# GULP energy per Si atom -12396.457376 kJ/mol
# Density = 1.874255 g / cm^3
# Si number density = 18.785311 Si / 1000 Ang^3
#
#
#
# Elastic Constant Matrix: (Units=GPa)
#
#
# Indices 1 2 3 4 5 6 
#
# 1 88.8706 37.2317 55.3990 0.0000 -1.3247 0.0000
# 2 37.2317 156.9426 41.7471 0.0000 -6.2570 0.0000
# 3 55.3990 41.7471 91.2665 0.0000 -5.4729 0.0000
# 4 0.0000 0.0000 0.0000 23.2035 0.0000 -2.9466
# 5 -1.3247 -6.2570 -5.4729 0.0000 29.0372 0.0000
# 6 0.0000 0.0000 0.0000 -2.9466 0.0000 25.7711
#
#
#
# Elastic Compliance Matrix: (Units=1/GPa)
#
#
# Indices 1 2 3 4 5 6 
#
# 1 0.018509 -0.001637 -0.010576 0.000000 -0.001502 0.000000
# 2 -0.001637 0.007425 -0.002337 0.000000 0.001085 0.000000
# 3 -0.010576 -0.002337 0.018597 0.000000 0.002519 0.000000
# 4 0.000000 0.000000 0.000000 0.043732 0.000000 0.005000
# 5 -0.001502 0.001085 0.002519 0.000000 0.035079 0.000000
# 6 0.000000 0.000000 0.000000 0.005000 0.000000 0.039375
#
#
# Mechanical properties :
#
#
# Convention : Reuss Voigt Hill
#
# Bulk Modulus (GPa) = 64.81279 67.31504 66.06391
# Shear Modulus (GPa) = 25.38582 29.11580 27.25081
#
# Velocity S-wave (km/s) = 3.68008 3.94118 3.81286
# Velocity P-wave (km/s) = 7.25493 7.52477 7.39108
#
# Compressibility (1/GPa) = 0.01542905
#
# Stress axis : x y z
#
# Youngs Moduli (GPa) = 54.02914 134.67596 53.77302
#
# Poissons Ratio (x) = 0.22053 0.56869
# Poissons Ratio (y) = 0.08847 0.12569
# Poissons Ratio (z) = 0.57140 0.31480
#
# Static dielectric constant tensor:
#      x y z
#    x 3.911840 0.000000 0.195330 
#    y 0.000000 3.852020 0.000000 
#    z 0.195330 0.000000 3.427400 
# 
# 
# High freq. dielectric constant tensor:
#      x y z
#    x 1.712720 0.000000 0.011170 
#    y 0.000000 1.757940 0.000000 
#    z 0.011170 0.000000 1.713050 
# 
# From -- ./inp_files/22257.got.cif
#   From: 2010.06.25/outbox.cif.g09.slc.cpg/sg11_12_cif.got.tgz:22257.got - 2010.06.27 23:14:04.
