data_PCOD8074212
_publ_section_title
;
Structure prediction by ZEFSAII (Michael W. Deem and Ramdas Pophale) SiO2 
 PCOD8074212
Probable space group: P 21/M
;
_chemical_formula_sum "Si O2"
_cell_formula_units_Z 28
_cell_length_a 12.404118
_cell_length_b 9.272802
_cell_length_c 15.194141
_cell_angle_alpha 90.000000
_cell_angle_beta 127.767825
_cell_angle_gamma 90.000000
_cell_volume 1381.511143
_symmetry_space_group_name_H-M "P 21/M"
_symmetry_group_IT_number 11
_symmetry_cell_setting 'monoclinic'
loop_
_space_group_symop_operation_xyz
x,y,z
-x,1/2+y,-z
-x,-y,-z
x,1/2-y,z
loop_
_atom_site_type_symbol
_atom_site_label
_atom_site_fract_x
_atom_site_fract_y
_atom_site_fract_z
Si Si1 0.361653 0.585274 0.535877
Si Si2 0.143261 0.581891 0.571631
Si Si3 0.631657 0.415399 0.966262
Si Si4 0.638348 0.085274 0.174224
Si Si5 0.118786 0.407406 0.159169
Si Si6 0.631657 0.084601 0.665395
Si Si7 0.881213 0.907406 0.040383
O O1 0.404624 0.750000 0.579632
O O2 0.230812 0.539906 0.528540
O O3 0.328124 0.568898 0.416594
O O4 0.485378 0.478571 0.619124
O O5 0.108519 0.750000 0.554259
O O6 0.230811 0.539907 0.702272
O O7 0.000000 0.500000 0.500000
O O8 0.635290 0.250000 0.937652
O O9 0.485377 0.478571 0.866254
O O10 0.671877 0.431102 0.088469
O O11 0.740737 0.507016 0.968107
O O12 0.595376 0.250000 0.175007
O O13 0.133812 0.250000 0.213236
O O14 0.259261 0.492984 0.227371
O O15 0.999999 0.500000 0.148357
O O16 0.073078 0.381044 0.036539
O O17 0.635291 0.250000 0.697638
O O18 0.866186 0.750000 0.079422
#
# Coordination Sequence:
#
# PCOD8074212 Si02
#       7
#     4   4   4   4   4   4   4
#     4   9  20  38  57  81 112 148 187 229 278 333
#     4  10  22  40  60  82 113 150 191 234 282 338
#     4  10  20  35  57  84 113 145 186 232 279 332
#     4   9  20  38  57  81 112 148 187 229 278 333
#     4  10  21  36  54  78 110 146 183 224 274 331
#     4  10  20  35  57  84 113 145 186 232 279 332
#     4  10  21  36  54  78 110 146 183 224 274 331
#
# _framework density 20.267662000000001
#
# number of rings (size 3 to 8) (size 9 to 14) (size 15 to 20)
#    0.000    2.286    0.000    1.714    2.000    5.143 
#    0.000    2.857    0.000    0.000    0.000    0.000 
#    0.000    0.000    0.000    0.000    0.000    0.000 
#
# Total GULP energy -347131.761078 kJ/mol
# GULP energy per Si atom -12397.562896 kJ/mol
# Density = 2.022153 g / cm^3
# Si number density = 20.267662 Si / 1000 Ang^3
#
#
#
# Elastic Constant Matrix: (Units=GPa)
#
#
# Indices 1 2 3 4 5 6 
#
# 1 113.1888 69.5021 47.0864 0.0000 25.3661 0.0000
# 2 69.5021 168.2444 45.5968 0.0000 30.4177 0.0000
# 3 47.0864 45.5968 78.1208 0.0000 19.2571 0.0000
# 4 0.0000 0.0000 0.0000 26.6570 0.0000 13.0840
# 5 25.3661 30.4177 19.2571 0.0000 30.8567 0.0000
# 6 0.0000 0.0000 0.0000 13.0840 0.0000 36.9401
#
#
#
# Elastic Compliance Matrix: (Units=1/GPa)
#
#
# Indices 1 2 3 4 5 6 
#
# 1 0.014374 -0.003596 -0.005348 0.000000 -0.004933 0.000000
# 2 -0.003596 0.008740 -0.001818 0.000000 -0.004525 0.000000
# 3 -0.005348 -0.001818 0.018389 0.000000 -0.005287 0.000000
# 4 0.000000 0.000000 0.000000 0.045408 0.000000 -0.016083
# 5 -0.004933 -0.004525 -0.005287 0.000000 0.044223 0.000000
# 6 0.000000 0.000000 0.000000 -0.016083 0.000000 0.032767
#
#
# Mechanical properties :
#
#
# Convention : Reuss Voigt Hill
#
# Bulk Modulus (GPa) = 50.05913 75.99161 63.02537
# Shear Modulus (GPa) = 26.03003 32.04866 29.03934
#
# Velocity S-wave (km/s) = 3.58762 3.98083 3.78933
# Velocity P-wave (km/s) = 6.47410 7.66191 7.09291
#
# Compressibility (1/GPa) = 0.01997638
#
# Stress axis : x y z
#
# Youngs Moduli (GPa) = 69.57247 114.41309 54.38041
#
# Poissons Ratio (x) = 0.41147 0.29085
# Poissons Ratio (y) = 0.25021 0.09889
# Poissons Ratio (z) = 0.37210 0.20805
#
# Static dielectric constant tensor:
#      x y z
#    x 3.520420 0.000000 -0.029500 
#    y 0.000000 4.133180 0.000000 
#    z -0.029500 0.000000 3.543600 
# 
# 
# High freq. dielectric constant tensor:
#      x y z
#    x 1.783940 0.000000 0.008300 
#    y 0.000000 1.804940 0.000000 
#    z 0.008300 0.000000 1.777420 
# 
# From -- ./inp_files/49492.got.cif
#   From: 2010.06.25/outbox.cif.g09.slc.cpg/sg11_25_cif.got.tgz:49492.got - 2010.06.27 23:14:04.
