data_PCOD8074483
_publ_section_title
;
Structure prediction by ZEFSAII (Michael W. Deem and Ramdas Pophale) SiO2 
 PCOD8074483
Probable space group: P 21/M
;
_chemical_formula_sum "Si O2"
_cell_formula_units_Z 32
_cell_length_a 28.120624
_cell_length_b 8.898193
_cell_length_c 22.819880
_cell_angle_alpha 90.000000
_cell_angle_beta 17.829211
_cell_angle_gamma 90.000000
_cell_volume 1748.307920
_symmetry_space_group_name_H-M "P 21/M"
_symmetry_group_IT_number 11
_symmetry_cell_setting 'monoclinic'
loop_
_space_group_symop_operation_xyz
x,y,z
-x,1/2+y,-z
-x,-y,-z
x,1/2-y,z
loop_
_atom_site_type_symbol
_atom_site_label
_atom_site_fract_x
_atom_site_fract_y
_atom_site_fract_z
Si Si1 0.424136 0.075956 0.320864
Si Si2 0.204062 0.926068 0.929074
Si Si3 0.458509 0.426589 0.928088
Si Si4 0.523272 0.928385 0.610370
Si Si5 0.094721 0.073980 0.654146
Si Si6 0.852048 0.571372 0.642658
Si Si7 0.783593 0.427510 0.600306
Si Si8 0.644364 0.073523 0.362643
O O1 0.466286 0.250000 0.268561
O O2 0.455926 0.011351 0.348207
O O3 0.245315 0.044317 0.516680
O O4 0.536089 0.995760 0.143046
O O5 0.200763 0.750000 0.943489
O O6 0.356801 0.988573 0.782922
O O7 0.209610 0.960179 0.852294
O O8 0.049158 0.993239 0.139899
O O9 0.460056 0.250000 0.918721
O O10 0.607069 0.477937 0.792381
O O11 0.302615 0.483307 0.142274
O O12 0.539869 0.750000 0.587563
O O13 0.659473 0.998656 0.409218
O O14 0.077352 0.250000 0.659089
O O15 0.103331 0.978861 0.584542
O O16 0.867509 0.750000 0.624952
O O17 0.841646 0.513747 0.589017
O O18 0.000000 0.500000 0.500000
O O19 0.797108 0.250000 0.594270
O O20 0.617403 0.250000 0.401142
O O21 0.500000 0.000000 0.500000
#
# Coordination Sequence:
#
# PCOD8074483 Si02
#       8
#     4   4   4   4   4   4   4   4
#     4   9  18  31  50  73  98 128 165 203 243 291
#     4   8  15  28  47  67  91 123 162 201 241 289
#     4   9  20  37  56  76 102 134 170 208 248 295
#     4   9  17  30  46  68  95 125 160 200 242 290
#     4   9  17  32  51  71  96 130 166 202 243 292
#     4  11  23  38  55  79 107 135 166 206 252 297
#     4  10  20  36  56  78 103 134 169 207 248 298
#     4   9  16  28  46  68  92 123 160 199 241 290
#
# _framework density 18.303411000000001
#
# number of rings (size 3 to 8) (size 9 to 14) (size 15 to 20)
#    0.000    2.750    0.000    2.250    0.000    3.000 
#    0.000    5.000    0.000    0.000    0.000    0.000 
#    0.000    0.000    0.000    0.000    0.000    0.000 
#
# Total GULP energy -396679.657212 kJ/mol
# GULP energy per Si atom -12396.239288 kJ/mol
# Density = 1.826175 g / cm^3
# Si number density = 18.303411 Si / 1000 Ang^3
#
#
#
# Elastic Constant Matrix: (Units=GPa)
#
#
# Indices 1 2 3 4 5 6 
#
# 1 108.2754 23.4834 45.3975 0.0000 17.2809 0.0000
# 2 23.4834 40.6824 26.6810 0.0000 4.7687 0.0000
# 3 45.3975 26.6810 124.9260 0.0000 17.4954 0.0000
# 4 0.0000 0.0000 0.0000 25.5820 0.0000 6.3747
# 5 17.2809 4.7687 17.4954 0.0000 23.0780 0.0000
# 6 0.0000 0.0000 0.0000 6.3747 0.0000 28.6585
#
#
#
# Elastic Compliance Matrix: (Units=1/GPa)
#
#
# Indices 1 2 3 4 5 6 
#
# 1 0.012350 -0.004681 -0.002605 0.000000 -0.006305 0.000000
# 2 -0.004681 0.030401 -0.004926 0.000000 0.000958 0.000000
# 3 -0.002605 -0.004926 0.010727 0.000000 -0.005163 0.000000
# 4 0.000000 0.000000 0.000000 0.041384 0.000000 -0.009205
# 5 -0.006305 0.000958 -0.005163 0.000000 0.051769 0.000000
# 6 0.000000 0.000000 0.000000 -0.009205 0.000000 0.036941
#
#
# Mechanical properties :
#
#
# Convention : Reuss Voigt Hill
#
# Bulk Modulus (GPa) = 34.41965 51.66753 43.04359
# Shear Modulus (GPa) = 22.96954 27.35182 25.16068
#
# Velocity S-wave (km/s) = 3.54635 3.86988 3.71164
# Velocity P-wave (km/s) = 5.96780 6.94677 6.47581
#
# Compressibility (1/GPa) = 0.02905317
#
# Stress axis : x y z
#
# Youngs Moduli (GPa) = 80.97490 32.89356 93.22677
#
# Poissons Ratio (x) = 0.15398 0.24285
# Poissons Ratio (y) = 0.37905 0.45923
# Poissons Ratio (z) = 0.21094 0.16203
#
# Static dielectric constant tensor:
#      x y z
#    x 3.497430 0.000000 0.238070 
#    y 0.000000 3.278800 0.000000 
#    z 0.238070 0.000000 3.707390 
# 
# 
# High freq. dielectric constant tensor:
#      x y z
#    x 1.706460 0.000000 0.021430 
#    y 0.000000 1.696440 0.000000 
#    z 0.021430 0.000000 1.708920 
# 
# From -- ./inp_files/66969.got.cif
#   From: 2010.06.25/outbox.cif.g09.slc.cpg/sg11_34_cif.got.tgz:66969.got - 2010.06.27 23:14:04.
