data_PCOD8074942
_publ_section_title
;
Structure prediction by ZEFSAII (Michael W. Deem and Ramdas Pophale) SiO2 
 PCOD8074942
Probable space group: P 21/M
;
_chemical_formula_sum "Si O2"
_cell_formula_units_Z 32
_cell_length_a 11.595045
_cell_length_b 8.849226
_cell_length_c 29.952717
_cell_angle_alpha 90.000000
_cell_angle_beta 146.083096
_cell_angle_gamma 90.000000
_cell_volume 1714.906063
_symmetry_space_group_name_H-M "P 21/M"
_symmetry_group_IT_number 11
_symmetry_cell_setting 'monoclinic'
loop_
_space_group_symop_operation_xyz
x,y,z
-x,1/2+y,-z
-x,-y,-z
x,1/2-y,z
loop_
_atom_site_type_symbol
_atom_site_label
_atom_site_fract_x
_atom_site_fract_y
_atom_site_fract_z
Si Si1 0.515725 0.929391 0.217744
Si Si2 0.826939 0.575013 0.497750
Si Si3 0.926245 0.928493 0.931041
Si Si4 0.713382 0.925650 0.557638
Si Si5 0.707343 0.927448 0.122543
Si Si6 0.744769 0.925578 0.377032
Si Si7 0.236082 0.573061 0.952641
Si Si8 0.854176 0.069280 0.260564
O O1 0.488540 0.750000 0.201241
O O2 0.572428 0.974089 0.286646
O O3 0.305618 0.017807 0.146709
O O4 0.682870 0.990532 0.236425
O O5 0.878374 0.750000 0.511948
O O6 0.711889 0.531325 0.505325
O O7 0.690445 0.525108 0.410589
O O8 0.043281 0.495594 0.569646
O O9 0.940018 0.750000 0.939116
O O10 0.066666 0.982922 0.934275
O O11 0.000000 0.000000 0.000000
O O12 0.698478 0.750000 0.562321
O O13 0.917688 0.985195 0.649485
O O14 0.500000 0.000000 0.500000
O O15 0.751620 0.750000 0.142001
O O16 0.800181 0.983087 0.105098
O O17 0.820922 0.016121 0.198989
O O18 0.462450 0.962691 0.045579
O O19 0.779910 0.750000 0.385080
O O20 0.214036 0.750000 0.935002
O O21 0.831570 0.250000 0.256835
#
# Coordination Sequence:
#
# PCOD8074942 Si02
#       8
#     4   4   4   4   4   4   4   4
#     4  11  22  36  56  85 118 150 193 242 289 344
#     4   9  17  34  56  79 108 141 182 228 280 338
#     4  11  23  39  60  86 120 158 193 235 287 339
#     4  10  22  38  57  80 112 149 189 236 285 341
#     4  10  20  36  62  90 113 149 193 238 288 336
#     4   9  18  32  55  82 108 141 181 231 281 332
#     4   9  20  39  59  83 118 153 191 234 280 339
#     4  11  22  38  59  84 114 150 194 239 287 344
#
# _framework density 18.659915999999999
#
# number of rings (size 3 to 8) (size 9 to 14) (size 15 to 20)
#    0.000    2.000    1.250    2.250    0.000    4.500 
#    2.250    0.000    0.000    0.000    0.000    0.000 
#    0.000    0.000    0.000    0.000    0.000    0.000 
#
# Total GULP energy -396572.190093 kJ/mol
# GULP energy per Si atom -12392.880940 kJ/mol
# Density = 1.861744 g / cm^3
# Si number density = 18.659916 Si / 1000 Ang^3
#
#
#
# Elastic Constant Matrix: (Units=GPa)
#
#
# Indices 1 2 3 4 5 6 
#
# 1 153.0754 40.7693 84.4522 0.0000 -10.8802 0.0000
# 2 40.7693 45.4654 30.0126 0.0000 -0.5180 0.0000
# 3 84.4522 30.0126 142.5421 0.0000 -22.7451 0.0000
# 4 0.0000 0.0000 0.0000 30.8420 0.0000 -0.2745
# 5 -10.8802 -0.5180 -22.7451 0.0000 49.7360 0.0000
# 6 0.0000 0.0000 0.0000 -0.2745 0.0000 30.9659
#
#
#
# Elastic Compliance Matrix: (Units=1/GPa)
#
#
# Indices 1 2 3 4 5 6 
#
# 1 0.011168 -0.006556 -0.005240 0.000000 -0.000021 0.000000
# 2 -0.006556 0.029654 -0.002739 0.000000 -0.002378 0.000000
# 3 -0.005240 -0.002739 0.011336 0.000000 0.004010 0.000000
# 4 0.000000 0.000000 0.000000 0.032426 0.000000 0.000287
# 5 -0.000021 -0.002378 0.004010 0.000000 0.021910 0.000000
# 6 0.000000 0.000000 0.000000 0.000287 0.000000 0.032296
#
#
# Mechanical properties :
#
#
# Convention : Reuss Voigt Hill
#
# Bulk Modulus (GPa) = 43.30990 72.39456 57.85223
# Shear Modulus (GPa) = 28.48070 34.69871 31.58970
#
# Velocity S-wave (km/s) = 3.91103 4.31691 4.11897
# Velocity P-wave (km/s) = 6.60722 7.98302 7.32748
#
# Compressibility (1/GPa) = 0.02308941
#
# Stress axis : x y z
#
# Youngs Moduli (GPa) = 89.54071 33.72170 88.21101
#
# Poissons Ratio (x) = 0.22108 0.46221
# Poissons Ratio (y) = 0.58702 0.24162
# Poissons Ratio (z) = 0.46918 0.09237
#
# Static dielectric constant tensor:
#      x y z
#    x 3.602460 0.000000 -0.263750 
#    y 0.000000 3.486150 0.000000 
#    z -0.263750 0.000000 3.613280 
# 
# 
# High freq. dielectric constant tensor:
#      x y z
#    x 1.729920 0.000000 -0.017410 
#    y 0.000000 1.727600 0.000000 
#    z -0.017410 0.000000 1.729880 
# 
# From -- ./inp_files/73188.got.cif
#   From: 2010.06.25/outbox.cif.g09.slc.cpg/sg11_37_cif.got.tgz:73188.got - 2010.06.27 23:14:04.
