data_PCOD8074853
_publ_section_title
;
Structure prediction by ZEFSAII (Michael W. Deem and Ramdas Pophale) SiO2 
 PCOD8074853
Probable space group: P 21/M
;
_chemical_formula_sum "Si O2"
_cell_formula_units_Z 32
_cell_length_a 14.469381
_cell_length_b 8.901676
_cell_length_c 12.149164
_cell_angle_alpha 90.000000
_cell_angle_beta 89.081479
_cell_angle_gamma 90.000000
_cell_volume 1564.632405
_symmetry_space_group_name_H-M "P 21/M"
_symmetry_group_IT_number 11
_symmetry_cell_setting 'monoclinic'
loop_
_space_group_symop_operation_xyz
x,y,z
-x,1/2+y,-z
-x,-y,-z
x,1/2-y,z
loop_
_atom_site_type_symbol
_atom_site_label
_atom_site_fract_x
_atom_site_fract_y
_atom_site_fract_z
Si Si1 0.096211 0.077001 0.483556
Si Si2 0.598371 0.076379 0.496539
Si Si3 0.235526 0.927561 0.118349
Si Si4 0.581815 0.079697 0.254528
Si Si5 0.882278 0.925724 0.280084
Si Si6 0.920707 0.573368 0.753898
Si Si7 0.633853 0.574953 0.706966
Si Si8 0.274855 0.074398 0.887716
O O1 0.072856 0.250000 0.479760
O O2 0.154792 0.038786 0.593352
O O3 0.133979 0.033267 0.360887
O O4 0.000000 0.000000 0.500000
O O5 0.588811 0.250000 0.529965
O O6 0.634891 0.059084 0.370827
O O7 0.500000 0.000000 0.500000
O O8 0.662101 0.992929 0.586310
O O9 0.237376 0.750000 0.126335
O O10 0.133304 0.987433 0.148957
O O11 0.310267 0.995564 0.198790
O O12 0.260180 0.977996 0.996014
O O13 0.594923 0.250000 0.212423
O O14 0.473679 0.043262 0.267951
O O15 0.625676 0.966399 0.165600
O O16 0.905885 0.750000 0.267669
O O17 0.803050 0.974495 0.197858
O O18 0.973727 0.019482 0.250139
O O19 0.918678 0.750000 0.779199
O O20 0.658687 0.750000 0.704736
O O21 0.272225 0.250000 0.916133
#
# Coordination Sequence:
#
# PCOD8074853 Si02
#       8
#     4   4   4   4   4   4   4   4
#     4   8  15  30  54  84 115 144 177 221 274 334
#     4   9  17  32  56  88 122 154 190 231 281 341
#     4  12  26  42  59  80 111 151 195 243 291 345
#     4   9  20  38  60  87 119 152 186 231 285 339
#     4   9  19  37  59  85 116 149 186 228 279 336
#     4  10  20  36  60  88 117 149 185 229 283 341
#     4  10  21  39  62  87 117 151 190 239 290 343
#     4  11  24  40  59  83 112 150 198 245 285 336
#
# _framework density 20.452089999999998
#
# number of rings (size 3 to 8) (size 9 to 14) (size 15 to 20)
#    0.000    2.250    0.000    3.375    0.000    6.500 
#    0.000    1.250    0.000    0.000    0.000    0.000 
#    0.000    0.000    0.000    0.000    0.000    0.000 
#
# Total GULP energy -396577.996269 kJ/mol
# GULP energy per Si atom -12393.062383 kJ/mol
# Density = 2.040554 g / cm^3
# Si number density = 20.452090 Si / 1000 Ang^3
#
#
#
# Elastic Constant Matrix: (Units=GPa)
#
#
# Indices 1 2 3 4 5 6 
#
# 1 33.7204 20.3599 8.2416 0.0000 -0.8481 0.0000
# 2 20.3599 102.0279 34.9380 0.0000 -3.6384 0.0000
# 3 8.2416 34.9380 86.4077 0.0000 -2.7087 0.0000
# 4 0.0000 0.0000 0.0000 36.9724 0.0000 -0.1424
# 5 -0.8481 -3.6384 -2.7087 0.0000 32.4022 0.0000
# 6 0.0000 0.0000 0.0000 -0.1424 0.0000 28.4232
#
#
#
# Elastic Compliance Matrix: (Units=1/GPa)
#
#
# Indices 1 2 3 4 5 6 
#
# 1 0.033743 -0.006534 -0.000573 0.000000 0.000102 0.000000
# 2 -0.006534 0.012667 -0.004471 0.000000 0.000878 0.000000
# 3 -0.000573 -0.004471 0.013455 0.000000 0.000608 0.000000
# 4 0.000000 0.000000 0.000000 0.027048 0.000000 0.000136
# 5 0.000102 0.000878 0.000608 0.000000 0.031014 0.000000
# 6 0.000000 0.000000 0.000000 0.000136 0.000000 0.035183
#
#
# Mechanical properties :
#
#
# Convention : Reuss Voigt Hill
#
# Bulk Modulus (GPa) = 27.24144 38.80389 33.02267
# Shear Modulus (GPa) = 26.52474 30.13398 28.32936
#
# Velocity S-wave (km/s) = 3.60519 3.84265 3.72581
# Velocity P-wave (km/s) = 5.53881 6.22111 5.88984
#
# Compressibility (1/GPa) = 0.03670877
#
# Stress axis : x y z
#
# Youngs Moduli (GPa) = 29.63560 78.94254 74.32347
#
# Poissons Ratio (x) = 0.51577 0.04262
# Poissons Ratio (y) = 0.19363 0.33232
# Poissons Ratio (z) = 0.01700 0.35297
#
# Static dielectric constant tensor:
#      x y z
#    x 3.419430 0.000000 0.079700 
#    y 0.000000 3.673940 0.000000 
#    z 0.079700 0.000000 4.223420 
# 
# 
# High freq. dielectric constant tensor:
#      x y z
#    x 1.781780 0.000000 0.001920 
#    y 0.000000 1.805040 0.000000 
#    z 0.001920 0.000000 1.811270 
# 
# From -- ./inp_files/38180.got.cif
#   From: 2010.06.25/outbox.cif.g09.slc.cpg/sg11_20_cif.got.tgz:38180.got - 2010.06.27 23:14:04.
