data_PCOD8074562
_publ_section_title
;
Structure prediction by ZEFSAII (Michael W. Deem and Ramdas Pophale) SiO2 
 PCOD8074562
Probable space group: P 21/M
;
_chemical_formula_sum "Si O2"
_cell_formula_units_Z 24
_cell_length_a 18.970734
_cell_length_b 9.244727
_cell_length_c 14.763851
_cell_angle_alpha 90.000000
_cell_angle_beta 30.530709
_cell_angle_gamma 90.000000
_cell_volume 1315.351053
_symmetry_space_group_name_H-M "P 21/M"
_symmetry_group_IT_number 11
_symmetry_cell_setting 'monoclinic'
loop_
_space_group_symop_operation_xyz
x,y,z
-x,1/2+y,-z
-x,-y,-z
x,1/2-y,z
loop_
_atom_site_type_symbol
_atom_site_label
_atom_site_fract_x
_atom_site_fract_y
_atom_site_fract_z
Si Si1 0.726931 0.578553 0.009985
Si Si2 0.615225 0.583339 0.816384
Si Si3 0.136109 0.084757 0.324241
Si Si4 0.413326 0.920054 0.334404
Si Si5 0.183924 0.582268 0.733980
Si Si6 0.123168 0.419772 0.977024
O O1 0.734090 0.750000 0.999801
O O2 0.567085 0.529085 0.192587
O O3 0.810992 0.517886 0.003290
O O4 0.795134 0.516897 0.842516
O O5 0.569705 0.750000 0.855574
O O6 0.759690 0.570897 0.707993
O O7 0.637551 0.509510 0.695238
O O8 0.500000 0.500000 0.000000
O O9 0.094650 0.250000 0.351975
O O10 0.000000 0.000000 0.500000
O O11 0.408486 0.750000 0.315882
O O12 0.311098 0.959715 0.529137
O O13 0.185857 0.750000 0.757694
O O14 0.201495 0.493340 0.806593
O O15 0.040043 0.541763 0.842998
O O16 0.149426 0.250000 0.939847
#
# Coordination Sequence:
#
# PCOD8074562 Si02
#       6
#     4   4   4   4   4   4
#     4   9  18  35  55  77 107 142 178 220 270 322
#     4  11  22  38  58  82 113 148 184 225 273 325
#     4  10  22  38  56  81 112 145 184 225 272 325
#     4  10  20  36  57  80 109 144 182 224 271 325
#     4   9  19  34  54  79 104 138 179 220 272 325
#     4   9  18  34  55  76 104 141 178 220 269 323
#
# _framework density 18.246079000000002
#
# number of rings (size 3 to 8) (size 9 to 14) (size 15 to 20)
#    0.000    2.333    1.667    0.500    2.333    2.667 
#    0.000    1.667    0.000    0.000    0.000    0.000 
#    0.000    0.000    0.000    0.000    0.000    0.000 
#
# Total GULP energy -297645.505992 kJ/mol
# GULP energy per Si atom -12401.896083 kJ/mol
# Density = 1.820455 g / cm^3
# Si number density = 18.246079 Si / 1000 Ang^3
#
#
#
# Elastic Constant Matrix: (Units=GPa)
#
#
# Indices 1 2 3 4 5 6 
#
# 1 146.3831 40.8716 70.5176 0.0000 9.6822 0.0000
# 2 40.8716 54.3508 48.4493 0.0000 2.3911 0.0000
# 3 70.5176 48.4493 163.3114 0.0000 8.8802 0.0000
# 4 0.0000 0.0000 0.0000 30.8632 0.0000 4.5707
# 5 9.6822 2.3911 8.8802 0.0000 22.4420 0.0000
# 6 0.0000 0.0000 0.0000 4.5707 0.0000 30.4108
#
#
#
# Elastic Compliance Matrix: (Units=1/GPa)
#
#
# Indices 1 2 3 4 5 6 
#
# 1 0.009583 -0.004798 -0.002573 0.000000 -0.002605 0.000000
# 2 -0.004798 0.027418 -0.006148 0.000000 0.001582 0.000000
# 3 -0.002573 -0.006148 0.009159 0.000000 -0.001859 0.000000
# 4 0.000000 0.000000 0.000000 0.033139 0.000000 -0.004981
# 5 -0.002605 0.001582 -0.001859 0.000000 0.046250 0.000000
# 6 0.000000 0.000000 0.000000 -0.004981 0.000000 0.033632
#
#
# Mechanical properties :
#
#
# Convention : Reuss Voigt Hill
#
# Bulk Modulus (GPa) = 52.29596 75.96915 64.13256
# Shear Modulus (GPa) = 25.96142 30.35699 28.15921
#
# Velocity S-wave (km/s) = 3.77616 4.08334 3.93275
# Velocity P-wave (km/s) = 6.90914 7.99736 7.47309
#
# Compressibility (1/GPa) = 0.01912194
#
# Stress axis : x y z
#
# Youngs Moduli (GPa) = 104.35401 36.47192 109.17929
#
# Poissons Ratio (x) = 0.17500 0.28088
# Poissons Ratio (y) = 0.50072 0.67126
# Poissons Ratio (z) = 0.26847 0.22424
#
# Static dielectric constant tensor:
#      x y z
#    x 2.808890 0.000000 -0.034920 
#    y 0.000000 3.239380 0.000000 
#    z -0.034920 0.000000 3.399630 
# 
# 
# High freq. dielectric constant tensor:
#      x y z
#    x 1.715530 0.000000 0.001100 
#    y 0.000000 1.687010 0.000000 
#    z 0.001100 0.000000 1.714420 
# 
# From -- ./inp_files/20409.got.cif
#   From: 2010.06.25/outbox.cif.g09.slc.cpg/sg11_11_cif.got.tgz:20409.got - 2010.06.27 23:14:04.
