data_PCOD8074207
_publ_section_title
;
Structure prediction by ZEFSAII (Michael W. Deem and Ramdas Pophale) SiO2 
 PCOD8074207
Probable space group: P 21/M
;
_chemical_formula_sum "Si O2"
_cell_formula_units_Z 28
_cell_length_a 18.991741
_cell_length_b 9.004450
_cell_length_c 11.195645
_cell_angle_alpha 90.000000
_cell_angle_beta 52.132637
_cell_angle_gamma 90.000000
_cell_volume 1511.425841
_symmetry_space_group_name_H-M "P 21/M"
_symmetry_group_IT_number 11
_symmetry_cell_setting 'monoclinic'
loop_
_space_group_symop_operation_xyz
x,y,z
-x,1/2+y,-z
-x,-y,-z
x,1/2-y,z
loop_
_atom_site_type_symbol
_atom_site_label
_atom_site_fract_x
_atom_site_fract_y
_atom_site_fract_z
Si Si1 0.890772 0.075582 0.718761
Si Si2 0.293949 0.919926 0.972948
Si Si3 0.689299 0.925183 0.291306
Si Si4 0.596926 0.417989 0.584653
Si Si5 0.792788 0.082301 0.367185
Si Si6 0.934928 0.074154 0.407670
Si Si7 0.522087 0.079462 0.099493
O O1 0.905591 0.250000 0.713830
O O2 0.896154 0.022563 0.575790
O O3 0.967959 0.995995 0.715206
O O4 0.795852 0.026092 0.869045
O O5 0.285909 0.750000 0.936192
O O6 0.372756 0.935694 0.986729
O O7 0.313016 0.026806 0.842827
O O8 0.682234 0.750000 0.308364
O O9 0.604418 0.999916 0.447703
O O10 0.781303 0.982036 0.259437
O O11 0.561351 0.250000 0.603630
O O12 0.697227 0.416474 0.536842
O O13 0.530396 0.505688 0.737629
O O14 0.817819 0.250000 0.301936
O O15 0.868233 0.014301 0.374739
O O16 0.942303 0.250000 0.393216
O O17 0.492583 0.250000 0.120542
O O18 0.500000 0.000000 0.000000
#
# Coordination Sequence:
#
# PCOD8074207 Si02
#       7
#     4   4   4   4   4   4   4
#     4   9  19  34  54  80 110 144 181 221 270 329
#     4  10  22  39  57  77 111 152 184 221 275 333
#     4  10  20  35  57  84 111 141 186 234 275 320
#     4   9  19  37  59  80 110 146 182 225 271 328
#     4   8  17  33  57  81 108 144 180 220 271 329
#     4   9  17  33  57  83 109 141 181 223 272 329
#     4  11  24  39  58  85 113 146 186 227 274 327
#
# _framework density 18.525552000000001
#
# number of rings (size 3 to 8) (size 9 to 14) (size 15 to 20)
#    0.857    1.714    0.000    1.714    2.000    2.857 
#    0.000    0.714    0.000    0.000    0.000    0.000 
#    0.000    0.000    0.000    0.000    0.000    0.000 
#
# Total GULP energy -347070.547964 kJ/mol
# GULP energy per Si atom -12395.376713 kJ/mol
# Density = 1.848339 g / cm^3
# Si number density = 18.525552 Si / 1000 Ang^3
#
#
#
# Elastic Constant Matrix: (Units=GPa)
#
#
# Indices 1 2 3 4 5 6 
#
# 1 80.0973 36.0534 37.4700 0.0000 -2.6458 0.0000
# 2 36.0534 105.5223 49.0850 0.0000 3.3437 0.0000
# 3 37.4700 49.0850 107.8875 0.0000 -2.7860 0.0000
# 4 0.0000 0.0000 0.0000 29.0237 0.0000 1.2146
# 5 -2.6458 3.3437 -2.7860 0.0000 24.8975 0.0000
# 6 0.0000 0.0000 0.0000 1.2146 0.0000 28.3961
#
#
#
# Elastic Compliance Matrix: (Units=1/GPa)
#
#
# Indices 1 2 3 4 5 6 
#
# 1 0.016016 -0.003758 -0.003807 0.000000 0.001781 0.000000
# 2 -0.003758 0.013027 -0.004691 0.000000 -0.002674 0.000000
# 3 -0.003807 -0.004691 0.012768 0.000000 0.001654 0.000000
# 4 0.000000 0.000000 0.000000 0.034516 0.000000 -0.001476
# 5 0.001781 -0.002674 0.001654 0.000000 0.040898 0.000000
# 6 0.000000 0.000000 0.000000 -0.001476 0.000000 0.035279
#
#
# Mechanical properties :
#
#
# Convention : Reuss Voigt Hill
#
# Bulk Modulus (GPa) = 57.80260 59.85820 58.83040
# Shear Modulus (GPa) = 27.35490 27.85671 27.60580
#
# Velocity S-wave (km/s) = 3.84683 3.88195 3.86443
# Velocity P-wave (km/s) = 7.14143 7.24390 7.19285
#
# Compressibility (1/GPa) = 0.01730026
#
# Stress axis : x y z
#
# Youngs Moduli (GPa) = 62.43795 76.76176 78.32104
#
# Poissons Ratio (x) = 0.28845 0.29815
# Poissons Ratio (y) = 0.23462 0.36740
# Poissons Ratio (z) = 0.23769 0.36008
#
# Static dielectric constant tensor:
#      x y z
#    x 3.426930 0.000000 -0.057180 
#    y 0.000000 3.379980 0.000000 
#    z -0.057180 0.000000 3.307810 
# 
# 
# High freq. dielectric constant tensor:
#      x y z
#    x 1.716930 0.000000 -0.002960 
#    y 0.000000 1.718410 0.000000 
#    z -0.002960 0.000000 1.701700 
# 
# From -- ./inp_files/42712.got.cif
#   From: 2010.06.25/outbox.cif.g09.slc.cpg/sg11_22_cif.got.tgz:42712.got - 2010.06.27 23:14:04.
