data_PCOD8074586
_publ_section_title
;
Structure prediction by ZEFSAII (Michael W. Deem and Ramdas Pophale) SiO2 
 PCOD8074586
Probable space group: P 21/M
;
_chemical_formula_sum "Si O2"
_cell_formula_units_Z 32
_cell_length_a 12.277242
_cell_length_b 8.817050
_cell_length_c 15.132241
_cell_angle_alpha 90.000000
_cell_angle_beta 92.068106
_cell_angle_gamma 90.000000
_cell_volume 1636.983846
_symmetry_space_group_name_H-M "P 21/M"
_symmetry_group_IT_number 11
_symmetry_cell_setting 'monoclinic'
loop_
_space_group_symop_operation_xyz
x,y,z
-x,1/2+y,-z
-x,-y,-z
x,1/2-y,z
loop_
_atom_site_type_symbol
_atom_site_label
_atom_site_fract_x
_atom_site_fract_y
_atom_site_fract_z
Si Si1 0.479178 0.423307 0.876764
Si Si2 0.730057 0.570419 0.441693
Si Si3 0.051281 0.928120 0.588464
Si Si4 0.696645 0.927976 0.637082
Si Si5 0.674522 0.572185 0.970438
Si Si6 0.093448 0.570085 0.063438
Si Si7 0.903040 0.571197 0.748574
Si Si8 0.525046 0.576817 0.322642
O O1 0.512148 0.250000 0.898040
O O2 0.587814 0.523746 0.892824
O O3 0.435141 0.444424 0.776598
O O4 0.379808 0.472716 0.937333
O O5 0.748843 0.750000 0.437443
O O6 0.826994 0.487262 0.393642
O O7 0.725158 0.505992 0.541279
O O8 0.619747 0.521407 0.389887
O O9 0.047408 0.750000 0.574872
O O10 0.986960 0.975204 0.674569
O O11 0.000000 0.000000 0.500000
O O12 0.702444 0.750000 0.627302
O O13 0.783682 0.982315 0.712257
O O14 0.578189 0.973808 0.663929
O O15 0.698487 0.750000 0.961854
O O16 0.787958 0.485311 0.964314
O O17 0.088698 0.750000 0.055936
O O18 0.068625 0.520451 0.162770
O O19 0.000000 0.500000 0.000000
O O20 0.906320 0.750000 0.769387
O O21 0.492635 0.750000 0.341203
#
# Coordination Sequence:
#
# PCOD8074586 Si02
#       8
#     4   4   4   4   4   4   4   4
#     4   9  19  36  58  87 117 151 196 244 296 355
#     4  10  21  38  56  81 118 158 196 244 300 348
#     4  11  22  39  63  89 119 154 199 249 297 353
#     4  10  20  36  57  81 117 156 194 241 294 350
#     4  10  20  37  61  86 117 155 196 244 299 356
#     4  12  26  43  63  89 121 157 199 249 304 365
#     4  10  22  41  63  89 120 156 197 248 302 355
#     4  10  21  35  54  82 117 151 193 244 292 349
#
# _framework density 19.548145999999999
#
# number of rings (size 3 to 8) (size 9 to 14) (size 15 to 20)
#    0.000    1.750    1.250    3.000    0.000    6.500 
#    0.000    1.250    0.000    0.000    0.000    0.000 
#    0.000    0.000    0.000    0.000    0.000    0.000 
#
# Total GULP energy -396888.636235 kJ/mol
# GULP energy per Si atom -12402.769882 kJ/mol
# Density = 1.950365 g / cm^3
# Si number density = 19.548146 Si / 1000 Ang^3
#
#
#
# Elastic Constant Matrix: (Units=GPa)
#
#
# Indices 1 2 3 4 5 6 
#
# 1 120.3632 44.0473 75.6814 0.0000 -3.6465 0.0000
# 2 44.0473 71.3858 54.1175 0.0000 2.5277 0.0000
# 3 75.6814 54.1175 132.8977 0.0000 9.0196 0.0000
# 4 0.0000 0.0000 0.0000 28.2011 0.0000 -1.9396
# 5 -3.6465 2.5277 9.0196 0.0000 32.2100 0.0000
# 6 0.0000 0.0000 0.0000 -1.9396 0.0000 36.4933
#
#
#
# Elastic Compliance Matrix: (Units=1/GPa)
#
#
# Indices 1 2 3 4 5 6 
#
# 1 0.013997 -0.003665 -0.006734 0.000000 0.003758 0.000000
# 2 -0.003665 0.021241 -0.006545 0.000000 -0.000249 0.000000
# 3 -0.006734 -0.006545 0.014313 0.000000 -0.004257 0.000000
# 4 0.000000 0.000000 0.000000 0.035590 0.000000 0.001892
# 5 0.003758 -0.000249 -0.004257 0.000000 0.032683 0.000000
# 6 0.000000 0.000000 0.000000 0.001892 0.000000 0.027503
#
#
# Mechanical properties :
#
#
# Convention : Reuss Voigt Hill
#
# Bulk Modulus (GPa) = 63.84380 74.70434 69.27407
# Shear Modulus (GPa) = 27.10962 29.43423 28.27192
#
# Velocity S-wave (km/s) = 3.72803 3.88458 3.80711
# Velocity P-wave (km/s) = 7.15972 7.64320 7.40541
#
# Compressibility (1/GPa) = 0.01566323
#
# Stress axis : x y z
#
# Youngs Moduli (GPa) = 71.44302 47.07932 69.86444
#
# Poissons Ratio (x) = 0.17255 0.47044
# Poissons Ratio (y) = 0.26184 0.45729
# Poissons Ratio (z) = 0.48107 0.30815
#
# Static dielectric constant tensor:
#      x y z
#    x 3.670870 0.000000 -0.015440 
#    y 0.000000 3.336780 0.000000 
#    z -0.015440 0.000000 3.762000 
# 
# 
# High freq. dielectric constant tensor:
#      x y z
#    x 1.767200 0.000000 -0.004170 
#    y 0.000000 1.755770 0.000000 
#    z -0.004170 0.000000 1.771980 
# 
# From -- ./inp_files/49306.got.cif
#   From: 2010.06.25/outbox.cif.g09.slc.cpg/sg11_25_cif.got.tgz:49306.got - 2010.06.27 23:14:04.
