data_PCOD8074369
_publ_section_title
;
Structure prediction by ZEFSAII (Michael W. Deem and Ramdas Pophale) SiO2 
 PCOD8074369
Probable space group: P 21/M
;
_chemical_formula_sum "Si O2"
_cell_formula_units_Z 28
_cell_length_a 18.792165
_cell_length_b 8.493335
_cell_length_c 14.922717
_cell_angle_alpha 90.000000
_cell_angle_beta 37.666303
_cell_angle_gamma 90.000000
_cell_volume 1455.418748
_symmetry_space_group_name_H-M "P 21/M"
_symmetry_group_IT_number 11
_symmetry_cell_setting 'monoclinic'
loop_
_space_group_symop_operation_xyz
x,y,z
-x,1/2+y,-z
-x,-y,-z
x,1/2-y,z
loop_
_atom_site_type_symbol
_atom_site_label
_atom_site_fract_x
_atom_site_fract_y
_atom_site_fract_z
Si Si1 0.706437 0.568011 0.021004
Si Si2 0.145137 0.930703 0.691440
Si Si3 0.557906 0.430816 0.323870
Si Si4 0.895412 0.433800 0.930064
Si Si5 0.510903 0.930933 0.086886
Si Si6 0.750672 0.568270 0.237209
Si Si7 0.358355 0.065333 0.396130
O O1 0.700140 0.750000 0.058410
O O2 0.639245 0.456756 0.157008
O O3 0.645500 0.548435 0.984802
O O4 0.839206 0.501865 0.892711
O O5 0.107983 0.750000 0.720741
O O6 0.205708 0.961254 0.725767
O O7 0.235871 0.974585 0.522381
O O8 0.032358 0.038398 0.792402
O O9 0.562238 0.250000 0.348471
O O10 0.613288 0.532080 0.350915
O O11 0.429267 0.479788 0.417191
O O12 0.870639 0.250000 0.966986
O O13 0.834383 0.531031 0.070513
O O14 0.474054 0.750000 0.122645
O O15 0.424238 0.018619 0.240320
O O16 0.500000 0.000000 0.000000
O O17 0.760992 0.750000 0.254525
O O18 0.335200 0.250000 0.417150
#
# Coordination Sequence:
#
# PCOD8074369 Si02
#       7
#     4   4   4   4   4   4   4
#     4   9  17  31  52  79 107 136 172 212 256 304
#     4  12  24  37  52  72 103 142 182 222 265 312
#     4   9  17  31  51  74 102 136 173 216 264 311
#     4  11  21  35  54  76 104 139 181 223 263 307
#     4  10  20  35  59  88 114 139 169 209 256 310
#     4  11  21  34  52  75 103 137 182 228 266 305
#     4  10  21  37  55  78 108 139 174 215 264 320
#
# _framework density 19.23845
#
# number of rings (size 3 to 8) (size 9 to 14) (size 15 to 20)
#    0.000    1.714    0.000    7.714    0.000    4.000 
#    0.000    0.000    0.000    0.857    0.000    0.000 
#    0.000    0.000    0.000    0.000    0.000    0.000 
#
# Total GULP energy -347105.313426 kJ/mol
# GULP energy per Si atom -12396.618337 kJ/mol
# Density = 1.919466 g / cm^3
# Si number density = 19.238450 Si / 1000 Ang^3
#
#
#
# Elastic Constant Matrix: (Units=GPa)
#
#
# Indices 1 2 3 4 5 6 
#
# 1 62.4597 17.6042 -0.5440 0.0000 -0.7886 0.0000
# 2 17.6042 81.4911 14.9897 0.0000 -1.2523 0.0000
# 3 -0.5440 14.9897 36.0827 0.0000 -14.5170 0.0000
# 4 0.0000 0.0000 0.0000 28.7103 0.0000 -3.0980
# 5 -0.7886 -1.2523 -14.5170 0.0000 25.7983 0.0000
# 6 0.0000 0.0000 0.0000 -3.0980 0.0000 31.5906
#
#
#
# Elastic Compliance Matrix: (Units=1/GPa)
#
#
# Indices 1 2 3 4 5 6 
#
# 1 0.017243 -0.004204 0.002762 0.000000 0.001877 0.000000
# 2 -0.004204 0.014517 -0.007578 0.000000 -0.003688 0.000000
# 3 0.002762 -0.007578 0.039800 0.000000 0.022112 0.000000
# 4 0.000000 0.000000 0.000000 0.035203 0.000000 0.003452
# 5 0.001877 -0.003688 0.022112 0.000000 0.051083 0.000000
# 6 0.000000 0.000000 0.000000 0.003452 0.000000 0.031994
#
#
# Mechanical properties :
#
#
# Convention : Reuss Voigt Hill
#
# Bulk Modulus (GPa) = 18.68485 27.12595 22.90540
# Shear Modulus (GPa) = 22.15134 27.08541 24.61837
#
# Velocity S-wave (km/s) = 3.39692 3.75624 3.58109
# Velocity P-wave (km/s) = 5.01186 5.73959 5.38803
#
# Compressibility (1/GPa) = 0.05351929
#
# Stress axis : x y z
#
# Youngs Moduli (GPa) = 57.99461 68.88638 25.12560
#
# Poissons Ratio (x) = 0.28960 -0.06939
# Poissons Ratio (y) = 0.24381 0.19039
# Poissons Ratio (z) = -0.16016 0.52200
#
# Static dielectric constant tensor:
#      x y z
#    x 3.706170 0.000000 -0.414020 
#    y 0.000000 3.532260 0.000000 
#    z -0.414020 0.000000 3.441910 
# 
# 
# High freq. dielectric constant tensor:
#      x y z
#    x 1.737120 0.000000 -0.026200 
#    y 0.000000 1.765010 0.000000 
#    z -0.026200 0.000000 1.726530 
# 
# From -- ./inp_files/61252.got.cif
#   From: 2010.06.25/outbox.cif.g09.slc.cpg/sg11_31_cif.got.tgz:61252.got - 2010.06.27 23:14:04.
