data_PCOD8074504
_publ_section_title
;
Structure prediction by ZEFSAII (Michael W. Deem and Ramdas Pophale) SiO2 
 PCOD8074504
Probable space group: P 21/M
;
_chemical_formula_sum "Si O2"
_cell_formula_units_Z 28
_cell_length_a 26.791495
_cell_length_b 8.710726
_cell_length_c 9.602143
_cell_angle_alpha 90.000000
_cell_angle_beta 140.535762
_cell_angle_gamma 90.000000
_cell_volume 1424.298285
_symmetry_space_group_name_H-M "P 21/M"
_symmetry_group_IT_number 11
_symmetry_cell_setting 'monoclinic'
loop_
_space_group_symop_operation_xyz
x,y,z
-x,1/2+y,-z
-x,-y,-z
x,1/2-y,z
loop_
_atom_site_type_symbol
_atom_site_label
_atom_site_fract_x
_atom_site_fract_y
_atom_site_fract_z
Si Si1 0.585724 0.433354 0.701874
Si Si2 0.987057 0.931125 0.621933
Si Si3 0.827337 0.424686 0.271443
Si Si4 0.314933 0.922149 0.828373
Si Si5 0.721562 0.932973 0.815514
Si Si6 0.933469 0.568378 0.955114
Si Si7 0.757568 0.930440 0.582722
O O1 0.500000 0.500000 0.500000
O O2 0.587663 0.250000 0.693880
O O3 0.639440 0.502405 0.695854
O O4 0.617074 0.485364 0.922276
O O5 0.997821 0.750000 0.648453
O O6 0.900085 0.976633 0.485095
O O7 0.000000 0.000000 0.500000
O O8 0.051748 0.010005 0.857639
O O9 0.852805 0.250000 0.292438
O O10 0.765638 0.429178 0.261747
O O11 0.793872 0.499823 0.059009
O O12 0.335032 0.750000 0.825488
O O13 0.306830 0.019330 0.669993
O O14 0.722117 0.750000 0.829052
O O15 0.731752 0.991667 0.678932
O O16 0.940058 0.750000 0.961474
O O17 0.845063 0.511707 0.727941
O O18 0.000000 0.500000 0.000000
O O19 0.758427 0.750000 0.591512
#
# Coordination Sequence:
#
# PCOD8074504 Si02
#       7
#     4   4   4   4   4   4   4
#     4  10  21  39  62  90 117 146 183 226 275 334
#     4  12  24  37  54  78 107 145 191 243 298 348
#     4  10  20  36  56  80 108 143 189 238 284 340
#     4   9  20  36  57  83 111 141 179 224 272 327
#     4  10  20  36  58  85 115 150 188 232 281 334
#     4  11  23  39  56  80 114 153 197 245 292 345
#     4  10  22  37  55  80 112 148 190 232 277 334
#
# _framework density 19.658805000000001
#
# number of rings (size 3 to 8) (size 9 to 14) (size 15 to 20)
#    0.000    1.714    0.000    5.571    0.000    9.143 
#    0.000    0.714    0.000    0.000    0.000    0.000 
#    0.000    0.000    0.000    0.000    0.000    0.000 
#
# Total GULP energy -347205.507184 kJ/mol
# GULP energy per Si atom -12400.196685 kJ/mol
# Density = 1.961406 g / cm^3
# Si number density = 19.658805 Si / 1000 Ang^3
#
#
#
# Elastic Constant Matrix: (Units=GPa)
#
#
# Indices 1 2 3 4 5 6 
#
# 1 72.3169 31.3376 45.7964 0.0000 -10.6313 0.0000
# 2 31.3376 69.0913 32.6567 0.0000 -2.4012 0.0000
# 3 45.7964 32.6567 123.9143 0.0000 -6.1423 0.0000
# 4 0.0000 0.0000 0.0000 36.1400 0.0000 -2.4691
# 5 -10.6313 -2.4012 -6.1423 0.0000 36.9330 0.0000
# 6 0.0000 0.0000 0.0000 -2.4691 0.0000 32.6206
#
#
#
# Elastic Compliance Matrix: (Units=1/GPa)
#
#
# Indices 1 2 3 4 5 6 
#
# 1 0.021072 -0.006652 -0.005803 0.000000 0.004668 0.000000
# 2 -0.006652 0.018638 -0.002509 0.000000 -0.001120 0.000000
# 3 -0.005803 -0.002509 0.010875 0.000000 -0.000025 0.000000
# 4 0.000000 0.000000 0.000000 0.027814 0.000000 0.002105
# 5 0.004668 -0.001120 -0.000025 0.000000 0.028343 0.000000
# 6 0.000000 0.000000 0.000000 0.002105 0.000000 0.030815
#
#
# Mechanical properties :
#
#
# Convention : Reuss Voigt Hill
#
# Bulk Modulus (GPa) = 48.41268 53.87821 51.14545
# Shear Modulus (GPa) = 28.67459 31.50749 30.09104
#
# Velocity S-wave (km/s) = 3.82332 4.00774 3.91662
# Velocity P-wave (km/s) = 6.64608 6.99157 6.82101
#
# Compressibility (1/GPa) = 0.02065574
#
# Stress axis : x y z
#
# Youngs Moduli (GPa) = 47.45623 53.65445 91.95567
#
# Poissons Ratio (x) = 0.35693 0.53364
# Poissons Ratio (y) = 0.31570 0.23070
# Poissons Ratio (z) = 0.27540 0.13461
#
# Static dielectric constant tensor:
#      x y z
#    x 3.584730 0.000000 0.030680 
#    y 0.000000 3.659350 0.000000 
#    z 0.030680 0.000000 4.002850 
# 
# 
# High freq. dielectric constant tensor:
#      x y z
#    x 1.758940 0.000000 -0.008520 
#    y 0.000000 1.771490 0.000000 
#    z -0.008520 0.000000 1.771900 
# 
# From -- ./inp_files/28220.got.cif
#   From: 2010.06.25/outbox.cif.g09.slc.cpg/sg11_15_cif.got.tgz:28220.got - 2010.06.27 23:14:04.
