data_PCOD8074307
_publ_section_title
;
Structure prediction by ZEFSAII (Michael W. Deem and Ramdas Pophale) SiO2 
 PCOD8074307
Probable space group: P 21/M
;
_chemical_formula_sum "Si O2"
_cell_formula_units_Z 32
_cell_length_a 14.153932
_cell_length_b 8.958214
_cell_length_c 24.060097
_cell_angle_alpha 90.000000
_cell_angle_beta 148.899818
_cell_angle_gamma 90.000000
_cell_volume 1575.783497
_symmetry_space_group_name_H-M "P 21/M"
_symmetry_group_IT_number 11
_symmetry_cell_setting 'monoclinic'
loop_
_space_group_symop_operation_xyz
x,y,z
-x,1/2+y,-z
-x,-y,-z
x,1/2-y,z
loop_
_atom_site_type_symbol
_atom_site_label
_atom_site_fract_x
_atom_site_fract_y
_atom_site_fract_z
Si Si1 0.205956 0.076206 0.455875
Si Si2 0.193019 0.926299 0.971692
Si Si3 0.212165 0.915132 0.350696
Si Si4 0.521131 0.077281 0.325664
Si Si5 0.804000 0.426344 0.779880
Si Si6 0.501466 0.421513 0.188503
Si Si7 0.777847 0.916848 0.124908
Si Si8 0.783740 0.076943 0.237248
O O1 0.245691 0.250000 0.484442
O O2 0.993621 0.033157 0.354429
O O3 0.280141 0.030362 0.431871
O O4 0.307180 0.984262 0.554137
O O5 0.175500 0.750000 0.958681
O O6 0.279787 0.989364 0.958223
O O7 0.995732 0.993120 0.886165
O O8 0.328150 0.973481 0.089271
O O9 0.283823 0.750000 0.402518
O O10 0.281390 0.962971 0.324254
O O11 0.994801 0.914432 0.237523
O O12 0.489791 0.250000 0.324565
O O13 0.567159 0.053495 0.284332
O O14 0.337664 0.986272 0.246467
O O15 0.834734 0.250000 0.802097
O O16 0.444051 0.250000 0.149077
O O17 0.670690 0.468071 0.234707
O O18 0.697633 0.750000 0.078687
O O19 0.699849 0.990720 0.141845
O O20 0.770078 0.250000 0.215823
#
# Coordination Sequence:
#
# PCOD8074307 Si02
#       8
#     4   4   4   4   4   4   4   4
#     4  10  20  35  58  86 115 147 183 230 285 336
#     4  11  22  37  60  88 116 148 186 230 283 341
#     4   8  16  32  55  83 112 143 180 222 274 336
#     4  11  24  40  58  81 111 150 195 238 281 335
#     4  10  21  39  62  86 115 149 185 232 285 335
#     4  10  23  42  59  79 111 151 196 241 281 328
#     4   9  17  32  56  86 118 149 183 226 279 339
#     4   9  19  37  60  85 114 149 190 235 282 333
#
# _framework density 20.307358000000001
#
# number of rings (size 3 to 8) (size 9 to 14) (size 15 to 20)
#    0.000    2.250    0.000    3.375    0.000    7.500 
#    0.000    0.000    0.000    0.000    0.000    0.000 
#    0.000    0.000    0.000    0.000    0.000    0.000 
#
# Total GULP energy -396869.920665 kJ/mol
# GULP energy per Si atom -12402.185021 kJ/mol
# Density = 2.026114 g / cm^3
# Si number density = 20.307358 Si / 1000 Ang^3
#
#
#
# Elastic Constant Matrix: (Units=GPa)
#
#
# Indices 1 2 3 4 5 6 
#
# 1 83.6105 34.1687 10.0523 0.0000 -9.3252 0.0000
# 2 34.1687 108.3561 40.8519 0.0000 -6.2638 0.0000
# 3 10.0523 40.8519 69.7763 0.0000 -13.1764 0.0000
# 4 0.0000 0.0000 0.0000 30.9324 0.0000 -3.1054
# 5 -9.3252 -6.2638 -13.1764 0.0000 26.2328 0.0000
# 6 0.0000 0.0000 0.0000 -3.1054 0.0000 29.0040
#
#
#
# Elastic Compliance Matrix: (Units=1/GPa)
#
#
# Indices 1 2 3 4 5 6 
#
# 1 0.014276 -0.004864 0.001690 0.000000 0.004762 0.000000
# 2 -0.004864 0.013512 -0.007654 0.000000 -0.002347 0.000000
# 3 0.001690 -0.007654 0.020259 0.000000 0.008949 0.000000
# 4 0.000000 0.000000 0.000000 0.032680 0.000000 0.003499
# 5 0.004762 -0.002347 0.008949 0.000000 0.043748 0.000000
# 6 0.000000 0.000000 0.000000 0.003499 0.000000 0.034853
#
#
# Mechanical properties :
#
#
# Convention : Reuss Voigt Hill
#
# Bulk Modulus (GPa) = 37.88882 47.98762 42.93822
# Shear Modulus (GPa) = 26.34647 29.01185 27.67916
#
# Velocity S-wave (km/s) = 3.60583 3.78383 3.69590
# Velocity P-wave (km/s) = 6.00285 6.54002 6.27718
#
# Compressibility (1/GPa) = 0.02639301
#
# Stress axis : x y z
#
# Youngs Moduli (GPa) = 70.04882 74.00638 49.36116
#
# Poissons Ratio (x) = 0.35994 -0.08343
# Poissons Ratio (y) = 0.34069 0.37779
# Poissons Ratio (z) = -0.11839 0.56641
#
# Static dielectric constant tensor:
#      x y z
#    x 3.774820 0.000000 -0.098610 
#    y 0.000000 3.744860 0.000000 
#    z -0.098610 0.000000 3.531820 
# 
# 
# High freq. dielectric constant tensor:
#      x y z
#    x 1.791610 0.000000 -0.002970 
#    y 0.000000 1.796720 0.000000 
#    z -0.002970 0.000000 1.787210 
# 
# From -- ./inp_files/69130.got.cif
#   From: 2010.06.25/outbox.cif.g09.slc.cpg/sg11_35_cif.got.tgz:69130.got - 2010.06.27 23:14:04.
