data_PCOD8074950
_publ_section_title
;
Structure prediction by ZEFSAII (Michael W. Deem and Ramdas Pophale) SiO2 
 PCOD8074950
Probable space group: P 21/M
;
_chemical_formula_sum "Si O2"
_cell_formula_units_Z 32
_cell_length_a 26.364249
_cell_length_b 14.393533
_cell_length_c 10.123738
_cell_angle_alpha 90.000000
_cell_angle_beta 153.769536
_cell_angle_gamma 90.000000
_cell_volume 1697.966578
_symmetry_space_group_name_H-M "P 21/M"
_symmetry_group_IT_number 11
_symmetry_cell_setting 'monoclinic'
loop_
_space_group_symop_operation_xyz
x,y,z
-x,1/2+y,-z
-x,-y,-z
x,1/2-y,z
loop_
_atom_site_type_symbol
_atom_site_label
_atom_site_fract_x
_atom_site_fract_y
_atom_site_fract_z
Si Si1 0.715853 0.145015 0.318798
Si Si2 0.781380 0.642737 0.031876
Si Si3 0.231688 0.640850 0.859194
Si Si4 0.047254 0.006910 0.465313
Si Si5 0.404044 0.997028 0.385198
Si Si6 0.899083 0.008717 0.871175
Si Si7 0.232769 0.354903 0.298248
Si Si8 0.477044 0.062209 0.823224
O O1 0.750741 0.250000 0.432112
O O2 0.719284 0.125116 0.171539
O O3 0.806856 0.083964 0.611215
O O4 0.585680 0.128542 0.057247
O O5 0.771143 0.750000 0.045388
O O6 0.864884 0.592959 0.330603
O O7 0.657575 0.596908 0.763987
O O8 0.824400 0.628391 0.980258
O O9 0.220007 0.750000 0.868885
O O10 0.107291 0.591681 0.571588
O O11 0.316969 0.589568 0.161488
O O12 0.000000 0.000000 0.500000
O O13 0.951981 0.035554 0.136214
O O14 0.459606 0.990843 0.660177
O O15 0.500000 0.000000 0.500000
O O16 0.829571 0.913365 0.732584
O O17 0.000000 0.000000 0.000000
O O18 0.216479 0.250000 0.306468
O O19 0.367074 0.375107 0.596837
O O20 0.500000 0.000000 0.000000
#
# Coordination Sequence:
#
# PCOD8074950 Si02
#       8
#     4   4   4   4   4   4   4   4
#     4  11  23  40  64  92 123 165 209 252 309 370
#     4   9  20  37  61  89 117 153 201 246 294 357
#     4  10  22  40  62  90 122 162 207 250 303 370
#     4  11  22  39  62  87 119 160 202 250 308 356
#     4  10  20  36  62  91 121 155 198 244 297 356
#     4  12  24  40  62  90 125 161 206 256 304 364
#     4  10  21  39  64  91 117 159 206 245 298 369
#     4  11  21  39  66  89 126 160 196 250 310 362
#
# _framework density 18.846070999999998
#
# number of rings (size 3 to 8) (size 9 to 14) (size 15 to 20)
#    0.000    1.500    5.000    0.375    0.000    3.000 
#    0.000    2.500    0.000    0.000    0.000    0.000 
#    0.000    0.000    0.000    0.000    0.000    0.000 
#
# Total GULP energy -396758.830093 kJ/mol
# GULP energy per Si atom -12398.713440 kJ/mol
# Density = 1.880318 g / cm^3
# Si number density = 18.846071 Si / 1000 Ang^3
#
#
#
# Elastic Constant Matrix: (Units=GPa)
#
#
# Indices 1 2 3 4 5 6 
#
# 1 118.8398 54.2109 43.3458 0.0000 6.8788 0.0000
# 2 54.2109 146.3595 54.3325 0.0000 -3.6007 0.0000
# 3 43.3458 54.3325 117.7294 0.0000 -9.2251 0.0000
# 4 0.0000 0.0000 0.0000 19.0932 0.0000 -5.0958
# 5 6.8788 -3.6007 -9.2251 0.0000 36.5694 0.0000
# 6 0.0000 0.0000 0.0000 -5.0958 0.0000 28.5125
#
#
#
# Elastic Compliance Matrix: (Units=1/GPa)
#
#
# Indices 1 2 3 4 5 6 
#
# 1 0.011063 -0.003103 -0.002885 0.000000 -0.003114 0.000000
# 2 -0.003103 0.009116 -0.003008 0.000000 0.000723 0.000000
# 3 -0.002885 -0.003008 0.011185 0.000000 0.003068 0.000000
# 4 0.000000 0.000000 0.000000 0.054998 0.000000 0.009829
# 5 -0.003114 0.000723 0.003068 0.000000 0.028776 0.000000
# 6 0.000000 0.000000 0.000000 0.009829 0.000000 0.036829
#
#
# Mechanical properties :
#
#
# Convention : Reuss Voigt Hill
#
# Bulk Modulus (GPa) = 74.78605 76.30077 75.54341
# Shear Modulus (GPa) = 28.66692 32.23766 30.45229
#
# Velocity S-wave (km/s) = 3.90437 4.14040 4.02412
# Velocity P-wave (km/s) = 7.75204 7.96438 7.85893
#
# Compressibility (1/GPa) = 0.01337148
#
# Stress axis : x y z
#
# Youngs Moduli (GPa) = 90.39277 109.69280 89.40627
#
# Poissons Ratio (x) = 0.34040 0.25794
# Poissons Ratio (y) = 0.28051 0.26894
# Poissons Ratio (z) = 0.26078 0.32996
#
# Static dielectric constant tensor:
#      x y z
#    x 3.469270 0.000000 -0.089000 
#    y 0.000000 3.453410 0.000000 
#    z -0.089000 0.000000 3.608560 
# 
# 
# High freq. dielectric constant tensor:
#      x y z
#    x 1.734700 0.000000 0.007110 
#    y 0.000000 1.726970 0.000000 
#    z 0.007110 0.000000 1.743150 
# 
# From -- ./inp_files/27805.got.cif
#   From: 2010.06.25/outbox.cif.g09.slc.cpg/sg11_14_cif.got.tgz:27805.got - 2010.06.27 23:14:04.
