data_PCOD8074796
_publ_section_title
;
Structure prediction by ZEFSAII (Michael W. Deem and Ramdas Pophale) SiO2 
 PCOD8074796
Probable space group: P 21/M
;
_chemical_formula_sum "Si O2"
_cell_formula_units_Z 32
_cell_length_a 11.423342
_cell_length_b 18.007542
_cell_length_c 14.566511
_cell_angle_alpha 90.000000
_cell_angle_beta 150.377941
_cell_angle_gamma 90.000000
_cell_volume 1481.061853
_symmetry_space_group_name_H-M "P 21/M"
_symmetry_group_IT_number 11
_symmetry_cell_setting 'monoclinic'
loop_
_space_group_symop_operation_xyz
x,y,z
-x,1/2+y,-z
-x,-y,-z
x,1/2-y,z
loop_
_atom_site_type_symbol
_atom_site_label
_atom_site_fract_x
_atom_site_fract_y
_atom_site_fract_z
Si Si1 0.956928 0.334586 0.274846
Si Si2 0.466206 0.515449 0.617312
Si Si3 0.129164 0.526803 0.229235
Si Si4 0.676910 0.668178 0.787014
Si Si5 0.367037 0.101564 0.680684
Si Si6 0.105693 0.617511 0.965897
Si Si7 0.576179 0.661934 0.088559
Si Si8 0.137798 0.332308 0.895781
O O1 0.963210 0.250000 0.307819
O O2 0.154789 0.370842 0.473209
O O3 0.008680 0.344507 0.202325
O O4 0.691565 0.365853 0.113676
O O5 0.267170 0.491075 0.409269
O O6 0.706450 0.472695 0.749638
O O7 0.493427 0.604846 0.630685
O O8 0.399160 0.485369 0.673250
O O9 0.908002 0.472440 0.057363
O O10 0.060782 0.609655 0.210223
O O11 0.606846 0.750000 0.700114
O O12 0.944491 0.645567 0.940159
O O13 0.668248 0.671205 0.891269
O O14 0.620933 0.142222 0.833647
O O15 0.311841 0.114950 0.750202
O O16 0.582785 0.750000 0.115346
O O17 0.735281 0.640921 0.110228
O O18 0.025019 0.250000 0.805071
#
# Coordination Sequence:
#
# PCOD8074796 Si02
#       8
#     4   4   4   4   4   4   4   4
#     4  10  20  36  59  88 120 155 200 252 304 358
#     4  10  21  37  61  91 125 158 201 249 306 365
#     4  10  20  39  61  86 125 165 193 247 308 364
#     4  10  21  38  60  88 121 159 200 245 302 368
#     4  11  20  36  63  91 118 162 204 250 308 355
#     4  10  20  37  63  90 124 154 193 248 306 363
#     4   9  21  41  61  85 122 163 206 256 301 351
#     4  10  21  40  62  86 120 164 208 248 300 362
#
# _framework density 21.606121000000002
#
# number of rings (size 3 to 8) (size 9 to 14) (size 15 to 20)
#    0.000    2.000    1.250    2.250    0.000    4.000 
#    2.250    7.500    0.000    0.000    0.000    0.000 
#    0.000    0.000    0.000    0.000    0.000    0.000 
#
# Total GULP energy -396571.777757 kJ/mol
# GULP energy per Si atom -12392.868055 kJ/mol
# Density = 2.155694 g / cm^3
# Si number density = 21.606121 Si / 1000 Ang^3
#
#
#
# Elastic Constant Matrix: (Units=GPa)
#
#
# Indices 1 2 3 4 5 6 
#
# 1 111.5595 56.4356 26.9901 0.0000 -22.0596 0.0000
# 2 56.4356 114.6403 34.1664 0.0000 2.3585 0.0000
# 3 26.9901 34.1664 99.8623 0.0000 -7.8447 0.0000
# 4 0.0000 0.0000 0.0000 21.1458 0.0000 -3.4994
# 5 -22.0596 2.3585 -7.8447 0.0000 17.2102 0.0000
# 6 0.0000 0.0000 0.0000 -3.4994 0.0000 30.7836
#
#
#
# Elastic Compliance Matrix: (Units=1/GPa)
#
#
# Indices 1 2 3 4 5 6 
#
# 1 0.019107 -0.010034 0.000312 0.000000 0.026009 0.000000
# 2 -0.010034 0.015130 -0.003773 0.000000 -0.016655 0.000000
# 3 0.000312 -0.003773 0.011712 0.000000 0.006255 0.000000
# 4 0.000000 0.000000 0.000000 0.048197 0.000000 0.005479
# 5 0.026009 -0.016655 0.006255 0.000000 0.096576 0.000000
# 6 0.000000 0.000000 0.000000 0.005479 0.000000 0.033108
#
#
# Mechanical properties :
#
#
# Convention : Reuss Voigt Hill
#
# Bulk Modulus (GPa) = 52.74641 62.36069 57.55355
# Shear Modulus (GPa) = 19.44475 27.72594 23.58534
#
# Velocity S-wave (km/s) = 3.00320 3.58613 3.30753
# Velocity P-wave (km/s) = 6.04080 6.78765 6.42509
#
# Compressibility (1/GPa) = 0.01895864
#
# Stress axis : x y z
#
# Youngs Moduli (GPa) = 52.33584 66.09526 85.38522
#
# Poissons Ratio (x) = 0.66322 -0.02664
# Poissons Ratio (y) = 0.52515 0.32213
# Poissons Ratio (z) = -0.01633 0.24936
#
# Static dielectric constant tensor:
#      x y z
#    x 3.847860 0.000000 -0.140770 
#    y 0.000000 3.892890 0.000000 
#    z -0.140770 0.000000 3.809710 
# 
# 
# High freq. dielectric constant tensor:
#      x y z
#    x 1.837540 0.000000 -0.015980 
#    y 0.000000 1.841530 0.000000 
#    z -0.015980 0.000000 1.845710 
# 
# From -- ./inp_files/50692.got.cif
#   From: 2010.06.25/outbox.cif.g09.slc.cpg/sg11_26_cif.got.tgz:50692.got - 2010.06.27 23:14:04.
