data_PCOD8074090
_publ_section_title
;
Structure prediction by ZEFSAII (Michael W. Deem and Ramdas Pophale) SiO2 
 PCOD8074090
Probable space group: P 21/M
;
_chemical_formula_sum "Si O2"
_cell_formula_units_Z 20
_cell_length_a 26.974429
_cell_length_b 9.097295
_cell_length_c 9.486797
_cell_angle_alpha 90.000000
_cell_angle_beta 27.989976
_cell_angle_gamma 90.000000
_cell_volume 1092.573110
_symmetry_space_group_name_H-M "P 21/M"
_symmetry_group_IT_number 11
_symmetry_cell_setting 'monoclinic'
loop_
_space_group_symop_operation_xyz
x,y,z
-x,1/2+y,-z
-x,-y,-z
x,1/2-y,z
loop_
_atom_site_type_symbol
_atom_site_label
_atom_site_fract_x
_atom_site_fract_y
_atom_site_fract_z
Si Si1 0.409967 0.919560 0.640738
Si Si2 0.999764 0.920190 0.148448
Si Si3 0.178157 0.924778 0.915496
Si Si4 0.193211 0.077503 0.165546
Si Si5 0.414185 0.584214 0.303655
O O1 0.400314 0.750000 0.711978
O O2 0.441028 0.932159 0.399977
O O3 0.500000 0.000000 0.500000
O O4 0.299932 0.999684 0.948280
O O5 0.015225 0.750000 0.078578
O O6 0.890937 0.952236 0.501015
O O7 0.096981 0.976667 0.999865
O O8 0.000000 0.000000 0.000000
O O9 0.173663 0.750000 0.956360
O O10 0.295492 0.974025 0.572483
O O11 0.148481 0.007016 0.134383
O O12 0.213074 0.250000 0.091683
O O13 0.421615 0.750000 0.233333
O O14 0.500000 0.500000 0.000000
#
# Coordination Sequence:
#
# PCOD8074090 Si02
#       5
#     4   4   4   4   4
#     4  10  21  37  56  80 109 142 179 220 264 316
#     4  10  22  37  54  79 110 140 178 225 271 319
#     4   9  19  37  56  76 104 141 181 220 264 319
#     4  10  20  35  56  82 107 137 179 223 266 321
#     4   9  19  34  53  77 105 136 174 216 261 313
#
# _framework density 18.305412
#
# number of rings (size 3 to 8) (size 9 to 14) (size 15 to 20)
#    0.000    2.400    0.000    3.000    0.000    8.000 
#    0.000    4.000    0.000    0.000    0.000    0.000 
#    0.000    0.000    0.000    0.000    0.000    0.000 
#
# Total GULP energy -248023.426064 kJ/mol
# GULP energy per Si atom -12401.171303 kJ/mol
# Density = 1.826375 g / cm^3
# Si number density = 18.305412 Si / 1000 Ang^3
#
#
#
# Elastic Constant Matrix: (Units=GPa)
#
#
# Indices 1 2 3 4 5 6 
#
# 1 152.5668 64.9348 67.7993 0.0000 -16.7728 0.0000
# 2 64.9348 93.6146 63.5096 0.0000 -0.2588 0.0000
# 3 67.7993 63.5096 108.5325 0.0000 0.4500 0.0000
# 4 0.0000 0.0000 0.0000 35.6241 0.0000 3.1258
# 5 -16.7728 -0.2588 0.4500 0.0000 24.3793 0.0000
# 6 0.0000 0.0000 0.0000 3.1258 0.0000 36.5783
#
#
#
# Elastic Compliance Matrix: (Units=1/GPa)
#
#
# Indices 1 2 3 4 5 6 
#
# 1 0.011455 -0.005053 -0.004232 0.000000 0.007905 0.000000
# 2 -0.005053 0.019947 -0.008503 0.000000 -0.003107 0.000000
# 3 -0.004232 -0.008503 0.016847 0.000000 -0.003313 0.000000
# 4 0.000000 0.000000 0.000000 0.028283 0.000000 -0.002417
# 5 0.007905 -0.003107 -0.003313 0.000000 0.046485 0.000000
# 6 0.000000 0.000000 0.000000 -0.002417 0.000000 0.027545
#
#
# Mechanical properties :
#
#
# Convention : Reuss Voigt Hill
#
# Bulk Modulus (GPa) = 78.90515 83.02237 80.96376
# Shear Modulus (GPa) = 26.26593 29.88101 28.07347
#
# Velocity S-wave (km/s) = 3.79208 4.04463 3.92039
# Velocity P-wave (km/s) = 7.89757 8.20149 8.05096
#
# Compressibility (1/GPa) = 0.01267344
#
# Stress axis : x y z
#
# Youngs Moduli (GPa) = 87.30113 50.13346 59.35866
#
# Poissons Ratio (x) = 0.25331 0.25119
# Poissons Ratio (y) = 0.44110 0.50472
# Poissons Ratio (z) = 0.36944 0.42628
#
# Static dielectric constant tensor:
#      x y z
#    x 3.472930 0.000000 -0.174110 
#    y 0.000000 3.325010 0.000000 
#    z -0.174110 0.000000 3.390620 
# 
# 
# High freq. dielectric constant tensor:
#      x y z
#    x 1.712280 0.000000 -0.010180 
#    y 0.000000 1.713280 0.000000 
#    z -0.010180 0.000000 1.715310 
# 
# From -- ./inp_files/15923.got.cif
#   From: 2010.06.25/outbox.cif.g09.slc.cpg/sg11_8_cif.got.tgz:15923.got - 2010.06.27 23:14:04.
