data_PCOD8074540
_publ_section_title
;
Structure prediction by ZEFSAII (Michael W. Deem and Ramdas Pophale) SiO2 
 PCOD8074540
Probable space group: P 21/M
;
_chemical_formula_sum "Si O2"
_cell_formula_units_Z 32
_cell_length_a 29.621852
_cell_length_b 9.212150
_cell_length_c 12.431623
_cell_angle_alpha 90.000000
_cell_angle_beta 151.401771
_cell_angle_gamma 90.000000
_cell_volume 1623.799706
_symmetry_space_group_name_H-M "P 21/M"
_symmetry_group_IT_number 11
_symmetry_cell_setting 'monoclinic'
loop_
_space_group_symop_operation_xyz
x,y,z
-x,1/2+y,-z
-x,-y,-z
x,1/2-y,z
loop_
_atom_site_type_symbol
_atom_site_label
_atom_site_fract_x
_atom_site_fract_y
_atom_site_fract_z
Si Si1 0.857915 0.081861 0.958108
Si Si2 0.756086 0.578775 0.154479
Si Si3 0.732977 0.415770 0.319848
Si Si4 0.596488 0.422660 0.228291
Si Si5 0.093336 0.915142 0.174670
Si Si6 0.408045 0.082466 0.346471
Si Si7 0.676826 0.919836 0.604003
Si Si8 0.036165 0.419089 0.471564
O O1 0.829575 0.250000 0.915467
O O2 0.962033 0.050428 0.221341
O O3 0.855897 0.035815 0.828860
O O4 0.780377 0.979962 0.853212
O O5 0.759600 0.750000 0.175935
O O6 0.715931 0.513813 0.180743
O O7 0.861201 0.519646 0.348153
O O8 0.685065 0.529292 0.911880
O O9 0.714956 0.250000 0.248727
O O10 0.663657 0.462290 0.269883
O O11 0.838907 0.439634 0.582762
O O12 0.584437 0.250000 0.216570
O O13 0.637661 0.487244 0.423728
O O14 0.500000 0.500000 0.000000
O O15 0.063048 0.750000 0.097061
O O16 0.000000 0.000000 0.000000
O O17 0.425669 0.250000 0.358218
O O18 0.392374 0.055593 0.440063
O O19 0.500000 0.000000 0.500000
O O20 0.683316 0.750000 0.587863
O O21 0.043526 0.250000 0.514899
O O22 0.000000 0.500000 0.500000
#
# Coordination Sequence:
#
# PCOD8074540 Si02
#       8
#     4   4   4   4   4   4   4   4
#     4  10  20  37  59  85 119 160 198 243 305 364
#     4  10  22  41  62  88 122 160 203 252 302 361
#     4  10  22  40  61  87 124 161 197 248 301 358
#     4  11  24  43  65  92 126 162 203 254 309 366
#     4  10  20  36  56  83 118 157 198 241 292 350
#     4  10  24  43  63  89 120 157 202 253 306 359
#     4  11  23  41  65  93 123 158 205 256 305 365
#     4  10  21  37  60  87 120 159 203 253 306 362
#
# _framework density 19.706863999999999
#
# number of rings (size 3 to 8) (size 9 to 14) (size 15 to 20)
#    0.000    1.750    1.250    2.250    1.750    6.500 
#    0.000    0.000    0.000    0.000    0.000    0.000 
#    0.000    0.000    0.000    0.000    0.000    0.000 
#
# Total GULP energy -396884.924516 kJ/mol
# GULP energy per Si atom -12402.653891 kJ/mol
# Density = 1.966201 g / cm^3
# Si number density = 19.706864 Si / 1000 Ang^3
#
#
#
# Elastic Constant Matrix: (Units=GPa)
#
#
# Indices 1 2 3 4 5 6 
#
# 1 122.8562 60.2345 58.8921 0.0000 4.2038 0.0000
# 2 60.2345 72.5827 49.8565 0.0000 5.7525 0.0000
# 3 58.8921 49.8565 113.7284 0.0000 10.0468 0.0000
# 4 0.0000 0.0000 0.0000 35.9220 0.0000 2.1752
# 5 4.2038 5.7525 10.0468 0.0000 39.9926 0.0000
# 6 0.0000 0.0000 0.0000 2.1752 0.0000 39.3796
#
#
#
# Elastic Compliance Matrix: (Units=1/GPa)
#
#
# Indices 1 2 3 4 5 6 
#
# 1 0.014511 -0.009864 -0.003253 0.000000 0.000711 0.000000
# 2 -0.009864 0.026437 -0.006379 0.000000 -0.001163 0.000000
# 3 -0.003253 -0.006379 0.013461 0.000000 -0.002122 0.000000
# 4 0.000000 0.000000 0.000000 0.027932 0.000000 -0.001543
# 5 0.000711 -0.001163 -0.002122 0.000000 0.025630 0.000000
# 6 0.000000 0.000000 0.000000 -0.001543 0.000000 0.025479
#
#
# Mechanical properties :
#
#
# Convention : Reuss Voigt Hill
#
# Bulk Modulus (GPa) = 64.86064 71.90373 68.38219
# Shear Modulus (GPa) = 28.15624 32.40444 30.28034
#
# Velocity S-wave (km/s) = 3.78399 4.05942 3.92412
# Velocity P-wave (km/s) = 7.21634 7.65100 7.43684
#
# Compressibility (1/GPa) = 0.01541767
#
# Stress axis : x y z
#
# Youngs Moduli (GPa) = 68.91459 37.82543 74.28863
#
# Poissons Ratio (x) = 0.37312 0.24163
# Poissons Ratio (y) = 0.67979 0.47388
# Poissons Ratio (z) = 0.22415 0.24128
#
# Static dielectric constant tensor:
#      x y z
#    x 3.593540 0.000000 -0.033190 
#    y 0.000000 3.568180 0.000000 
#    z -0.033190 0.000000 3.389470 
# 
# 
# High freq. dielectric constant tensor:
#      x y z
#    x 1.775810 0.000000 0.000860 
#    y 0.000000 1.762390 0.000000 
#    z 0.000860 0.000000 1.780910 
# 
# From -- ./inp_files/45241.got.cif
#   From: 2010.06.25/outbox.cif.g09.slc.cpg/sg11_23_cif.got.tgz:45241.got - 2010.06.27 23:14:04.
