data_PCOD8074949
_publ_section_title
;
Structure prediction by ZEFSAII (Michael W. Deem and Ramdas Pophale) SiO2 
 PCOD8074949
Probable space group: P 21/M
;
_chemical_formula_sum "Si O2"
_cell_formula_units_Z 28
_cell_length_a 13.422401
_cell_length_b 18.397081
_cell_length_c 8.529467
_cell_angle_alpha 90.000000
_cell_angle_beta 140.296501
_cell_angle_gamma 90.000000
_cell_volume 1345.476121
_symmetry_space_group_name_H-M "P 21/M"
_symmetry_group_IT_number 11
_symmetry_cell_setting 'monoclinic'
loop_
_space_group_symop_operation_xyz
x,y,z
-x,1/2+y,-z
-x,-y,-z
x,1/2-y,z
loop_
_atom_site_type_symbol
_atom_site_label
_atom_site_fract_x
_atom_site_fract_y
_atom_site_fract_z
Si Si1 0.698198 0.444808 0.930504
Si Si2 0.566581 0.335444 0.204659
Si Si3 0.567451 0.169856 0.557897
Si Si4 0.921630 0.953060 0.042968
Si Si5 0.613009 0.570851 0.258974
Si Si6 0.235618 0.168179 0.318152
Si Si7 0.189043 0.564619 0.606402
O O1 0.755809 0.512543 0.894864
O O2 0.826217 0.430587 0.222972
O O3 0.693160 0.376956 0.805700
O O4 0.525727 0.455426 0.793348
O O5 0.544068 0.250000 0.150380
O O6 0.538942 0.360524 0.349337
O O7 0.741790 0.358779 0.369762
O O8 0.443797 0.377304 0.948401
O O9 0.641687 0.250000 0.636904
O O10 0.403082 0.173031 0.442958
O O11 0.026540 0.950171 0.325737
O O12 0.889793 0.871083 0.946366
O O13 0.000000 0.000000 0.000000
O O14 0.746971 0.617115 0.508471
O O15 0.685348 0.498240 0.276634
O O16 0.176352 0.250000 0.286186
#
# Coordination Sequence:
#
# PCOD8074949 Si02
#       7
#     4   4   4   4   4   4   4
#     4  10  22  38  62  86 120 158 197 253 296 355
#     4  10  20  36  62  91 121 153 201 256 301 354
#     4   9  20  37  61  92 119 154 204 253 303 354
#     4  12  24  40  59  88 125 162 203 247 301 363
#     4  10  21  39  64  90 119 153 207 248 305 353
#     4  10  22  39  61  86 119 160 200 249 305 360
#     4  11  23  39  59  93 120 161 201 244 306 366
#
# _framework density 20.810476999999999
#
# number of rings (size 3 to 8) (size 9 to 14) (size 15 to 20)
#    0.000    1.714    1.429    3.429    4.000    5.143 
#    0.000    0.714    0.000    0.000    0.000    0.000 
#    0.000    0.000    0.000    0.000    0.000    0.000 
#
# Total GULP energy -347134.828253 kJ/mol
# GULP energy per Si atom -12397.672438 kJ/mol
# Density = 2.076311 g / cm^3
# Si number density = 20.810477 Si / 1000 Ang^3
#
#
#
# Elastic Constant Matrix: (Units=GPa)
#
#
# Indices 1 2 3 4 5 6 
#
# 1 47.3337 29.9290 26.7880 0.0000 -17.3095 0.0000
# 2 29.9290 107.5861 58.2077 0.0000 -6.0545 0.0000
# 3 26.7880 58.2077 110.9336 0.0000 -7.7166 0.0000
# 4 0.0000 0.0000 0.0000 35.2291 0.0000 -5.6502
# 5 -17.3095 -6.0545 -7.7166 0.0000 26.7460 0.0000
# 6 0.0000 0.0000 0.0000 -5.6502 0.0000 24.9947
#
#
#
# Elastic Compliance Matrix: (Units=1/GPa)
#
#
# Indices 1 2 3 4 5 6 
#
# 1 0.034536 -0.006599 -0.003497 0.000000 0.019849 0.000000
# 2 -0.006599 0.014266 -0.006087 0.000000 -0.002797 0.000000
# 3 -0.003497 -0.006087 0.013061 0.000000 0.000128 0.000000
# 4 0.000000 0.000000 0.000000 0.029453 0.000000 0.006658
# 5 0.019849 -0.002797 0.000128 0.000000 0.049638 0.000000
# 6 0.000000 0.000000 0.000000 0.006658 0.000000 0.041514
#
#
# Mechanical properties :
#
#
# Convention : Reuss Voigt Hill
#
# Bulk Modulus (GPa) = 33.89864 55.07808 44.48836
# Shear Modulus (GPa) = 22.25520 27.45588 24.85554
#
# Velocity S-wave (km/s) = 3.27375 3.63620 3.45972
# Velocity P-wave (km/s) = 5.53304 6.64479 6.11423
#
# Compressibility (1/GPa) = 0.02949971
#
# Stress axis : x y z
#
# Youngs Moduli (GPa) = 28.95501 70.09529 76.56144
#
# Poissons Ratio (x) = 0.46254 0.26771
# Poissons Ratio (y) = 0.19107 0.46601
# Poissons Ratio (z) = 0.10125 0.42665
#
# Static dielectric constant tensor:
#      x y z
#    x 3.624860 0.000000 -0.306850 
#    y 0.000000 3.998440 0.000000 
#    z -0.306850 0.000000 3.876470 
# 
# 
# High freq. dielectric constant tensor:
#      x y z
#    x 1.797330 0.000000 -0.024160 
#    y 0.000000 1.819910 0.000000 
#    z -0.024160 0.000000 1.820650 
# 
# From -- ./inp_files/22790.got.cif
#   From: 2010.06.25/outbox.cif.g09.slc.cpg/sg11_12_cif.got.tgz:22790.got - 2010.06.27 23:14:04.
