data_PCOD8074058
_publ_section_title
;
Structure prediction by ZEFSAII (Michael W. Deem and Ramdas Pophale) SiO2 
 PCOD8074058
Probable space group: P 21/M
;
_chemical_formula_sum "Si O2"
_cell_formula_units_Z 28
_cell_length_a 9.567548
_cell_length_b 8.712787
_cell_length_c 28.143497
_cell_angle_alpha 90.000000
_cell_angle_beta 140.840588
_cell_angle_gamma 90.000000
_cell_volume 1481.479102
_symmetry_space_group_name_H-M "P 21/M"
_symmetry_group_IT_number 11
_symmetry_cell_setting 'monoclinic'
loop_
_space_group_symop_operation_xyz
x,y,z
-x,1/2+y,-z
-x,-y,-z
x,1/2-y,z
loop_
_atom_site_type_symbol
_atom_site_label
_atom_site_fract_x
_atom_site_fract_y
_atom_site_fract_z
Si Si1 0.868246 0.069640 0.421602
Si Si2 0.017927 0.073323 0.151914
Si Si3 0.446974 0.927464 0.936032
Si Si4 0.852442 0.070033 0.003055
Si Si5 0.371928 0.074538 0.395127
Si Si6 0.179222 0.573293 0.434053
Si Si7 0.400785 0.927188 0.307348
O O1 0.912817 0.250000 0.431728
O O2 0.609373 0.037630 0.355894
O O3 0.000000 0.000000 0.500000
O O4 0.952057 0.988047 0.395912
O O5 0.094331 0.250000 0.172780
O O6 0.818907 0.049924 0.138155
O O7 0.952119 0.026164 0.080835
O O8 0.219350 0.964594 0.219729
O O9 0.511094 0.750000 0.953367
O O10 0.500000 0.000000 0.000000
O O11 0.597281 0.007221 0.934625
O O12 0.843278 0.250000 0.992687
O O13 0.000000 0.000000 0.000000
O O14 0.325051 0.250000 0.368613
O O15 0.628662 0.050077 0.476240
O O16 0.220049 0.030054 0.399113
O O17 0.304381 0.964498 0.333998
O O18 0.159752 0.750000 0.413700
O O19 0.469815 0.750000 0.321680
#
# Coordination Sequence:
#
# PCOD8074058 Si02
#       7
#     4   4   4   4   4   4   4
#     4  12  23  37  57  81 111 148 191 238 289 345
#     4   9  20  38  57  81 114 151 190 232 284 340
#     4   9  17  32  56  83 112 146 185 227 269 325
#     4  10  20  35  59  89 120 153 189 232 279 332
#     4  10  20  35  56  79 108 143 178 227 283 336
#     4  10  20  35  56  81 108 138 180 232 281 334
#     4  12  24  37  57  83 113 149 192 240 287 338
#
# _framework density 18.900030000000001
#
# number of rings (size 3 to 8) (size 9 to 14) (size 15 to 20)
#    0.000    1.714    1.429    5.143    0.000    4.571 
#    0.000    1.429    0.000    5.143    0.000    0.000 
#    0.000    0.000    0.000    0.000    0.000    0.000 
#
# Total GULP energy -347170.564576 kJ/mol
# GULP energy per Si atom -12398.948735 kJ/mol
# Density = 1.885701 g / cm^3
# Si number density = 18.900030 Si / 1000 Ang^3
#
#
#
# Elastic Constant Matrix: (Units=GPa)
#
#
# Indices 1 2 3 4 5 6 
#
# 1 120.9560 39.1965 31.6387 0.0000 9.4660 0.0000
# 2 39.1965 87.3432 25.3450 0.0000 -0.3734 0.0000
# 3 31.6387 25.3450 64.8491 0.0000 5.0061 0.0000
# 4 0.0000 0.0000 0.0000 28.3941 0.0000 0.6605
# 5 9.4660 -0.3734 5.0061 0.0000 20.2958 0.0000
# 6 0.0000 0.0000 0.0000 0.6605 0.0000 38.4024
#
#
#
# Elastic Compliance Matrix: (Units=1/GPa)
#
#
# Indices 1 2 3 4 5 6 
#
# 1 0.010737 -0.003848 -0.003408 0.000000 -0.004238 0.000000
# 2 -0.003848 0.014338 -0.003961 0.000000 0.003035 0.000000
# 3 -0.003408 -0.003961 0.018873 0.000000 -0.003139 0.000000
# 4 0.000000 0.000000 0.000000 0.035233 0.000000 -0.000606
# 5 -0.004238 0.003035 -0.003139 0.000000 0.052078 0.000000
# 6 0.000000 0.000000 0.000000 -0.000606 0.000000 0.026050
#
#
# Mechanical properties :
#
#
# Convention : Reuss Voigt Hill
#
# Bulk Modulus (GPa) = 46.47634 51.72321 49.09978
# Shear Modulus (GPa) = 26.75019 29.21633 27.98326
#
# Velocity S-wave (km/s) = 3.76620 3.93598 3.85202
# Velocity P-wave (km/s) = 6.59972 6.93412 6.76899
#
# Compressibility (1/GPa) = 0.02151632
#
# Stress axis : x y z
#
# Youngs Moduli (GPa) = 93.13239 69.74376 52.98514
#
# Poissons Ratio (x) = 0.26837 0.18055
# Poissons Ratio (y) = 0.35836 0.20986
# Poissons Ratio (z) = 0.31735 0.27624
#
# Static dielectric constant tensor:
#      x y z
#    x 3.702930 0.000000 0.204560 
#    y 0.000000 3.749510 0.000000 
#    z 0.204560 0.000000 3.339340 
# 
# 
# High freq. dielectric constant tensor:
#      x y z
#    x 1.742650 0.000000 0.009940 
#    y 0.000000 1.748990 0.000000 
#    z 0.009940 0.000000 1.699950 
# 
# From -- ./inp_files/28358.got.cif
#   From: 2010.06.25/outbox.cif.g09.slc.cpg/sg11_15_cif.got.tgz:28358.got - 2010.06.27 23:14:04.
