data_PCOD8074002
_publ_section_title
;
Structure prediction by ZEFSAII (Michael W. Deem and Ramdas Pophale) SiO2 
 PCOD8074002
Probable space group: P 21/M
;
_chemical_formula_sum "Si O2"
_cell_formula_units_Z 24
_cell_length_a 15.776736
_cell_length_b 8.809098
_cell_length_c 16.494391
_cell_angle_alpha 90.000000
_cell_angle_beta 145.178679
_cell_angle_gamma 90.000000
_cell_volume 1308.987553
_symmetry_space_group_name_H-M "P 21/M"
_symmetry_group_IT_number 11
_symmetry_cell_setting 'monoclinic'
loop_
_space_group_symop_operation_xyz
x,y,z
-x,1/2+y,-z
-x,-y,-z
x,1/2-y,z
loop_
_atom_site_type_symbol
_atom_site_label
_atom_site_fract_x
_atom_site_fract_y
_atom_site_fract_z
Si Si1 0.322960 0.926956 0.610536
Si Si2 0.660017 0.570858 0.889755
Si Si3 0.784799 0.922368 0.151138
Si Si4 0.838334 0.930436 0.367010
Si Si5 0.940592 0.428547 0.034928
Si Si6 0.085033 0.577427 0.297028
O O1 0.298544 0.750000 0.611311
O O2 0.494919 0.965932 0.730503
O O3 0.237273 0.972418 0.460862
O O4 0.266148 0.022898 0.641537
O O5 0.695805 0.750000 0.916860
O O6 0.684781 0.504044 0.000840
O O7 0.775103 0.490788 0.920165
O O8 0.733864 0.750000 0.117200
O O9 0.764191 0.993757 0.224642
O O10 0.957614 0.938563 0.264194
O O11 0.855225 0.750000 0.377374
O O12 0.000000 0.000000 0.500000
O O13 0.933444 0.250000 0.019913
O O14 0.053496 0.469961 0.196119
O O15 0.000000 0.500000 0.000000
O O16 0.094730 0.750000 0.272564
#
# Coordination Sequence:
#
# PCOD8074002 Si02
#       6
#     4   4   4   4   4   4
#     4  10  20  35  55  80 111 147 181 222 277 322
#     4   9  19  37  58  79 109 145 179 220 275 327
#     4   8  15  30  50  72 104 144 183 223 266 309
#     4  11  20  31  49  75 109 148 193 235 268 311
#     4  11  22  38  61  86 108 135 176 218 265 324
#     4   9  17  34  56  78 108 142 179 220 269 321
#
# _framework density 18.334779999999999
#
# number of rings (size 3 to 8) (size 9 to 14) (size 15 to 20)
#    0.000    2.333    1.667    3.000    0.000    2.000 
#    0.000    1.667    0.000    0.000    0.000    0.000 
#    0.000    0.000    0.000    0.000    0.000    0.000 
#
# Total GULP energy -297501.630975 kJ/mol
# GULP energy per Si atom -12395.901291 kJ/mol
# Density = 1.829305 g / cm^3
# Si number density = 18.334780 Si / 1000 Ang^3
#
#
#
# Elastic Constant Matrix: (Units=GPa)
#
#
# Indices 1 2 3 4 5 6 
#
# 1 106.4725 47.5937 56.5505 0.0000 -9.3390 0.0000
# 2 47.5937 78.1304 35.5378 0.0000 -2.2592 0.0000
# 3 56.5505 35.5378 126.8743 0.0000 9.9773 0.0000
# 4 0.0000 0.0000 0.0000 23.1209 0.0000 -2.5406
# 5 -9.3390 -2.2592 9.9773 0.0000 25.6746 0.0000
# 6 0.0000 0.0000 0.0000 -2.5406 0.0000 29.7512
#
#
#
# Elastic Compliance Matrix: (Units=1/GPa)
#
#
# Indices 1 2 3 4 5 6 
#
# 1 0.016354 -0.007052 -0.005914 0.000000 0.007626 0.000000
# 2 -0.007052 0.017933 -0.001859 0.000000 -0.000265 0.000000
# 3 -0.005914 -0.001859 0.011574 0.000000 -0.006813 0.000000
# 4 0.000000 0.000000 0.000000 0.043661 0.000000 0.003728
# 5 0.007626 -0.000265 -0.006813 0.000000 0.044347 0.000000
# 6 0.000000 0.000000 0.000000 0.003728 0.000000 0.033930
#
#
# Mechanical properties :
#
#
# Convention : Reuss Voigt Hill
#
# Bulk Modulus (GPa) = 61.68416 65.64901 63.66659
# Shear Modulus (GPa) = 24.64839 27.16236 25.90537
#
# Velocity S-wave (km/s) = 3.67052 3.85316 3.76295
# Velocity P-wave (km/s) = 7.18887 7.46185 7.32663
#
# Compressibility (1/GPa) = 0.01621162
#
# Stress axis : x y z
#
# Youngs Moduli (GPa) = 61.14599 55.76397 86.39874
#
# Poissons Ratio (x) = 0.39324 0.51096
# Poissons Ratio (y) = 0.43119 0.16062
# Poissons Ratio (z) = 0.36161 0.10367
#
# Static dielectric constant tensor:
#      x y z
#    x 3.265720 0.000000 -0.116610 
#    y 0.000000 3.243510 0.000000 
#    z -0.116610 0.000000 3.619710 
# 
# 
# High freq. dielectric constant tensor:
#      x y z
#    x 1.694290 0.000000 -0.008260 
#    y 0.000000 1.691200 0.000000 
#    z -0.008260 0.000000 1.721300 
# 
# From -- ./inp_files/23810.got.cif
#   From: 2010.06.25/outbox.cif.g09.slc.cpg/sg11_12_cif.got.tgz:23810.got - 2010.06.27 23:14:04.
