data_PCOD8074389
_publ_section_title
;
Structure prediction by ZEFSAII (Michael W. Deem and Ramdas Pophale) SiO2 
 PCOD8074389
Probable space group: P 21/M
;
_chemical_formula_sum "Si O2"
_cell_formula_units_Z 32
_cell_length_a 24.901178
_cell_length_b 8.856056
_cell_length_c 20.138670
_cell_angle_alpha 90.000000
_cell_angle_beta 21.065203
_cell_angle_gamma 90.000000
_cell_volume 1596.266952
_symmetry_space_group_name_H-M "P 21/M"
_symmetry_group_IT_number 11
_symmetry_cell_setting 'monoclinic'
loop_
_space_group_symop_operation_xyz
x,y,z
-x,1/2+y,-z
-x,-y,-z
x,1/2-y,z
loop_
_atom_site_type_symbol
_atom_site_label
_atom_site_fract_x
_atom_site_fract_y
_atom_site_fract_z
Si Si1 0.982268 0.573603 0.841678
Si Si2 0.445267 0.573058 0.465277
Si Si3 0.281456 0.572897 0.786974
Si Si4 0.586380 0.070901 0.087732
Si Si5 0.616892 0.921414 0.912353
Si Si6 0.679046 0.428515 0.533248
Si Si7 0.948634 0.921355 0.492776
Si Si8 0.138381 0.072483 0.163561
O O1 0.976558 0.750000 0.862812
O O2 0.915168 0.531648 0.847950
O O3 0.151991 0.515416 0.650664
O O4 0.883752 0.492535 0.011511
O O5 0.477490 0.750000 0.429013
O O6 0.333425 0.524976 0.653339
O O7 0.604495 0.492583 0.289958
O O8 0.371317 0.521260 0.481999
O O9 0.276665 0.750000 0.801333
O O10 0.586916 0.250000 0.086664
O O11 0.422184 0.011467 0.295441
O O12 0.634873 0.011673 0.959869
O O13 0.704529 0.009675 0.005121
O O14 0.567430 0.750000 0.985285
O O15 0.770549 0.923023 0.694564
O O16 0.500000 0.000000 0.000000
O O17 0.663814 0.250000 0.561253
O O18 0.010716 0.750000 0.418868
O O19 0.000000 0.000000 0.500000
O O20 0.009904 0.014915 0.360450
O O21 0.161729 0.250000 0.147183
#
# Coordination Sequence:
#
# PCOD8074389 Si02
#       8
#     4   4   4   4   4   4   4   4
#     4  10  23  40  59  86 118 157 197 240 296 355
#     4   9  19  37  61  87 118 157 198 242 293 351
#     4  10  20  35  59  90 120 153 197 245 292 347
#     4  12  25  41  62  89 119 156 200 247 300 356
#     4  11  25  43  64  91 123 159 198 243 299 358
#     4  10  22  41  61  84 118 159 200 244 296 356
#     4  11  23  40  64  92 120 154 199 247 298 354
#     4  11  23  40  62  87 117 156 201 248 298 355
#
# _framework density 20.046773999999999
#
# number of rings (size 3 to 8) (size 9 to 14) (size 15 to 20)
#    0.000    1.500    1.250    3.375    1.750    7.500 
#    0.000    0.000    0.000    0.000    0.000    0.000 
#    0.000    0.000    0.000    0.000    0.000    0.000 
#
# Total GULP energy -396989.208119 kJ/mol
# GULP energy per Si atom -12405.912754 kJ/mol
# Density = 2.000115 g / cm^3
# Si number density = 20.046774 Si / 1000 Ang^3
#
#
#
# Elastic Constant Matrix: (Units=GPa)
#
#
# Indices 1 2 3 4 5 6 
#
# 1 64.9233 27.6843 27.2048 0.0000 -10.4694 0.0000
# 2 27.6843 73.9905 37.1132 0.0000 -4.5108 0.0000
# 3 27.2048 37.1132 133.3258 0.0000 -7.5876 0.0000
# 4 0.0000 0.0000 0.0000 39.7166 0.0000 0.5841
# 5 -10.4694 -4.5108 -7.5876 0.0000 32.7298 0.0000
# 6 0.0000 0.0000 0.0000 0.5841 0.0000 25.9336
#
#
#
# Elastic Compliance Matrix: (Units=1/GPa)
#
#
# Indices 1 2 3 4 5 6 
#
# 1 0.019627 -0.006013 -0.002048 0.000000 0.004975 0.000000
# 2 -0.006013 0.017595 -0.003691 0.000000 -0.000354 0.000000
# 3 -0.002048 -0.003691 0.008998 0.000000 0.000922 0.000000
# 4 0.000000 0.000000 0.000000 0.025187 0.000000 -0.000567
# 5 0.004975 -0.000354 0.000922 0.000000 0.032309 0.000000
# 6 0.000000 0.000000 0.000000 -0.000567 0.000000 0.038573
#
#
# Mechanical properties :
#
#
# Convention : Reuss Voigt Hill
#
# Bulk Modulus (GPa) = 44.02150 50.69379 47.35765
# Shear Modulus (GPa) = 28.84075 31.69182 30.26628
#
# Velocity S-wave (km/s) = 3.79710 3.98036 3.88981
# Velocity P-wave (km/s) = 6.42114 6.81667 6.62186
#
# Compressibility (1/GPa) = 0.02271617
#
# Stress axis : x y z
#
# Youngs Moduli (GPa) = 50.94946 56.83455 111.13315
#
# Poissons Ratio (x) = 0.34176 0.22759
# Poissons Ratio (y) = 0.30637 0.41019
# Poissons Ratio (z) = 0.10434 0.20977
#
# Static dielectric constant tensor:
#      x y z
#    x 4.599540 0.000000 0.152790 
#    y 0.000000 3.671850 0.000000 
#    z 0.152790 0.000000 3.919930 
# 
# 
# High freq. dielectric constant tensor:
#      x y z
#    x 1.781050 0.000000 0.001910 
#    y 0.000000 1.785250 0.000000 
#    z 0.001910 0.000000 1.797180 
# 
# From -- ./inp_files/67042.got.cif
#   From: 2010.06.25/outbox.cif.g09.slc.cpg/sg11_34_cif.got.tgz:67042.got - 2010.06.27 23:14:04.
