data_PCOD8074405
_publ_section_title
;
Structure prediction by ZEFSAII (Michael W. Deem and Ramdas Pophale) SiO2 
 PCOD8074405
Probable space group: P 21/M
;
_chemical_formula_sum "Si O2"
_cell_formula_units_Z 32
_cell_length_a 14.711909
_cell_length_b 8.579186
_cell_length_c 12.460324
_cell_angle_alpha 90.000000
_cell_angle_beta 90.239135
_cell_angle_gamma 90.000000
_cell_volume 1572.681095
_symmetry_space_group_name_H-M "P 21/M"
_symmetry_group_IT_number 11
_symmetry_cell_setting 'monoclinic'
loop_
_space_group_symop_operation_xyz
x,y,z
-x,1/2+y,-z
-x,-y,-z
x,1/2-y,z
loop_
_atom_site_type_symbol
_atom_site_label
_atom_site_fract_x
_atom_site_fract_y
_atom_site_fract_z
Si Si1 0.290088 0.074031 0.459787
Si Si2 0.223867 0.567300 0.671687
Si Si3 0.297001 0.431655 0.114649
Si Si4 0.318751 0.429831 0.875464
Si Si5 0.846915 0.573303 0.721321
Si Si6 0.022097 0.935490 0.616943
Si Si7 0.495803 0.433044 0.172758
Si Si8 0.536688 0.068610 0.609177
O O1 0.328748 0.250000 0.460454
O O2 0.194571 0.064406 0.398671
O O3 0.283283 0.018401 0.582056
O O4 0.355789 0.964091 0.390148
O O5 0.230961 0.750000 0.650900
O O6 0.263488 0.529384 0.788628
O O7 0.119911 0.508949 0.660905
O O8 0.304889 0.250000 0.145326
O O9 0.217842 0.509639 0.189229
O O10 0.397302 0.502949 0.138466
O O11 0.270646 0.457045 0.990393
O O12 0.315661 0.250000 0.841535
O O13 0.423434 0.482434 0.891394
O O14 0.857796 0.750000 0.760673
O O15 0.947615 0.500693 0.704194
O O16 0.016165 0.750000 0.609944
O O17 0.000000 0.000000 0.500000
O O18 0.503378 0.250000 0.151495
O O19 0.512826 0.473460 0.297149
O O20 0.515237 0.250000 0.622193
O O21 0.500000 0.000000 0.500000
#
# Coordination Sequence:
#
# PCOD8074405 Si02
#       8
#     4   4   4   4   4   4   4   4
#     4  11  20  35  60  84 113 151 191 233 289 347
#     4  11  23  38  56  85 123 156 191 239 293 348
#     4   9  19  37  62  87 113 149 197 243 289 344
#     4  11  23  39  59  84 114 155 201 242 287 343
#     4   9  17  34  60  88 113 143 183 234 289 343
#     4  10  20  35  60  89 117 150 189 235 291 350
#     4  11  21  38  61  86 115 150 194 244 293 344
#     4  12  24  37  53  80 118 155 193 235 287 346
#
# _framework density 20.347418999999999
#
# number of rings (size 3 to 8) (size 9 to 14) (size 15 to 20)
#    0.000    1.500    2.500    3.750    0.000    0.500 
#    0.000    2.500    0.000    0.000    0.000    0.000 
#    0.000    0.000    0.000    0.000    0.000    0.000 
#
# Total GULP energy -396718.079955 kJ/mol
# GULP energy per Si atom -12397.439999 kJ/mol
# Density = 2.030111 g / cm^3
# Si number density = 20.347419 Si / 1000 Ang^3
#
#
#
# Elastic Constant Matrix: (Units=GPa)
#
#
# Indices 1 2 3 4 5 6 
#
# 1 96.3190 10.0187 28.9444 0.0000 -17.7450 0.0000
# 2 10.0187 42.2675 11.4416 0.0000 -2.4169 0.0000
# 3 28.9444 11.4416 98.9505 0.0000 -16.2383 0.0000
# 4 0.0000 0.0000 0.0000 22.9488 0.0000 -0.9661
# 5 -17.7450 -2.4169 -16.2383 0.0000 29.6154 0.0000
# 6 0.0000 0.0000 0.0000 -0.9661 0.0000 20.1974
#
#
#
# Elastic Compliance Matrix: (Units=1/GPa)
#
#
# Indices 1 2 3 4 5 6 
#
# 1 0.012410 -0.001944 -0.002430 0.000000 0.005945 0.000000
# 2 -0.001944 0.024734 -0.002364 0.000000 -0.000442 0.000000
# 3 -0.002430 -0.002364 0.011889 0.000000 0.004870 0.000000
# 4 0.000000 0.000000 0.000000 0.043663 0.000000 0.002088
# 5 0.005945 -0.000442 0.004870 0.000000 0.039962 0.000000
# 6 0.000000 0.000000 0.000000 0.002088 0.000000 0.049611
#
#
# Mechanical properties :
#
#
# Convention : Reuss Voigt Hill
#
# Bulk Modulus (GPa) = 28.12286 37.59405 32.85846
# Shear Modulus (GPa) = 24.08501 27.02782 25.55641
#
# Velocity S-wave (km/s) = 3.44421 3.64856 3.54786
# Velocity P-wave (km/s) = 5.44685 6.02209 5.74167
#
# Compressibility (1/GPa) = 0.03555826
#
# Stress axis : x y z
#
# Youngs Moduli (GPa) = 80.58201 40.42981 84.10882
#
# Poissons Ratio (x) = 0.07859 0.20436
# Poissons Ratio (y) = 0.15664 0.19883
# Poissons Ratio (z) = 0.19579 0.09558
#
# Static dielectric constant tensor:
#      x y z
#    x 4.063710 0.000000 -0.192130 
#    y 0.000000 3.560510 0.000000 
#    z -0.192130 0.000000 3.620470 
# 
# 
# High freq. dielectric constant tensor:
#      x y z
#    x 1.798980 0.000000 -0.011360 
#    y 0.000000 1.769810 0.000000 
#    z -0.011360 0.000000 1.794240 
# 
# From -- ./inp_files/38292.got.cif
#   From: 2010.06.25/outbox.cif.g09.slc.cpg/sg11_20_cif.got.tgz:38292.got - 2010.06.27 23:14:04.
