data_PCOD8074951
_publ_section_title
;
Structure prediction by ZEFSAII (Michael W. Deem and Ramdas Pophale) SiO2 
 PCOD8074951
Probable space group: P 21/M
;
_chemical_formula_sum "Si O2"
_cell_formula_units_Z 32
_cell_length_a 16.286947
_cell_length_b 14.360470
_cell_length_c 11.801626
_cell_angle_alpha 90.000000
_cell_angle_beta 141.786561
_cell_angle_gamma 90.000000
_cell_volume 1707.477457
_symmetry_space_group_name_H-M "P 21/M"
_symmetry_group_IT_number 11
_symmetry_cell_setting 'monoclinic'
loop_
_space_group_symop_operation_xyz
x,y,z
-x,1/2+y,-z
-x,-y,-z
x,1/2-y,z
loop_
_atom_site_type_symbol
_atom_site_label
_atom_site_fract_x
_atom_site_fract_y
_atom_site_fract_z
Si Si1 0.867891 0.481840 0.420015
Si Si2 0.467146 0.149684 0.704881
Si Si3 0.282791 0.358948 0.039038
Si Si4 0.620662 0.567243 0.617475
Si Si5 0.120648 0.003376 0.213127
Si Si6 0.973701 0.359068 0.717947
Si Si7 0.605210 0.003727 0.009124
Si Si8 0.175476 0.145149 0.459582
O O1 0.890406 0.389702 0.518523
O O2 0.852118 0.580153 0.464762
O O3 0.000000 0.500000 0.500000
O O4 0.742602 0.457477 0.206620
O O5 0.538819 0.250000 0.794495
O O6 0.425584 0.139032 0.528756
O O7 0.560781 0.071094 0.858974
O O8 0.333180 0.149876 0.630646
O O9 0.292771 0.250000 0.025127
O O10 0.346602 0.380308 0.230362
O O11 0.363993 0.406771 0.023168
O O12 0.128035 0.390797 0.874616
O O13 0.500000 0.500000 0.500000
O O14 0.743480 0.503822 0.709752
O O15 0.113226 0.097315 0.280417
O O16 0.106575 0.909244 0.269019
O O17 0.000000 0.000000 0.000000
O O18 0.962967 0.250000 0.726882
O O19 0.500000 0.000000 0.000000
O O20 0.115742 0.250000 0.407650
#
# Coordination Sequence:
#
# PCOD8074951 Si02
#       8
#     4   4   4   4   4   4   4   4
#     4  11  22  38  61  85 120 158 204 256 305 358
#     4  10  21  39  63  90 120 159 204 249 301 364
#     4  11  23  40  67  95 121 163 213 255 308 378
#     4  11  21  39  66  91 128 163 198 250 312 370
#     4  10  20  36  62  91 122 158 201 253 306 360
#     4  10  22  40  61  91 125 162 208 259 309 366
#     4  12  24  41  63  92 124 163 206 255 313 368
#     4   9  20  37  60  86 116 158 204 245 299 368
#
# _framework density 18.741095999999999
#
# number of rings (size 3 to 8) (size 9 to 14) (size 15 to 20)
#    0.000    1.500    5.000    0.375    0.000    3.000 
#    0.000    2.500    0.000    0.000    0.000    0.000 
#    0.000    0.000    0.000    0.000    0.000    0.000 
#
# Total GULP energy -396535.663268 kJ/mol
# GULP energy per Si atom -12391.739477 kJ/mol
# Density = 1.869844 g / cm^3
# Si number density = 18.741096 Si / 1000 Ang^3
#
#
#
# Elastic Constant Matrix: (Units=GPa)
#
#
# Indices 1 2 3 4 5 6 
#
# 1 102.4854 33.7124 32.8000 0.0000 3.7095 0.0000
# 2 33.7124 110.5843 39.3351 0.0000 5.8525 0.0000
# 3 32.8000 39.3351 137.1480 0.0000 -6.5338 0.0000
# 4 0.0000 0.0000 0.0000 25.0288 0.0000 5.8841
# 5 3.7095 5.8525 -6.5338 0.0000 28.4705 0.0000
# 6 0.0000 0.0000 0.0000 5.8841 0.0000 20.7311
#
#
#
# Elastic Compliance Matrix: (Units=1/GPa)
#
#
# Indices 1 2 3 4 5 6 
#
# 1 0.011328 -0.002664 -0.002011 0.000000 -0.001390 0.000000
# 2 -0.002664 0.010917 -0.002613 0.000000 -0.002496 0.000000
# 3 -0.002011 -0.002613 0.008654 0.000000 0.002785 0.000000
# 4 0.000000 0.000000 0.000000 0.042811 0.000000 -0.012151
# 5 -0.001390 -0.002496 0.002785 0.000000 0.036458 0.000000
# 6 0.000000 0.000000 0.000000 -0.012151 0.000000 0.051685
#
#
# Mechanical properties :
#
#
# Convention : Reuss Voigt Hill
#
# Bulk Modulus (GPa) = 61.26585 62.43475 61.85030
# Shear Modulus (GPa) = 27.49219 31.13743 29.31481
#
# Velocity S-wave (km/s) = 3.83423 4.08051 3.95929
# Velocity P-wave (km/s) = 7.23625 7.45570 7.34680
#
# Compressibility (1/GPa) = 0.01632231
#
# Stress axis : x y z
#
# Youngs Moduli (GPa) = 88.27734 91.60349 115.54804
#
# Poissons Ratio (x) = 0.24407 0.23239
# Poissons Ratio (y) = 0.23521 0.30189
# Poissons Ratio (z) = 0.17754 0.23933
#
# Static dielectric constant tensor:
#      x y z
#    x 3.372520 0.000000 -0.022200 
#    y 0.000000 3.422820 0.000000 
#    z -0.022200 0.000000 3.701190 
# 
# 
# High freq. dielectric constant tensor:
#      x y z
#    x 1.732630 0.000000 -0.008630 
#    y 0.000000 1.724120 0.000000 
#    z -0.008630 0.000000 1.738030 
# 
# From -- ./inp_files/39698.got.cif
#   From: 2010.06.25/outbox.cif.g09.slc.cpg/sg11_20_cif.got.tgz:39698.got - 2010.06.27 23:14:04.
