data_PCOD8074893
_publ_section_title
;
Structure prediction by ZEFSAII (Michael W. Deem and Ramdas Pophale) SiO2 
 PCOD8074893
Probable space group: P 21/M
;
_chemical_formula_sum "Si O2"
_cell_formula_units_Z 20
_cell_length_a 9.694040
_cell_length_b 13.266340
_cell_length_c 14.183452
_cell_angle_alpha 90.000000
_cell_angle_beta 149.912984
_cell_angle_gamma 90.000000
_cell_volume 914.425413
_symmetry_space_group_name_H-M "P 21/M"
_symmetry_group_IT_number 11
_symmetry_cell_setting 'monoclinic'
loop_
_space_group_symop_operation_xyz
x,y,z
-x,1/2+y,-z
-x,-y,-z
x,1/2-y,z
loop_
_atom_site_type_symbol
_atom_site_label
_atom_site_fract_x
_atom_site_fract_y
_atom_site_fract_z
Si Si1 0.807154 0.134788 0.575213
Si Si2 0.349052 0.463651 0.817697
Si Si3 0.492017 0.363733 0.208443
Si Si4 0.211728 0.866573 0.048272
Si Si5 0.111971 0.552393 0.181297
O O1 0.876910 0.250000 0.640131
O O2 0.543455 0.124187 0.351185
O O3 0.738951 0.077351 0.632225
O O4 0.063180 0.086575 0.672927
O O5 0.301159 0.562748 0.725317
O O6 0.532141 0.381684 0.869867
O O7 0.500000 0.500000 0.000000
O O8 0.557327 0.250000 0.214857
O O9 0.180646 0.390499 0.998639
O O10 0.123613 0.750000 0.999194
O O11 0.296687 0.907751 0.203163
O O12 0.947674 0.932453 0.858726
#
# Coordination Sequence:
#
# PCOD8074893 Si02
#       5
#     4   4   4   4   4
#     4  11  21  37  61  84 113 153 194 235 289 346
#     4  11  21  37  57  84 117 153 192 238 288 339
#     4  10  21  36  60  86 113 151 195 238 284 344
#     4  10  20  36  61  86 115 153 192 237 292 340
#     4  10  21  39  60  85 115 151 190 239 285 345
#
# _framework density 21.871658
#
# number of rings (size 3 to 8) (size 9 to 14) (size 15 to 20)
#    0.000    1.600    4.000    3.000    0.000    0.800 
#    0.000    9.000    0.000    9.600    0.000    0.000 
#    0.000    0.000    0.000    0.000    0.000    0.000 
#
# Total GULP energy -247972.056727 kJ/mol
# GULP energy per Si atom -12398.602836 kJ/mol
# Density = 2.182188 g / cm^3
# Si number density = 21.871658 Si / 1000 Ang^3
#
#
#
# Elastic Constant Matrix: (Units=GPa)
#
#
# Indices 1 2 3 4 5 6 
#
# 1 99.5614 20.1479 10.3612 0.0000 -22.0108 0.0000
# 2 20.1479 163.0458 28.3060 0.0000 -17.2638 0.0000
# 3 10.3612 28.3060 53.5757 0.0000 -25.9860 0.0000
# 4 0.0000 0.0000 0.0000 25.7231 0.0000 -6.7311
# 5 -22.0108 -17.2638 -25.9860 0.0000 38.8374 0.0000
# 6 0.0000 0.0000 0.0000 -6.7311 0.0000 23.7754
#
#
#
# Elastic Compliance Matrix: (Units=1/GPa)
#
#
# Indices 1 2 3 4 5 6 
#
# 1 0.011693 -0.000981 0.001865 0.000000 0.007439 0.000000
# 2 -0.000981 0.006857 -0.003293 0.000000 0.000289 0.000000
# 3 0.001865 -0.003293 0.029383 0.000000 0.019253 0.000000
# 4 0.000000 0.000000 0.000000 0.041986 0.000000 0.011887
# 5 0.007439 0.000289 0.019253 0.000000 0.042975 0.000000
# 6 0.000000 0.000000 0.000000 0.011887 0.000000 0.045426
#
#
# Mechanical properties :
#
#
# Convention : Reuss Voigt Hill
#
# Bulk Modulus (GPa) = 23.19413 48.20147 35.69780
# Shear Modulus (GPa) = 25.31541 34.82504 30.07022
#
# Velocity S-wave (km/s) = 3.40583 3.99462 3.71192
# Velocity P-wave (km/s) = 5.10822 6.58500 5.89305
#
# Compressibility (1/GPa) = 0.04311435
#
# Stress axis : x y z
#
# Youngs Moduli (GPa) = 85.52096 145.84237 34.03366
#
# Poissons Ratio (x) = 0.14308 -0.06347
# Poissons Ratio (y) = 0.08390 0.11207
# Poissons Ratio (z) = -0.15950 0.48025
#
# Static dielectric constant tensor:
#      x y z
#    x 4.159910 0.000000 -0.271520 
#    y 0.000000 4.272890 0.000000 
#    z -0.271520 0.000000 3.838620 
# 
# 
# High freq. dielectric constant tensor:
#      x y z
#    x 1.864020 0.000000 -0.020830 
#    y 0.000000 1.872000 0.000000 
#    z -0.020830 0.000000 1.840660 
# 
# From -- ./inp_files/50098.got.cif
#   From: 2010.06.25/outbox.cif.g09.slc.cpg/sg11_26_cif.got.tgz:50098.got - 2010.06.27 23:14:04.
