data_PCOD8074630
_publ_section_title
;
Structure prediction by ZEFSAII (Michael W. Deem and Ramdas Pophale) SiO2 
 PCOD8074630
Probable space group: P 21/M
;
_chemical_formula_sum "Si O2"
_cell_formula_units_Z 28
_cell_length_a 14.678585
_cell_length_b 8.765054
_cell_length_c 21.041064
_cell_angle_alpha 90.000000
_cell_angle_beta 28.826535
_cell_angle_gamma 90.000000
_cell_volume 1305.260447
_symmetry_space_group_name_H-M "P 21/M"
_symmetry_group_IT_number 11
_symmetry_cell_setting 'monoclinic'
loop_
_space_group_symop_operation_xyz
x,y,z
-x,1/2+y,-z
-x,-y,-z
x,1/2-y,z
loop_
_atom_site_type_symbol
_atom_site_label
_atom_site_fract_x
_atom_site_fract_y
_atom_site_fract_z
Si Si1 0.192454 0.081670 0.892624
Si Si2 0.442184 0.079339 0.616920
Si Si3 0.041241 0.069280 0.405202
Si Si4 0.800598 0.577774 0.450121
Si Si5 0.727773 0.571975 0.023308
Si Si6 0.422032 0.566920 0.113416
Si Si7 0.903097 0.575833 0.251704
O O1 0.136276 0.250000 0.949300
O O2 0.307211 0.082203 0.759224
O O3 0.310123 0.014623 0.881124
O O4 0.000000 0.000000 0.000000
O O5 0.523372 0.250000 0.554308
O O6 0.311309 0.020548 0.637538
O O7 0.602073 0.962075 0.539199
O O8 0.067395 0.250000 0.395740
O O9 0.860426 0.034209 0.470616
O O10 0.000000 0.000000 0.500000
O O11 0.218289 0.994687 0.260453
O O12 0.794350 0.750000 0.480628
O O13 0.941662 0.565030 0.303695
O O14 0.704691 0.750000 0.027259
O O15 0.568564 0.499679 0.075707
O O16 0.940779 0.526672 0.876233
O O17 0.409532 0.750000 0.116426
O O18 0.500000 0.500000 0.000000
O O19 0.922660 0.750000 0.215489
#
# Coordination Sequence:
#
# PCOD8074630 Si02
#       7
#     4   4   4   4   4   4   4
#     4  10  20  36  57  85 120 159 201 250 306 367
#     4  10  21  37  59  88 124 166 207 252 310 371
#     4  12  27  48  71  97 130 171 220 277 338 400
#     4  11  24  41  63  92 124 163 211 260 313 379
#     4  10  22  37  60  91 123 160 202 252 313 376
#     4  11  24  44  69  99 133 172 222 277 333 394
#     4  10  21  38  60  90 128 166 207 255 306 369
#
# _framework density 21.451658999999999
#
# number of rings (size 3 to 8) (size 9 to 14) (size 15 to 20)
#    0.000    1.429    1.429    3.429    2.000    5.714 
#    0.000    0.000    0.000    0.000    0.000    0.000 
#    0.000    0.000    0.000    0.000    0.000    0.000 
#
# Total GULP energy -347016.225328 kJ/mol
# GULP energy per Si atom -12393.436619 kJ/mol
# Density = 2.140283 g / cm^3
# Si number density = 21.451659 Si / 1000 Ang^3
#
#
#
# Elastic Constant Matrix: (Units=GPa)
#
#
# Indices 1 2 3 4 5 6 
#
# 1 158.7204 36.4928 26.5044 0.0000 7.7070 0.0000
# 2 36.4928 76.7960 23.8623 0.0000 6.7250 0.0000
# 3 26.5044 23.8623 61.4723 0.0000 -0.9159 0.0000
# 4 0.0000 0.0000 0.0000 33.0407 0.0000 -2.9328
# 5 7.7070 6.7250 -0.9159 0.0000 33.2690 0.0000
# 6 0.0000 0.0000 0.0000 -2.9328 0.0000 35.1314
#
#
#
# Elastic Compliance Matrix: (Units=1/GPa)
#
#
# Indices 1 2 3 4 5 6 
#
# 1 0.007340 -0.002721 -0.002126 0.000000 -0.001209 0.000000
# 2 -0.002721 0.016155 -0.005139 0.000000 -0.002777 0.000000
# 3 -0.002126 -0.005139 0.019210 0.000000 0.002060 0.000000
# 4 0.000000 0.000000 0.000000 0.030492 0.000000 0.002546
# 5 -0.001209 -0.002777 0.002060 0.000000 0.030956 0.000000
# 6 0.000000 0.000000 0.000000 0.002546 0.000000 0.028677
#
#
# Mechanical properties :
#
#
# Convention : Reuss Voigt Hill
#
# Bulk Modulus (GPa) = 43.99248 52.30085 48.14666
# Shear Modulus (GPa) = 31.17616 34.29684 32.73650
#
# Velocity S-wave (km/s) = 3.81638 4.00283 3.91072
# Velocity P-wave (km/s) = 6.32234 6.76737 6.54863
#
# Compressibility (1/GPa) = 0.02273116
#
# Stress axis : x y z
#
# Youngs Moduli (GPa) = 136.24306 61.90198 52.05677
#
# Poissons Ratio (x) = 0.16845 0.11069
# Poissons Ratio (y) = 0.37076 0.26752
# Poissons Ratio (z) = 0.28969 0.31811
#
# Static dielectric constant tensor:
#      x y z
#    x 4.368020 0.000000 0.114080 
#    y 0.000000 3.915410 0.000000 
#    z 0.114080 0.000000 3.674250 
# 
# 
# High freq. dielectric constant tensor:
#      x y z
#    x 1.870950 0.000000 0.009940 
#    y 0.000000 1.833320 0.000000 
#    z 0.009940 0.000000 1.838320 
# 
# From -- ./inp_files/65387.got.cif
#   From: 2010.06.25/outbox.cif.g09.slc.cpg/sg11_33_cif.got.tgz:65387.got - 2010.06.27 23:14:04.
