data_PCOD8074533
_publ_section_title
;
Structure prediction by ZEFSAII (Michael W. Deem and Ramdas Pophale) SiO2 
 PCOD8074533
Probable space group: P 21/M
;
_chemical_formula_sum "Si O2"
_cell_formula_units_Z 32
_cell_length_a 12.184824
_cell_length_b 9.144075
_cell_length_c 14.536964
_cell_angle_alpha 90.000000
_cell_angle_beta 89.546511
_cell_angle_gamma 90.000000
_cell_volume 1619.642453
_symmetry_space_group_name_H-M "P 21/M"
_symmetry_group_IT_number 11
_symmetry_cell_setting 'monoclinic'
loop_
_space_group_symop_operation_xyz
x,y,z
-x,1/2+y,-z
-x,-y,-z
x,1/2-y,z
loop_
_atom_site_type_symbol
_atom_site_label
_atom_site_fract_x
_atom_site_fract_y
_atom_site_fract_z
Si Si1 0.115936 0.416145 0.792178
Si Si2 0.265543 0.912891 0.651697
Si Si3 0.449174 0.911296 0.788671
Si Si4 0.681601 0.577030 0.713070
Si Si5 0.404807 0.412411 0.953965
Si Si6 0.129896 0.918219 0.176620
Si Si7 0.614606 0.074998 0.526812
Si Si8 0.163510 0.417011 0.995312
O O1 0.157487 0.250000 0.795178
O O2 0.179535 0.490231 0.707811
O O3 0.139503 0.483001 0.893761
O O4 0.986796 0.427395 0.771161
O O5 0.216360 0.750000 0.655223
O O6 0.388494 0.916147 0.691946
O O7 0.288679 0.963193 0.547256
O O8 0.441603 0.750000 0.833338
O O9 0.576062 0.953756 0.777150
O O10 0.383777 0.023529 0.853036
O O11 0.695936 0.750000 0.693601
O O12 0.786523 0.516279 0.766204
O O13 0.664190 0.489607 0.619488
O O14 0.448167 0.250000 0.942155
O O15 0.293948 0.419360 0.013424
O O16 0.500000 0.500000 0.000000
O O17 0.170367 0.750000 0.170215
O O18 0.110583 0.980588 0.073478
O O19 0.596413 0.250000 0.534475
O O20 0.500000 0.000000 0.500000
O O21 0.118678 0.250000 0.003698
#
# Coordination Sequence:
#
# PCOD8074533 Si02
#       8
#     4   4   4   4   4   4   4   4
#     4  10  22  41  62  87 120 156 203 253 296 347
#     4  10  21  38  61  90 120 150 191 241 292 349
#     4  10  20  36  56  82 117 152 189 238 292 347
#     4  11  23  41  62  88 123 160 199 246 301 359
#     4  11  22  34  51  79 116 156 196 237 290 352
#     4  11  24  40  60  88 119 156 203 253 299 352
#     4  11  22  39  63  94 126 157 196 243 296 358
#     4  10  21  38  58  83 116 157 201 247 296 352
#
# _framework density 19.757448
#
# number of rings (size 3 to 8) (size 9 to 14) (size 15 to 20)
#    0.000    1.500    2.500    2.625    0.000    7.500 
#    0.000    0.625    0.000    0.000    0.000    0.000 
#    0.000    0.000    0.000    0.000    0.000    0.000 
#
# Total GULP energy -396746.750283 kJ/mol
# GULP energy per Si atom -12398.335946 kJ/mol
# Density = 1.971248 g / cm^3
# Si number density = 19.757448 Si / 1000 Ang^3
#
#
#
# Elastic Constant Matrix: (Units=GPa)
#
#
# Indices 1 2 3 4 5 6 
#
# 1 79.3784 38.3071 23.0796 0.0000 -12.1336 0.0000
# 2 38.3071 111.1910 49.6996 0.0000 -17.1780 0.0000
# 3 23.0796 49.6996 88.4960 0.0000 -14.3913 0.0000
# 4 0.0000 0.0000 0.0000 37.4191 0.0000 -0.8027
# 5 -12.1336 -17.1780 -14.3913 0.0000 25.3966 0.0000
# 6 0.0000 0.0000 0.0000 -0.8027 0.0000 31.5394
#
#
#
# Elastic Compliance Matrix: (Units=1/GPa)
#
#
# Indices 1 2 3 4 5 6 
#
# 1 0.015572 -0.004307 -0.000998 0.000000 0.003961 0.000000
# 2 -0.004307 0.013739 -0.005966 0.000000 0.003855 0.000000
# 3 -0.000998 -0.005966 0.015616 0.000000 0.004337 0.000000
# 4 0.000000 0.000000 0.000000 0.026739 0.000000 0.000681
# 5 0.003961 0.003855 0.004337 0.000000 0.046333 0.000000
# 6 0.000000 0.000000 0.000000 0.000681 0.000000 0.031724
#
#
# Mechanical properties :
#
#
# Convention : Reuss Voigt Hill
#
# Bulk Modulus (GPa) = 44.67191 55.69310 50.18250
# Shear Modulus (GPa) = 27.82000 30.06961 28.94481
#
# Velocity S-wave (km/s) = 3.75651 3.90543 3.83169
# Velocity P-wave (km/s) = 6.44006 6.97038 6.71046
#
# Compressibility (1/GPa) = 0.02238543
#
# Stress axis : x y z
#
# Youngs Moduli (GPa) = 64.21800 72.78312 64.03634
#
# Poissons Ratio (x) = 0.31345 0.06393
# Poissons Ratio (y) = 0.27656 0.38205
# Poissons Ratio (z) = 0.06412 0.43423
#
# Static dielectric constant tensor:
#      x y z
#    x 3.508870 0.000000 -0.052080 
#    y 0.000000 3.791180 0.000000 
#    z -0.052080 0.000000 3.791060 
# 
# 
# High freq. dielectric constant tensor:
#      x y z
#    x 1.768300 0.000000 -0.002000 
#    y 0.000000 1.774870 0.000000 
#    z -0.002000 0.000000 1.767330 
# 
# From -- ./inp_files/38100.got.cif
#   From: 2010.06.25/outbox.cif.g09.slc.cpg/sg11_20_cif.got.tgz:38100.got - 2010.06.27 23:14:04.
