data_PCOD8074238
_publ_section_title
;
Structure prediction by ZEFSAII (Michael W. Deem and Ramdas Pophale) SiO2 
 PCOD8074238
Probable space group: P 21/M
;
_chemical_formula_sum "Si O2"
_cell_formula_units_Z 32
_cell_length_a 18.613171
_cell_length_b 8.942003
_cell_length_c 14.180828
_cell_angle_alpha 90.000000
_cell_angle_beta 136.360161
_cell_angle_gamma 90.000000
_cell_volume 1628.857952
_symmetry_space_group_name_H-M "P 21/M"
_symmetry_group_IT_number 11
_symmetry_cell_setting 'monoclinic'
loop_
_space_group_symop_operation_xyz
x,y,z
-x,1/2+y,-z
-x,-y,-z
x,1/2-y,z
loop_
_atom_site_type_symbol
_atom_site_label
_atom_site_fract_x
_atom_site_fract_y
_atom_site_fract_z
Si Si1 0.043781 0.074432 0.949225
Si Si2 0.798912 0.927662 0.200340
Si Si3 0.786367 0.427609 0.391397
Si Si4 0.605019 0.923219 0.331945
Si Si5 0.410603 0.079728 0.472217
Si Si6 0.368265 0.578136 0.088499
Si Si7 0.720242 0.920772 0.825273
Si Si8 0.011183 0.927268 0.306023
O O1 0.033912 0.250000 0.954001
O O2 0.983613 0.019075 0.798081
O O3 0.162615 0.025863 0.048069
O O4 0.000000 0.000000 0.000000
O O5 0.798142 0.750000 0.209365
O O6 0.906094 0.987341 0.255731
O O7 0.788202 0.000696 0.291268
O O8 0.700702 0.975705 0.044639
O O9 0.788100 0.250000 0.383857
O O10 0.681845 0.476646 0.344046
O O11 0.887019 0.488307 0.543982
O O12 0.640328 0.750000 0.362274
O O13 0.609207 0.987729 0.442947
O O14 0.489773 0.941979 0.179009
O O15 0.446120 0.250000 0.519613
O O16 0.306150 0.064159 0.310651
O O17 0.500000 0.000000 0.500000
O O18 0.334242 0.750000 0.044987
O O19 0.353640 0.526894 0.182859
O O20 0.704878 0.750000 0.844949
O O21 0.007911 0.750000 0.305619
#
# Coordination Sequence:
#
# PCOD8074238 Si02
#       8
#     4   4   4   4   4   4   4   4
#     4  10  21  38  57  86 122 158 195 237 290 349
#     4  11  22  42  68  89 116 154 193 246 310 363
#     4  11  24  41  62  90 119 153 200 250 297 356
#     4  10  23  41  58  85 125 163 198 244 299 353
#     4  10  20  35  57  85 116 154 198 239 283 343
#     4  11  22  38  62  90 120 154 202 253 293 350
#     4  10  20  36  59  84 118 160 200 242 296 356
#     4   9  20  40  63  87 121 157 194 242 296 353
#
# _framework density 19.645667
#
# number of rings (size 3 to 8) (size 9 to 14) (size 15 to 20)
#    0.000    1.750    2.500    1.500    1.750    2.500 
#    0.000    2.500    0.000    0.000    0.000    0.000 
#    0.000    0.000    0.000    0.000    0.000    0.000 
#
# Total GULP energy -396850.150509 kJ/mol
# GULP energy per Si atom -12401.567203 kJ/mol
# Density = 1.960095 g / cm^3
# Si number density = 19.645667 Si / 1000 Ang^3
#
#
#
# Elastic Constant Matrix: (Units=GPa)
#
#
# Indices 1 2 3 4 5 6 
#
# 1 136.4559 46.3592 59.6534 0.0000 -14.6741 0.0000
# 2 46.3592 61.9786 32.3394 0.0000 1.0703 0.0000
# 3 59.6534 32.3394 115.0662 0.0000 -3.9140 0.0000
# 4 0.0000 0.0000 0.0000 28.1242 0.0000 -3.6914
# 5 -14.6741 1.0703 -3.9140 0.0000 33.9191 0.0000
# 6 0.0000 0.0000 0.0000 -3.6914 0.0000 33.2446
#
#
#
# Elastic Compliance Matrix: (Units=1/GPa)
#
#
# Indices 1 2 3 4 5 6 
#
# 1 0.012009 -0.006922 -0.004112 0.000000 0.004939 0.000000
# 2 -0.006922 0.022947 -0.002999 0.000000 -0.004065 0.000000
# 3 -0.004112 -0.002999 0.011654 0.000000 -0.000340 0.000000
# 4 0.000000 0.000000 0.000000 0.036082 0.000000 0.004006
# 5 0.004939 -0.004065 -0.000340 0.000000 0.031708 0.000000
# 6 0.000000 0.000000 0.000000 0.004006 0.000000 0.030525
#
#
# Mechanical properties :
#
#
# Convention : Reuss Voigt Hill
#
# Bulk Modulus (GPa) = 53.92780 65.57830 59.75305
# Shear Modulus (GPa) = 27.90594 30.73416 29.32005
#
# Velocity S-wave (km/s) = 3.77299 3.95957 3.86741
# Velocity P-wave (km/s) = 6.81839 7.37274 7.10098
#
# Compressibility (1/GPa) = 0.01854331
#
# Stress axis : x y z
#
# Youngs Moduli (GPa) = 83.27101 43.57811 85.80823
#
# Poissons Ratio (x) = 0.30165 0.35287
# Poissons Ratio (y) = 0.57641 0.25734
# Poissons Ratio (z) = 0.34244 0.13069
#
# Static dielectric constant tensor:
#      x y z
#    x 3.535600 0.000000 -0.074570 
#    y 0.000000 3.430260 0.000000 
#    z -0.074570 0.000000 3.939450 
# 
# 
# High freq. dielectric constant tensor:
#      x y z
#    x 1.764130 0.000000 -0.003610 
#    y 0.000000 1.751110 0.000000 
#    z -0.003610 0.000000 1.784230 
# 
# From -- ./inp_files/54299.got.cif
#   From: 2010.06.25/outbox.cif.g09.slc.cpg/sg11_28_cif.got.tgz:54299.got - 2010.06.27 23:14:04.
