data_PCOD8074278
_publ_section_title
;
Structure prediction by ZEFSAII (Michael W. Deem and Ramdas Pophale) SiO2 
 PCOD8074278
Probable space group: P 21/M
;
_chemical_formula_sum "Si O2"
_cell_formula_units_Z 32
_cell_length_a 12.621558
_cell_length_b 8.816667
_cell_length_c 32.215301
_cell_angle_alpha 90.000000
_cell_angle_beta 27.361594
_cell_angle_gamma 90.000000
_cell_volume 1647.646106
_symmetry_space_group_name_H-M "P 21/M"
_symmetry_group_IT_number 11
_symmetry_cell_setting 'monoclinic'
loop_
_space_group_symop_operation_xyz
x,y,z
-x,1/2+y,-z
-x,-y,-z
x,1/2-y,z
loop_
_atom_site_type_symbol
_atom_site_label
_atom_site_fract_x
_atom_site_fract_y
_atom_site_fract_z
Si Si1 0.762885 0.072593 0.572870
Si Si2 0.206205 0.925846 0.708353
Si Si3 0.219843 0.429112 0.196282
Si Si4 0.140502 0.430446 0.819431
Si Si5 0.515898 0.929570 0.733777
Si Si6 0.877621 0.569853 0.678361
Si Si7 0.310266 0.076083 0.487489
Si Si8 0.385827 0.572023 0.999942
O O1 0.787621 0.250000 0.563301
O O2 0.587381 0.020103 0.668228
O O3 0.691221 0.013415 0.554055
O O4 0.000000 0.000000 0.500000
O O5 0.175807 0.750000 0.731673
O O6 0.413158 0.938271 0.601291
O O7 0.981565 0.993410 0.763398
O O8 0.243144 0.017086 0.738730
O O9 0.190904 0.250000 0.208720
O O10 0.198562 0.493480 0.250367
O O11 0.467730 0.477172 0.091702
O O12 0.171958 0.250000 0.812008
O O13 0.250852 0.512476 0.822754
O O14 0.875113 0.482599 0.914494
O O15 0.534018 0.750000 0.722368
O O16 0.675245 0.983428 0.716834
O O17 0.900218 0.750000 0.668705
O O18 0.132231 0.502304 0.581020
O O19 0.232031 0.250000 0.510312
O O20 0.398653 0.750000 0.001792
O O21 0.500000 0.500000 0.000000
#
# Coordination Sequence:
#
# PCOD8074278 Si02
#       8
#     4   4   4   4   4   4   4   4
#     4  12  22  33  53  81 113 150 193 242 288 336
#     4  10  20  35  58  84 115 151 189 231 287 351
#     4   9  19  39  62  83 111 152 194 237 288 350
#     4  11  22  34  55  90 121 145 184 241 299 347
#     4  11  22  36  55  81 114 154 198 241 287 339
#     4  10  22  39  59  79 109 158 206 237 279 342
#     4  11  22  34  53  84 118 153 194 238 286 338
#     4  10  20  36  62  91 116 145 186 236 295 351
#
# _framework density 19.421645999999999
#
# number of rings (size 3 to 8) (size 9 to 14) (size 15 to 20)
#    0.000    1.500    3.750    2.250    0.000    2.000 
#    0.000    1.875    0.000    0.000    0.000    0.000 
#    0.000    0.000    0.000    0.000    0.000    0.000 
#
# Total GULP energy -396426.894652 kJ/mol
# GULP energy per Si atom -12388.340458 kJ/mol
# Density = 1.937744 g / cm^3
# Si number density = 19.421646 Si / 1000 Ang^3
#
#
#
# Elastic Constant Matrix: (Units=GPa)
#
#
# Indices 1 2 3 4 5 6 
#
# 1 81.8497 18.0811 43.8795 0.0000 0.9909 0.0000
# 2 18.0811 60.6783 23.9756 0.0000 -1.7129 0.0000
# 3 43.8795 23.9756 133.7853 0.0000 -2.7613 0.0000
# 4 0.0000 0.0000 0.0000 19.5880 0.0000 5.6577
# 5 0.9909 -1.7129 -2.7613 0.0000 35.8900 0.0000
# 6 0.0000 0.0000 0.0000 5.6577 0.0000 3.5669
#
#
#
# Elastic Compliance Matrix: (Units=1/GPa)
#
#
# Indices 1 2 3 4 5 6 
#
# 1 0.015272 -0.002787 -0.004528 0.000000 -0.000903 0.000000
# 2 -0.002787 0.018258 -0.002342 0.000000 0.000768 0.000000
# 3 -0.004528 -0.002342 0.009395 0.000000 0.000736 0.000000
# 4 0.000000 0.000000 0.000000 0.094215 0.000000 -0.149441
# 5 -0.000903 0.000768 0.000736 0.000000 0.027981 0.000000
# 6 0.000000 0.000000 0.000000 -0.149441 0.000000 0.517397
#
#
# Mechanical properties :
#
#
# Convention : Reuss Voigt Hill
#
# Bulk Modulus (GPa) = 42.35489 49.79843 46.07666
# Shear Modulus (GPa) = 7.04522 24.50078 15.77300
#
# Velocity S-wave (km/s) = 1.90667 3.55564 2.85289
# Velocity P-wave (km/s) = 5.16746 6.52328 5.88454
#
# Compressibility (1/GPa) = 0.02361003
#
# Stress axis : x y z
#
# Youngs Moduli (GPa) = 65.48110 54.77073 106.44303
#
# Poissons Ratio (x) = 0.15265 0.48198
# Poissons Ratio (y) = 0.18250 0.24929
# Poissons Ratio (z) = 0.29650 0.12828
#
# Static dielectric constant tensor:
#      x y z
#    x 3.718920 0.000000 -0.339650 
#    y 0.000000 3.468360 0.000000 
#    z -0.339650 0.000000 3.942600 
# 
# 
# High freq. dielectric constant tensor:
#      x y z
#    x 1.750790 0.000000 -0.022280 
#    y 0.000000 1.744920 0.000000 
#    z -0.022280 0.000000 1.762840 
# 
# From -- ./inp_files/65218.got.cif
#   From: 2010.06.25/outbox.cif.g09.slc.cpg/sg11_33_cif.got.tgz:65218.got - 2010.06.27 23:14:04.
