data_PCOD8074234
_publ_section_title
;
Structure prediction by ZEFSAII (Michael W. Deem and Ramdas Pophale) SiO2 
 PCOD8074234
Probable space group: P 21/M
;
_chemical_formula_sum "Si O2"
_cell_formula_units_Z 32
_cell_length_a 25.191258
_cell_length_b 8.862464
_cell_length_c 20.560899
_cell_angle_alpha 90.000000
_cell_angle_beta 157.786559
_cell_angle_gamma 90.000000
_cell_volume 1735.420985
_symmetry_space_group_name_H-M "P 21/M"
_symmetry_group_IT_number 11
_symmetry_cell_setting 'monoclinic'
loop_
_space_group_symop_operation_xyz
x,y,z
-x,1/2+y,-z
-x,-y,-z
x,1/2-y,z
loop_
_atom_site_type_symbol
_atom_site_label
_atom_site_fract_x
_atom_site_fract_y
_atom_site_fract_z
Si Si1 0.924014 0.576402 0.108301
Si Si2 0.372897 0.076191 0.179210
Si Si3 0.654007 0.074287 0.352432
Si Si4 0.911955 0.927497 0.590743
Si Si5 0.342533 0.428323 0.503820
Si Si6 0.337463 0.076901 0.991236
Si Si7 0.074320 0.572792 0.145373
Si Si8 0.928659 0.072895 0.357370
O O1 0.956415 0.750000 0.163584
O O2 0.999096 0.469921 0.245127
O O3 0.978908 0.535298 0.099532
O O4 0.756417 0.546919 0.918848
O O5 0.422618 0.250000 0.235427
O O6 0.504412 0.974623 0.349985
O O7 0.323405 0.030734 0.050731
O O8 0.682285 0.250000 0.397105
O O9 0.760848 0.009499 0.420237
O O10 0.681653 0.990568 0.451454
O O11 0.496551 0.046478 0.147928
O O12 0.887471 0.750000 0.561922
O O13 0.991791 0.983886 0.617018
O O14 0.327802 0.250000 0.487710
O O15 0.226961 0.498508 0.325211
O O16 0.294419 0.250000 0.932039
O O17 0.234052 0.975311 0.831133
O O18 0.092005 0.750000 0.154810
O O19 0.000000 0.500000 0.000000
O O20 0.937262 0.250000 0.374734
O O21 0.000000 0.000000 0.500000
#
# Coordination Sequence:
#
# PCOD8074234 Si02
#       8
#     4   4   4   4   4   4   4   4
#     4  10  20  36  60  85 112 149 193 234 283 341
#     4   9  18  34  57  85 113 146 187 235 284 338
#     4  10  20  35  57  85 114 149 189 231 283 339
#     4  11  22  35  56  88 117 144 189 241 285 333
#     4  11  21  34  55  85 117 150 187 234 285 337
#     4   9  18  34  57  83 112 146 187 231 282 338
#     4  11  23  39  59  84 116 155 194 235 286 346
#     4  11  24  39  57  83 116 153 191 232 283 343
#
# _framework density 18.439330999999999
#
# number of rings (size 3 to 8) (size 9 to 14) (size 15 to 20)
#    0.000    1.750    2.500    3.375    0.000    5.000 
#    0.000    1.250    0.000    0.000    0.000    0.000 
#    0.000    0.000    0.000    0.000    0.000    0.000 
#
# Total GULP energy -396916.044490 kJ/mol
# GULP energy per Si atom -12403.626390 kJ/mol
# Density = 1.839736 g / cm^3
# Si number density = 18.439331 Si / 1000 Ang^3
#
#
#
# Elastic Constant Matrix: (Units=GPa)
#
#
# Indices 1 2 3 4 5 6 
#
# 1 88.5889 48.1506 64.1674 0.0000 5.1958 0.0000
# 2 48.1506 103.0971 64.7822 0.0000 -1.5151 0.0000
# 3 64.1674 64.7822 147.3789 0.0000 3.2129 0.0000
# 4 0.0000 0.0000 0.0000 37.2201 0.0000 0.8553
# 5 5.1958 -1.5151 3.2129 0.0000 29.9578 0.0000
# 6 0.0000 0.0000 0.0000 0.8553 0.0000 26.1863
#
#
#
# Elastic Compliance Matrix: (Units=1/GPa)
#
#
# Indices 1 2 3 4 5 6 
#
# 1 0.018310 -0.005004 -0.005711 0.000000 -0.002816 0.000000
# 2 -0.005004 0.014820 -0.004381 0.000000 0.002087 0.000000
# 3 -0.005711 -0.004381 0.011207 0.000000 -0.000433 0.000000
# 4 0.000000 0.000000 0.000000 0.026887 0.000000 -0.000878
# 5 -0.002816 0.002087 -0.000433 0.000000 0.034021 0.000000
# 6 0.000000 0.000000 0.000000 -0.000878 0.000000 0.038217
#
#
# Mechanical properties :
#
#
# Convention : Reuss Voigt Hill
#
# Bulk Modulus (GPa) = 70.69891 77.02950 73.86420
# Shear Modulus (GPa) = 28.03172 29.47047 28.75110
#
# Velocity S-wave (km/s) = 3.90322 4.00214 3.95299
# Velocity P-wave (km/s) = 7.66408 7.95119 7.80895
#
# Compressibility (1/GPa) = 0.01414449
#
# Stress axis : x y z
#
# Youngs Moduli (GPa) = 54.61570 67.47426 89.23090
#
# Poissons Ratio (x) = 0.33767 0.50958
# Poissons Ratio (y) = 0.27332 0.39094
# Poissons Ratio (z) = 0.31190 0.29562
#
# Static dielectric constant tensor:
#      x y z
#    x 3.367280 0.000000 0.269770 
#    y 0.000000 3.455740 0.000000 
#    z 0.269770 0.000000 3.416050 
# 
# 
# High freq. dielectric constant tensor:
#      x y z
#    x 1.697340 0.000000 0.023120 
#    y 0.000000 1.721360 0.000000 
#    z 0.023120 0.000000 1.718740 
# 
# From -- ./inp_files/67206.got.cif
#   From: 2010.06.25/outbox.cif.g09.slc.cpg/sg11_34_cif.got.tgz:67206.got - 2010.06.27 23:14:04.
