data_PCOD8074491
_publ_section_title
;
Structure prediction by ZEFSAII (Michael W. Deem and Ramdas Pophale) SiO2 
 PCOD8074491
Probable space group: P 21/M
;
_chemical_formula_sum "Si O2"
_cell_formula_units_Z 28
_cell_length_a 26.621329
_cell_length_b 9.670180
_cell_length_c 9.016007
_cell_angle_alpha 90.000000
_cell_angle_beta 39.749497
_cell_angle_gamma 90.000000
_cell_volume 1484.133844
_symmetry_space_group_name_H-M "P 21/M"
_symmetry_group_IT_number 11
_symmetry_cell_setting 'monoclinic'
loop_
_space_group_symop_operation_xyz
x,y,z
-x,1/2+y,-z
-x,-y,-z
x,1/2-y,z
loop_
_atom_site_type_symbol
_atom_site_label
_atom_site_fract_x
_atom_site_fract_y
_atom_site_fract_z
Si Si1 0.989439 0.910187 0.670737
Si Si2 0.465599 0.096148 0.201406
Si Si3 0.270661 0.912108 0.019274
Si Si4 0.557641 0.402641 0.283671
Si Si5 0.866568 0.088497 0.448002
Si Si6 0.293911 0.410217 0.686009
Si Si7 0.846603 0.591843 0.202668
O O1 0.997821 0.750000 0.605677
O O2 0.054179 0.950340 0.645930
O O3 0.905346 0.942480 0.934183
O O4 0.000000 0.000000 0.500000
O O5 0.451235 0.250000 0.169821
O O6 0.533606 0.098897 0.168195
O O7 0.382742 0.038869 0.451682
O O8 0.500000 0.000000 0.000000
O O9 0.264366 0.750000 0.995572
O O10 0.205506 0.957032 0.285085
O O11 0.353373 0.954408 0.904798
O O12 0.257730 0.997764 0.898869
O O13 0.500000 0.500000 0.500000
O O14 0.549786 0.250000 0.371608
O O15 0.862642 0.250000 0.417319
O O16 0.863399 0.005987 0.302450
O O17 0.293295 0.250000 0.737792
O O18 0.241481 0.432296 0.658179
O O19 0.858578 0.750000 0.227563
#
# Coordination Sequence:
#
# PCOD8074491 Si02
#       7
#     4   4   4   4   4   4   4
#     4  10  21  38  60  86 114 145 183 224 268 323
#     4  10  22  37  54  78 109 143 182 227 274 325
#     4  10  21  36  56  82 109 141 184 227 271 326
#     4  10  20  36  56  79 107 141 182 228 274 322
#     4  10  22  38  57  84 115 145 181 225 271 322
#     4  10  21  38  56  79 110 144 183 227 272 323
#     4  10  22  38  57  83 114 146 183 224 269 323
#
# _framework density 18.866223000000002
#
# number of rings (size 3 to 8) (size 9 to 14) (size 15 to 20)
#    0.000    2.000    1.429    1.286    2.000    3.429 
#    0.000    0.000    0.000    0.000    0.000    0.000 
#    0.000    0.000    0.000    0.000    0.000    0.000 
#
# Total GULP energy -347266.300328 kJ/mol
# GULP energy per Si atom -12402.367869 kJ/mol
# Density = 1.882328 g / cm^3
# Si number density = 18.866223 Si / 1000 Ang^3
#
#
#
# Elastic Constant Matrix: (Units=GPa)
#
#
# Indices 1 2 3 4 5 6 
#
# 1 101.7547 42.2799 35.0604 0.0000 2.5764 0.0000
# 2 42.2799 72.8601 46.9310 0.0000 18.2626 0.0000
# 3 35.0604 46.9310 87.4333 0.0000 7.4603 0.0000
# 4 0.0000 0.0000 0.0000 37.3005 0.0000 9.6358
# 5 2.5764 18.2626 7.4603 0.0000 35.4133 0.0000
# 6 0.0000 0.0000 0.0000 9.6358 0.0000 33.8703
#
#
#
# Elastic Compliance Matrix: (Units=1/GPa)
#
#
# Indices 1 2 3 4 5 6 
#
# 1 0.013452 -0.007601 -0.001594 0.000000 0.003277 0.000000
# 2 -0.007601 0.028204 -0.011097 0.000000 -0.011654 0.000000
# 3 -0.001594 -0.011097 0.017856 0.000000 0.002077 0.000000
# 4 0.000000 0.000000 0.000000 0.028936 0.000000 -0.008232
# 5 0.003277 -0.011654 0.002077 0.000000 0.033572 0.000000
# 6 0.000000 0.000000 0.000000 -0.008232 0.000000 0.031866
#
#
# Mechanical properties :
#
#
# Convention : Reuss Voigt Hill
#
# Bulk Modulus (GPa) = 52.82896 56.73229 54.78062
# Shear Modulus (GPa) = 24.90300 30.50193 27.70246
#
# Velocity S-wave (km/s) = 3.63709 4.02524 3.83608
# Velocity P-wave (km/s) = 6.76022 7.19302 6.97998
#
# Compressibility (1/GPa) = 0.01892901
#
# Stress axis : x y z
#
# Youngs Moduli (GPa) = 74.33877 35.45547 56.00456
#
# Poissons Ratio (x) = 0.26948 0.08928
# Poissons Ratio (y) = 0.56501 0.62148
# Poissons Ratio (z) = 0.11850 0.39345
#
# Static dielectric constant tensor:
#      x y z
#    x 2.472140 0.000000 0.558920 
#    y 0.000000 3.462740 0.000000 
#    z 0.558920 0.000000 2.868220 
# 
# 
# High freq. dielectric constant tensor:
#      x y z
#    x 1.742930 0.000000 -0.014340 
#    y 0.000000 1.730300 0.000000 
#    z -0.014340 0.000000 1.735250 
# 
# From -- ./inp_files/28399.got.cif
#   From: 2010.06.25/outbox.cif.g09.slc.cpg/sg11_15_cif.got.tgz:28399.got - 2010.06.27 23:14:04.
