data_PCOD8074056
_publ_section_title
;
Structure prediction by ZEFSAII (Michael W. Deem and Ramdas Pophale) SiO2 
 PCOD8074056
Probable space group: P 21/M
;
_chemical_formula_sum "Si O2"
_cell_formula_units_Z 28
_cell_length_a 10.009745
_cell_length_b 9.325520
_cell_length_c 29.721393
_cell_angle_alpha 90.000000
_cell_angle_beta 33.899546
_cell_angle_gamma 90.000000
_cell_volume 1547.376088
_symmetry_space_group_name_H-M "P 21/M"
_symmetry_group_IT_number 11
_symmetry_cell_setting 'monoclinic'
loop_
_space_group_symop_operation_xyz
x,y,z
-x,1/2+y,-z
-x,-y,-z
x,1/2-y,z
loop_
_atom_site_type_symbol
_atom_site_label
_atom_site_fract_x
_atom_site_fract_y
_atom_site_fract_z
Si Si1 0.048081 0.083820 0.845643
Si Si2 0.951208 0.915941 0.404378
Si Si3 0.423206 0.417116 0.415276
Si Si4 0.920924 0.081458 0.321699
Si Si5 0.575226 0.084483 0.675450
Si Si6 0.651888 0.916083 0.994032
Si Si7 0.220578 0.587549 0.171769
O O1 0.016256 0.250000 0.867176
O O2 0.324381 0.035905 0.767604
O O3 0.934314 0.049483 0.828962
O O4 0.914598 0.989503 0.921570
O O5 0.909099 0.750000 0.403481
O O6 0.222408 0.943596 0.344116
O O7 0.771068 0.964972 0.493765
O O8 0.894507 0.013410 0.377827
O O9 0.402290 0.250000 0.410876
O O10 0.686041 0.458817 0.359034
O O11 0.363194 0.497871 0.386347
O O12 0.954840 0.250000 0.317749
O O13 0.151054 0.017739 0.231631
O O14 0.561975 0.250000 0.664846
O O15 0.675548 0.750000 0.973470
O O16 0.505494 0.930314 0.081874
O O17 0.500000 0.000000 0.000000
O O18 0.165266 0.750000 0.202465
#
# Coordination Sequence:
#
# PCOD8074056 Si02
#       7
#     4   4   4   4   4   4   4
#     4   9  17  30  49  76 105 133 169 210 258 309
#     4  10  22  38  54  74 105 142 177 215 263 314
#     4  10  21  36  54  79 105 134 176 222 265 310
#     4  11  22  34  52  78 106 137 176 218 261 308
#     4  10  20  35  56  79 104 139 177 214 260 315
#     4   9  17  28  46  74 105 135 168 208 256 305
#     4   9  17  31  50  73 103 136 169 208 256 308
#
# _framework density 18.095147999999998
#
# number of rings (size 3 to 8) (size 9 to 14) (size 15 to 20)
#    0.000    2.286    1.429    2.571    0.000    5.143 
#    0.000    0.000    0.000    0.857    0.000    0.000 
#    0.000    0.000    0.000    0.000    0.000    0.000 
#
# Total GULP energy -347199.992039 kJ/mol
# GULP energy per Si atom -12399.999716 kJ/mol
# Density = 1.805396 g / cm^3
# Si number density = 18.095148 Si / 1000 Ang^3
#
#
#
# Elastic Constant Matrix: (Units=GPa)
#
#
# Indices 1 2 3 4 5 6 
#
# 1 17.6851 17.2953 4.6063 0.0000 2.9068 0.0000
# 2 17.2953 70.8884 40.6960 0.0000 -1.3042 0.0000
# 3 4.6063 40.6960 108.0676 0.0000 -12.3200 0.0000
# 4 0.0000 0.0000 0.0000 37.2719 0.0000 6.2363
# 5 2.9068 -1.3042 -12.3200 0.0000 8.7879 0.0000
# 6 0.0000 0.0000 0.0000 6.2363 0.0000 21.2717
#
#
#
# Elastic Compliance Matrix: (Units=1/GPa)
#
#
# Indices 1 2 3 4 5 6 
#
# 1 0.081551 -0.021136 0.001251 0.000000 -0.028358 0.000000
# 2 -0.021136 0.023977 -0.008243 0.000000 -0.001007 0.000000
# 3 0.001251 -0.008243 0.014423 0.000000 0.018583 0.000000
# 4 0.000000 0.000000 0.000000 0.028214 0.000000 -0.008272
# 5 -0.028358 -0.001007 0.018583 0.000000 0.149076 0.000000
# 6 0.000000 0.000000 0.000000 -0.008272 0.000000 0.049436
#
#
# Mechanical properties :
#
#
# Convention : Reuss Voigt Hill
#
# Bulk Modulus (GPa) = 15.70034 35.75959 25.72996
# Shear Modulus (GPa) = 11.78783 22.40251 17.09517
#
# Velocity S-wave (km/s) = 2.55509 3.52240 3.07699
# Velocity P-wave (km/s) = 4.17134 6.02892 5.18401
#
# Compressibility (1/GPa) = 0.06369290
#
# Stress axis : x y z
#
# Youngs Moduli (GPa) = 12.26229 41.70607 69.33425
#
# Poissons Ratio (x) = 0.88152 -0.08671
# Poissons Ratio (y) = 0.25918 0.57154
# Poissons Ratio (z) = -0.01533 0.34379
#
# Static dielectric constant tensor:
#      x y z
#    x 3.009690 0.000000 -0.240290 
#    y 0.000000 3.381080 0.000000 
#    z -0.240290 0.000000 3.840820 
# 
# 
# High freq. dielectric constant tensor:
#      x y z
#    x 1.660520 0.000000 -0.010090 
#    y 0.000000 1.703120 0.000000 
#    z -0.010090 0.000000 1.719460 
# 
# From -- ./inp_files/28265.got.cif
#   From: 2010.06.25/outbox.cif.g09.slc.cpg/sg11_15_cif.got.tgz:28265.got - 2010.06.27 23:14:04.
