data_PCOD8074773
_publ_section_title
;
Structure prediction by ZEFSAII (Michael W. Deem and Ramdas Pophale) SiO2 
 PCOD8074773
Probable space group: P 21/M
;
_chemical_formula_sum "Si O2"
_cell_formula_units_Z 32
_cell_length_a 11.167612
_cell_length_b 9.103786
_cell_length_c 15.187990
_cell_angle_alpha 90.000000
_cell_angle_beta 92.660628
_cell_angle_gamma 90.000000
_cell_volume 1542.461176
_symmetry_space_group_name_H-M "P 21/M"
_symmetry_group_IT_number 11
_symmetry_cell_setting 'monoclinic'
loop_
_space_group_symop_operation_xyz
x,y,z
-x,1/2+y,-z
-x,-y,-z
x,1/2-y,z
loop_
_atom_site_type_symbol
_atom_site_label
_atom_site_fract_x
_atom_site_fract_y
_atom_site_fract_z
Si Si1 0.894241 0.421871 0.052367
Si Si2 0.628974 0.075366 0.979677
Si Si3 0.980443 0.913269 0.409102
Si Si4 0.362371 0.418195 0.723400
Si Si5 0.244317 0.587517 0.377384
Si Si6 0.380208 0.417004 0.519493
Si Si7 0.377989 0.923431 0.216512
Si Si8 0.140487 0.919736 0.752907
O O1 0.900231 0.250000 0.029074
O O2 0.926903 0.450258 0.156662
O O3 0.754171 0.474309 0.032084
O O4 0.000000 0.500000 0.000000
O O5 0.608748 0.250000 0.988519
O O6 0.658385 0.024054 0.881239
O O7 0.500000 0.000000 0.000000
O O8 0.927248 0.750000 0.427692
O O9 0.104130 0.896390 0.362449
O O10 0.000000 0.000000 0.500000
O O11 0.899880 0.993291 0.334784
O O12 0.341939 0.250000 0.752732
O O13 0.345240 0.434486 0.618956
O O14 0.490334 0.478967 0.756075
O O15 0.275562 0.526293 0.773252
O O16 0.303265 0.750000 0.393623
O O17 0.270849 0.485521 0.461667
O O18 0.290867 0.511844 0.288909
O O19 0.500000 0.500000 0.500000
O O20 0.398275 0.250000 0.492326
O O21 0.370936 0.750000 0.221725
O O22 0.135079 0.750000 0.728127
#
# Coordination Sequence:
#
# PCOD8074773 Si02
#       8
#     4   4   4   4   4   4   4   4
#     4  10  24  43  65  95 130 169 215 267 321 382
#     4  10  21  39  65  92 123 160 204 259 318 376
#     4  11  24  41  65  91 120 161 206 252 305 366
#     4  10  20  36  59  86 117 156 204 249 300 368
#     4  10  21  38  58  83 113 150 199 247 297 357
#     4  11  21  34  54  82 119 158 196 244 296 357
#     4   9  18  35  59  86 115 149 192 247 302 361
#     4  11  24  41  61  89 128 164 204 257 306 365
#
# _framework density 20.746065999999999
#
# number of rings (size 3 to 8) (size 9 to 14) (size 15 to 20)
#    0.000    1.750    1.250    2.625    1.750    5.500 
#    0.000    0.625    0.000    0.000    0.000    0.000 
#    0.000    0.000    0.000    0.000    0.000    0.000 
#
# Total GULP energy -396516.078553 kJ/mol
# GULP energy per Si atom -12391.127455 kJ/mol
# Density = 2.069885 g / cm^3
# Si number density = 20.746066 Si / 1000 Ang^3
#
#
#
# Elastic Constant Matrix: (Units=GPa)
#
#
# Indices 1 2 3 4 5 6 
#
# 1 99.4472 35.9246 34.4313 0.0000 -3.3838 0.0000
# 2 35.9246 94.3625 47.3463 0.0000 -5.5333 0.0000
# 3 34.4313 47.3463 113.2070 0.0000 10.3632 0.0000
# 4 0.0000 0.0000 0.0000 28.4384 0.0000 -2.5271
# 5 -3.3838 -5.5333 10.3632 0.0000 23.9848 0.0000
# 6 0.0000 0.0000 0.0000 -2.5271 0.0000 30.4166
#
#
#
# Elastic Compliance Matrix: (Units=1/GPa)
#
#
# Indices 1 2 3 4 5 6 
#
# 1 0.012175 -0.003241 -0.002536 0.000000 0.002066 0.000000
# 2 -0.003241 0.015081 -0.005829 0.000000 0.005540 0.000000
# 3 -0.002536 -0.005829 0.012701 0.000000 -0.007190 0.000000
# 4 0.000000 0.000000 0.000000 0.035425 0.000000 0.002943
# 5 0.002066 0.005540 -0.007190 0.000000 0.046369 0.000000
# 6 0.000000 0.000000 0.000000 0.002943 0.000000 0.033121
#
#
# Mechanical properties :
#
#
# Convention : Reuss Voigt Hill
#
# Bulk Modulus (GPa) = 59.72354 60.26901 59.99628
# Shear Modulus (GPa) = 27.22329 29.18891 28.20610
#
# Velocity S-wave (km/s) = 3.62638 3.75502 3.69126
# Velocity P-wave (km/s) = 6.81062 6.92200 6.86654
#
# Compressibility (1/GPa) = 0.01674382
#
# Stress axis : x y z
#
# Youngs Moduli (GPa) = 82.13570 66.30969 78.73599
#
# Poissons Ratio (x) = 0.21493 0.19971
# Poissons Ratio (y) = 0.26623 0.45891
# Poissons Ratio (z) = 0.20833 0.38649
#
# Static dielectric constant tensor:
#      x y z
#    x 3.964900 0.000000 -0.013650 
#    y 0.000000 3.459280 0.000000 
#    z -0.013650 0.000000 3.893940 
# 
# 
# High freq. dielectric constant tensor:
#      x y z
#    x 1.821110 0.000000 -0.003470 
#    y 0.000000 1.793540 0.000000 
#    z -0.003470 0.000000 1.822930 
# 
# From -- ./inp_files/49404.got.cif
#   From: 2010.06.25/outbox.cif.g09.slc.cpg/sg11_25_cif.got.tgz:49404.got - 2010.06.27 23:14:04.
