data_PCOD8074422
_publ_section_title
;
Structure prediction by ZEFSAII (Michael W. Deem and Ramdas Pophale) SiO2 
 PCOD8074422
Probable space group: P 21/M
;
_chemical_formula_sum "Si O2"
_cell_formula_units_Z 20
_cell_length_a 15.835168
_cell_length_b 8.763177
_cell_length_c 10.414152
_cell_angle_alpha 90.000000
_cell_angle_beta 139.242660
_cell_angle_gamma 90.000000
_cell_volume 943.465667
_symmetry_space_group_name_H-M "P 21/M"
_symmetry_group_IT_number 11
_symmetry_cell_setting 'monoclinic'
loop_
_space_group_symop_operation_xyz
x,y,z
-x,1/2+y,-z
-x,-y,-z
x,1/2-y,z
loop_
_atom_site_type_symbol
_atom_site_label
_atom_site_fract_x
_atom_site_fract_y
_atom_site_fract_z
Si Si1 0.800113 0.424480 0.701365
Si Si2 0.533123 0.569891 0.399345
Si Si3 0.928648 0.578665 0.078412
Si Si4 0.126712 0.078995 0.695784
Si Si5 0.411191 0.432481 0.008599
O O1 0.751845 0.250000 0.639448
O O2 0.681172 0.534274 0.531776
O O3 0.917101 0.456845 0.736286
O O4 0.854952 0.457105 0.906301
O O5 0.500000 0.500000 0.500000
O O6 0.510935 0.750000 0.378999
O O7 0.444201 0.498211 0.186634
O O8 0.910393 0.750000 0.000821
O O9 0.865192 0.565540 0.142649
O O10 0.112061 0.250000 0.631213
O O11 0.264375 0.015134 0.804042
O O12 0.000000 0.000000 0.500000
O O13 0.423882 0.250000 0.028058
O O14 0.500000 0.500000 0.000000
#
# Coordination Sequence:
#
# PCOD8074422 Si02
#       5
#     4   4   4   4   4
#     4  10  20  35  60  93 125 162 205 259 322 387
#     4  12  25  42  66  95 129 171 218 272 331 395
#     4   9  19  37  59  88 125 163 207 263 319 377
#     4  10  23  41  63  90 122 164 213 264 317 376
#     4  11  25  45  67  97 136 177 222 274 329 394
#
# _framework density 21.198440000000002
#
# number of rings (size 3 to 8) (size 9 to 14) (size 15 to 20)
#    0.000    1.600    0.000    4.200    2.800    4.800 
#    0.000    0.000    0.000    0.000    0.000    0.000 
#    0.000    0.000    0.000    0.000    0.000    0.000 
#
# Total GULP energy -247976.039431 kJ/mol
# GULP energy per Si atom -12398.801972 kJ/mol
# Density = 2.115019 g / cm^3
# Si number density = 21.198440 Si / 1000 Ang^3
#
#
#
# Elastic Constant Matrix: (Units=GPa)
#
#
# Indices 1 2 3 4 5 6 
#
# 1 107.4327 48.7379 59.0461 0.0000 20.0995 0.0000
# 2 48.7379 109.3508 56.8870 0.0000 9.1715 0.0000
# 3 59.0461 56.8870 135.0631 0.0000 25.5609 0.0000
# 4 0.0000 0.0000 0.0000 41.9312 0.0000 1.0470
# 5 20.0995 9.1715 25.5609 0.0000 37.2562 0.0000
# 6 0.0000 0.0000 0.0000 1.0470 0.0000 34.2436
#
#
#
# Elastic Compliance Matrix: (Units=1/GPa)
#
#
# Indices 1 2 3 4 5 6 
#
# 1 0.013843 -0.003944 -0.003633 0.000000 -0.004005 0.000000
# 2 -0.003944 0.012845 -0.004011 0.000000 0.001718 0.000000
# 3 -0.003633 -0.004011 0.011634 0.000000 -0.005035 0.000000
# 4 0.000000 0.000000 0.000000 0.023867 0.000000 -0.000730
# 5 -0.004005 0.001718 -0.005035 0.000000 0.032033 0.000000
# 6 0.000000 0.000000 0.000000 -0.000730 0.000000 0.029225
#
#
# Mechanical properties :
#
#
# Convention : Reuss Voigt Hill
#
# Bulk Modulus (GPa) = 66.01951 75.68762 70.85356
# Shear Modulus (GPa) = 32.96555 35.16458 34.06506
#
# Velocity S-wave (km/s) = 3.94775 4.07729 4.01304
# Velocity P-wave (km/s) = 7.21046 7.61233 7.41412
#
# Compressibility (1/GPa) = 0.01514704
#
# Stress axis : x y z
#
# Youngs Moduli (GPa) = 72.23663 77.84846 85.95225
#
# Poissons Ratio (x) = 0.30706 0.31224
# Poissons Ratio (y) = 0.28492 0.34476
# Poissons Ratio (z) = 0.26242 0.31226
#
# Static dielectric constant tensor:
#      x y z
#    x 3.567710 0.000000 0.449070 
#    y 0.000000 3.946160 0.000000 
#    z 0.449070 0.000000 3.798830 
# 
# 
# High freq. dielectric constant tensor:
#      x y z
#    x 1.841440 0.000000 0.018010 
#    y 0.000000 1.831730 0.000000 
#    z 0.018010 0.000000 1.833250 
# 
# From -- ./inp_files/41012.got.cif
#   From: 2010.06.25/outbox.cif.g09.slc.cpg/sg11_21_cif.got.tgz:41012.got - 2010.06.27 23:14:04.
