data_PCOD8074789
_publ_section_title
;
Structure prediction by ZEFSAII (Michael W. Deem and Ramdas Pophale) SiO2 
 PCOD8074789
Probable space group: P 21/M
;
_chemical_formula_sum "Si O2"
_cell_formula_units_Z 28
_cell_length_a 15.080877
_cell_length_b 8.439052
_cell_length_c 11.085689
_cell_angle_alpha 90.000000
_cell_angle_beta 112.337499
_cell_angle_gamma 90.000000
_cell_volume 1304.987808
_symmetry_space_group_name_H-M "P 21/M"
_symmetry_group_IT_number 11
_symmetry_cell_setting 'monoclinic'
loop_
_space_group_symop_operation_xyz
x,y,z
-x,1/2+y,-z
-x,-y,-z
x,1/2-y,z
loop_
_atom_site_type_symbol
_atom_site_label
_atom_site_fract_x
_atom_site_fract_y
_atom_site_fract_z
Si Si1 0.224806 0.931301 0.949659
Si Si2 0.887862 0.430817 0.538537
Si Si3 0.093945 0.072256 0.700064
Si Si4 0.101990 0.431712 0.085928
Si Si5 0.565777 0.939291 0.924324
Si Si6 0.752090 0.428385 0.670579
Si Si7 0.557714 0.568320 0.644233
O O1 0.220896 0.750000 0.994232
O O2 0.166102 0.945144 0.795312
O O3 0.173128 0.054637 0.010411
O O4 0.333386 0.984009 0.990685
O O5 0.896870 0.250000 0.495588
O O6 0.890557 0.558181 0.434617
O O7 0.784143 0.452988 0.548968
O O8 0.981736 0.463905 0.672227
O O9 0.121318 0.250000 0.755048
O O10 0.093292 0.250000 0.122555
O O11 0.147660 0.539241 0.212461
O O12 0.000000 0.500000 0.000000
O O13 0.571152 0.750000 0.929913
O O14 0.534750 0.995164 0.770046
O O15 0.500000 0.000000 0.000000
O O16 0.715729 0.250000 0.675792
O O17 0.670049 0.545808 0.673993
O O18 0.500000 0.500000 0.500000
O O19 0.531081 0.750000 0.631222
#
# Coordination Sequence:
#
# PCOD8074789 Si02
#       7
#     4   4   4   4   4   4   4
#     4  12  24  40  64  92 126 168 213 264 325 389
#     4   9  20  37  57  86 125 168 214 261 315 386
#     4  10  20  36  59  87 125 170 215 265 318 380
#     4  12  24  39  61  93 131 170 214 261 317 386
#     4  11  25  46  71  99 132 172 221 281 343 408
#     4  11  22  39  64  92 126 167 211 263 326 391
#     4  11  25  45  70  98 131 171 220 281 343 410
#
# _framework density 21.456137999999999
#
# number of rings (size 3 to 8) (size 9 to 14) (size 15 to 20)
#    0.000    1.143    1.429    5.143    0.000    5.714 
#    0.000    1.429    0.000    0.000    0.000    0.000 
#    0.000    0.000    0.000    0.000    0.000    0.000 
#
# Total GULP energy -346965.520497 kJ/mol
# GULP energy per Si atom -12391.625732 kJ/mol
# Density = 2.140730 g / cm^3
# Si number density = 21.456138 Si / 1000 Ang^3
#
#
#
# Elastic Constant Matrix: (Units=GPa)
#
#
# Indices 1 2 3 4 5 6 
#
# 1 117.5204 23.9973 31.4487 0.0000 -14.1254 0.0000
# 2 23.9973 64.3090 22.3126 0.0000 -3.3231 0.0000
# 3 31.4487 22.3126 85.4880 0.0000 -10.8746 0.0000
# 4 0.0000 0.0000 0.0000 34.5883 0.0000 0.6402
# 5 -14.1254 -3.3231 -10.8746 0.0000 24.8450 0.0000
# 6 0.0000 0.0000 0.0000 0.6402 0.0000 30.2147
#
#
#
# Elastic Compliance Matrix: (Units=1/GPa)
#
#
# Indices 1 2 3 4 5 6 
#
# 1 0.010264 -0.002735 -0.002506 0.000000 0.004373 0.000000
# 2 -0.002735 0.017830 -0.003751 0.000000 -0.000812 0.000000
# 3 -0.002506 -0.003751 0.014141 0.000000 0.004263 0.000000
# 4 0.000000 0.000000 0.000000 0.028923 0.000000 -0.000613
# 5 0.004373 -0.000812 0.004263 0.000000 0.044493 0.000000
# 6 0.000000 0.000000 0.000000 -0.000613 0.000000 0.033109
#
#
# Mechanical properties :
#
#
# Convention : Reuss Voigt Hill
#
# Bulk Modulus (GPa) = 41.23432 46.98160 44.10796
# Shear Modulus (GPa) = 28.59992 30.56687 29.58339
#
# Velocity S-wave (km/s) = 3.65492 3.77851 3.71723
# Velocity P-wave (km/s) = 6.08859 6.40159 6.24705
#
# Compressibility (1/GPa) = 0.02425164
#
# Stress axis : x y z
#
# Youngs Moduli (GPa) = 97.43087 56.08580 70.71833
#
# Poissons Ratio (x) = 0.15337 0.17720
# Poissons Ratio (y) = 0.26643 0.26526
# Poissons Ratio (z) = 0.24414 0.21037
#
# Static dielectric constant tensor:
#      x y z
#    x 3.972100 0.000000 -0.197370 
#    y 0.000000 3.723370 0.000000 
#    z -0.197370 0.000000 4.060450 
# 
# 
# High freq. dielectric constant tensor:
#      x y z
#    x 1.843730 0.000000 -0.005360 
#    y 0.000000 1.843630 0.000000 
#    z -0.005360 0.000000 1.844750 
# 
# From -- ./inp_files/38476.got.cif
#   From: 2010.06.25/outbox.cif.g09.slc.cpg/sg11_20_cif.got.tgz:38476.got - 2010.06.27 23:14:04.
