data_PCOD8074223
_publ_section_title
;
Structure prediction by ZEFSAII (Michael W. Deem and Ramdas Pophale) SiO2 
 PCOD8074223
Probable space group: P 21/M
;
_chemical_formula_sum "Si O2"
_cell_formula_units_Z 32
_cell_length_a 12.696958
_cell_length_b 8.944552
_cell_length_c 28.918892
_cell_angle_alpha 90.000000
_cell_angle_beta 29.105410
_cell_angle_gamma 90.000000
_cell_volume 1597.531601
_symmetry_space_group_name_H-M "P 21/M"
_symmetry_group_IT_number 11
_symmetry_cell_setting 'monoclinic'
loop_
_space_group_symop_operation_xyz
x,y,z
-x,1/2+y,-z
-x,-y,-z
x,1/2-y,z
loop_
_atom_site_type_symbol
_atom_site_label
_atom_site_fract_x
_atom_site_fract_y
_atom_site_fract_z
Si Si1 0.943345 0.072720 0.386066
Si Si2 0.762263 0.425357 0.219640
Si Si3 0.563709 0.081088 0.910210
Si Si4 0.625770 0.422998 0.780005
Si Si5 0.209262 0.927926 0.896876
Si Si6 0.515276 0.079398 0.604671
Si Si7 0.828970 0.421377 0.896307
Si Si8 0.710184 0.922855 0.399822
O O1 0.967546 0.250000 0.374485
O O2 0.740457 0.022664 0.495818
O O3 0.159691 0.998524 0.324220
O O4 0.911609 0.009207 0.345844
O O5 0.749814 0.250000 0.226317
O O6 0.779249 0.481299 0.160570
O O7 0.541892 0.487304 0.327408
O O8 0.967553 0.478147 0.169834
O O9 0.475123 0.250000 0.951433
O O10 0.645080 0.057423 0.827427
O O11 0.766871 0.053151 0.866405
O O12 0.372279 0.966051 0.994159
O O13 0.609998 0.250000 0.771214
O O14 0.419009 0.512246 0.842179
O O15 0.195368 0.750000 0.906750
O O16 0.000000 0.000000 0.000000
O O17 0.544827 0.250000 0.608148
O O18 0.310370 0.063351 0.647858
O O19 0.888243 0.250000 0.883742
O O20 0.720690 0.750000 0.410770
O O21 0.500000 0.000000 0.500000
#
# Coordination Sequence:
#
# PCOD8074223 Si02
#       8
#     4   4   4   4   4   4   4   4
#     4  10  21  37  57  86 122 160 201 247 295 351
#     4  11  24  39  59  87 118 152 197 248 297 353
#     4   9  20  37  55  82 119 152 187 237 292 350
#     4  11  23  39  62  89 118 156 201 248 299 356
#     4  11  25  45  66  90 119 152 197 253 303 357
#     4   9  20  37  57  83 119 159 201 246 292 347
#     4  10  20  35  57  84 117 154 189 233 293 358
#     4   9  17  31  52  80 116 157 199 243 289 342
#
# _framework density 20.030902000000001
#
# number of rings (size 3 to 8) (size 9 to 14) (size 15 to 20)
#    0.000    2.000    0.000    3.750    1.750    9.500 
#    0.000    0.625    0.000    0.000    0.000    0.000 
#    0.000    0.000    0.000    0.000    0.000    0.000 
#
# Total GULP energy -396778.316715 kJ/mol
# GULP energy per Si atom -12399.322397 kJ/mol
# Density = 1.998531 g / cm^3
# Si number density = 20.030902 Si / 1000 Ang^3
#
#
#
# Elastic Constant Matrix: (Units=GPa)
#
#
# Indices 1 2 3 4 5 6 
#
# 1 86.5026 46.2498 66.6416 0.0000 1.4994 0.0000
# 2 46.2498 78.8125 44.3203 0.0000 7.9607 0.0000
# 3 66.6416 44.3203 112.6169 0.0000 -2.8544 0.0000
# 4 0.0000 0.0000 0.0000 35.8544 0.0000 -1.3219
# 5 1.4994 7.9607 -2.8544 0.0000 34.7837 0.0000
# 6 0.0000 0.0000 0.0000 -1.3219 0.0000 29.4446
#
#
#
# Elastic Compliance Matrix: (Units=1/GPa)
#
#
# Indices 1 2 3 4 5 6 
#
# 1 0.024671 -0.008025 -0.011445 0.000000 -0.000166 0.000000
# 2 -0.008025 0.019561 -0.003061 0.000000 -0.004382 0.000000
# 3 -0.011445 -0.003061 0.016923 0.000000 0.002583 0.000000
# 4 0.000000 0.000000 0.000000 0.027937 0.000000 0.001254
# 5 -0.000166 -0.004382 0.002583 0.000000 0.029971 0.000000
# 6 0.000000 0.000000 0.000000 0.001254 0.000000 0.034018
#
#
# Mechanical properties :
#
#
# Convention : Reuss Voigt Hill
#
# Bulk Modulus (GPa) = 62.13747 65.81727 63.97737
# Shear Modulus (GPa) = 24.56902 28.06455 26.31678
#
# Velocity S-wave (km/s) = 3.50602 3.74714 3.62858
# Velocity P-wave (km/s) = 6.89041 7.18683 7.04018
#
# Compressibility (1/GPa) = 0.01609335
#
# Stress axis : x y z
#
# Youngs Moduli (GPa) = 40.53271 51.12097 59.09264
#
# Poissons Ratio (x) = 0.41024 0.67634
# Poissons Ratio (y) = 0.32527 0.18087
# Poissons Ratio (z) = 0.46392 0.15647
#
# Static dielectric constant tensor:
#      x y z
#    x 3.797650 0.000000 -0.053150 
#    y 0.000000 3.838520 0.000000 
#    z -0.053150 0.000000 3.948880 
# 
# 
# High freq. dielectric constant tensor:
#      x y z
#    x 1.768750 0.000000 -0.002380 
#    y 0.000000 1.789680 0.000000 
#    z -0.002380 0.000000 1.783980 
# 
# From -- ./inp_files/49377.got.cif
#   From: 2010.06.25/outbox.cif.g09.slc.cpg/sg11_25_cif.got.tgz:49377.got - 2010.06.27 23:14:04.
