data_PCOD8074637
_publ_section_title
;
Structure prediction by ZEFSAII (Michael W. Deem and Ramdas Pophale) SiO2 
 PCOD8074637
Probable space group: P 21/M
;
_chemical_formula_sum "Si O2"
_cell_formula_units_Z 24
_cell_length_a 14.560991
_cell_length_b 13.580790
_cell_length_c 11.944671
_cell_angle_alpha 90.000000
_cell_angle_beta 151.048364
_cell_angle_gamma 90.000000
_cell_volume 1143.403135
_symmetry_space_group_name_H-M "P 21/M"
_symmetry_group_IT_number 11
_symmetry_cell_setting 'monoclinic'
loop_
_space_group_symop_operation_xyz
x,y,z
-x,1/2+y,-z
-x,-y,-z
x,1/2-y,z
loop_
_atom_site_type_symbol
_atom_site_label
_atom_site_fract_x
_atom_site_fract_y
_atom_site_fract_z
Si Si1 0.354878 0.364543 0.911603
Si Si2 0.072833 0.107471 0.058894
Si Si3 0.588417 0.543739 0.447289
Si Si4 0.708550 0.487615 0.342506
Si Si5 0.671410 0.143302 0.674364
Si Si6 0.063273 0.360680 0.792204
O O1 0.354042 0.250000 0.875094
O O2 0.571107 0.401825 0.150703
O O3 0.246526 0.430554 0.703477
O O4 0.249398 0.381141 0.916898
O O5 0.261392 0.119072 0.334306
O O6 0.126445 0.129260 0.987972
O O7 0.895124 0.171294 0.911767
O O8 0.000000 0.000000 0.000000
O O9 0.606342 0.547352 0.333593
O O10 0.385122 0.587055 0.270175
O O11 0.614282 0.429458 0.511809
O O12 0.902672 0.439376 0.590869
O O13 0.568709 0.250000 0.551633
O O14 0.986488 0.250000 0.688059
#
# Coordination Sequence:
#
# PCOD8074637 Si02
#       6
#     4   4   4   4   4   4
#     4  10  25  42  62  92 116 153 209 253 299 352
#     4  10  20  36  57  87 126 154 192 243 294 355
#     4  10  23  37  60  89 123 159 197 241 298 358
#     4  11  22  42  67  83 123 161 195 254 303 348
#     4  10  21  36  55  87 124 160 198 234 287 354
#     4  11  22  38  65  94 120 157 203 244 293 357
#
# _framework density 20.989972000000002
#
# number of rings (size 3 to 8) (size 9 to 14) (size 15 to 20)
#    0.000    1.667    3.333    1.500    7.000    2.667 
#    0.000    0.000    0.000    4.000    0.000    0.000 
#    0.000    0.000    0.000    0.000    0.000    0.000 
#
# Total GULP energy -297454.876852 kJ/mol
# GULP energy per Si atom -12393.953202 kJ/mol
# Density = 2.094220 g / cm^3
# Si number density = 20.989972 Si / 1000 Ang^3
#
#
#
# Elastic Constant Matrix: (Units=GPa)
#
#
# Indices 1 2 3 4 5 6 
#
# 1 116.6875 48.3899 10.6275 0.0000 -5.6882 0.0000
# 2 48.3899 121.3035 24.7610 0.0000 0.2390 0.0000
# 3 10.6275 24.7610 49.7826 0.0000 -7.8233 0.0000
# 4 0.0000 0.0000 0.0000 17.6123 0.0000 2.0062
# 5 -5.6882 0.2390 -7.8233 0.0000 25.6521 0.0000
# 6 0.0000 0.0000 0.0000 2.0062 0.0000 18.2302
#
#
#
# Elastic Compliance Matrix: (Units=1/GPa)
#
#
# Indices 1 2 3 4 5 6 
#
# 1 0.010411 -0.004209 0.000252 0.000000 0.002425 0.000000
# 2 -0.004209 0.010936 -0.004940 0.000000 -0.002542 0.000000
# 3 0.000252 -0.004940 0.023640 0.000000 0.007311 0.000000
# 4 0.000000 0.000000 0.000000 0.057499 0.000000 -0.006328
# 5 0.002425 -0.002542 0.007311 0.000000 0.041774 0.000000
# 6 0.000000 0.000000 0.000000 -0.006328 0.000000 0.055550
#
#
# Mechanical properties :
#
#
# Convention : Reuss Voigt Hill
#
# Bulk Modulus (GPa) = 36.77575 50.59226 43.68401
# Shear Modulus (GPa) = 22.05852 25.89861 23.97856
#
# Velocity S-wave (km/s) = 3.24529 3.51644 3.38358
# Velocity P-wave (km/s) = 5.62149 6.37515 6.01015
#
# Compressibility (1/GPa) = 0.02719183
#
# Stress axis : x y z
#
# Youngs Moduli (GPa) = 96.05509 91.43779 42.30156
#
# Poissons Ratio (x) = 0.38488 -0.01067
# Poissons Ratio (y) = 0.40432 0.20899
# Poissons Ratio (z) = -0.02422 0.45174
#
# Static dielectric constant tensor:
#      x y z
#    x 4.309700 0.000000 0.970620 
#    y 0.000000 6.294900 0.000000 
#    z 0.970620 0.000000 5.271930 
# 
# 
# High freq. dielectric constant tensor:
#      x y z
#    x 1.829290 0.000000 0.017050 
#    y 0.000000 1.831220 0.000000 
#    z 0.017050 0.000000 1.798670 
# 
# From -- ./inp_files/39740.got.cif
#   From: 2010.06.25/outbox.cif.g09.slc.cpg/sg11_20_cif.got.tgz:39740.got - 2010.06.27 23:14:04.
