data_PCOD8074341
_publ_section_title
;
Structure prediction by ZEFSAII (Michael W. Deem and Ramdas Pophale) SiO2 
 PCOD8074341
Probable space group: P 21/M
;
_chemical_formula_sum "Si O2"
_cell_formula_units_Z 32
_cell_length_a 29.414164
_cell_length_b 8.715494
_cell_length_c 12.006848
_cell_angle_alpha 90.000000
_cell_angle_beta 151.476795
_cell_angle_gamma 90.000000
_cell_volume 1469.820250
_symmetry_space_group_name_H-M "P 21/M"
_symmetry_group_IT_number 11
_symmetry_cell_setting 'monoclinic'
loop_
_space_group_symop_operation_xyz
x,y,z
-x,1/2+y,-z
-x,-y,-z
x,1/2-y,z
loop_
_atom_site_type_symbol
_atom_site_label
_atom_site_fract_x
_atom_site_fract_y
_atom_site_fract_z
Si Si1 0.461052 0.069223 0.032959
Si Si2 0.299226 0.070480 0.054468
Si Si3 0.913440 0.081176 0.908610
Si Si4 0.396498 0.427867 0.491918
Si Si5 0.115260 0.077903 0.373149
Si Si6 0.304008 0.571928 0.833718
Si Si7 0.783048 0.421270 0.823296
Si Si8 0.102686 0.068743 0.746153
O O1 0.462042 0.250000 0.018867
O O2 0.520035 0.023768 0.270786
O O3 0.500000 0.000000 0.000000
O O4 0.355258 0.012291 0.839213
O O5 0.309221 0.250000 0.054367
O O6 0.187810 0.030558 0.840612
O O7 0.337934 0.983127 0.028897
O O8 0.369087 0.020647 0.306810
O O9 0.926440 0.250000 0.879814
O O10 0.008024 0.051026 0.189854
O O11 0.817883 0.086602 0.772969
O O12 0.899355 0.946586 0.790080
O O13 0.424140 0.250000 0.556903
O O14 0.303595 0.460320 0.365219
O O15 0.152310 0.250000 0.477782
O O16 0.191116 0.959808 0.585802
O O17 0.325875 0.750000 0.868922
O O18 0.753063 0.250000 0.800201
O O19 0.869199 0.488538 0.079342
O O20 0.094323 0.250000 0.743209
O O21 0.000000 0.000000 0.500000
#
# Coordination Sequence:
#
# PCOD8074341 Si02
#       8
#     4   4   4   4   4   4   4   4
#     4  12  27  48  73 100 130 167 210 262 322 388
#     4   9  21  42  65  91 128 171 215 262 319 382
#     4   9  20  37  57  84 120 165 213 259 311 376
#     4  10  22  43  68  96 130 168 212 266 319 381
#     4  10  21  38  59  85 122 166 211 261 315 375
#     4  12  26  43  66  97 131 168 214 269 323 384
#     4  10  20  35  58  88 122 165 211 259 314 377
#     4  10  21  36  56  86 125 167 215 267 318 377
#
# _framework density 21.771370000000001
#
# number of rings (size 3 to 8) (size 9 to 14) (size 15 to 20)
#    0.000    1.750    0.000    4.500    3.500    5.000 
#    0.000    0.000    0.000    0.000    0.000    0.000 
#    0.000    0.000    0.000    0.000    0.000    0.000 
#
# Total GULP energy -396552.763253 kJ/mol
# GULP energy per Si atom -12392.273852 kJ/mol
# Density = 2.172182 g / cm^3
# Si number density = 21.771370 Si / 1000 Ang^3
#
#
#
# Elastic Constant Matrix: (Units=GPa)
#
#
# Indices 1 2 3 4 5 6 
#
# 1 95.0661 38.7970 8.0478 0.0000 -5.6720 0.0000
# 2 38.7970 103.6496 16.5823 0.0000 -8.6682 0.0000
# 3 8.0478 16.5823 78.1293 0.0000 -4.6411 0.0000
# 4 0.0000 0.0000 0.0000 39.8953 0.0000 -0.6398
# 5 -5.6720 -8.6682 -4.6411 0.0000 12.7719 0.0000
# 6 0.0000 0.0000 0.0000 -0.6398 0.0000 33.1176
#
#
#
# Elastic Compliance Matrix: (Units=1/GPa)
#
#
# Indices 1 2 3 4 5 6 
#
# 1 0.012494 -0.004439 -0.000198 0.000000 0.002464 0.000000
# 2 -0.004439 0.012059 -0.001771 0.000000 0.005569 0.000000
# 3 -0.000198 -0.001771 0.013408 0.000000 0.003582 0.000000
# 4 0.000000 0.000000 0.000000 0.025073 0.000000 0.000484
# 5 0.002464 0.005569 0.003582 0.000000 0.084473 0.000000
# 6 0.000000 0.000000 0.000000 0.000484 0.000000 0.030205
#
#
# Mechanical properties :
#
#
# Convention : Reuss Voigt Hill
#
# Bulk Modulus (GPa) = 39.77095 44.85546 42.31320
# Shear Modulus (GPa) = 25.13686 31.38483 28.26084
#
# Velocity S-wave (km/s) = 3.40160 3.80091 3.60679
# Velocity P-wave (km/s) = 5.80819 6.31746 6.06817
#
# Compressibility (1/GPa) = 0.02514398
#
# Stress axis : x y z
#
# Youngs Moduli (GPa) = 80.03606 82.92878 74.57969
#
# Poissons Ratio (x) = 0.36812 0.01480
# Poissons Ratio (y) = 0.35528 0.13210
# Poissons Ratio (z) = 0.01589 0.14689
#
# Static dielectric constant tensor:
#      x y z
#    x 3.883700 0.000000 0.129680 
#    y 0.000000 3.920360 0.000000 
#    z 0.129680 0.000000 3.990890 
# 
# 
# High freq. dielectric constant tensor:
#      x y z
#    x 1.848250 0.000000 0.008420 
#    y 0.000000 1.858610 0.000000 
#    z 0.008420 0.000000 1.858460 
# 
# From -- ./inp_files/45357.got.cif
#   From: 2010.06.25/outbox.cif.g09.slc.cpg/sg11_23_cif.got.tgz:45357.got - 2010.06.27 23:14:04.
