data_PCOD8074585
_publ_section_title
;
Structure prediction by ZEFSAII (Michael W. Deem and Ramdas Pophale) SiO2 
 PCOD8074585
Probable space group: P 21/M
;
_chemical_formula_sum "Si O2"
_cell_formula_units_Z 32
_cell_length_a 12.194564
_cell_length_b 9.175788
_cell_length_c 14.949722
_cell_angle_alpha 90.000000
_cell_angle_beta 92.728763
_cell_angle_gamma 90.000000
_cell_volume 1670.898386
_symmetry_space_group_name_H-M "P 21/M"
_symmetry_group_IT_number 11
_symmetry_cell_setting 'monoclinic'
loop_
_space_group_symop_operation_xyz
x,y,z
-x,1/2+y,-z
-x,-y,-z
x,1/2-y,z
loop_
_atom_site_type_symbol
_atom_site_label
_atom_site_fract_x
_atom_site_fract_y
_atom_site_fract_z
Si Si1 0.460459 0.421011 0.869407
Si Si2 0.743083 0.582652 0.434124
Si Si3 0.046908 0.921291 0.588480
Si Si4 0.690108 0.914848 0.631834
Si Si5 0.669573 0.420103 0.992049
Si Si6 0.089789 0.576694 0.064855
Si Si7 0.898353 0.581007 0.751015
Si Si8 0.523283 0.578955 0.330195
O O1 0.438485 0.250000 0.873221
O O2 0.361110 0.497207 0.918134
O O3 0.457625 0.482241 0.768715
O O4 0.579761 0.461981 0.913630
O O5 0.765597 0.750000 0.407359
O O6 0.830321 0.478664 0.389241
O O7 0.753363 0.562493 0.540940
O O8 0.623565 0.532011 0.396826
O O9 0.045498 0.750000 0.569924
O O10 0.978875 0.961693 0.673771
O O11 0.000000 0.000000 0.500000
O O12 0.647137 0.750000 0.637215
O O13 0.774005 0.950649 0.714955
O O14 0.586656 0.018567 0.631035
O O15 0.667747 0.250000 0.012987
O O16 0.789283 0.470113 0.963898
O O17 0.073910 0.750000 0.061249
O O18 0.073182 0.521456 0.164917
O O19 0.000000 0.500000 0.000000
O O20 0.913211 0.750000 0.778696
O O21 0.507987 0.750000 0.325141
#
# Coordination Sequence:
#
# PCOD8074585 Si02
#       8
#     4   4   4   4   4   4   4   4
#     4   9  18  34  56  83 111 142 184 233 282 336
#     4  10  21  38  56  81 118 154 191 241 295 344
#     4  11  22  39  62  86 116 152 196 247 295 348
#     4  10  20  36  57  81 116 153 190 239 290 346
#     4   9  19  36  57  80 110 145 185 232 281 336
#     4  11  24  41  61  87 119 154 193 241 292 349
#     4  10  22  40  61  87 118 153 193 243 295 346
#     4  10  21  35  54  82 117 151 189 238 287 346
#
# _framework density 19.151374000000001
#
# number of rings (size 3 to 8) (size 9 to 14) (size 15 to 20)
#    0.000    2.000    1.250    1.875    0.000    6.000 
#    0.000    5.000    0.000    0.000    0.000    0.000 
#    0.000    0.000    0.000    0.000    0.000    0.000 
#
# Total GULP energy -396909.056611 kJ/mol
# GULP energy per Si atom -12403.408019 kJ/mol
# Density = 1.910778 g / cm^3
# Si number density = 19.151374 Si / 1000 Ang^3
#
#
#
# Elastic Constant Matrix: (Units=GPa)
#
#
# Indices 1 2 3 4 5 6 
#
# 1 121.7134 56.8507 55.3919 0.0000 -9.6683 0.0000
# 2 56.8507 62.3508 44.8305 0.0000 -5.7641 0.0000
# 3 55.3919 44.8305 96.7394 0.0000 3.4379 0.0000
# 4 0.0000 0.0000 0.0000 32.0486 0.0000 -3.1566
# 5 -9.6683 -5.7641 3.4379 0.0000 28.4347 0.0000
# 6 0.0000 0.0000 0.0000 -3.1566 0.0000 37.2898
#
#
#
# Elastic Compliance Matrix: (Units=1/GPa)
#
#
# Indices 1 2 3 4 5 6 
#
# 1 0.015332 -0.010884 -0.003858 0.000000 0.003473 0.000000
# 2 -0.010884 0.032938 -0.009177 0.000000 0.004086 0.000000
# 3 -0.003858 -0.009177 0.016985 0.000000 -0.005226 0.000000
# 4 0.000000 0.000000 0.000000 0.031465 0.000000 0.002663
# 5 0.003473 0.004086 -0.005226 0.000000 0.037809 0.000000
# 6 0.000000 0.000000 0.000000 0.002663 0.000000 0.027042
#
#
# Mechanical properties :
#
#
# Convention : Reuss Voigt Hill
#
# Bulk Modulus (GPa) = 57.41946 66.10551 61.76249
# Shear Modulus (GPa) = 23.23248 27.80333 25.51790
#
# Velocity S-wave (km/s) = 3.48673 3.81434 3.65421
# Velocity P-wave (km/s) = 6.80123 7.34787 7.07983
#
# Compressibility (1/GPa) = 0.01741570
#
# Stress axis : x y z
#
# Youngs Moduli (GPa) = 65.22484 30.35975 58.87566
#
# Poissons Ratio (x) = 0.33043 0.22716
# Poissons Ratio (y) = 0.70990 0.54032
# Poissons Ratio (z) = 0.25166 0.27862
#
# Static dielectric constant tensor:
#      x y z
#    x 3.580980 0.000000 0.019050 
#    y 0.000000 3.611250 0.000000 
#    z 0.019050 0.000000 3.562530 
# 
# 
# High freq. dielectric constant tensor:
#      x y z
#    x 1.751620 0.000000 -0.000600 
#    y 0.000000 1.739160 0.000000 
#    z -0.000600 0.000000 1.748480 
# 
# From -- ./inp_files/49305.got.cif
#   From: 2010.06.25/outbox.cif.g09.slc.cpg/sg11_25_cif.got.tgz:49305.got - 2010.06.27 23:14:04.
