data_PCOD8074428
_publ_section_title
;
Structure prediction by ZEFSAII (Michael W. Deem and Ramdas Pophale) SiO2 
 PCOD8074428
Probable space group: P 21/M
;
_chemical_formula_sum "Si O2"
_cell_formula_units_Z 32
_cell_length_a 12.742515
_cell_length_b 8.753596
_cell_length_c 14.580164
_cell_angle_alpha 90.000000
_cell_angle_beta 98.927849
_cell_angle_gamma 90.000000
_cell_volume 1606.609221
_symmetry_space_group_name_H-M "P 21/M"
_symmetry_group_IT_number 11
_symmetry_cell_setting 'monoclinic'
loop_
_space_group_symop_operation_xyz
x,y,z
-x,1/2+y,-z
-x,-y,-z
x,1/2-y,z
loop_
_atom_site_type_symbol
_atom_site_label
_atom_site_fract_x
_atom_site_fract_y
_atom_site_fract_z
Si Si1 0.108853 0.925646 0.152452
Si Si2 0.014482 0.080740 0.406631
Si Si3 0.689259 0.569643 0.118632
Si Si4 0.780305 0.576753 0.668992
Si Si5 0.550181 0.573047 0.594968
Si Si6 0.313738 0.570201 0.076863
Si Si7 0.911630 0.431188 0.204712
Si Si8 0.495322 0.570849 0.790022
O O1 0.073854 0.750000 0.145335
O O2 0.188389 0.965033 0.078776
O O3 0.178482 0.958331 0.251055
O O4 0.000927 0.026185 0.139943
O O5 0.969701 0.250000 0.413051
O O6 0.139891 0.079494 0.405533
O O7 0.951964 0.010541 0.310230
O O8 0.000000 0.000000 0.500000
O O9 0.690529 0.750000 0.103505
O O10 0.802647 0.515593 0.170391
O O11 0.598881 0.525811 0.178461
O O12 0.658950 0.486700 0.020513
O O13 0.770018 0.750000 0.708845
O O14 0.669531 0.510423 0.619131
O O15 0.500000 0.500000 0.500000
O O16 0.553852 0.750000 0.575813
O O17 0.487291 0.537369 0.680268
O O18 0.336809 0.750000 0.088035
O O19 0.389352 0.482169 0.158456
O O20 0.895186 0.250000 0.198747
O O21 0.481057 0.750000 0.809511
#
# Coordination Sequence:
#
# PCOD8074428 Si02
#       8
#     4   4   4   4   4   4   4   4
#     4  10  20  35  61  92 118 151 197 247 297 354
#     4   9  19  34  57  84 113 150 195 243 294 355
#     4  12  26  42  62  89 123 163 205 253 307 365
#     4   9  18  36  56  79 112 153 196 242 298 353
#     4  10  22  38  60  88 119 156 201 251 306 359
#     4  11  23  40  64  93 123 159 205 252 303 366
#     4  10  22  41  61  85 122 161 200 248 305 362
#     4  11  23  42  65  89 122 162 205 254 307 363
#
# _framework density 19.917724
#
# number of rings (size 3 to 8) (size 9 to 14) (size 15 to 20)
#    0.000    1.750    1.250    3.750    0.000    7.000 
#    0.000    2.500    0.000    0.000    0.000    0.000 
#    0.000    0.000    0.000    0.000    0.000    0.000 
#
# Total GULP energy -396745.970003 kJ/mol
# GULP energy per Si atom -12398.311563 kJ/mol
# Density = 1.987239 g / cm^3
# Si number density = 19.917724 Si / 1000 Ang^3
#
#
#
# Elastic Constant Matrix: (Units=GPa)
#
#
# Indices 1 2 3 4 5 6 
#
# 1 90.0662 18.0409 19.1702 0.0000 -3.0389 0.0000
# 2 18.0409 54.6338 23.7803 0.0000 -8.4714 0.0000
# 3 19.1702 23.7803 72.4122 0.0000 -6.4180 0.0000
# 4 0.0000 0.0000 0.0000 31.8965 0.0000 0.3152
# 5 -3.0389 -8.4714 -6.4180 0.0000 26.3139 0.0000
# 6 0.0000 0.0000 0.0000 0.3152 0.0000 36.9158
#
#
#
# Elastic Compliance Matrix: (Units=1/GPa)
#
#
# Indices 1 2 3 4 5 6 
#
# 1 0.012189 -0.003075 -0.002228 0.000000 -0.000126 0.000000
# 2 -0.003075 0.022874 -0.006211 0.000000 0.005494 0.000000
# 3 -0.002228 -0.006211 0.016598 0.000000 0.001791 0.000000
# 4 0.000000 0.000000 0.000000 0.031354 0.000000 -0.000268
# 5 -0.000126 0.005494 0.001791 0.000000 0.040194 0.000000
# 6 0.000000 0.000000 0.000000 -0.000268 0.000000 0.027091
#
#
# Mechanical properties :
#
#
# Convention : Reuss Voigt Hill
#
# Bulk Modulus (GPa) = 34.92398 37.67724 36.30061
# Shear Modulus (GPa) = 27.34140 29.43327 28.38734
#
# Velocity S-wave (km/s) = 3.70904 3.84831 3.77932
# Velocity P-wave (km/s) = 5.99290 6.22121 6.10812
#
# Compressibility (1/GPa) = 0.02863362
#
# Stress axis : x y z
#
# Youngs Moduli (GPa) = 82.04228 43.71709 60.24723
#
# Poissons Ratio (x) = 0.13441 0.13425
# Poissons Ratio (y) = 0.25224 0.37420
# Poissons Ratio (z) = 0.18282 0.27153
#
# Static dielectric constant tensor:
#      x y z
#    x 2.422450 0.000000 -1.111210 
#    y 0.000000 3.709280 0.000000 
#    z -1.111210 0.000000 2.896260 
# 
# 
# High freq. dielectric constant tensor:
#      x y z
#    x 1.787360 0.000000 -0.008110 
#    y 0.000000 1.778460 0.000000 
#    z -0.008110 0.000000 1.771640 
# 
# From -- ./inp_files/49378.got.cif
#   From: 2010.06.25/outbox.cif.g09.slc.cpg/sg11_25_cif.got.tgz:49378.got - 2010.06.27 23:14:04.
