data_PCOD8074111
_publ_section_title
;
Structure prediction by ZEFSAII (Michael W. Deem and Ramdas Pophale) SiO2 
 PCOD8074111
Probable space group: P 21/M
;
_chemical_formula_sum "Si O2"
_cell_formula_units_Z 32
_cell_length_a 23.865001
_cell_length_b 9.278134
_cell_length_c 15.075656
_cell_angle_alpha 90.000000
_cell_angle_beta 150.898605
_cell_angle_gamma 90.000000
_cell_volume 1623.503311
_symmetry_space_group_name_H-M "P 21/M"
_symmetry_group_IT_number 11
_symmetry_cell_setting 'monoclinic'
loop_
_space_group_symop_operation_xyz
x,y,z
-x,1/2+y,-z
-x,-y,-z
x,1/2-y,z
loop_
_atom_site_type_symbol
_atom_site_label
_atom_site_fract_x
_atom_site_fract_y
_atom_site_fract_z
Si Si1 0.537875 0.593125 0.470912
Si Si2 0.744057 0.582184 0.510396
Si Si3 0.262188 0.419399 0.851231
Si Si4 0.796133 0.906274 0.877904
Si Si5 0.490059 0.581591 0.208693
Si Si6 0.114253 0.084066 0.812025
Si Si7 0.882522 0.419535 0.848497
Si Si8 0.878016 0.581959 0.516958
O O1 0.500000 0.500000 0.500000
O O2 0.478653 0.750000 0.396948
O O3 0.672917 0.610520 0.664261
O O4 0.506366 0.524324 0.332209
O O5 0.767392 0.750000 0.565581
O O6 0.606702 0.553934 0.313243
O O7 0.789907 0.482418 0.652404
O O8 0.808217 0.536930 0.508621
O O9 0.283445 0.250000 0.892220
O O10 0.179295 0.477962 0.815372
O O11 0.202074 0.459208 0.676174
O O12 0.385728 0.495694 0.020511
O O13 0.859588 0.750000 0.949493
O O14 0.852743 0.043318 0.908941
O O15 0.795889 0.936546 0.982757
O O16 0.460133 0.750000 0.167354
O O17 0.081030 0.250000 0.749932
O O18 0.997638 0.001259 0.674114
O O19 0.893979 0.250000 0.851473
O O20 0.000000 0.500000 0.000000
O O21 0.907564 0.750000 0.558447
#
# Coordination Sequence:
#
# PCOD8074111 Si02
#       8
#     4   4   4   4   4   4   4   4
#     4  10  20  35  56  82 116 155 192 234 284 343
#     4  10  21  41  62  84 120 158 196 243 296 352
#     4  10  22  40  60  87 119 154 197 247 302 351
#     4  10  20  37  57  81 115 155 191 230 286 344
#     4  10  21  38  60  85 117 159 199 240 294 351
#     4  10  21  37  60  87 120 156 193 244 300 354
#     4  12  24  37  57  85 116 153 194 239 289 346
#     4  10  22  39  62  87 115 154 198 248 301 352
#
# _framework density 19.710460999999999
#
# number of rings (size 3 to 8) (size 9 to 14) (size 15 to 20)
#    0.000    1.750    1.250    3.000    0.000    7.000 
#    0.000    0.000    0.000    0.000    0.000    0.000 
#    0.000    0.000    0.000    0.000    0.000    0.000 
#
# Total GULP energy -396691.920824 kJ/mol
# GULP energy per Si atom -12396.622526 kJ/mol
# Density = 1.966560 g / cm^3
# Si number density = 19.710461 Si / 1000 Ang^3
#
#
#
# Elastic Constant Matrix: (Units=GPa)
#
#
# Indices 1 2 3 4 5 6 
#
# 1 102.4742 36.6922 19.5536 0.0000 1.9960 0.0000
# 2 36.6922 75.3008 31.6639 0.0000 3.7729 0.0000
# 3 19.5536 31.6639 83.1489 0.0000 -0.9018 0.0000
# 4 0.0000 0.0000 0.0000 32.9997 0.0000 5.0385
# 5 1.9960 3.7729 -0.9018 0.0000 34.0859 0.0000
# 6 0.0000 0.0000 0.0000 5.0385 0.0000 27.6112
#
#
#
# Elastic Compliance Matrix: (Units=1/GPa)
#
#
# Indices 1 2 3 4 5 6 
#
# 1 0.011856 -0.005476 -0.000704 0.000000 -0.000107 0.000000
# 2 -0.005476 0.018466 -0.005765 0.000000 -0.001876 0.000000
# 3 -0.000704 -0.005765 0.014399 0.000000 0.001060 0.000000
# 4 0.000000 0.000000 0.000000 0.031172 0.000000 -0.005688
# 5 -0.000107 -0.001876 0.001060 0.000000 0.029580 0.000000
# 6 0.000000 0.000000 0.000000 -0.005688 0.000000 0.037255
#
#
# Mechanical properties :
#
#
# Convention : Reuss Voigt Hill
#
# Bulk Modulus (GPa) = 48.00300 48.52705 48.26503
# Shear Modulus (GPa) = 28.80846 30.47364 29.64105
#
# Velocity S-wave (km/s) = 3.82721 3.93627 3.88212
# Velocity P-wave (km/s) = 6.62850 6.73293 6.68092
#
# Compressibility (1/GPa) = 0.02083203
#
# Stress axis : x y z
#
# Youngs Moduli (GPa) = 84.34867 54.15281 69.44935
#
# Poissons Ratio (x) = 0.29652 0.04889
# Poissons Ratio (y) = 0.46185 0.40036
# Poissons Ratio (z) = 0.05938 0.31218
#
# Static dielectric constant tensor:
#      x y z
#    x 3.664050 0.000000 -0.027820 
#    y 0.000000 3.657820 0.000000 
#    z -0.027820 0.000000 3.813340 
# 
# 
# High freq. dielectric constant tensor:
#      x y z
#    x 1.776310 0.000000 -0.003260 
#    y 0.000000 1.759000 0.000000 
#    z -0.003260 0.000000 1.771080 
# 
# From -- ./inp_files/55657.got.cif
#   From: 2010.06.25/outbox.cif.g09.slc.cpg/sg11_28_cif.got.tgz:55657.got - 2010.06.27 23:14:04.
