data_PCOD8074382
_publ_section_title
;
Structure prediction by ZEFSAII (Michael W. Deem and Ramdas Pophale) SiO2 
 PCOD8074382
Probable space group: P 21/M
;
_chemical_formula_sum "Si O2"
_cell_formula_units_Z 28
_cell_length_a 21.399240
_cell_length_b 8.953398
_cell_length_c 14.386150
_cell_angle_alpha 90.000000
_cell_angle_beta 149.272284
_cell_angle_gamma 90.000000
_cell_volume 1408.369809
_symmetry_space_group_name_H-M "P 21/M"
_symmetry_group_IT_number 11
_symmetry_cell_setting 'monoclinic'
loop_
_space_group_symop_operation_xyz
x,y,z
-x,1/2+y,-z
-x,-y,-z
x,1/2-y,z
loop_
_atom_site_type_symbol
_atom_site_label
_atom_site_fract_x
_atom_site_fract_y
_atom_site_fract_z
Si Si1 0.889524 0.925128 0.911258
Si Si2 0.392174 0.921802 0.743008
Si Si3 0.658416 0.574055 0.497896
Si Si4 0.544779 0.574002 0.651248
Si Si5 0.643595 0.077727 0.092670
Si Si6 0.174224 0.424854 0.964714
Si Si7 0.890265 0.073776 0.304310
O O1 0.903431 0.750000 0.916836
O O2 0.763621 0.978231 0.702892
O O3 0.888999 0.970574 0.018740
O O4 0.000000 0.000000 0.000000
O O5 0.388472 0.750000 0.707930
O O6 0.331780 0.945755 0.766360
O O7 0.311006 0.019066 0.567390
O O8 0.532483 0.974540 0.919085
O O9 0.638453 0.750000 0.475838
O O10 0.532929 0.491358 0.363478
O O11 0.500000 0.500000 0.500000
O O12 0.527877 0.750000 0.620235
O O13 0.684150 0.530652 0.849196
O O14 0.609873 0.250000 0.028771
O O15 0.763532 0.026165 0.190869
O O16 0.157748 0.250000 0.923729
O O17 0.107948 0.516729 0.799191
O O18 0.908295 0.250000 0.328832
O O19 0.000000 0.000000 0.500000
#
# Coordination Sequence:
#
# PCOD8074382 Si02
#       7
#     4   4   4   4   4   4   4
#     4  10  23  42  60  82 116 157 198 243 292 347
#     4  10  20  35  59  89 117 151 193 239 298 356
#     4  11  22  38  57  85 122 157 195 241 295 352
#     4  11  21  36  61  91 123 157 195 241 296 353
#     4   9  20  39  59  83 118 154 192 242 299 354
#     4  10  22  42  62  86 122 157 193 246 301 349
#     4  11  24  41  62  88 117 155 201 248 297 352
#
# _framework density 19.881142000000001
#
# number of rings (size 3 to 8) (size 9 to 14) (size 15 to 20)
#    0.000    1.714    1.429    2.571    0.000    8.000 
#    0.000    4.286    0.000    0.000    0.000    0.000 
#    0.000    0.000    0.000    0.000    0.000    0.000 
#
# Total GULP energy -347314.736240 kJ/mol
# GULP energy per Si atom -12404.097723 kJ/mol
# Density = 1.983589 g / cm^3
# Si number density = 19.881142 Si / 1000 Ang^3
#
#
#
# Elastic Constant Matrix: (Units=GPa)
#
#
# Indices 1 2 3 4 5 6 
#
# 1 130.1137 41.8166 62.3502 0.0000 -4.8789 0.0000
# 2 41.8166 70.0112 51.5027 0.0000 -5.1775 0.0000
# 3 62.3502 51.5027 101.4067 0.0000 -15.8376 0.0000
# 4 0.0000 0.0000 0.0000 37.0186 0.0000 -4.6128
# 5 -4.8789 -5.1775 -15.8376 0.0000 37.9777 0.0000
# 6 0.0000 0.0000 0.0000 -4.6128 0.0000 37.4343
#
#
#
# Elastic Compliance Matrix: (Units=1/GPa)
#
#
# Indices 1 2 3 4 5 6 
#
# 1 0.011245 -0.002515 -0.005845 0.000000 -0.001336 0.000000
# 2 -0.002515 0.023487 -0.010624 0.000000 -0.001552 0.000000
# 3 -0.005845 -0.010624 0.019797 0.000000 0.006056 0.000000
# 4 0.000000 0.000000 0.000000 0.027435 0.000000 0.003381
# 5 -0.001336 -0.001552 0.006056 0.000000 0.028474 0.000000
# 6 0.000000 0.000000 0.000000 0.003381 0.000000 0.027130
#
#
# Mechanical properties :
#
#
# Convention : Reuss Voigt Hill
#
# Bulk Modulus (GPa) = 60.38982 68.09675 64.24328
# Shear Modulus (GPa) = 27.61579 32.21024 29.91301
#
# Velocity S-wave (km/s) = 3.73103 4.02946 3.88312
# Velocity P-wave (km/s) = 7.00015 7.48165 7.24490
#
# Compressibility (1/GPa) = 0.01655908
#
# Stress axis : x y z
#
# Youngs Moduli (GPa) = 88.92987 42.57746 50.51290
#
# Poissons Ratio (x) = 0.10709 0.29525
# Poissons Ratio (y) = 0.22368 0.53666
# Poissons Ratio (z) = 0.51980 0.45235
#
# Static dielectric constant tensor:
#      x y z
#    x 3.884020 0.000000 -0.139170 
#    y 0.000000 3.574340 0.000000 
#    z -0.139170 0.000000 3.597750 
# 
# 
# High freq. dielectric constant tensor:
#      x y z
#    x 1.788540 0.000000 -0.013970 
#    y 0.000000 1.777300 0.000000 
#    z -0.013970 0.000000 1.771310 
# 
# From -- ./inp_files/54579.got.cif
#   From: 2010.06.25/outbox.cif.g09.slc.cpg/sg11_28_cif.got.tgz:54579.got - 2010.06.27 23:14:04.
