data_PCOD8074330
_publ_section_title
;
Structure prediction by ZEFSAII (Michael W. Deem and Ramdas Pophale) SiO2 
 PCOD8074330
Probable space group: P 21/M
;
_chemical_formula_sum "Si O2"
_cell_formula_units_Z 32
_cell_length_a 16.023596
_cell_length_b 8.764565
_cell_length_c 10.649397
_cell_angle_alpha 90.000000
_cell_angle_beta 84.687782
_cell_angle_gamma 90.000000
_cell_volume 1489.176070
_symmetry_space_group_name_H-M "P 21/M"
_symmetry_group_IT_number 11
_symmetry_cell_setting 'monoclinic'
loop_
_space_group_symop_operation_xyz
x,y,z
-x,1/2+y,-z
-x,-y,-z
x,1/2-y,z
loop_
_atom_site_type_symbol
_atom_site_label
_atom_site_fract_x
_atom_site_fract_y
_atom_site_fract_z
Si Si1 0.277791 0.079193 0.657656
Si Si2 0.967595 0.070994 0.188954
Si Si3 0.453796 0.429915 0.126857
Si Si4 0.115638 0.924565 0.282819
Si Si5 0.867774 0.070761 0.446410
Si Si6 0.824279 0.922162 0.073047
Si Si7 0.467061 0.431818 0.634513
Si Si8 0.278672 0.576951 0.123455
O O1 0.283373 0.250000 0.604413
O O2 0.229730 0.072671 0.794492
O O3 0.371078 0.014501 0.662577
O O4 0.227534 0.982699 0.562060
O O5 0.957571 0.250000 0.167840
O O6 0.928249 0.014735 0.326997
O O7 0.919057 0.982670 0.084696
O O8 0.065237 0.023225 0.185049
O O9 0.469763 0.250000 0.126394
O O10 0.484044 0.502209 0.252867
O O11 0.355078 0.461365 0.128256
O O12 0.500000 0.500000 0.000000
O O13 0.085691 0.750000 0.273073
O O14 0.098469 0.991717 0.424700
O O15 0.215540 0.938338 0.249352
O O16 0.864693 0.250000 0.454716
O O17 0.830193 0.750000 0.018642
O O18 0.776852 0.036183 0.988721
O O19 0.500000 0.500000 0.500000
O O20 0.477635 0.250000 0.633038
O O21 0.312550 0.750000 0.104976
#
# Coordination Sequence:
#
# PCOD8074330 Si02
#       8
#     4   4   4   4   4   4   4   4
#     4   9  20  37  59  86 115 151 197 247 300 361
#     4  10  20  35  58  87 117 154 202 252 302 364
#     4  12  26  46  71  98 129 171 219 270 326 393
#     4  10  22  38  56  83 120 159 197 245 305 366
#     4   9  19  35  57  85 117 155 198 244 299 362
#     4  10  20  38  62  86 116 156 203 255 306 364
#     4  11  24  42  64  96 134 171 214 268 327 390
#     4  11  24  41  62  90 123 159 202 255 309 372
#
# _framework density 21.488392000000001
#
# number of rings (size 3 to 8) (size 9 to 14) (size 15 to 20)
#    0.000    1.750    0.000    3.750    1.750    5.000 
#    0.000    0.000    0.000    0.000    0.000    0.000 
#    0.000    0.000    0.000    0.000    0.000    0.000 
#
# Total GULP energy -396834.449585 kJ/mol
# GULP energy per Si atom -12401.076550 kJ/mol
# Density = 2.143948 g / cm^3
# Si number density = 21.488392 Si / 1000 Ang^3
#
#
#
# Elastic Constant Matrix: (Units=GPa)
#
#
# Indices 1 2 3 4 5 6 
#
# 1 97.7808 15.0093 5.4714 0.0000 14.4120 0.0000
# 2 15.0093 77.7402 25.0531 0.0000 0.1414 0.0000
# 3 5.4714 25.0531 71.2120 0.0000 21.9716 0.0000
# 4 0.0000 0.0000 0.0000 31.2907 0.0000 6.4490
# 5 14.4120 0.1414 21.9716 0.0000 27.5682 0.0000
# 6 0.0000 0.0000 0.0000 6.4490 0.0000 40.3321
#
#
#
# Elastic Compliance Matrix: (Units=1/GPa)
#
#
# Indices 1 2 3 4 5 6 
#
# 1 0.011789 -0.003159 0.002788 0.000000 -0.008369 0.000000
# 2 -0.003159 0.015962 -0.007767 0.000000 0.007760 0.000000
# 3 0.002788 -0.007767 0.022541 0.000000 -0.019383 0.000000
# 4 0.000000 0.000000 0.000000 0.033047 0.000000 -0.005284
# 5 -0.008369 0.007760 -0.019383 0.000000 0.056057 0.000000
# 6 0.000000 0.000000 0.000000 -0.005284 0.000000 0.025639
#
#
# Mechanical properties :
#
#
# Convention : Reuss Voigt Hill
#
# Bulk Modulus (GPa) = 29.39850 37.53340 33.46595
# Shear Modulus (GPa) = 25.95345 33.25148 29.60247
#
# Velocity S-wave (km/s) = 3.47910 3.93799 3.71563
# Velocity P-wave (km/s) = 5.46348 6.17914 5.83230
#
# Compressibility (1/GPa) = 0.03401535
#
# Stress axis : x y z
#
# Youngs Moduli (GPa) = 84.82188 62.64733 44.36294
#
# Poissons Ratio (x) = 0.19793 -0.12368
# Poissons Ratio (y) = 0.26798 0.34458
# Poissons Ratio (z) = -0.23647 0.48660
#
# Static dielectric constant tensor:
#      x y z
#    x 4.043250 0.000000 -0.036110 
#    y 0.000000 3.877100 0.000000 
#    z -0.036110 0.000000 4.099420 
# 
# 
# High freq. dielectric constant tensor:
#      x y z
#    x 1.853550 0.000000 0.001830 
#    y 0.000000 1.841440 0.000000 
#    z 0.001830 0.000000 1.850970 
# 
# From -- ./inp_files/38097.got.cif
#   From: 2010.06.25/outbox.cif.g09.slc.cpg/sg11_20_cif.got.tgz:38097.got - 2010.06.27 23:14:04.
