data_PCOD8074138
_publ_section_title
;
Structure prediction by ZEFSAII (Michael W. Deem and Ramdas Pophale) SiO2 
 PCOD8074138
Probable space group: P 21/M
;
_chemical_formula_sum "Si O2"
_cell_formula_units_Z 32
_cell_length_a 14.054493
_cell_length_b 8.888771
_cell_length_c 19.783561
_cell_angle_alpha 90.000000
_cell_angle_beta 139.003744
_cell_angle_gamma 90.000000
_cell_volume 1621.330811
_symmetry_space_group_name_H-M "P 21/M"
_symmetry_group_IT_number 11
_symmetry_cell_setting 'monoclinic'
loop_
_space_group_symop_operation_xyz
x,y,z
-x,1/2+y,-z
-x,-y,-z
x,1/2-y,z
loop_
_atom_site_type_symbol
_atom_site_label
_atom_site_fract_x
_atom_site_fract_y
_atom_site_fract_z
Si Si1 0.857258 0.424406 0.450162
Si Si2 0.600839 0.424519 0.707653
Si Si3 0.683069 0.928769 0.890093
Si Si4 0.178945 0.923997 0.294915
Si Si5 0.304422 0.575071 0.505242
Si Si6 0.346783 0.925644 0.907580
Si Si7 0.122847 0.571655 0.899166
Si Si8 0.378258 0.926133 0.775674
O O1 0.871896 0.250000 0.440948
O O2 0.828303 0.452737 0.513801
O O3 0.722337 0.495897 0.336530
O O4 0.000000 0.500000 0.500000
O O5 0.592646 0.250000 0.723287
O O6 0.670874 0.516698 0.806654
O O7 0.702006 0.452238 0.697856
O O8 0.441745 0.480605 0.602886
O O9 0.700435 0.750000 0.900059
O O10 0.541870 0.989106 0.855728
O O11 0.823406 0.000443 0.001443
O O12 0.132709 0.750000 0.275234
O O13 0.248510 0.980139 0.402619
O O14 0.039568 0.022184 0.203068
O O15 0.349971 0.750000 0.528559
O O16 0.366710 0.750000 0.929854
O O17 0.224540 0.989009 0.892450
O O18 0.303398 0.963908 0.807149
O O19 0.500000 0.000000 0.000000
O O20 0.128135 0.750000 0.908087
O O21 0.392694 0.750000 0.771426
#
# Coordination Sequence:
#
# PCOD8074138 Si02
#       8
#     4   4   4   4   4   4   4   4
#     4  10  21  37  57  86 120 155 195 238 289 350
#     4  11  23  40  64  93 119 149 200 259 308 358
#     4  11  21  39  66  88 118 163 201 245 305 364
#     4  10  24  43  62  86 121 162 201 248 306 366
#     4  10  21  41  65  89 120 160 205 244 294 366
#     4  10  20  35  56  84 116 152 193 237 284 344
#     4  11  24  39  59  91 125 157 202 256 300 352
#     4   9  18  35  57  81 114 155 195 233 286 353
#
# _framework density 19.736872000000002
#
# number of rings (size 3 to 8) (size 9 to 14) (size 15 to 20)
#    0.000    1.750    2.500    1.500    1.750    3.000 
#    0.000    0.625    0.000    0.000    0.000    0.000 
#    0.000    0.000    0.000    0.000    0.000    0.000 
#
# Total GULP energy -396819.260692 kJ/mol
# GULP energy per Si atom -12400.601897 kJ/mol
# Density = 1.969195 g / cm^3
# Si number density = 19.736872 Si / 1000 Ang^3
#
#
#
# Elastic Constant Matrix: (Units=GPa)
#
#
# Indices 1 2 3 4 5 6 
#
# 1 105.8245 41.9813 51.7837 0.0000 -5.2498 0.0000
# 2 41.9813 65.8010 42.9140 0.0000 -1.9232 0.0000
# 3 51.7837 42.9140 125.7954 0.0000 -14.5121 0.0000
# 4 0.0000 0.0000 0.0000 34.0488 0.0000 3.2482
# 5 -5.2498 -1.9232 -14.5121 0.0000 34.0101 0.0000
# 6 0.0000 0.0000 0.0000 3.2482 0.0000 29.6164
#
#
#
# Elastic Compliance Matrix: (Units=1/GPa)
#
#
# Indices 1 2 3 4 5 6 
#
# 1 0.013711 -0.006534 -0.003380 0.000000 0.000305 0.000000
# 2 -0.006534 0.022769 -0.005307 0.000000 -0.001985 0.000000
# 3 -0.003380 -0.005307 0.011629 0.000000 0.004140 0.000000
# 4 0.000000 0.000000 0.000000 0.029680 0.000000 -0.003255
# 5 0.000305 -0.001985 0.004140 0.000000 0.031104 0.000000
# 6 0.000000 0.000000 0.000000 -0.003255 0.000000 0.034122
#
#
# Mechanical properties :
#
#
# Convention : Reuss Voigt Hill
#
# Bulk Modulus (GPa) = 56.60284 63.41988 60.01136
# Shear Modulus (GPa) = 27.87908 30.25118 29.06513
#
# Velocity S-wave (km/s) = 3.76245 3.91925 3.84165
# Velocity P-wave (km/s) = 6.90041 7.25832 7.08163
#
# Compressibility (1/GPa) = 0.01766696
#
# Stress axis : x y z
#
# Youngs Moduli (GPa) = 72.93517 43.91898 85.99478
#
# Poissons Ratio (x) = 0.28699 0.29064
# Poissons Ratio (y) = 0.47659 0.45634
# Poissons Ratio (z) = 0.24650 0.23306
#
# Static dielectric constant tensor:
#      x y z
#    x 3.779990 0.000000 -0.144180 
#    y 0.000000 3.452250 0.000000 
#    z -0.144180 0.000000 3.690580 
# 
# 
# High freq. dielectric constant tensor:
#      x y z
#    x 1.778950 0.000000 -0.009690 
#    y 0.000000 1.754800 0.000000 
#    z -0.009690 0.000000 1.777430 
# 
# From -- ./inp_files/65226.got.cif
#   From: 2010.06.25/outbox.cif.g09.slc.cpg/sg11_33_cif.got.tgz:65226.got - 2010.06.27 23:14:04.
