data_PCOD8074178
_publ_section_title
;
Structure prediction by ZEFSAII (Michael W. Deem and Ramdas Pophale) SiO2 
 PCOD8074178
Probable space group: P 21/M
;
_chemical_formula_sum "Si O2"
_cell_formula_units_Z 32
_cell_length_a 12.012810
_cell_length_b 8.869001
_cell_length_c 15.966750
_cell_angle_alpha 90.000000
_cell_angle_beta 100.886335
_cell_angle_gamma 90.000000
_cell_volume 1670.509688
_symmetry_space_group_name_H-M "P 21/M"
_symmetry_group_IT_number 11
_symmetry_cell_setting 'monoclinic'
loop_
_space_group_symop_operation_xyz
x,y,z
-x,1/2+y,-z
-x,-y,-z
x,1/2-y,z
loop_
_atom_site_type_symbol
_atom_site_label
_atom_site_fract_x
_atom_site_fract_y
_atom_site_fract_z
Si Si1 0.088644 0.424601 0.292596
Si Si2 0.425522 0.925082 0.111821
Si Si3 0.840963 0.072337 0.227521
Si Si4 0.897416 0.422555 0.531973
Si Si5 0.291269 0.924198 0.629082
Si Si6 0.646991 0.074795 0.081335
Si Si7 0.491335 0.571601 0.407402
Si Si8 0.674443 0.924686 0.740375
O O1 0.073319 0.250000 0.313123
O O2 0.124945 0.507348 0.381606
O O3 0.189438 0.449352 0.240364
O O4 0.969590 0.491395 0.239756
O O5 0.424404 0.750000 0.136030
O O6 0.554277 0.976213 0.116434
O O7 0.369401 0.019648 0.176990
O O8 0.353405 0.957942 0.017569
O O9 0.847956 0.250000 0.236647
O O10 0.778686 0.010617 0.301845
O O11 0.769844 0.026433 0.134843
O O12 0.930787 0.250000 0.546860
O O13 0.782051 0.443417 0.464578
O O14 0.000000 0.500000 0.500000
O O15 0.325909 0.750000 0.648303
O O16 0.403685 0.023122 0.635831
O O17 0.620221 0.250000 0.095700
O O18 0.500000 0.500000 0.500000
O O19 0.487329 0.750000 0.416904
O O20 0.378434 0.516429 0.344493
O O21 0.642714 0.750000 0.724492
#
# Coordination Sequence:
#
# PCOD8074178 Si02
#       8
#     4   4   4   4   4   4   4   4
#     4  10  21  38  57  79 107 146 194 236 277 332
#     4  10  20  35  57  87 117 146 185 230 282 341
#     4   9  17  34  57  81 108 140 182 230 280 330
#     4  11  21  34  54  80 111 148 187 229 276 329
#     4  10  20  35  57  82 111 146 186 233 284 336
#     4   9  18  34  60  87 113 146 183 231 286 340
#     4  12  25  40  58  82 114 147 186 234 281 335
#     4  11  23  39  60  82 111 152 193 231 279 339
#
# _framework density 19.155830999999999
#
# number of rings (size 3 to 8) (size 9 to 14) (size 15 to 20)
#    0.000    1.750    1.250    3.750    0.000    5.500 
#    0.000    1.250    0.000    0.000    0.000    0.000 
#    0.000    0.000    0.000    0.000    0.000    0.000 
#
# Total GULP energy -396855.204959 kJ/mol
# GULP energy per Si atom -12401.725155 kJ/mol
# Density = 1.911223 g / cm^3
# Si number density = 19.155831 Si / 1000 Ang^3
#
#
#
# Elastic Constant Matrix: (Units=GPa)
#
#
# Indices 1 2 3 4 5 6 
#
# 1 122.9560 44.0921 54.7751 0.0000 8.4770 0.0000
# 2 44.0921 87.2257 34.4265 0.0000 0.3657 0.0000
# 3 54.7751 34.4265 108.1992 0.0000 8.0523 0.0000
# 4 0.0000 0.0000 0.0000 29.1152 0.0000 -1.2046
# 5 8.4770 0.3657 8.0523 0.0000 28.6959 0.0000
# 6 0.0000 0.0000 0.0000 -1.2046 0.0000 24.2272
#
#
#
# Elastic Compliance Matrix: (Units=1/GPa)
#
#
# Indices 1 2 3 4 5 6 
#
# 1 0.011771 -0.004178 -0.004468 0.000000 -0.002170 0.000000
# 2 -0.004178 0.014623 -0.002672 0.000000 0.001797 0.000000
# 3 -0.004468 -0.002672 0.012515 0.000000 -0.002158 0.000000
# 4 0.000000 0.000000 0.000000 0.034417 0.000000 0.001711
# 5 -0.002170 0.001797 -0.002158 0.000000 0.036072 0.000000
# 6 0.000000 0.000000 0.000000 0.001711 0.000000 0.041361
#
#
# Mechanical properties :
#
#
# Convention : Reuss Voigt Hill
#
# Bulk Modulus (GPa) = 61.44728 64.99645 63.22187
# Shear Modulus (GPa) = 27.96115 28.74681 28.35398
#
# Velocity S-wave (km/s) = 3.82471 3.87807 3.85148
# Velocity P-wave (km/s) = 7.18691 7.35232 7.27009
#
# Compressibility (1/GPa) = 0.01627411
#
# Stress axis : x y z
#
# Youngs Moduli (GPa) = 84.95217 68.38450 79.90443
#
# Poissons Ratio (x) = 0.28569 0.35705
# Poissons Ratio (y) = 0.35490 0.21348
# Poissons Ratio (z) = 0.37960 0.18270
#
# Static dielectric constant tensor:
#      x y z
#    x 3.724200 0.000000 0.160060 
#    y 0.000000 3.279890 0.000000 
#    z 0.160060 0.000000 3.549500 
# 
# 
# High freq. dielectric constant tensor:
#      x y z
#    x 1.751150 0.000000 0.005500 
#    y 0.000000 1.735830 0.000000 
#    z 0.005500 0.000000 1.742310 
# 
# From -- ./inp_files/49393.got.cif
#   From: 2010.06.25/outbox.cif.g09.slc.cpg/sg11_25_cif.got.tgz:49393.got - 2010.06.27 23:14:04.
