data_PCOD8074495
_publ_section_title
;
Structure prediction by ZEFSAII (Michael W. Deem and Ramdas Pophale) SiO2 
 PCOD8074495
Probable space group: P 21/M
;
_chemical_formula_sum "Si O2"
_cell_formula_units_Z 32
_cell_length_a 13.394334
_cell_length_b 9.168484
_cell_length_c 31.694425
_cell_angle_alpha 90.000000
_cell_angle_beta 155.074264
_cell_angle_gamma 90.000000
_cell_volume 1640.365319
_symmetry_space_group_name_H-M "P 21/M"
_symmetry_group_IT_number 11
_symmetry_cell_setting 'monoclinic'
loop_
_space_group_symop_operation_xyz
x,y,z
-x,1/2+y,-z
-x,-y,-z
x,1/2-y,z
loop_
_atom_site_type_symbol
_atom_site_label
_atom_site_fract_x
_atom_site_fract_y
_atom_site_fract_z
Si Si1 0.103210 0.590260 0.440517
Si Si2 0.593662 0.577269 0.226004
Si Si3 0.886491 0.919713 0.089125
Si Si4 0.535406 0.574735 0.557182
Si Si5 0.765269 0.089449 0.416504
Si Si6 0.561671 0.921892 0.118062
Si Si7 0.345539 0.921782 0.213270
Si Si8 0.012243 0.920106 0.233805
O O1 0.052648 0.750000 0.401567
O O2 0.296089 0.510026 0.486223
O O3 0.243753 0.608696 0.537410
O O4 0.842847 0.513997 0.341004
O O5 0.594854 0.750000 0.224464
O O6 0.562381 0.515381 0.166531
O O7 0.384304 0.530560 0.178750
O O8 0.830125 0.750000 0.062591
O O9 0.952943 0.957327 0.162619
O O10 0.089475 0.966791 0.133232
O O11 0.653821 0.008730 0.989457
O O12 0.500000 0.500000 0.500000
O O13 0.544806 0.750000 0.558857
O O14 0.765664 0.518391 0.669423
O O15 0.774186 0.250000 0.398156
O O16 0.537431 0.001769 0.315060
O O17 0.000000 0.000000 0.500000
O O18 0.524402 0.750000 0.104027
O O19 0.799952 0.963692 0.184235
O O20 0.388695 0.750000 0.235344
O O21 0.075135 0.750000 0.263022
#
# Coordination Sequence:
#
# PCOD8074495 Si02
#       8
#     4   4   4   4   4   4   4   4
#     4   9  18  33  54  78 109 149 187 219 266 334
#     4   9  17  33  55  77 105 146 187 220 264 329
#     4  10  22  38  58  84 113 142 178 237 296 329
#     4  11  22  36  57  85 116 151 187 227 274 329
#     4  11  20  33  55  82 110 145 185 226 268 322
#     4  10  21  37  60  81 103 144 191 231 276 340
#     4  10  20  36  56  79 112 149 182 224 280 334
#     4  10  21  39  59  81 111 146 186 231 282 336
#
# _framework density 19.507849
#
# number of rings (size 3 to 8) (size 9 to 14) (size 15 to 20)
#    0.000    2.000    1.250    2.625    0.000    4.000 
#    0.000    2.500    0.000    0.000    0.000    0.000 
#    0.000    0.000    0.000    0.000    0.000    0.000 
#
# Total GULP energy -396483.518030 kJ/mol
# GULP energy per Si atom -12390.109938 kJ/mol
# Density = 1.946345 g / cm^3
# Si number density = 19.507849 Si / 1000 Ang^3
#
#
#
# Elastic Constant Matrix: (Units=GPa)
#
#
# Indices 1 2 3 4 5 6 
#
# 1 140.8415 17.7061 33.3208 0.0000 3.5276 0.0000
# 2 17.7061 39.2166 22.8947 0.0000 4.0966 0.0000
# 3 33.3208 22.8947 79.5608 0.0000 -0.2800 0.0000
# 4 0.0000 0.0000 0.0000 35.3727 0.0000 -1.6270
# 5 3.5276 4.0966 -0.2800 0.0000 32.5635 0.0000
# 6 0.0000 0.0000 0.0000 -1.6270 0.0000 16.9146
#
#
#
# Elastic Compliance Matrix: (Units=1/GPa)
#
#
# Indices 1 2 3 4 5 6 
#
# 1 0.008022 -0.001912 -0.002812 0.000000 -0.000653 0.000000
# 2 -0.001912 0.031616 -0.008311 0.000000 -0.003842 0.000000
# 3 -0.002812 -0.008311 0.016143 0.000000 0.001489 0.000000
# 4 0.000000 0.000000 0.000000 0.028396 0.000000 0.002731
# 5 -0.000653 -0.003842 0.001489 0.000000 0.031276 0.000000
# 6 0.000000 0.000000 0.000000 0.002731 0.000000 0.059383
#
#
# Mechanical properties :
#
#
# Convention : Reuss Voigt Hill
#
# Bulk Modulus (GPa) = 33.65629 45.27358 39.46493
# Shear Modulus (GPa) = 23.71809 29.34999 26.53404
#
# Velocity S-wave (km/s) = 3.49065 3.88302 3.69205
# Velocity P-wave (km/s) = 5.79105 6.58499 6.20074
#
# Compressibility (1/GPa) = 0.02971213
#
# Stress axis : x y z
#
# Youngs Moduli (GPa) = 124.65488 31.62976 61.94524
#
# Poissons Ratio (x) = 0.06049 0.17418
# Poissons Ratio (y) = 0.23838 0.51480
# Poissons Ratio (z) = 0.35050 0.26286
#
# Static dielectric constant tensor:
#      x y z
#    x 4.031340 0.000000 0.107120 
#    y 0.000000 3.840990 0.000000 
#    z 0.107120 0.000000 3.205010 
# 
# 
# High freq. dielectric constant tensor:
#      x y z
#    x 1.782310 0.000000 0.003160 
#    y 0.000000 1.732370 0.000000 
#    z 0.003160 0.000000 1.759920 
# 
# From -- ./inp_files/73192.got.cif
#   From: 2010.06.25/outbox.cif.g09.slc.cpg/sg11_37_cif.got.tgz:73192.got - 2010.06.27 23:14:04.
