data_PCOD8074433
_publ_section_title
;
Structure prediction by ZEFSAII (Michael W. Deem and Ramdas Pophale) SiO2 
 PCOD8074433
Probable space group: P 21/M
;
_chemical_formula_sum "Si O2"
_cell_formula_units_Z 32
_cell_length_a 8.152620
_cell_length_b 13.999212
_cell_length_c 13.390439
_cell_angle_alpha 90.000000
_cell_angle_beta 118.782844
_cell_angle_gamma 90.000000
_cell_volume 1339.439780
_symmetry_space_group_name_H-M "P 21/M"
_symmetry_group_IT_number 11
_symmetry_cell_setting 'monoclinic'
loop_
_space_group_symop_operation_xyz
x,y,z
-x,1/2+y,-z
-x,-y,-z
x,1/2-y,z
loop_
_atom_site_type_symbol
_atom_site_label
_atom_site_fract_x
_atom_site_fract_y
_atom_site_fract_z
Si Si1 0.611789 0.059296 0.935589
Si Si2 0.214777 0.143982 0.225611
Si Si3 0.252793 0.355419 0.005634
Si Si4 0.185525 0.860230 0.821409
Si Si5 0.566934 0.041351 0.416278
Si Si6 0.260701 0.465272 0.718304
Si Si7 0.126987 0.640781 0.381018
Si Si8 0.841476 0.358389 0.829874
O O1 0.402352 0.088550 0.837441
O O2 0.749110 0.067263 0.879524
O O3 0.610735 0.947085 0.973771
O O4 0.683295 0.129058 0.042651
O O5 0.243822 0.250000 0.276726
O O6 0.187670 0.145176 0.100093
O O7 0.392778 0.083810 0.307262
O O8 0.023136 0.101917 0.214856
O O9 0.344064 0.250000 0.007733
O O10 0.065298 0.371771 0.887381
O O11 0.189792 0.750000 0.789723
O O12 0.256606 0.922987 0.749508
O O13 0.726785 0.119053 0.488150
O O14 0.500000 0.000000 0.500000
O O15 0.656494 0.961308 0.369638
O O16 0.058507 0.420376 0.658171
O O17 0.064577 0.750000 0.368517
O O18 0.226375 0.618941 0.302898
O O19 0.789963 0.250000 0.847294
#
# Coordination Sequence:
#
# PCOD8074433 Si02
#       8
#     4   4   4   4   4   4   4   4
#     4  12  22  39  66 101 137 184 223 277 335 413
#     4  10  21  41  68 100 130 170 225 285 341 399
#     4  10  20  35  63  99 132 172 224 283 338 397
#     4  11  25  43  67 103 145 180 221 279 353 420
#     4  12  25  47  73  98 129 175 239 295 341 401
#     4  12  27  44  66  98 137 186 228 279 346 412
#     4  11  26  46  68  99 139 185 230 282 344 408
#     4  10  21  39  67  98 132 174 223 278 339 403
#
# _framework density 23.890584
#
# number of rings (size 3 to 8) (size 9 to 14) (size 15 to 20)
#    0.000    1.000    2.500    4.125    1.750    2.500 
#    0.000    3.750    0.000    0.000    0.000    0.000 
#    0.000    0.000    0.000    0.000    0.000    0.000 
#
# Total GULP energy -396845.864011 kJ/mol
# GULP energy per Si atom -12401.433250 kJ/mol
# Density = 2.383621 g / cm^3
# Si number density = 23.890584 Si / 1000 Ang^3
#
#
#
# Elastic Constant Matrix: (Units=GPa)
#
#
# Indices 1 2 3 4 5 6 
#
# 1 74.8219 14.6352 24.6878 0.0000 11.6702 0.0000
# 2 14.6352 91.6529 19.1940 0.0000 7.3148 0.0000
# 3 24.6878 19.1940 100.5111 0.0000 7.9642 0.0000
# 4 0.0000 0.0000 0.0000 30.8189 0.0000 -2.3596
# 5 11.6702 7.3148 7.9642 0.0000 37.3488 0.0000
# 6 0.0000 0.0000 0.0000 -2.3596 0.0000 28.5105
#
#
#
# Elastic Compliance Matrix: (Units=1/GPa)
#
#
# Indices 1 2 3 4 5 6 
#
# 1 0.015295 -0.001473 -0.003173 0.000000 -0.003814 0.000000
# 2 -0.001473 0.011627 -0.001744 0.000000 -0.001445 0.000000
# 3 -0.003173 -0.001744 0.011144 0.000000 -0.001043 0.000000
# 4 0.000000 0.000000 0.000000 0.032655 0.000000 0.002703
# 5 -0.003814 -0.001445 -0.001043 0.000000 0.028472 0.000000
# 6 0.000000 0.000000 0.000000 0.002703 0.000000 0.035298
#
#
# Mechanical properties :
#
#
# Convention : Reuss Voigt Hill
#
# Bulk Modulus (GPa) = 39.54932 42.66888 41.10910
# Shear Modulus (GPa) = 32.11304 33.23359 32.67331
#
# Velocity S-wave (km/s) = 3.67027 3.73376 3.70215
# Velocity P-wave (km/s) = 5.87805 6.04043 5.95979
#
# Compressibility (1/GPa) = 0.02528488
#
# Stress axis : x y z
#
# Youngs Moduli (GPa) = 65.38010 86.01034 89.73233
#
# Poissons Ratio (x) = 0.12673 0.28474
# Poissons Ratio (y) = 0.09633 0.15648
# Poissons Ratio (z) = 0.20747 0.14999
#
# Static dielectric constant tensor:
#      x y z
#    x 4.281400 0.000000 0.154200 
#    y 0.000000 4.086670 0.000000 
#    z 0.154200 0.000000 3.271420 
# 
# 
# High freq. dielectric constant tensor:
#      x y z
#    x 1.956650 0.000000 0.002840 
#    y 0.000000 1.941640 0.000000 
#    z 0.002840 0.000000 1.950930 
# 
# From -- ./inp_files/47655.got.cif
#   From: 2010.06.25/outbox.cif.g09.slc.cpg/sg11_24_cif.got.tgz:47655.got - 2010.06.27 23:14:04.
