data_PCOD8074715
_publ_section_title
;
Structure prediction by ZEFSAII (Michael W. Deem and Ramdas Pophale) SiO2 
 PCOD8074715
Probable space group: P 21/M
;
_chemical_formula_sum "Si O2"
_cell_formula_units_Z 32
_cell_length_a 14.564426
_cell_length_b 8.832304
_cell_length_c 12.478139
_cell_angle_alpha 90.000000
_cell_angle_beta 91.383561
_cell_angle_gamma 90.000000
_cell_volume 1604.687863
_symmetry_space_group_name_H-M "P 21/M"
_symmetry_group_IT_number 11
_symmetry_cell_setting 'monoclinic'
loop_
_space_group_symop_operation_xyz
x,y,z
-x,1/2+y,-z
-x,-y,-z
x,1/2-y,z
loop_
_atom_site_type_symbol
_atom_site_label
_atom_site_fract_x
_atom_site_fract_y
_atom_site_fract_z
Si Si1 0.993768 0.571091 0.821282
Si Si2 0.281428 0.073630 0.685842
Si Si3 0.473346 0.075484 0.610918
Si Si4 0.173035 0.074121 0.886258
Si Si5 0.789532 0.574963 0.876433
Si Si6 0.215055 0.424689 0.454292
Si Si7 0.335532 0.576004 0.299211
Si Si8 0.036336 0.572651 0.394090
O O1 0.999241 0.750000 0.818607
O O2 0.892920 0.516171 0.855275
O O3 0.017074 0.501111 0.706103
O O4 0.074838 0.508421 0.899084
O O5 0.294840 0.250000 0.708771
O O6 0.381643 0.002180 0.662177
O O7 0.233381 0.002542 0.790251
O O8 0.215827 0.045235 0.581405
O O9 0.452624 0.250000 0.582988
O O10 0.554050 0.059634 0.702078
O O11 0.500000 0.000000 0.500000
O O12 0.151780 0.250000 0.864737
O O13 0.229644 0.051848 0.997799
O O14 0.781007 0.750000 0.842301
O O15 0.712413 0.481945 0.810627
O O16 0.192354 0.250000 0.429366
O O17 0.309850 0.473601 0.401868
O O18 0.143321 0.531065 0.390060
O O19 0.307180 0.750000 0.317137
O O20 0.018517 0.750000 0.393720
O O21 0.000000 0.500000 0.500000
#
# Coordination Sequence:
#
# PCOD8074715 Si02
#       8
#     4   4   4   4   4   4   4   4
#     4  11  22  37  57  84 116 154 196 244 293 345
#     4   9  19  36  59  84 115 150 187 236 295 351
#     4  10  20  36  58  87 116 149 189 237 293 353
#     4  10  21  39  61  85 112 154 202 244 292 347
#     4  10  22  39  60  83 115 156 201 243 288 347
#     4  11  20  34  57  83 115 153 190 233 292 352
#     4  11  22  35  57  86 115 148 191 240 291 345
#     4  12  24  37  54  81 118 158 196 239 290 347
#
# _framework density 19.941572000000001
#
# number of rings (size 3 to 8) (size 9 to 14) (size 15 to 20)
#    0.000    1.500    2.500    3.375    0.000    2.500 
#    0.000    1.875    0.000    0.000    0.000    0.000 
#    0.000    0.000    0.000    0.000    0.000    0.000 
#
# Total GULP energy -396754.369171 kJ/mol
# GULP energy per Si atom -12398.574037 kJ/mol
# Density = 1.989618 g / cm^3
# Si number density = 19.941572 Si / 1000 Ang^3
#
#
#
# Elastic Constant Matrix: (Units=GPa)
#
#
# Indices 1 2 3 4 5 6 
#
# 1 87.6561 26.7155 29.9680 0.0000 7.3714 0.0000
# 2 26.7155 59.2799 26.8224 0.0000 8.4815 0.0000
# 3 29.9680 26.8224 109.2020 0.0000 4.0369 0.0000
# 4 0.0000 0.0000 0.0000 25.3637 0.0000 3.1638
# 5 7.3714 8.4815 4.0369 0.0000 26.9309 0.0000
# 6 0.0000 0.0000 0.0000 3.1638 0.0000 24.6462
#
#
#
# Elastic Compliance Matrix: (Units=1/GPa)
#
#
# Indices 1 2 3 4 5 6 
#
# 1 0.013919 -0.004843 -0.002560 0.000000 -0.001901 0.000000
# 2 -0.004843 0.021449 -0.003759 0.000000 -0.004866 0.000000
# 3 -0.002560 -0.003759 0.010773 0.000000 0.000270 0.000000
# 4 0.000000 0.000000 0.000000 0.040068 0.000000 -0.005143
# 5 -0.001901 -0.004866 0.000270 0.000000 0.039144 0.000000
# 6 0.000000 0.000000 0.000000 -0.005143 0.000000 0.041234
#
#
# Mechanical properties :
#
#
# Convention : Reuss Voigt Hill
#
# Bulk Modulus (GPa) = 41.98674 47.01664 44.50169
# Shear Modulus (GPa) = 25.39987 26.89698 26.14842
#
# Velocity S-wave (km/s) = 3.57279 3.67657 3.62505
# Velocity P-wave (km/s) = 6.17417 6.45378 6.31552
#
# Compressibility (1/GPa) = 0.02381704
#
# Stress axis : x y z
#
# Youngs Moduli (GPa) = 71.84306 46.62274 92.82178
#
# Poissons Ratio (x) = 0.22577 0.23763
# Poissons Ratio (y) = 0.34790 0.34896
# Poissons Ratio (z) = 0.18393 0.17528
#
# Static dielectric constant tensor:
#      x y z
#    x 4.030770 0.000000 -0.048000 
#    y 0.000000 3.542200 0.000000 
#    z -0.048000 0.000000 3.657470 
# 
# 
# High freq. dielectric constant tensor:
#      x y z
#    x 1.778160 0.000000 0.006230 
#    y 0.000000 1.761230 0.000000 
#    z 0.006230 0.000000 1.777930 
# 
# From -- ./inp_files/38149.got.cif
#   From: 2010.06.25/outbox.cif.g09.slc.cpg/sg11_20_cif.got.tgz:38149.got - 2010.06.27 23:14:04.
