data_PCOD8074600
_publ_section_title
;
Structure prediction by ZEFSAII (Michael W. Deem and Ramdas Pophale) SiO2 
 PCOD8074600
Probable space group: P 21/M
;
_chemical_formula_sum "Si O2"
_cell_formula_units_Z 32
_cell_length_a 19.216544
_cell_length_b 17.638135
_cell_length_c 14.278598
_cell_angle_alpha 90.000000
_cell_angle_beta 160.522443
_cell_angle_gamma 90.000000
_cell_volume 1613.719626
_symmetry_space_group_name_H-M "P 21/M"
_symmetry_group_IT_number 11
_symmetry_cell_setting 'monoclinic'
loop_
_space_group_symop_operation_xyz
x,y,z
-x,1/2+y,-z
-x,-y,-z
x,1/2-y,z
loop_
_atom_site_type_symbol
_atom_site_label
_atom_site_fract_x
_atom_site_fract_y
_atom_site_fract_z
Si Si1 0.547770 0.660734 0.967430
Si Si2 0.679078 0.413418 0.492631
Si Si3 0.353159 0.409866 0.544001
Si Si4 0.885619 0.838562 0.918138
Si Si5 0.996307 0.162318 0.415744
Si Si6 0.511832 0.163601 0.458508
Si Si7 0.412889 0.661338 0.001103
Si Si8 0.717359 0.336467 0.901384
O O1 0.546044 0.750000 0.941444
O O2 0.440930 0.613865 0.750869
O O3 0.422099 0.644157 0.903082
O O4 0.781200 0.626067 0.276500
O O5 0.704317 0.502738 0.522468
O O6 0.542176 0.390554 0.409073
O O7 0.907352 0.377763 0.781587
O O8 0.165577 0.367732 0.251477
O O9 0.392104 0.377629 0.697905
O O10 0.563079 0.396803 0.751662
O O11 0.929089 0.750000 0.967822
O O12 0.699258 0.857894 0.754066
O O13 0.021202 0.250000 0.470150
O O14 0.808793 0.129208 0.241823
O O15 0.942672 0.150639 0.236330
O O16 0.502057 0.250000 0.409915
O O17 0.711894 0.152283 0.782232
O O18 0.431882 0.750000 0.046508
O O19 0.637928 0.250000 0.822614
#
# Coordination Sequence:
#
# PCOD8074600 Si02
#       8
#     4   4   4   4   4   4   4   4
#     4  10  21  35  52  77 107 144 188 224 263 326
#     4  12  24  36  52  82 121 149 175 219 277 338
#     4  10  20  36  57  83 112 141 179 231 285 327
#     4  10  21  39  61  82 107 144 190 230 265 320
#     4   8  15  31  55  80 102 127 173 232 274 308
#     4   9  19  36  58  80 105 142 182 222 270 323
#     4   9  18  36  60  80 103 142 190 236 273 309
#     4   8  15  32  57  81 103 134 183 234 273 317
#
# _framework density 19.829961999999998
#
# number of rings (size 3 to 8) (size 9 to 14) (size 15 to 20)
#    0.000    2.500    0.000    4.125    0.000    4.500 
#    0.000   10.000    0.000    0.000    0.000    0.000 
#    0.000    0.000    0.000    0.000    0.000    0.000 
#
# Total GULP energy -396617.990196 kJ/mol
# GULP energy per Si atom -12394.312194 kJ/mol
# Density = 1.978483 g / cm^3
# Si number density = 19.829962 Si / 1000 Ang^3
#
#
#
# Elastic Constant Matrix: (Units=GPa)
#
#
# Indices 1 2 3 4 5 6 
#
# 1 61.9693 13.5504 6.4134 0.0000 -14.2240 0.0000
# 2 13.5504 -2.7886 -43.0050 0.0000 -7.4738 0.0000
# 3 6.4134 -43.0050 49.6413 0.0000 -11.4007 0.0000
# 4 0.0000 0.0000 0.0000 22.0621 0.0000 -4.2746
# 5 -14.2240 -7.4738 -11.4007 0.0000 31.8617 0.0000
# 6 0.0000 0.0000 0.0000 -4.2746 0.0000 19.2943
#
#
#
# Elastic Compliance Matrix: (Units=1/GPa)
#
#
# Indices 1 2 3 4 5 6 
#
# 1 0.017174 0.003938 0.003449 0.000000 0.009825 0.000000
# 2 0.003938 -0.018963 -0.019126 0.000000 -0.009534 0.000000
# 3 0.003449 -0.019126 0.002673 0.000000 -0.001990 0.000000
# 4 0.000000 0.000000 0.000000 0.047360 0.000000 0.010492
# 5 0.009825 -0.009534 -0.001990 0.000000 0.032823 0.000000
# 6 0.000000 0.000000 0.000000 0.010492 0.000000 0.054153
#
#
# Mechanical properties :
#
#
# Convention : Reuss Voigt Hill
#
# Bulk Modulus (GPa) = -44.25690 6.97108 -18.64291
# Shear Modulus (GPa) = 33.07577 23.43448 28.25513
#
# Velocity S-wave (km/s) = 4.08851 3.44142 3.77884
# Velocity P-wave (km/s) = 0.28067 4.39479 3.10125
#
# Compressibility (1/GPa) = -0.02259535
#
# Stress axis : x y z
#
# Youngs Moduli (GPa) = 58.22687 -52.73500 374.14660
#
# Poissons Ratio (x) = 0.20764 -1.29030
# Poissons Ratio (y) = -0.22927 7.15591
# Poissons Ratio (z) = -0.20080 -1.00861
#
# Static dielectric constant tensor:
#      x y z
#    x 3.567510 0.000000 -0.091980 
#    y 0.000000 3.305840 0.000000 
#    z -0.091980 0.000000 3.828980 
# 
# 
# High freq. dielectric constant tensor:
#      x y z
#    x 1.766490 0.000000 -0.011830 
#    y 0.000000 1.744850 0.000000 
#    z -0.011830 0.000000 1.780350 
# 
# From -- ./inp_files/55039.got.cif
#   From: 2010.06.25/outbox.cif.g09.slc.cpg/sg11_28_cif.got.tgz:55039.got - 2010.06.27 23:14:04.
