data_PCOD8074547
_publ_section_title
;
Structure prediction by ZEFSAII (Michael W. Deem and Ramdas Pophale) SiO2 
 PCOD8074547
Probable space group: P 21/M
;
_chemical_formula_sum "Si O2"
_cell_formula_units_Z 32
_cell_length_a 11.076234
_cell_length_b 23.194956
_cell_length_c 16.513670
_cell_angle_alpha 90.000000
_cell_angle_beta 22.830055
_cell_angle_gamma 90.000000
_cell_volume 1646.114347
_symmetry_space_group_name_H-M "P 21/M"
_symmetry_group_IT_number 11
_symmetry_cell_setting 'monoclinic'
loop_
_space_group_symop_operation_xyz
x,y,z
-x,1/2+y,-z
-x,-y,-z
x,1/2-y,z
loop_
_atom_site_type_symbol
_atom_site_label
_atom_site_fract_x
_atom_site_fract_y
_atom_site_fract_z
Si Si1 0.653721 0.814803 0.433243
Si Si2 0.096713 0.615824 0.850075
Si Si3 0.506852 0.919944 0.121196
Si Si4 0.425065 0.463358 0.363142
Si Si5 0.338527 0.316877 0.757647
Si Si6 0.436159 0.051458 0.167624
Si Si7 0.776784 0.411979 0.537191
Si Si8 0.115842 0.893586 0.222165
O O1 0.573610 0.750000 0.505417
O O2 0.347052 0.850426 0.642876
O O3 0.761580 0.821447 0.273761
O O4 0.937614 0.834272 0.314860
O O5 0.255589 0.561210 0.796425
O O6 0.858598 0.592834 0.929983
O O7 0.930248 0.656460 0.019333
O O8 0.271834 0.904040 0.337554
O O9 0.394658 0.882283 0.113669
O O10 0.470754 0.986004 0.117852
O O11 0.396393 0.442964 0.288178
O O12 0.427805 0.533040 0.367114
O O13 0.125315 0.440905 0.595856
O O14 0.397600 0.250000 0.745562
O O15 0.658176 0.353605 0.567731
O O16 0.143041 0.077897 0.299273
O O17 0.743553 0.084950 0.949857
#
# Coordination Sequence:
#
# PCOD8074547 Si02
#       8
#     4   4   4   4   4   4   4   4
#     4  10  23  42  59  81 111 149 194 244 283 329
#     4  10  22  37  64  86 115 147 187 237 294 335
#     4  10  20  36  56  89 117 147 185 228 281 354
#     4  10  20  37  56  89 118 146 187 231 282 351
#     4  10  22  40  59  81 111 150 196 236 278 337
#     4  11  20  34  58  82 123 155 176 228 289 330
#     4  10  20  36  59  83 120 155 183 235 288 327
#     4  11  21  35  59  82 113 153 190 223 282 349
#
# _framework density 19.439719
#
# number of rings (size 3 to 8) (size 9 to 14) (size 15 to 20)
#    0.000    1.750    2.500    2.250    1.750    5.500 
#    0.000    6.250    0.000    0.000    0.000    0.000 
#    0.000    0.000    0.000    0.000    0.000    0.000 
#
# Total GULP energy -396749.850275 kJ/mol
# GULP energy per Si atom -12398.432821 kJ/mol
# Density = 1.939547 g / cm^3
# Si number density = 19.439719 Si / 1000 Ang^3
#
#
#
# Elastic Constant Matrix: (Units=GPa)
#
#
# Indices 1 2 3 4 5 6 
#
# 1 83.8698 47.4435 43.2098 0.0000 -26.3829 0.0000
# 2 47.4435 97.2454 40.8499 0.0000 -12.5462 0.0000
# 3 43.2098 40.8499 104.0372 0.0000 -11.0714 0.0000
# 4 0.0000 0.0000 0.0000 15.1132 0.0000 3.3542
# 5 -26.3829 -12.5462 -11.0714 0.0000 36.2544 0.0000
# 6 0.0000 0.0000 0.0000 3.3542 0.0000 24.0253
#
#
#
# Elastic Compliance Matrix: (Units=1/GPa)
#
#
# Indices 1 2 3 4 5 6 
#
# 1 0.022590 -0.007233 -0.005230 0.000000 0.012340 0.000000
# 2 -0.007233 0.014928 -0.002964 0.000000 -0.001003 0.000000
# 3 -0.005230 -0.002964 0.012851 0.000000 -0.000907 0.000000
# 4 0.000000 0.000000 0.000000 0.068283 0.000000 -0.009533
# 5 0.012340 -0.001003 -0.000907 0.000000 0.035939 0.000000
# 6 0.000000 0.000000 0.000000 -0.009533 0.000000 0.042954
#
#
# Mechanical properties :
#
#
# Convention : Reuss Voigt Hill
#
# Bulk Modulus (GPa) = 51.23730 60.90655 56.07193
# Shear Modulus (GPa) = 21.28542 25.32187 23.30364
#
# Velocity S-wave (km/s) = 3.31258 3.61305 3.46607
# Velocity P-wave (km/s) = 6.40665 6.98602 6.70260
#
# Compressibility (1/GPa) = 0.01951703
#
# Stress axis : x y z
#
# Youngs Moduli (GPa) = 44.26654 66.99000 77.81331
#
# Poissons Ratio (x) = 0.48451 0.40693
# Poissons Ratio (y) = 0.32016 0.23065
# Poissons Ratio (z) = 0.23149 0.19856
#
# Static dielectric constant tensor:
#      x y z
#    x 3.621840 0.000000 -0.026270 
#    y 0.000000 3.490510 0.000000 
#    z -0.026270 0.000000 3.635560 
# 
# 
# High freq. dielectric constant tensor:
#      x y z
#    x 1.760700 0.000000 0.004540 
#    y 0.000000 1.736290 0.000000 
#    z 0.004540 0.000000 1.767450 
# 
# From -- ./inp_files/23109.got.cif
#   From: 2010.06.25/outbox.cif.g09.slc.cpg/sg11_12_cif.got.tgz:23109.got - 2010.06.27 23:14:04.
