data_PCOD8074803
_publ_section_title
;
Structure prediction by ZEFSAII (Michael W. Deem and Ramdas Pophale) SiO2 
 PCOD8074803
Probable space group: P 21/M
;
_chemical_formula_sum "Si O2"
_cell_formula_units_Z 32
_cell_length_a 24.494630
_cell_length_b 8.522841
_cell_length_c 15.884737
_cell_angle_alpha 90.000000
_cell_angle_beta 26.623643
_cell_angle_gamma 90.000000
_cell_volume 1486.063610
_symmetry_space_group_name_H-M "P 21/M"
_symmetry_group_IT_number 11
_symmetry_cell_setting 'monoclinic'
loop_
_space_group_symop_operation_xyz
x,y,z
-x,1/2+y,-z
-x,-y,-z
x,1/2-y,z
loop_
_atom_site_type_symbol
_atom_site_label
_atom_site_fract_x
_atom_site_fract_y
_atom_site_fract_z
Si Si1 0.744887 0.931656 0.650904
Si Si2 0.008199 0.932394 0.732008
Si Si3 0.320805 0.567395 0.086068
Si Si4 0.899935 0.565470 0.701210
Si Si5 0.423948 0.567389 0.679302
Si Si6 0.359018 0.064476 0.514483
Si Si7 0.795381 0.435719 0.118532
Si Si8 0.584431 0.432441 0.733543
O O1 0.738827 0.750000 0.684481
O O2 0.746536 0.036036 0.732806
O O3 0.628311 0.972870 0.754834
O O4 0.867421 0.970366 0.431027
O O5 0.039697 0.750000 0.693708
O O6 0.940185 0.977576 0.739649
O O7 0.925098 0.981807 0.926036
O O8 0.352424 0.750000 0.031752
O O9 0.230633 0.516394 0.135118
O O10 0.443181 0.467021 0.913413
O O11 0.886397 0.750000 0.705635
O O12 0.000000 0.500000 0.500000
O O13 0.500000 0.500000 0.500000
O O14 0.426985 0.750000 0.663456
O O15 0.497177 0.521849 0.663320
O O16 0.285016 0.512311 0.853853
O O17 0.339204 0.250000 0.536763
O O18 0.265745 0.995090 0.711063
O O19 0.334672 0.986348 0.457939
O O20 0.812529 0.250000 0.100927
O O21 0.605170 0.250000 0.721281
#
# Coordination Sequence:
#
# PCOD8074803 Si02
#       8
#     4   4   4   4   4   4   4   4
#     4  12  25  45  69  93 124 165 213 264 321 381
#     4  11  24  41  63  94 130 171 214 260 315 379
#     4  12  25  43  67  96 131 168 211 261 318 381
#     4  11  23  40  64  96 133 171 212 260 318 379
#     4   8  16  30  51  79 114 154 196 243 298 357
#     4  10  20  38  60  89 125 165 211 263 316 371
#     4  10  20  36  59  90 125 169 213 257 313 375
#     4  12  26  44  66  94 127 166 214 265 319 378
#
# _framework density 21.533397999999998
#
# number of rings (size 3 to 8) (size 9 to 14) (size 15 to 20)
#    0.000    1.250    1.250    5.250    1.750    2.500 
#    0.000    0.625    0.000    0.000    0.000    0.000 
#    0.000    0.000    0.000    0.000    0.000    0.000 
#
# Total GULP energy -396754.757529 kJ/mol
# GULP energy per Si atom -12398.586173 kJ/mol
# Density = 2.148439 g / cm^3
# Si number density = 21.533398 Si / 1000 Ang^3
#
#
#
# Elastic Constant Matrix: (Units=GPa)
#
#
# Indices 1 2 3 4 5 6 
#
# 1 62.8307 20.7311 9.2488 0.0000 -9.3650 0.0000
# 2 20.7311 82.8024 15.6227 0.0000 -0.0637 0.0000
# 3 9.2488 15.6227 88.4783 0.0000 -8.0443 0.0000
# 4 0.0000 0.0000 0.0000 37.5401 0.0000 0.0029
# 5 -9.3650 -0.0637 -8.0443 0.0000 26.7065 0.0000
# 6 0.0000 0.0000 0.0000 0.0029 0.0000 32.5479
#
#
#
# Elastic Compliance Matrix: (Units=1/GPa)
#
#
# Indices 1 2 3 4 5 6 
#
# 1 0.018419 -0.004501 -0.000560 0.000000 0.006280 0.000000
# 2 -0.004501 0.013604 -0.002130 0.000000 -0.002188 0.000000
# 3 -0.000560 -0.002130 0.012049 0.000000 0.003428 0.000000
# 4 0.000000 0.000000 0.000000 0.026638 0.000000 -0.000002
# 5 0.006280 -0.002188 0.003428 0.000000 0.040673 0.000000
# 6 0.000000 0.000000 0.000000 -0.000002 0.000000 0.030724
#
#
# Mechanical properties :
#
#
# Convention : Reuss Voigt Hill
#
# Bulk Modulus (GPa) = 33.68212 36.14629 34.91420
# Shear Modulus (GPa) = 30.05046 31.92615 30.98830
#
# Velocity S-wave (km/s) = 3.73973 3.85468 3.79764
# Velocity P-wave (km/s) = 5.85860 6.05260 5.95639
#
# Compressibility (1/GPa) = 0.02968934
#
# Stress axis : x y z
#
# Youngs Moduli (GPa) = 54.29080 73.50686 82.99758
#
# Poissons Ratio (x) = 0.33087 0.04645
# Poissons Ratio (y) = 0.24437 0.17683
# Poissons Ratio (z) = 0.03039 0.15661
#
# Static dielectric constant tensor:
#      x y z
#    x 3.979400 0.000000 -0.101720 
#    y 0.000000 3.766940 0.000000 
#    z -0.101720 0.000000 3.842860 
# 
# 
# High freq. dielectric constant tensor:
#      x y z
#    x 1.839150 0.000000 -0.001830 
#    y 0.000000 1.852140 0.000000 
#    z -0.001830 0.000000 1.848700 
# 
# From -- ./inp_files/55582.got.cif
#   From: 2010.06.25/outbox.cif.g09.slc.cpg/sg11_28_cif.got.tgz:55582.got - 2010.06.27 23:14:04.
