data_PCOD8074933
_publ_section_title
;
Structure prediction by ZEFSAII (Michael W. Deem and Ramdas Pophale) SiO2 
 PCOD8074933
Probable space group: P 21/M
;
_chemical_formula_sum "Si O2"
_cell_formula_units_Z 32
_cell_length_a 8.907660
_cell_length_b 14.928670
_cell_length_c 14.559454
_cell_angle_alpha 90.000000
_cell_angle_beta 127.442994
_cell_angle_gamma 90.000000
_cell_volume 1537.190572
_symmetry_space_group_name_H-M "P 21/M"
_symmetry_group_IT_number 11
_symmetry_cell_setting 'monoclinic'
loop_
_space_group_symop_operation_xyz
x,y,z
-x,1/2+y,-z
-x,-y,-z
x,1/2-y,z
loop_
_atom_site_type_symbol
_atom_site_label
_atom_site_fract_x
_atom_site_fract_y
_atom_site_fract_z
Si Si1 0.928867 0.977758 0.574638
Si Si2 0.782524 0.977328 0.927688
Si Si3 0.559784 0.598181 0.000213
Si Si4 0.393917 0.150426 0.600262
Si Si5 0.467813 0.851479 0.154050
Si Si6 0.615594 0.088540 0.528697
Si Si7 0.240350 0.650345 0.750627
Si Si8 0.447489 0.149186 0.280113
O O1 0.761176 0.907782 0.506675
O O2 0.087441 0.930237 0.697216
O O3 0.837913 0.066465 0.589578
O O4 0.000000 0.000000 0.500000
O O5 0.705297 0.927090 0.806925
O O6 0.695213 0.074870 0.916046
O O7 0.736717 0.907924 0.995074
O O8 0.000000 0.000000 0.000000
O O9 0.603866 0.646918 0.113941
O O10 0.500000 0.500000 0.000000
O O11 0.379672 0.647940 0.889228
O O12 0.315992 0.250000 0.571714
O O13 0.415583 0.118313 0.713265
O O14 0.591453 0.143866 0.615302
O O15 0.387433 0.750000 0.137771
O O16 0.510022 0.141704 0.408417
O O17 0.500000 0.000000 0.500000
O O18 0.146616 0.750000 0.713487
O O19 0.361330 0.632666 0.704846
O O20 0.366688 0.250000 0.232943
#
# Coordination Sequence:
#
# PCOD8074933 Si02
#       8
#     4   4   4   4   4   4   4   4
#     4  11  21  35  61  93 122 153 200 258 317 373
#     4  10  21  39  62  94 123 158 205 269 327 382
#     4   9  20  38  62  86 119 162 208 250 314 373
#     4  10  22  40  59  82 122 167 205 249 306 373
#     4  10  21  41  64  84 121 171 218 257 309 375
#     4  10  20  37  58  86 123 166 205 247 313 383
#     4  10  20  36  61  92 124 155 202 259 309 370
#     4  10  20  37  62  90 125 166 206 258 320 385
#
# _framework density 20.817198999999999
#
# number of rings (size 3 to 8) (size 9 to 14) (size 15 to 20)
#    0.000    2.000    1.250    2.625    3.500    1.000 
#   13.500    0.000    0.000    3.000    0.000    0.000 
#    0.000    0.000    0.000    0.000    0.000    0.000 
#
# Total GULP energy -396419.553807 kJ/mol
# GULP energy per Si atom -12388.111056 kJ/mol
# Density = 2.076982 g / cm^3
# Si number density = 20.817199 Si / 1000 Ang^3
#
#
#
# Elastic Constant Matrix: (Units=GPa)
#
#
# Indices 1 2 3 4 5 6 
#
# 1 91.9261 23.4882 53.1543 0.0000 0.6935 0.0000
# 2 23.4882 85.1380 25.2216 0.0000 8.3785 0.0000
# 3 53.1543 25.2216 103.3367 0.0000 -18.0460 0.0000
# 4 0.0000 0.0000 0.0000 33.7888 0.0000 -1.8555
# 5 0.6935 8.3785 -18.0460 0.0000 34.3176 0.0000
# 6 0.0000 0.0000 0.0000 -1.8555 0.0000 22.2819
#
#
#
# Elastic Compliance Matrix: (Units=1/GPa)
#
#
# Indices 1 2 3 4 5 6 
#
# 1 0.016439 -0.001432 -0.008923 0.000000 -0.004675 0.000000
# 2 -0.001432 0.013686 -0.003504 0.000000 -0.005155 0.000000
# 3 -0.008923 -0.003504 0.016850 0.000000 0.009897 0.000000
# 4 0.000000 0.000000 0.000000 0.029732 0.000000 0.002476
# 5 -0.004675 -0.005155 0.009897 0.000000 0.035697 0.000000
# 6 0.000000 0.000000 0.000000 0.002476 0.000000 0.045086
#
#
# Mechanical properties :
#
#
# Convention : Reuss Voigt Hill
#
# Bulk Modulus (GPa) = 51.92691 53.79211 52.85951
# Shear Modulus (GPa) = 26.09257 29.98012 28.03634
#
# Velocity S-wave (km/s) = 3.54420 3.79906 3.67384
# Velocity P-wave (km/s) = 6.46118 6.71864 6.59117
#
# Compressibility (1/GPa) = 0.01925784
#
# Stress axis : x y z
#
# Youngs Moduli (GPa) = 60.83192 73.06709 59.34638
#
# Poissons Ratio (x) = 0.10462 0.52952
# Poissons Ratio (y) = 0.08710 0.20796
# Poissons Ratio (z) = 0.54278 0.25603
#
# Static dielectric constant tensor:
#      x y z
#    x 4.302010 0.000000 -0.290400 
#    y 0.000000 4.366530 0.000000 
#    z -0.290400 0.000000 3.468080 
# 
# 
# High freq. dielectric constant tensor:
#      x y z
#    x 1.800530 0.000000 -0.030510 
#    y 0.000000 1.825230 0.000000 
#    z -0.030510 0.000000 1.797790 
# 
# From -- ./inp_files/47645.got.cif
#   From: 2010.06.25/outbox.cif.g09.slc.cpg/sg11_24_cif.got.tgz:47645.got - 2010.06.27 23:14:04.
