data_PCOD8074350
_publ_section_title
;
Structure prediction by ZEFSAII (Michael W. Deem and Ramdas Pophale) SiO2 
 PCOD8074350
Probable space group: P 21/M
;
_chemical_formula_sum "Si O2"
_cell_formula_units_Z 28
_cell_length_a 14.177774
_cell_length_b 14.297490
_cell_length_c 13.961992
_cell_angle_alpha 90.000000
_cell_angle_beta 31.104751
_cell_angle_gamma 90.000000
_cell_volume 1462.087206
_symmetry_space_group_name_H-M "P 21/M"
_symmetry_group_IT_number 11
_symmetry_cell_setting 'monoclinic'
loop_
_space_group_symop_operation_xyz
x,y,z
-x,1/2+y,-z
-x,-y,-z
x,1/2-y,z
loop_
_atom_site_type_symbol
_atom_site_label
_atom_site_fract_x
_atom_site_fract_y
_atom_site_fract_z
Si Si1 0.382492 0.644651 0.235191
Si Si2 0.413247 0.856848 0.987234
Si Si3 0.320787 0.146364 0.871011
Si Si4 0.986658 0.015649 0.123371
Si Si5 0.981169 0.359056 0.755881
Si Si6 0.409934 0.960510 0.483477
Si Si7 0.697667 0.539867 0.611333
O O1 0.299772 0.750000 0.318872
O O2 0.405145 0.617569 0.105421
O O3 0.582296 0.639183 0.110042
O O4 0.253268 0.567517 0.399720
O O5 0.470730 0.750000 0.921832
O O6 0.219571 0.877419 0.108296
O O7 0.565637 0.919697 0.806128
O O8 0.244707 0.250000 0.918564
O O9 0.468493 0.125995 0.658605
O O10 0.153449 0.075755 0.017063
O O11 0.990522 0.913770 0.169302
O O12 0.798567 0.069471 0.312525
O O13 0.000000 0.000000 0.000000
O O14 0.020999 0.250000 0.739601
O O15 0.119647 0.398811 0.554960
O O16 0.500000 0.000000 0.500000
O O17 0.406031 0.038197 0.401569
#
# Coordination Sequence:
#
# PCOD8074350 Si02
#       7
#     4   4   4   4   4   4   4
#     4   9  19  36  59  85 115 153 194 238 288 337
#     4  10  20  36  58  85 118 152 191 239 286 341
#     4  10  21  39  60  84 116 152 193 239 285 344
#     4  11  22  37  60  82 116 153 192 238 292 345
#     4  10  22  38  56  84 116 148 191 238 287 346
#     4  10  20  37  57  80 113 150 190 239 285 339
#     4  10  20  35  59  82 113 153 189 236 287 346
#
# _framework density 19.150703
#
# number of rings (size 3 to 8) (size 9 to 14) (size 15 to 20)
#    0.000    2.000    1.429    2.571    0.000    1.714 
#    0.000    5.714    0.000   12.857    0.000    0.000 
#    0.000    0.000    0.000    0.000    0.000    0.000 
#
# Total GULP energy -347132.510442 kJ/mol
# GULP energy per Si atom -12397.589659 kJ/mol
# Density = 1.910712 g / cm^3
# Si number density = 19.150703 Si / 1000 Ang^3
#
#
#
# Elastic Constant Matrix: (Units=GPa)
#
#
# Indices 1 2 3 4 5 6 
#
# 1 83.7473 27.9699 29.5297 0.0000 23.2547 0.0000
# 2 27.9699 117.7355 58.4770 0.0000 3.8071 0.0000
# 3 29.5297 58.4770 111.0892 0.0000 2.8758 0.0000
# 4 0.0000 0.0000 0.0000 30.4480 0.0000 -0.9131
# 5 23.2547 3.8071 2.8758 0.0000 27.1155 0.0000
# 6 0.0000 0.0000 0.0000 -0.9131 0.0000 21.6609
#
#
#
# Elastic Compliance Matrix: (Units=1/GPa)
#
#
# Indices 1 2 3 4 5 6 
#
# 1 0.017884 -0.002168 -0.003232 0.000000 -0.014690 0.000000
# 2 -0.002168 0.011789 -0.005650 0.000000 0.000803 0.000000
# 3 -0.003232 -0.005650 0.012778 0.000000 0.002210 0.000000
# 4 0.000000 0.000000 0.000000 0.032884 0.000000 0.001386
# 5 -0.014690 0.000803 0.002210 0.000000 0.049131 0.000000
# 6 0.000000 0.000000 0.000000 0.001386 0.000000 0.046224
#
#
# Mechanical properties :
#
#
# Convention : Reuss Voigt Hill
#
# Bulk Modulus (GPa) = 49.14111 60.50280 54.82196
# Shear Modulus (GPa) = 25.05329 28.95123 27.00226
#
# Velocity S-wave (km/s) = 3.62085 3.89235 3.75905
# Velocity P-wave (km/s) = 6.57242 7.20154 6.89416
#
# Compressibility (1/GPa) = 0.02034956
#
# Stress axis : x y z
#
# Youngs Moduli (GPa) = 55.91712 84.82444 78.25948
#
# Poissons Ratio (x) = 0.18391 0.25295
# Poissons Ratio (y) = 0.12123 0.44218
# Poissons Ratio (z) = 0.18074 0.47927
#
# Static dielectric constant tensor:
#      x y z
#    x 3.588720 0.000000 0.022110 
#    y 0.000000 3.740290 0.000000 
#    z 0.022110 0.000000 3.548130 
# 
# 
# High freq. dielectric constant tensor:
#      x y z
#    x 1.752620 0.000000 0.006960 
#    y 0.000000 1.743100 0.000000 
#    z 0.006960 0.000000 1.740890 
# 
# From -- ./inp_files/52443.got.cif
#   From: 2010.06.25/outbox.cif.g09.slc.cpg/sg11_27_cif.got.tgz:52443.got - 2010.06.27 23:14:04.
