data_PCOD8074881
_publ_section_title
;
Structure prediction by ZEFSAII (Michael W. Deem and Ramdas Pophale) SiO2 
 PCOD8074881
Probable space group: P 21/M
;
_chemical_formula_sum "Si O2"
_cell_formula_units_Z 28
_cell_length_a 26.809790
_cell_length_b 8.695902
_cell_length_c 9.695651
_cell_angle_alpha 90.000000
_cell_angle_beta 141.939180
_cell_angle_gamma 90.000000
_cell_volume 1393.530312
_symmetry_space_group_name_H-M "P 21/M"
_symmetry_group_IT_number 11
_symmetry_cell_setting 'monoclinic'
loop_
_space_group_symop_operation_xyz
x,y,z
-x,1/2+y,-z
-x,-y,-z
x,1/2-y,z
loop_
_atom_site_type_symbol
_atom_site_label
_atom_site_fract_x
_atom_site_fract_y
_atom_site_fract_z
Si Si1 0.728720 0.930866 0.479923
Si Si2 0.852676 0.068037 0.951702
Si Si3 0.302609 0.928619 0.873510
Si Si4 0.488846 0.571836 0.327915
Si Si5 0.808596 0.568245 0.151888
Si Si6 0.020828 0.427500 0.403023
Si Si7 0.567084 0.068909 0.244547
O O1 0.714361 0.750000 0.456477
O O2 0.810089 0.977450 0.735885
O O3 0.737580 0.981637 0.340933
O O4 0.655423 0.017426 0.392970
O O5 0.836179 0.250000 0.903579
O O6 0.949010 0.026072 0.140389
O O7 0.819674 0.011011 0.027743
O O8 0.279957 0.750000 0.815005
O O9 0.269953 0.998118 0.945706
O O10 0.398509 0.954101 0.075780
O O11 0.500000 0.500000 0.500000
O O12 0.511534 0.750000 0.382255
O O13 0.551857 0.486059 0.366515
O O14 0.797239 0.750000 0.104586
O O15 0.885114 0.531309 0.422722
O O16 0.013034 0.250000 0.412640
O O17 0.000000 0.500000 0.500000
O O18 0.561464 0.250000 0.222273
O O19 0.500000 0.000000 0.000000
#
# Coordination Sequence:
#
# PCOD8074881 Si02
#       7
#     4   4   4   4   4   4   4
#     4  12  25  41  62  88 119 157 200 246 296 350
#     4  10  20  37  61  89 121 156 198 245 294 349
#     4  11  24  42  61  85 120 159 197 242 300 356
#     4  11  25  43  64  89 121 157 199 246 296 349
#     4  10  20  36  60  90 122 156 198 244 294 352
#     4   8  16  32  56  85 117 154 194 240 291 346
#     4  12  24  42  66  90 119 157 199 241 292 351
#
# _framework density 20.092853999999999
#
# number of rings (size 3 to 8) (size 9 to 14) (size 15 to 20)
#    0.000    1.429    1.429    4.286    2.000    2.857 
#    0.000    0.714    0.000    0.000    0.000    0.000 
#    0.000    0.000    0.000    0.000    0.000    0.000 
#
# Total GULP energy -347113.473730 kJ/mol
# GULP energy per Si atom -12396.909776 kJ/mol
# Density = 2.004712 g / cm^3
# Si number density = 20.092854 Si / 1000 Ang^3
#
#
#
# Elastic Constant Matrix: (Units=GPa)
#
#
# Indices 1 2 3 4 5 6 
#
# 1 41.5335 17.7165 -4.1773 0.0000 -12.2382 0.0000
# 2 17.7165 118.2580 33.8267 0.0000 -5.9961 0.0000
# 3 -4.1773 33.8267 87.4240 0.0000 -13.2616 0.0000
# 4 0.0000 0.0000 0.0000 35.3460 0.0000 -3.3116
# 5 -12.2382 -5.9961 -13.2616 0.0000 30.7836 0.0000
# 6 0.0000 0.0000 0.0000 -3.3116 0.0000 30.3818
#
#
#
# Elastic Compliance Matrix: (Units=1/GPa)
#
#
# Indices 1 2 3 4 5 6 
#
# 1 0.031093 -0.005603 0.005738 0.000000 0.013742 0.000000
# 2 -0.005603 0.010520 -0.004671 0.000000 -0.002190 0.000000
# 3 0.005738 -0.004671 0.014688 0.000000 0.007699 0.000000
# 4 0.000000 0.000000 0.000000 0.028584 0.000000 0.003116
# 5 0.013742 -0.002190 0.007699 0.000000 0.040838 0.000000
# 6 0.000000 0.000000 0.000000 0.003116 0.000000 0.033254
#
#
# Mechanical properties :
#
#
# Convention : Reuss Voigt Hill
#
# Bulk Modulus (GPa) = 21.17256 37.99413 29.58334
# Shear Modulus (GPa) = 27.20480 32.62559 29.91519
#
# Velocity S-wave (km/s) = 3.68360 4.03394 3.86274
# Velocity P-wave (km/s) = 5.35277 6.37552 5.88640
#
# Compressibility (1/GPa) = 0.04723095
#
# Stress axis : x y z
#
# Youngs Moduli (GPa) = 32.16139 95.05373 68.08400
#
# Poissons Ratio (x) = 0.53256 -0.39067
# Poissons Ratio (y) = 0.18019 0.31799
# Poissons Ratio (z) = -0.18455 0.44396
#
# Static dielectric constant tensor:
#      x y z
#    x 3.538560 0.000000 0.142130 
#    y 0.000000 4.716000 0.000000 
#    z 0.142130 0.000000 3.798670 
# 
# 
# High freq. dielectric constant tensor:
#      x y z
#    x 1.772660 0.000000 0.010990 
#    y 0.000000 1.800390 0.000000 
#    z 0.010990 0.000000 1.793270 
# 
# From -- ./inp_files/28574.got.cif
#   From: 2010.06.25/outbox.cif.g09.slc.cpg/sg11_15_cif.got.tgz:28574.got - 2010.06.27 23:14:04.
