data_PCOD8074299
_publ_section_title
;
Structure prediction by ZEFSAII (Michael W. Deem and Ramdas Pophale) SiO2 
 PCOD8074299
Probable space group: P 21/M
;
_chemical_formula_sum "Si O2"
_cell_formula_units_Z 28
_cell_length_a 20.886573
_cell_length_b 9.443747
_cell_length_c 23.848822
_cell_angle_alpha 90.000000
_cell_angle_beta 161.297936
_cell_angle_gamma 90.000000
_cell_volume 1508.362745
_symmetry_space_group_name_H-M "P 21/M"
_symmetry_group_IT_number 11
_symmetry_cell_setting 'monoclinic'
loop_
_space_group_symop_operation_xyz
x,y,z
-x,1/2+y,-z
-x,-y,-z
x,1/2-y,z
loop_
_atom_site_type_symbol
_atom_site_label
_atom_site_fract_x
_atom_site_fract_y
_atom_site_fract_z
Si Si1 0.811574 0.914729 0.103615
Si Si2 0.108328 0.901401 0.130717
Si Si3 0.672336 0.912747 0.172968
Si Si4 0.951325 0.415567 0.587145
Si Si5 0.134422 0.586417 0.279506
Si Si6 0.399648 0.417402 0.758856
Si Si7 0.458358 0.095036 0.519315
O O1 0.746909 0.750000 0.054683
O O2 0.948253 0.956968 0.270181
O O3 0.940420 0.944471 0.155116
O O4 0.617845 0.012377 0.936982
O O5 0.998801 0.750000 0.043554
O O6 0.102752 0.963758 0.189100
O O7 0.319435 0.881298 0.274442
O O8 0.000000 0.000000 0.000000
O O9 0.621750 0.750000 0.118421
O O10 0.887914 0.953178 0.327275
O O11 0.683200 0.944941 0.247703
O O12 0.500000 0.000000 0.000000
O O13 0.891201 0.250000 0.536441
O O14 0.752387 0.508465 0.411133
O O15 0.199070 0.750000 0.337437
O O16 0.323005 0.487834 0.453512
O O17 0.415201 0.250000 0.758188
O O18 0.363353 0.250000 0.426483
O O19 0.500000 0.000000 0.500000
#
# Coordination Sequence:
#
# PCOD8074299 Si02
#       7
#     4   4   4   4   4   4   4
#     4  10  21  40  62  81 112 155 197 237 281 343
#     4   9  18  32  51  78 108 134 170 218 266 316
#     4  10  20  35  58  86 113 147 191 240 293 339
#     4  10  21  38  60  84 111 151 196 236 286 346
#     4   9  19  36  56  79 105 139 183 226 271 325
#     4  11  23  37  57  87 119 150 188 241 295 340
#     4   9  17  31  52  76 102 134 172 216 264 316
#
# _framework density 18.563175000000001
#
# number of rings (size 3 to 8) (size 9 to 14) (size 15 to 20)
#    0.000    2.286    1.429    2.143    0.000    5.143 
#    2.571    0.000    0.000    0.000    0.000    0.000 
#    0.000    0.000    0.000    0.000    0.000    0.000 
#
# Total GULP energy -346917.372880 kJ/mol
# GULP energy per Si atom -12389.906174 kJ/mol
# Density = 1.852092 g / cm^3
# Si number density = 18.563175 Si / 1000 Ang^3
#
#
#
# Elastic Constant Matrix: (Units=GPa)
#
#
# Indices 1 2 3 4 5 6 
#
# 1 98.0258 44.5527 55.8169 0.0000 15.6805 0.0000
# 2 44.5527 112.3157 77.0246 0.0000 9.2133 0.0000
# 3 55.8169 77.0246 126.3542 0.0000 -0.1693 0.0000
# 4 0.0000 0.0000 0.0000 39.9907 0.0000 2.7463
# 5 15.6805 9.2133 -0.1693 0.0000 22.4112 0.0000
# 6 0.0000 0.0000 0.0000 2.7463 0.0000 27.2298
#
#
#
# Elastic Compliance Matrix: (Units=1/GPa)
#
#
# Indices 1 2 3 4 5 6 
#
# 1 0.016120 -0.001043 -0.006500 0.000000 -0.010899 0.000000
# 2 -0.001043 0.016331 -0.009502 0.000000 -0.006056 0.000000
# 3 -0.006500 -0.009502 0.016590 0.000000 0.008580 0.000000
# 4 0.000000 0.000000 0.000000 0.025180 0.000000 -0.002540
# 5 -0.010899 -0.006056 0.008580 0.000000 0.054801 0.000000
# 6 0.000000 0.000000 0.000000 -0.002540 0.000000 0.036981
#
#
# Mechanical properties :
#
#
# Convention : Reuss Voigt Hill
#
# Bulk Modulus (GPa) = 66.88995 76.83156 71.86076
# Shear Modulus (GPa) = 24.38132 28.54644 26.46388
#
# Velocity S-wave (km/s) = 3.62805 3.92573 3.77982
# Velocity P-wave (km/s) = 7.32545 7.87576 7.60558
#
# Compressibility (1/GPa) = 0.01494993
#
# Stress axis : x y z
#
# Youngs Moduli (GPa) = 62.03516 61.23510 60.27828
#
# Poissons Ratio (x) = 0.06385 0.39180
# Poissons Ratio (y) = 0.06468 0.57279
# Poissons Ratio (z) = 0.40322 0.58188
#
# Static dielectric constant tensor:
#      x y z
#    x 3.107600 0.000000 0.131480 
#    y 0.000000 5.003300 0.000000 
#    z 0.131480 0.000000 3.470420 
# 
# 
# High freq. dielectric constant tensor:
#      x y z
#    x 1.708350 0.000000 0.012460 
#    y 0.000000 1.729200 0.000000 
#    z 0.012460 0.000000 1.713500 
# 
# From -- ./inp_files/69845.got.cif
#   From: 2010.06.25/outbox.cif.g09.slc.cpg/sg11_35_cif.got.tgz:69845.got - 2010.06.27 23:14:04.
