data_PCOD8074650
_publ_section_title
;
Structure prediction by ZEFSAII (Michael W. Deem and Ramdas Pophale) SiO2 
 PCOD8074650
Probable space group: P 21/M
;
_chemical_formula_sum "Si O2"
_cell_formula_units_Z 28
_cell_length_a 8.044049
_cell_length_b 8.541145
_cell_length_c 25.603692
_cell_angle_alpha 90.000000
_cell_angle_beta 128.977189
_cell_angle_gamma 90.000000
_cell_volume 1367.527124
_symmetry_space_group_name_H-M "P 21/M"
_symmetry_group_IT_number 11
_symmetry_cell_setting 'monoclinic'
loop_
_space_group_symop_operation_xyz
x,y,z
-x,1/2+y,-z
-x,-y,-z
x,1/2-y,z
loop_
_atom_site_type_symbol
_atom_site_label
_atom_site_fract_x
_atom_site_fract_y
_atom_site_fract_z
Si Si1 0.969827 0.425014 0.076774
Si Si2 0.023014 0.063992 0.663884
Si Si3 0.847117 0.563774 0.425620
Si Si4 0.704722 0.070877 0.931772
Si Si5 0.627998 0.428524 0.654792
Si Si6 0.704487 0.071752 0.195351
Si Si7 0.957612 0.425720 0.803149
O O1 0.980337 0.250000 0.102216
O O2 0.149569 0.444482 0.068464
O O3 0.028492 0.550398 0.132418
O O4 0.742210 0.453511 0.002033
O O5 0.031963 0.250000 0.671408
O O6 0.797733 0.001270 0.645223
O O7 0.052781 0.008097 0.610052
O O8 0.227844 0.993820 0.734785
O O9 0.839002 0.750000 0.424714
O O10 0.608487 0.492980 0.389987
O O11 0.000000 0.500000 0.500000
O O12 0.764370 0.250000 0.929092
O O13 0.465193 0.037311 0.867313
O O14 0.594499 0.250000 0.631894
O O15 0.719689 0.443432 0.732088
O O16 0.625395 0.250000 0.184773
O O17 0.906848 0.060672 0.197507
O O18 0.040786 0.250000 0.806543
#
# Coordination Sequence:
#
# PCOD8074650 Si02
#       7
#     4   4   4   4   4   4   4
#     4  10  21  36  54  81 112 144 189 243 288 332
#     4   9  19  37  59  81 112 152 191 231 285 349
#     4  10  21  37  58  85 115 148 187 229 278 343
#     4  10  21  37  55  76 110 153 191 230 287 351
#     4   8  17  35  56  81 111 147 190 231 274 338
#     4  11  22  36  56  83 112 142 186 243 291 334
#     4  10  20  36  58  81 108 148 191 230 287 352
#
# _framework density 20.474913000000001
#
# number of rings (size 3 to 8) (size 9 to 14) (size 15 to 20)
#    0.000    2.286    0.000    3.429    2.000    3.429 
#    0.000    3.571    0.000    0.000    0.000    0.000 
#    0.000    0.000    0.000    0.000    0.000    0.000 
#
# Total GULP energy -346911.699533 kJ/mol
# GULP energy per Si atom -12389.703555 kJ/mol
# Density = 2.042831 g / cm^3
# Si number density = 20.474913 Si / 1000 Ang^3
#
#
#
# Elastic Constant Matrix: (Units=GPa)
#
#
# Indices 1 2 3 4 5 6 
#
# 1 99.2350 19.6355 73.9405 0.0000 -2.7927 0.0000
# 2 19.6355 49.9235 37.6410 0.0000 -2.1816 0.0000
# 3 73.9405 37.6410 170.8386 0.0000 1.0697 0.0000
# 4 0.0000 0.0000 0.0000 32.0923 0.0000 -2.4959
# 5 -2.7927 -2.1816 1.0697 0.0000 29.8456 0.0000
# 6 0.0000 0.0000 0.0000 -2.4959 0.0000 20.5029
#
#
#
# Elastic Compliance Matrix: (Units=1/GPa)
#
#
# Indices 1 2 3 4 5 6 
#
# 1 0.015004 -0.001115 -0.006258 0.000000 0.001547 0.000000
# 2 -0.001115 0.024218 -0.004865 0.000000 0.001840 0.000000
# 3 -0.006258 -0.004865 0.009642 0.000000 -0.001287 0.000000
# 4 0.000000 0.000000 0.000000 0.031458 0.000000 0.003830
# 5 0.001547 0.001840 -0.001287 0.000000 0.033831 0.000000
# 6 0.000000 0.000000 0.000000 0.003830 0.000000 0.049240
#
#
# Mechanical properties :
#
#
# Convention : Reuss Voigt Hill
#
# Bulk Modulus (GPa) = 41.00436 64.71457 52.85946
# Shear Modulus (GPa) = 25.51055 29.07349 27.29202
#
# Velocity S-wave (km/s) = 3.53362 3.77232 3.65492
# Velocity P-wave (km/s) = 6.05960 7.11683 6.60939
#
# Compressibility (1/GPa) = 0.02438765
#
# Stress axis : x y z
#
# Youngs Moduli (GPa) = 66.64861 41.29233 103.71516
#
# Poissons Ratio (x) = 0.04606 0.64903
# Poissons Ratio (y) = 0.07434 0.50453
# Poissons Ratio (z) = 0.41707 0.20087
#
# Static dielectric constant tensor:
#      x y z
#    x 3.691600 0.000000 0.065760 
#    y 0.000000 3.364960 0.000000 
#    z 0.065760 0.000000 4.147340 
# 
# 
# High freq. dielectric constant tensor:
#      x y z
#    x 1.783420 0.000000 -0.000810 
#    y 0.000000 1.780740 0.000000 
#    z -0.000810 0.000000 1.809860 
# 
# From -- ./inp_files/70932.got.cif
#   From: 2010.06.25/outbox.cif.g09.slc.cpg/sg11_36_cif.got.tgz:70932.got - 2010.06.27 23:14:04.
