data_PCOD8074275
_publ_section_title
;
Structure prediction by ZEFSAII (Michael W. Deem and Ramdas Pophale) SiO2 
 PCOD8074275
Probable space group: P 21/M
;
_chemical_formula_sum "Si O2"
_cell_formula_units_Z 28
_cell_length_a 18.342165
_cell_length_b 9.214243
_cell_length_c 14.636908
_cell_angle_alpha 90.000000
_cell_angle_beta 33.416322
_cell_angle_gamma 90.000000
_cell_volume 1362.351895
_symmetry_space_group_name_H-M "P 21/M"
_symmetry_group_IT_number 11
_symmetry_cell_setting 'monoclinic'
loop_
_space_group_symop_operation_xyz
x,y,z
-x,1/2+y,-z
-x,-y,-z
x,1/2-y,z
loop_
_atom_site_type_symbol
_atom_site_label
_atom_site_fract_x
_atom_site_fract_y
_atom_site_fract_z
Si Si1 0.531418 0.412995 0.557480
Si Si2 0.251862 0.579010 0.373238
Si Si3 0.259929 0.915845 0.155226
Si Si4 0.821915 0.411959 0.210650
Si Si5 0.013022 0.582020 0.295873
Si Si6 0.521631 0.577612 0.187668
Si Si7 0.920019 0.580508 0.949150
O O1 0.500000 0.500000 0.500000
O O2 0.480688 0.250000 0.594566
O O3 0.688873 0.417226 0.408421
O O4 0.468456 0.475978 0.716894
O O5 0.225420 0.750000 0.412486
O O6 0.271806 0.534939 0.247246
O O7 0.382701 0.526653 0.289510
O O8 0.126298 0.495656 0.544277
O O9 0.305387 0.750000 0.095089
O O10 0.106952 0.935669 0.285915
O O11 0.355975 0.013630 0.994747
O O12 0.849081 0.250000 0.143971
O O13 0.936118 0.457267 0.161086
O O14 0.812272 0.521258 0.134509
O O15 0.987266 0.750000 0.299629
O O16 0.094434 0.506082 0.129381
O O17 0.530620 0.750000 0.173804
O O18 0.895385 0.750000 0.957539
#
# Coordination Sequence:
#
# PCOD8074275 Si02
#       7
#     4   4   4   4   4   4   4
#     4  10  22  38  56  81 114 150 190 236 286 341
#     4  10  21  41  65  88 117 155 200 248 297 354
#     4  10  23  40  60  89 123 157 196 244 299 354
#     4   9  19  37  57  79 112 149 191 243 292 338
#     4  11  23  37  57  88 124 156 194 242 294 352
#     4  10  22  40  63  89 118 154 199 246 295 355
#     4  10  20  35  58  84 112 150 194 239 289 348
#
# _framework density 20.552692
#
# number of rings (size 3 to 8) (size 9 to 14) (size 15 to 20)
#    0.000    2.000    0.000    2.571    2.000    6.286 
#    0.000    1.429    0.000    0.000    0.000    0.000 
#    0.000    0.000    0.000    0.000    0.000    0.000 
#
# Total GULP energy -347252.928723 kJ/mol
# GULP energy per Si atom -12401.890312 kJ/mol
# Density = 2.050591 g / cm^3
# Si number density = 20.552692 Si / 1000 Ang^3
#
#
#
# Elastic Constant Matrix: (Units=GPa)
#
#
# Indices 1 2 3 4 5 6 
#
# 1 78.7964 26.6967 13.9688 0.0000 17.8187 0.0000
# 2 26.6967 69.7296 30.2190 0.0000 11.2060 0.0000
# 3 13.9688 30.2190 81.8552 0.0000 11.4444 0.0000
# 4 0.0000 0.0000 0.0000 40.8610 0.0000 1.2183
# 5 17.8187 11.2060 11.4444 0.0000 35.9518 0.0000
# 6 0.0000 0.0000 0.0000 1.2183 0.0000 29.6788
#
#
#
# Elastic Compliance Matrix: (Units=1/GPa)
#
#
# Indices 1 2 3 4 5 6 
#
# 1 0.015819 -0.005069 0.000049 0.000000 -0.006276 0.000000
# 2 -0.005069 0.019121 -0.005978 0.000000 -0.001544 0.000000
# 3 0.000049 -0.005978 0.014818 0.000000 -0.002878 0.000000
# 4 0.000000 0.000000 0.000000 0.024503 0.000000 -0.001006
# 5 -0.006276 -0.001544 -0.002878 0.000000 0.032323 0.000000
# 6 0.000000 0.000000 0.000000 -0.001006 0.000000 0.033735
#
#
# Mechanical properties :
#
#
# Convention : Reuss Voigt Hill
#
# Bulk Modulus (GPa) = 36.02092 41.35002 38.68547
# Shear Modulus (GPa) = 29.14289 31.93143 30.53716
#
# Velocity S-wave (km/s) = 3.76967 3.94590 3.85879
# Velocity P-wave (km/s) = 6.04246 6.39710 6.22231
#
# Compressibility (1/GPa) = 0.02776164
#
# Stress axis : x y z
#
# Youngs Moduli (GPa) = 63.21559 52.29904 67.48746
#
# Poissons Ratio (x) = 0.26512 -0.00333
# Poissons Ratio (y) = 0.32045 0.40344
# Poissons Ratio (z) = -0.00312 0.31264
#
# Static dielectric constant tensor:
#      x y z
#    x 3.844240 0.000000 0.058770 
#    y 0.000000 3.661370 0.000000 
#    z 0.058770 0.000000 3.750370 
# 
# 
# High freq. dielectric constant tensor:
#      x y z
#    x 1.812700 0.000000 0.002580 
#    y 0.000000 1.795520 0.000000 
#    z 0.002580 0.000000 1.809030 
# 
# From -- ./inp_files/54481.got.cif
#   From: 2010.06.25/outbox.cif.g09.slc.cpg/sg11_28_cif.got.tgz:54481.got - 2010.06.27 23:14:04.
