data_PCOD8074300
_publ_section_title
;
Structure prediction by ZEFSAII (Michael W. Deem and Ramdas Pophale) SiO2 
 PCOD8074300
Probable space group: P 21/M
;
_chemical_formula_sum "Si O2"
_cell_formula_units_Z 28
_cell_length_a 20.847991
_cell_length_b 9.448947
_cell_length_c 23.754976
_cell_angle_alpha 90.000000
_cell_angle_beta 18.823627
_cell_angle_gamma 90.000000
_cell_volume 1509.878547
_symmetry_space_group_name_H-M "P 21/M"
_symmetry_group_IT_number 11
_symmetry_cell_setting 'monoclinic'
loop_
_space_group_symop_operation_xyz
x,y,z
-x,1/2+y,-z
-x,-y,-z
x,1/2-y,z
loop_
_atom_site_type_symbol
_atom_site_label
_atom_site_fract_x
_atom_site_fract_y
_atom_site_fract_z
Si Si1 0.826689 0.412557 0.673224
Si Si2 0.607280 0.098618 0.369762
Si Si3 0.640569 0.087096 0.214973
Si Si4 0.540482 0.582729 0.099643
Si Si5 0.660972 0.585763 0.631798
Si Si6 0.121980 0.584335 0.241543
Si Si7 0.038749 0.404683 0.021902
O O1 0.890180 0.250000 0.613715
O O2 0.614570 0.444014 0.821755
O O3 0.804542 0.453092 0.756862
O O4 0.000000 0.500000 0.500000
O O5 0.498213 0.250000 0.456388
O O6 0.602522 0.035355 0.310521
O O7 0.816830 0.119216 0.227491
O O8 0.500000 0.000000 0.500000
O O9 0.709106 0.250000 0.156066
O O10 0.449777 0.060380 0.335149
O O11 0.827740 0.987655 0.042088
O O12 0.576017 0.750000 0.080645
O O13 0.446579 0.512010 0.233041
O O14 0.749141 0.508217 0.909581
O O15 0.648157 0.750000 0.661841
O O16 0.889351 0.541578 0.431670
O O17 0.151820 0.750000 0.202335
O O18 0.134412 0.250000 0.928722
O O19 0.000000 0.500000 0.000000
#
# Coordination Sequence:
#
# PCOD8074300 Si02
#       7
#     4   4   4   4   4   4   4
#     4  10  20  35  58  86 113 148 192 241 293 343
#     4   9  18  32  51  78 109 135 171 219 266 317
#     4   9  19  36  56  79 105 140 184 226 271 327
#     4  11  23  37  57  87 119 149 188 241 298 347
#     4  10  21  40  62  81 112 155 198 238 281 344
#     4  10  21  38  60  84 113 153 198 239 285 345
#     4   9  17  31  52  76 103 134 172 217 263 317
#
# _framework density 18.544537999999999
#
# number of rings (size 3 to 8) (size 9 to 14) (size 15 to 20)
#    0.000    2.286    1.429    2.143    0.000    5.143 
#    2.571    0.000    0.000    0.000    0.000    0.000 
#    0.000    0.000    0.000    0.000    0.000    0.000 
#
# Total GULP energy -346913.822105 kJ/mol
# GULP energy per Si atom -12389.779361 kJ/mol
# Density = 1.850233 g / cm^3
# Si number density = 18.544538 Si / 1000 Ang^3
#
#
#
# Elastic Constant Matrix: (Units=GPa)
#
#
# Indices 1 2 3 4 5 6 
#
# 1 100.2514 44.8837 57.3807 0.0000 -16.6206 0.0000
# 2 44.8837 108.0189 73.5650 0.0000 -1.9322 0.0000
# 3 57.3807 73.5650 126.6960 0.0000 0.9097 0.0000
# 4 0.0000 0.0000 0.0000 36.9734 0.0000 1.6307
# 5 -16.6206 -1.9322 0.9097 0.0000 24.2191 0.0000
# 6 0.0000 0.0000 0.0000 1.6307 0.0000 28.3162
#
#
#
# Elastic Compliance Matrix: (Units=1/GPa)
#
#
# Indices 1 2 3 4 5 6 
#
# 1 0.016449 -0.002487 -0.006087 0.000000 0.011318 0.000000
# 2 -0.002487 0.015748 -0.008016 0.000000 -0.000149 0.000000
# 3 -0.006087 -0.008016 0.015343 0.000000 -0.005393 0.000000
# 4 0.000000 0.000000 0.000000 0.027115 0.000000 -0.001562
# 5 0.011318 -0.000149 -0.005393 0.000000 0.049248 0.000000
# 6 0.000000 0.000000 0.000000 -0.001562 0.000000 0.035405
#
#
# Mechanical properties :
#
#
# Convention : Reuss Voigt Hill
#
# Bulk Modulus (GPa) = 69.64202 76.29169 72.96686
# Shear Modulus (GPa) = 25.34532 28.51086 26.92809
#
# Velocity S-wave (km/s) = 3.70094 3.92526 3.81475
# Velocity P-wave (km/s) = 7.47650 7.85955 7.67042
#
# Compressibility (1/GPa) = 0.01435915
#
# Stress axis : x y z
#
# Youngs Moduli (GPa) = 60.79492 63.50082 65.17578
#
# Poissons Ratio (x) = 0.15792 0.39672
# Poissons Ratio (y) = 0.15119 0.52248
# Poissons Ratio (z) = 0.37006 0.50905
#
# Static dielectric constant tensor:
#      x y z
#    x 2.925880 0.000000 -0.129990 
#    y 0.000000 5.104110 0.000000 
#    z -0.129990 0.000000 3.483420 
# 
# 
# High freq. dielectric constant tensor:
#      x y z
#    x 1.706460 0.000000 -0.015770 
#    y 0.000000 1.728800 0.000000 
#    z -0.015770 0.000000 1.713200 
# 
# From -- ./inp_files/66724.got.cif
#   From: 2010.06.25/outbox.cif.g09.slc.cpg/sg11_34_cif.got.tgz:66724.got - 2010.06.27 23:14:04.
