data_PCOD8074720
_publ_section_title
;
Structure prediction by ZEFSAII (Michael W. Deem and Ramdas Pophale) SiO2 
 PCOD8074720
Probable space group: P 21/M
;
_chemical_formula_sum "Si O2"
_cell_formula_units_Z 24
_cell_length_a 12.768976
_cell_length_b 15.188510
_cell_length_c 10.208487
_cell_angle_alpha 90.000000
_cell_angle_beta 145.875193
_cell_angle_gamma 90.000000
_cell_volume 1110.691680
_symmetry_space_group_name_H-M "P 21/M"
_symmetry_group_IT_number 11
_symmetry_cell_setting 'monoclinic'
loop_
_space_group_symop_operation_xyz
x,y,z
-x,1/2+y,-z
-x,-y,-z
x,1/2-y,z
loop_
_atom_site_type_symbol
_atom_site_label
_atom_site_fract_x
_atom_site_fract_y
_atom_site_fract_z
Si Si1 0.989643 0.947597 0.798445
Si Si2 0.739734 0.525044 0.103105
Si Si3 0.301860 0.545397 0.324969
Si Si4 0.868582 0.846027 0.442599
Si Si5 0.461402 0.651377 0.704343
Si Si6 0.282982 0.653453 0.797058
O O1 0.901882 0.864217 0.631597
O O2 0.053232 0.013915 0.746232
O O3 0.184038 0.924895 0.075247
O O4 0.829445 0.980148 0.728322
O O5 0.738053 0.582305 0.235519
O O6 0.649220 0.428622 0.041984
O O7 0.623265 0.577852 0.873402
O O8 0.500000 0.500000 0.500000
O O9 0.336417 0.632717 0.446913
O O10 0.771636 0.750000 0.330556
O O11 0.060780 0.846099 0.563248
O O12 0.544075 0.750000 0.779838
O O13 0.339546 0.637942 0.706830
O O14 0.355341 0.750000 0.923454
#
# Coordination Sequence:
#
# PCOD8074720 Si02
#       6
#     4   4   4   4   4   4
#     4  10  22  39  65  87 116 164 209 248 314 357
#     4  11  19  36  61  89 125 161 196 253 309 370
#     4  11  22  42  63  85 117 162 214 257 301 360
#     4  10  20  36  58  90 125 156 198 247 307 373
#     4  11  22  36  58  91 124 161 206 250 303 365
#     4   9  19  34  56  86 119 156 198 246 306 366
#
# _framework density 21.608158
#
# number of rings (size 3 to 8) (size 9 to 14) (size 15 to 20)
#    0.000    1.667    1.667    5.000    0.000    0.667 
#    0.000    1.667    0.000    0.000    0.000    0.000 
#    0.000    0.000    0.000    0.000    0.000    0.000 
#
# Total GULP energy -297382.467501 kJ/mol
# GULP energy per Si atom -12390.936146 kJ/mol
# Density = 2.155898 g / cm^3
# Si number density = 21.608158 Si / 1000 Ang^3
#
#
#
# Elastic Constant Matrix: (Units=GPa)
#
#
# Indices 1 2 3 4 5 6 
#
# 1 88.6205 30.6223 24.0142 0.0000 -1.4506 0.0000
# 2 30.6223 154.9903 49.1683 0.0000 -13.0245 0.0000
# 3 24.0142 49.1683 97.2418 0.0000 -17.8411 0.0000
# 4 0.0000 0.0000 0.0000 18.1518 0.0000 -7.5340
# 5 -1.4506 -13.0245 -17.8411 0.0000 33.9644 0.0000
# 6 0.0000 0.0000 0.0000 -7.5340 0.0000 23.7172
#
#
#
# Elastic Compliance Matrix: (Units=1/GPa)
#
#
# Indices 1 2 3 4 5 6 
#
# 1 0.012553 -0.001827 -0.002442 0.000000 -0.001447 0.000000
# 2 -0.001827 0.007982 -0.003361 0.000000 0.001217 0.000000
# 3 -0.002442 -0.003361 0.013646 0.000000 0.005775 0.000000
# 4 0.000000 0.000000 0.000000 0.063458 0.000000 0.020158
# 5 -0.001447 0.001217 0.005775 0.000000 0.032881 0.000000
# 6 0.000000 0.000000 0.000000 0.020158 0.000000 0.048567
#
#
# Mechanical properties :
#
#
# Convention : Reuss Voigt Hill
#
# Bulk Modulus (GPa) = 52.85309 60.94023 56.89666
# Shear Modulus (GPa) = 24.91860 30.96987 27.94424
#
# Velocity S-wave (km/s) = 3.39957 3.78993 3.60005
# Velocity P-wave (km/s) = 6.31841 6.88586 6.60823
#
# Compressibility (1/GPa) = 0.01892037
#
# Stress axis : x y z
#
# Youngs Moduli (GPa) = 79.65948 125.28811 73.28362
#
# Poissons Ratio (x) = 0.22894 0.17894
# Poissons Ratio (y) = 0.14556 0.24632
# Poissons Ratio (z) = 0.19450 0.42111
#
# Static dielectric constant tensor:
#      x y z
#    x 3.907490 0.000000 -0.116710 
#    y 0.000000 4.121930 0.000000 
#    z -0.116710 0.000000 3.905090 
# 
# 
# High freq. dielectric constant tensor:
#      x y z
#    x 1.850340 0.000000 -0.001070 
#    y 0.000000 1.840170 0.000000 
#    z -0.001070 0.000000 1.839820 
# 
# From -- ./inp_files/39704.got.cif
#   From: 2010.06.25/outbox.cif.g09.slc.cpg/sg11_20_cif.got.tgz:39704.got - 2010.06.27 23:14:04.
