data_PCOD8074172
_publ_section_title
;
Structure prediction by ZEFSAII (Michael W. Deem and Ramdas Pophale) SiO2 
 PCOD8074172
Probable space group: P 21/M
;
_chemical_formula_sum "Si O2"
_cell_formula_units_Z 32
_cell_length_a 14.764124
_cell_length_b 9.104051
_cell_length_c 20.929587
_cell_angle_alpha 90.000000
_cell_angle_beta 37.110766
_cell_angle_gamma 90.000000
_cell_volume 1697.375731
_symmetry_space_group_name_H-M "P 21/M"
_symmetry_group_IT_number 11
_symmetry_cell_setting 'monoclinic'
loop_
_space_group_symop_operation_xyz
x,y,z
-x,1/2+y,-z
-x,-y,-z
x,1/2-y,z
loop_
_atom_site_type_symbol
_atom_site_label
_atom_site_fract_x
_atom_site_fract_y
_atom_site_fract_z
Si Si1 0.911822 0.582086 0.994989
Si Si2 0.358703 0.574392 0.918464
Si Si3 0.057786 0.911803 0.780637
Si Si4 0.343018 0.920929 0.292807
Si Si5 0.108308 0.921567 0.318237
Si Si6 0.637553 0.417543 0.453070
Si Si7 0.199833 0.921125 0.132419
Si Si8 0.211240 0.576916 0.502696
O O1 0.872433 0.750000 0.036359
O O2 0.028075 0.576801 0.871857
O O3 0.758511 0.497075 0.064909
O O4 0.000000 0.500000 0.000000
O O5 0.349745 0.750000 0.917881
O O6 0.523009 0.520909 0.807831
O O7 0.319937 0.515991 0.012920
O O8 0.010802 0.750000 0.781120
O O9 0.232613 0.937977 0.671967
O O10 0.967431 0.033158 0.792759
O O11 0.387773 0.750000 0.261367
O O12 0.196927 0.957699 0.332895
O O13 0.304197 0.964654 0.387098
O O14 0.070660 0.750000 0.333359
O O15 0.216231 0.970259 0.197372
O O16 0.952366 0.006222 0.406505
O O17 0.500000 0.500000 0.500000
O O18 0.589344 0.250000 0.489765
O O19 0.692902 0.480949 0.490530
O O20 0.213984 0.750000 0.118197
O O21 0.184631 0.750000 0.522850
#
# Coordination Sequence:
#
# PCOD8074172 Si02
#       8
#     4   4   4   4   4   4   4   4
#     4  10  20  35  57  82 108 142 184 230 280 335
#     4  10  21  37  55  79 112 148 188 232 279 330
#     4   9  18  34  54  76 104 139 180 224 271 325
#     4  10  22  38  55  81 117 152 185 229 281 335
#     4  10  20  35  58  85 112 145 187 231 280 335
#     4  10  21  36  54  79 107 138 179 225 274 326
#     4   9  18  33  55  81 108 140 181 228 274 325
#     4  10  21  38  58  80 111 147 187 231 277 335
#
# _framework density 18.852633000000001
#
# number of rings (size 3 to 8) (size 9 to 14) (size 15 to 20)
#    0.000    2.250    1.250    1.125    0.000    4.500 
#    0.000    2.500    0.000    0.000    0.000    0.000 
#    0.000    0.000    0.000    0.000    0.000    0.000 
#
# Total GULP energy -396656.211766 kJ/mol
# GULP energy per Si atom -12395.506618 kJ/mol
# Density = 1.880972 g / cm^3
# Si number density = 18.852633 Si / 1000 Ang^3
#
#
#
# Elastic Constant Matrix: (Units=GPa)
#
#
# Indices 1 2 3 4 5 6 
#
# 1 116.4751 34.6985 58.6448 0.0000 2.0444 0.0000
# 2 34.6985 41.2492 42.6274 0.0000 1.5683 0.0000
# 3 58.6448 42.6274 114.7842 0.0000 -0.8346 0.0000
# 4 0.0000 0.0000 0.0000 31.1060 0.0000 -7.1056
# 5 2.0444 1.5683 -0.8346 0.0000 23.5861 0.0000
# 6 0.0000 0.0000 0.0000 -7.1056 0.0000 30.0274
#
#
#
# Elastic Compliance Matrix: (Units=1/GPa)
#
#
# Indices 1 2 3 4 5 6 
#
# 1 0.012524 -0.006306 -0.004063 0.000000 -0.000810 0.000000
# 2 -0.006306 0.042749 -0.012674 0.000000 -0.002744 0.000000
# 3 -0.004063 -0.012674 0.015507 0.000000 0.001744 0.000000
# 4 0.000000 0.000000 0.000000 0.033985 0.000000 0.008042
# 5 -0.000810 -0.002744 0.001744 0.000000 0.042712 0.000000
# 6 0.000000 0.000000 0.000000 0.008042 0.000000 0.035206
#
#
# Mechanical properties :
#
#
# Convention : Reuss Voigt Hill
#
# Bulk Modulus (GPa) = 40.49378 60.49444 50.49411
# Shear Modulus (GPa) = 21.09705 26.04643 23.57174
#
# Velocity S-wave (km/s) = 3.34885 3.72099 3.53982
# Velocity P-wave (km/s) = 6.03977 7.11469 6.59915
#
# Compressibility (1/GPa) = 0.02469515
#
# Stress axis : x y z
#
# Youngs Moduli (GPa) = 79.84797 23.39232 64.48640
#
# Poissons Ratio (x) = 0.14750 0.26199
# Poissons Ratio (y) = 0.50349 0.81730
# Poissons Ratio (z) = 0.32440 0.29648
#
# Static dielectric constant tensor:
#      x y z
#    x 3.504480 0.000000 0.346560 
#    y 0.000000 3.459030 0.000000 
#    z 0.346560 0.000000 3.766030 
# 
# 
# High freq. dielectric constant tensor:
#      x y z
#    x 1.728520 0.000000 0.013610 
#    y 0.000000 1.727890 0.000000 
#    z 0.013610 0.000000 1.741320 
# 
# From -- ./inp_files/65209.got.cif
#   From: 2010.06.25/outbox.cif.g09.slc.cpg/sg11_33_cif.got.tgz:65209.got - 2010.06.27 23:14:04.
