data_PCOD8074996
_publ_section_title
;
Structure prediction by ZEFSAII (Michael W. Deem and Ramdas Pophale) SiO2 
 PCOD8074996
Probable space group: P 21/M
;
_chemical_formula_sum "Si O2"
_cell_formula_units_Z 28
_cell_length_a 20.624356
_cell_length_b 9.245201
_cell_length_c 23.592438
_cell_angle_alpha 90.000000
_cell_angle_beta 19.479069
_cell_angle_gamma 90.000000
_cell_volume 1500.087344
_symmetry_space_group_name_H-M "P 21/M"
_symmetry_group_IT_number 11
_symmetry_cell_setting 'monoclinic'
loop_
_space_group_symop_operation_xyz
x,y,z
-x,1/2+y,-z
-x,-y,-z
x,1/2-y,z
loop_
_atom_site_type_symbol
_atom_site_label
_atom_site_fract_x
_atom_site_fract_y
_atom_site_fract_z
Si Si1 0.392333 0.081250 0.743204
Si Si2 0.831879 0.079860 0.389415
Si Si3 0.542574 0.589255 0.021207
Si Si4 0.316779 0.422337 0.678783
Si Si5 0.879544 0.078821 0.769165
Si Si6 0.007668 0.081046 0.121580
Si Si7 0.120970 0.593614 0.359843
O O1 0.425821 0.250000 0.715160
O O2 0.610401 0.017708 0.571813
O O3 0.309362 0.033020 0.750802
O O4 0.234862 0.038926 0.921923
O O5 0.841184 0.250000 0.395953
O O6 0.945310 0.048102 0.237275
O O7 0.935447 0.986689 0.352241
O O8 0.630136 0.750000 0.936969
O O9 0.326245 0.606153 0.223538
O O10 0.500000 0.500000 0.000000
O O11 0.679061 0.501408 0.953639
O O12 0.500000 0.500000 0.500000
O O13 0.333854 0.250000 0.655886
O O14 0.120001 0.481495 0.813887
O O15 0.865657 0.250000 0.790715
O O16 0.881444 0.030125 0.701796
O O17 0.972181 0.250000 0.136294
O O18 0.022599 0.750000 0.435651
O O19 0.000000 0.500000 0.500000
#
# Coordination Sequence:
#
# PCOD8074996 Si02
#       7
#     4   4   4   4   4   4   4
#     4   9  19  36  57  82 111 145 187 232 280 334
#     4  10  20  37  57  78 111 153 189 225 276 335
#     4   9  17  32  54  79 104 135 174 215 261 314
#     4  11  20  34  57  84 113 146 187 233 285 335
#     4  10  21  37  55  79 110 144 181 223 271 324
#     4  10  20  37  59  82 111 144 186 236 281 335
#     4   9  19  34  54  81 111 138 174 220 267 318
#
# _framework density 18.665579999999999
#
# number of rings (size 3 to 8) (size 9 to 14) (size 15 to 20)
#    0.000    2.286    1.429    2.571    0.000    4.000 
#    2.571    1.429    0.000    0.000    0.000    0.000 
#    0.000    0.000    0.000    0.000    0.000    0.000 
#
# Total GULP energy -346870.137602 kJ/mol
# GULP energy per Si atom -12388.219200 kJ/mol
# Density = 1.862310 g / cm^3
# Si number density = 18.665580 Si / 1000 Ang^3
#
#
#
# Elastic Constant Matrix: (Units=GPa)
#
#
# Indices 1 2 3 4 5 6 
#
# 1 93.9516 43.2750 60.3913 0.0000 -23.2507 0.0000
# 2 43.2750 90.5533 48.5385 0.0000 -14.2027 0.0000
# 3 60.3913 48.5385 136.1449 0.0000 -7.4492 0.0000
# 4 0.0000 0.0000 0.0000 27.9597 0.0000 -7.1276
# 5 -23.2507 -14.2027 -7.4492 0.0000 29.2179 0.0000
# 6 0.0000 0.0000 0.0000 -7.1276 0.0000 31.4833
#
#
#
# Elastic Compliance Matrix: (Units=1/GPa)
#
#
# Indices 1 2 3 4 5 6 
#
# 1 0.019763 -0.003960 -0.006693 0.000000 0.012096 0.000000
# 2 -0.003960 0.015366 -0.003535 0.000000 0.003417 0.000000
# 3 -0.006693 -0.003535 0.011347 0.000000 -0.004151 0.000000
# 4 0.000000 0.000000 0.000000 0.037956 0.000000 0.008593
# 5 0.012096 0.003417 -0.004151 0.000000 0.044454 0.000000
# 6 0.000000 0.000000 0.000000 0.008593 0.000000 0.033708
#
#
# Mechanical properties :
#
#
# Convention : Reuss Voigt Hill
#
# Bulk Modulus (GPa) = 55.24544 69.45104 62.34824
# Shear Modulus (GPa) = 25.38007 28.96185 27.17096
#
# Velocity S-wave (km/s) = 3.69145 3.94333 3.81947
# Velocity P-wave (km/s) = 6.91598 7.61722 7.27505
#
# Compressibility (1/GPa) = 0.01810104
#
# Stress axis : x y z
#
# Youngs Moduli (GPa) = 50.59845 65.07686 88.12812
#
# Poissons Ratio (x) = 0.25771 0.58984
# Poissons Ratio (y) = 0.20038 0.31152
# Poissons Ratio (z) = 0.33866 0.23004
#
# Static dielectric constant tensor:
#      x y z
#    x 1.692990 0.000000 -0.112460 
#    y 0.000000 3.645790 0.000000 
#    z -0.112460 0.000000 3.863480 
# 
# 
# High freq. dielectric constant tensor:
#      x y z
#    x 1.705730 0.000000 -0.014240 
#    y 0.000000 1.720580 0.000000 
#    z -0.014240 0.000000 1.731400 
# 
# From -- ./inp_files/66732.got.cif
#   From: 2010.06.25/outbox.cif.g09.slc.cpg/sg11_34_cif.got.tgz:66732.got - 2010.06.27 23:14:04.
