data_PCOD8074100
_publ_section_title
;
Structure prediction by ZEFSAII (Michael W. Deem and Ramdas Pophale) SiO2 
 PCOD8074100
Probable space group: P 21/M
;
_chemical_formula_sum "Si O2"
_cell_formula_units_Z 28
_cell_length_a 15.935244
_cell_length_b 9.035206
_cell_length_c 20.844047
_cell_angle_alpha 90.000000
_cell_angle_beta 152.051288
_cell_angle_gamma 90.000000
_cell_volume 1406.553244
_symmetry_space_group_name_H-M "P 21/M"
_symmetry_group_IT_number 11
_symmetry_cell_setting 'monoclinic'
loop_
_space_group_symop_operation_xyz
x,y,z
-x,1/2+y,-z
-x,-y,-z
x,1/2-y,z
loop_
_atom_site_type_symbol
_atom_site_label
_atom_site_fract_x
_atom_site_fract_y
_atom_site_fract_z
Si Si1 0.329691 0.078917 0.559333
Si Si2 0.825764 0.575868 0.411438
Si Si3 0.110682 0.924192 0.308232
Si Si4 0.383343 0.579628 0.830885
Si Si5 0.933261 0.922209 0.856155
Si Si6 0.260808 0.920496 0.162942
Si Si7 0.240507 0.420312 0.853018
O O1 0.305236 0.250000 0.525005
O O2 0.201907 0.035044 0.532650
O O3 0.534539 0.045351 0.717357
O O4 0.277867 0.984059 0.462087
O O5 0.839698 0.750000 0.410742
O O6 0.653013 0.514307 0.257355
O O7 0.000000 0.500000 0.500000
O O8 0.128873 0.750000 0.313702
O O9 0.930027 0.972026 0.222206
O O10 0.108917 0.991910 0.236938
O O11 0.335926 0.750000 0.786604
O O12 0.253193 0.522825 0.799353
O O13 0.589236 0.554429 0.986734
O O14 0.902976 0.750000 0.822973
O O15 0.792681 0.975429 0.814351
O O16 0.135752 0.955952 0.016931
O O17 0.233690 0.750000 0.165513
O O18 0.227346 0.250000 0.821785
#
# Coordination Sequence:
#
# PCOD8074100 Si02
#       7
#     4   4   4   4   4   4   4
#     4  10  23  41  60  85 117 156 200 243 289 347
#     4  11  23  38  58  83 116 156 198 242 292 347
#     4  11  23  38  58  86 119 156 194 240 292 345
#     4  10  20  35  56  82 111 150 196 245 296 346
#     4  10  21  38  64  92 118 151 190 237 296 353
#     4   9  20  41  64  88 118 150 192 241 290 348
#     4   9  20  37  55  80 115 152 196 243 290 346
#
# _framework density 19.906818999999999
#
# number of rings (size 3 to 8) (size 9 to 14) (size 15 to 20)
#    0.000    2.000    0.000    2.571    2.000    6.857 
#    0.000    0.000    0.000    0.000    0.000    0.000 
#    0.000    0.000    0.000    0.000    0.000    0.000 
#
# Total GULP energy -347308.054079 kJ/mol
# GULP energy per Si atom -12403.859074 kJ/mol
# Density = 1.986151 g / cm^3
# Si number density = 19.906819 Si / 1000 Ang^3
#
#
#
# Elastic Constant Matrix: (Units=GPa)
#
#
# Indices 1 2 3 4 5 6 
#
# 1 90.5086 52.0278 52.5794 0.0000 -13.2784 0.0000
# 2 52.0278 91.5584 46.5812 0.0000 -12.7760 0.0000
# 3 52.5794 46.5812 93.7746 0.0000 -9.5007 0.0000
# 4 0.0000 0.0000 0.0000 34.7254 0.0000 -4.1036
# 5 -13.2784 -12.7760 -9.5007 0.0000 37.3893 0.0000
# 6 0.0000 0.0000 0.0000 -4.1036 0.0000 34.1410
#
#
#
# Elastic Compliance Matrix: (Units=1/GPa)
#
#
# Indices 1 2 3 4 5 6 
#
# 1 0.019787 -0.007171 -0.007255 0.000000 0.002733 0.000000
# 2 -0.007171 0.017605 -0.004488 0.000000 0.002329 0.000000
# 3 -0.007255 -0.004488 0.016982 0.000000 0.000205 0.000000
# 4 0.000000 0.000000 0.000000 0.029212 0.000000 0.003511
# 5 0.002733 0.002329 0.000205 0.000000 0.028564 0.000000
# 6 0.000000 0.000000 0.000000 0.003511 0.000000 0.029712
#
#
# Mechanical properties :
#
#
# Convention : Reuss Voigt Hill
#
# Bulk Modulus (GPa) = 60.44306 64.24650 62.34478
# Shear Modulus (GPa) = 26.99667 29.56134 28.27900
#
# Velocity S-wave (km/s) = 3.68659 3.85773 3.77313
# Velocity P-wave (km/s) = 6.96780 7.22402 7.09706
#
# Compressibility (1/GPa) = 0.01654450
#
# Stress axis : x y z
#
# Youngs Moduli (GPa) = 50.53874 56.80051 58.88491
#
# Poissons Ratio (x) = 0.40733 0.42723
# Poissons Ratio (y) = 0.36242 0.26430
# Poissons Ratio (z) = 0.36668 0.25495
#
# Static dielectric constant tensor:
#      x y z
#    x 3.528280 0.000000 -0.061820 
#    y 0.000000 3.654550 0.000000 
#    z -0.061820 0.000000 3.765590 
# 
# 
# High freq. dielectric constant tensor:
#      x y z
#    x 1.770110 0.000000 -0.004200 
#    y 0.000000 1.781640 0.000000 
#    z -0.004200 0.000000 1.786600 
# 
# From -- ./inp_files/54525.got.cif
#   From: 2010.06.25/outbox.cif.g09.slc.cpg/sg11_28_cif.got.tgz:54525.got - 2010.06.27 23:14:04.
