data_PCOD8074550
_publ_section_title
;
Structure prediction by ZEFSAII (Michael W. Deem and Ramdas Pophale) SiO2 
 PCOD8074550
Probable space group: P 21/M
;
_chemical_formula_sum "Si O2"
_cell_formula_units_Z 32
_cell_length_a 21.651366
_cell_length_b 9.208064
_cell_length_c 27.530132
_cell_angle_alpha 90.000000
_cell_angle_beta 18.529919
_cell_angle_gamma 90.000000
_cell_volume 1744.277435
_symmetry_space_group_name_H-M "P 21/M"
_symmetry_group_IT_number 11
_symmetry_cell_setting 'monoclinic'
loop_
_space_group_symop_operation_xyz
x,y,z
-x,1/2+y,-z
-x,-y,-z
x,1/2-y,z
loop_
_atom_site_type_symbol
_atom_site_label
_atom_site_fract_x
_atom_site_fract_y
_atom_site_fract_z
Si Si1 0.471152 0.910397 0.094325
Si Si2 0.592745 0.583077 0.475420
Si Si3 0.480514 0.917059 0.373337
Si Si4 0.922312 0.421513 0.366238
Si Si5 0.028070 0.582436 0.122119
Si Si6 0.214191 0.077666 0.066716
Si Si7 0.908089 0.580853 0.023120
Si Si8 0.209752 0.411149 0.227718
O O1 0.391885 0.750000 0.163250
O O2 0.281684 0.003624 0.221742
O O3 0.580610 0.966566 0.061311
O O4 0.623835 0.909144 0.936855
O O5 0.500000 0.500000 0.500000
O O6 0.527170 0.750000 0.521868
O O7 0.508529 0.515140 0.587277
O O8 0.824419 0.567966 0.301762
O O9 0.450350 0.750000 0.412306
O O10 0.302592 0.967188 0.471216
O O11 0.675521 0.936410 0.197161
O O12 0.952377 0.250000 0.346922
O O13 0.038964 0.476131 0.232035
O O14 0.018317 0.483543 0.344745
O O15 0.081299 0.750000 0.072076
O O16 0.194795 0.508820 0.030743
O O17 0.009295 0.495920 0.086057
O O18 0.203820 0.250000 0.064519
O O19 0.968714 0.750000 0.978483
O O20 0.000000 0.500000 0.000000
O O21 0.162992 0.250000 0.281152
#
# Coordination Sequence:
#
# PCOD8074550 Si02
#       8
#     4   4   4   4   4   4   4   4
#     4   8  14  23  37  63  97 132 167 200 240 292
#     4  11  23  36  53  78 103 130 166 206 255 310
#     4  10  20  36  57  78 100 131 171 213 256 304
#     4   8  14  27  48  72  99 130 166 208 252 299
#     4  11  23  37  53  77 106 135 170 211 256 307
#     4   9  16  29  50  72  99 136 171 207 254 299
#     4  11  24  40  58  78 101 134 173 212 259 310
#     4   8  13  22  38  62  94 133 166 194 240 296
#
# _framework density 18.345704999999999
#
# number of rings (size 3 to 8) (size 9 to 14) (size 15 to 20)
#    0.000    2.500    1.250    3.375    0.000    6.000 
#    0.000    2.500    0.000    0.000    0.000    0.875 
#    0.000    0.000    0.000    0.000    0.000    0.000 
#
# Total GULP energy -396663.973365 kJ/mol
# GULP energy per Si atom -12395.749168 kJ/mol
# Density = 1.830395 g / cm^3
# Si number density = 18.345705 Si / 1000 Ang^3
#
#
#
# Elastic Constant Matrix: (Units=GPa)
#
#
# Indices 1 2 3 4 5 6 
#
# 1 98.7137 44.7452 13.6901 0.0000 -28.0577 0.0000
# 2 44.7452 89.8930 17.6875 0.0000 -10.2665 0.0000
# 3 13.6901 17.6875 37.4168 0.0000 -11.7087 0.0000
# 4 0.0000 0.0000 0.0000 19.5293 0.0000 -3.5647
# 5 -28.0577 -10.2665 -11.7087 0.0000 32.0458 0.0000
# 6 0.0000 0.0000 0.0000 -3.5647 0.0000 35.3759
#
#
#
# Elastic Compliance Matrix: (Units=1/GPa)
#
#
# Indices 1 2 3 4 5 6 
#
# 1 0.016889 -0.007177 0.001266 0.000000 0.012950 0.000000
# 2 -0.007177 0.015435 -0.005746 0.000000 -0.003438 0.000000
# 3 0.001266 -0.005746 0.032461 0.000000 0.011128 0.000000
# 4 0.000000 0.000000 0.000000 0.052165 0.000000 0.005257
# 5 0.012950 -0.003438 0.011128 0.000000 0.045508 0.000000
# 6 0.000000 0.000000 0.000000 0.005257 0.000000 0.028798
#
#
# Mechanical properties :
#
#
# Convention : Reuss Voigt Hill
#
# Bulk Modulus (GPa) = 24.11364 42.02991 33.07178
# Shear Modulus (GPa) = 21.89211 27.38356 24.63784
#
# Velocity S-wave (km/s) = 3.45818 3.86766 3.66864
# Velocity P-wave (km/s) = 5.39610 6.55017 6.00094
#
# Compressibility (1/GPa) = 0.04147030
#
# Stress axis : x y z
#
# Youngs Moduli (GPa) = 59.21140 64.78978 30.80573
#
# Poissons Ratio (x) = 0.46497 -0.03899
# Poissons Ratio (y) = 0.42493 0.17702
# Poissons Ratio (z) = -0.07494 0.37230
#
# Static dielectric constant tensor:
#      x y z
#    x 3.588790 0.000000 -0.368240 
#    y 0.000000 3.411240 0.000000 
#    z -0.368240 0.000000 3.194000 
# 
# 
# High freq. dielectric constant tensor:
#      x y z
#    x 1.715210 0.000000 -0.030870 
#    y 0.000000 1.700050 0.000000 
#    z -0.030870 0.000000 1.676590 
# 
# From -- ./inp_files/71987.got.cif
#   From: 2010.06.25/outbox.cif.g09.slc.cpg/sg11_36_cif.got.tgz:71987.got - 2010.06.27 23:14:04.
