data_PCOD8074313
_publ_section_title
;
Structure prediction by ZEFSAII (Michael W. Deem and Ramdas Pophale) SiO2 
 PCOD8074313
Probable space group: P 21/M
;
_chemical_formula_sum "Si O2"
_cell_formula_units_Z 32
_cell_length_a 25.251639
_cell_length_b 9.121854
_cell_length_c 24.661873
_cell_angle_alpha 90.000000
_cell_angle_beta 16.182770
_cell_angle_gamma 90.000000
_cell_volume 1583.212900
_symmetry_space_group_name_H-M "P 21/M"
_symmetry_group_IT_number 11
_symmetry_cell_setting 'monoclinic'
loop_
_space_group_symop_operation_xyz
x,y,z
-x,1/2+y,-z
-x,-y,-z
x,1/2-y,z
loop_
_atom_site_type_symbol
_atom_site_label
_atom_site_fract_x
_atom_site_fract_y
_atom_site_fract_z
Si Si1 0.801138 0.078824 0.203863
Si Si2 0.469189 0.421438 0.449274
Si Si3 0.283108 0.082008 0.121051
Si Si4 0.564536 0.920819 0.637829
Si Si5 0.319350 0.925102 0.978315
Si Si6 0.834251 0.412907 0.544577
Si Si7 0.106086 0.080887 0.614252
Si Si8 0.202302 0.577438 0.301849
O O1 0.835321 0.250000 0.180734
O O2 0.672653 0.052206 0.276980
O O3 0.696700 0.010331 0.358204
O O4 0.000000 0.000000 0.000000
O O5 0.412985 0.250000 0.505555
O O6 0.481543 0.486250 0.376024
O O7 0.351589 0.250000 0.057369
O O8 0.057526 0.067427 0.336515
O O9 0.337903 0.998714 0.123481
O O10 0.385299 0.004152 0.969160
O O11 0.518963 0.750000 0.679818
O O12 0.437270 0.987019 0.811304
O O13 0.784539 0.952579 0.437007
O O14 0.337612 0.750000 0.967650
O O15 0.106495 0.979045 0.173148
O O16 0.791071 0.250000 0.566949
O O17 0.774025 0.516873 0.554387
O O18 0.716893 0.444789 0.715880
O O19 0.102704 0.250000 0.604863
O O20 0.178155 0.750000 0.312697
O O21 0.000000 0.500000 0.500000
#
# Coordination Sequence:
#
# PCOD8074313 Si02
#       8
#     4   4   4   4   4   4   4   4
#     4  10  20  35  58  86 116 150 183 220 267 314
#     4   9  19  36  57  82 113 147 185 226 265 312
#     4   9  16  26  41  63  91 122 159 203 250 303
#     4   9  18  33  53  77 102 131 172 215 251 296
#     4   9  17  30  48  69  95 127 162 203 252 302
#     4   8  15  26  40  61  91 123 155 197 250 304
#     4   9  17  29  48  71  94 125 165 206 248 299
#     4   9  15  23  38  62  90 120 156 201 252 304
#
# _framework density 20.212064000000002
#
# number of rings (size 3 to 8) (size 9 to 14) (size 15 to 20)
#    0.000    3.000    0.000    1.875    0.000    5.000 
#    0.000    5.625    0.000    3.750    0.000    0.000 
#    0.000    0.000    0.000    0.000    0.000    0.000 
#
# Total GULP energy -396610.087206 kJ/mol
# GULP energy per Si atom -12394.065225 kJ/mol
# Density = 2.016606 g / cm^3
# Si number density = 20.212064 Si / 1000 Ang^3
#
#
#
# Elastic Constant Matrix: (Units=GPa)
#
#
# Indices 1 2 3 4 5 6 
#
# 1 148.0597 48.4782 37.7001 0.0000 27.3300 0.0000
# 2 48.4782 79.0923 33.1218 0.0000 10.2683 0.0000
# 3 37.7001 33.1218 67.8724 0.0000 18.3934 0.0000
# 4 0.0000 0.0000 0.0000 19.6625 0.0000 5.8514
# 5 27.3300 10.2683 18.3934 0.0000 24.6241 0.0000
# 6 0.0000 0.0000 0.0000 5.8514 0.0000 26.6906
#
#
#
# Elastic Compliance Matrix: (Units=1/GPa)
#
#
# Indices 1 2 3 4 5 6 
#
# 1 0.010115 -0.004660 -0.001039 0.000000 -0.008507 0.000000
# 2 -0.004660 0.018060 -0.007003 0.000000 0.002872 0.000000
# 3 -0.001039 -0.007003 0.022097 0.000000 -0.012433 0.000000
# 4 0.000000 0.000000 0.000000 0.054408 0.000000 -0.011928
# 5 -0.008507 0.002872 -0.012433 0.000000 0.058142 0.000000
# 6 0.000000 0.000000 0.000000 -0.011928 0.000000 0.040081
#
#
# Mechanical properties :
#
#
# Convention : Reuss Voigt Hill
#
# Bulk Modulus (GPa) = 40.21271 59.29162 49.75216
# Shear Modulus (GPa) = 21.13315 25.91039 23.52177
#
# Velocity S-wave (km/s) = 3.23704 3.58429 3.41508
# Velocity P-wave (km/s) = 5.82321 6.82114 6.34183
#
# Compressibility (1/GPa) = 0.02486776
#
# Stress axis : x y z
#
# Youngs Moduli (GPa) = 98.86642 55.37223 45.25453
#
# Poissons Ratio (x) = 0.25805 0.04700
# Poissons Ratio (y) = 0.46074 0.31692
# Poissons Ratio (z) = 0.10269 0.38777
#
# Static dielectric constant tensor:
#      x y z
#    x 4.027410 0.000000 0.148580 
#    y 0.000000 3.516730 0.000000 
#    z 0.148580 0.000000 3.689650 
# 
# 
# High freq. dielectric constant tensor:
#      x y z
#    x 1.790980 0.000000 0.002830 
#    y 0.000000 1.769990 0.000000 
#    z 0.002830 0.000000 1.785610 
# 
# From -- ./inp_files/69986.got.cif
#   From: 2010.06.25/outbox.cif.g09.slc.cpg/sg11_35_cif.got.tgz:69986.got - 2010.06.27 23:14:04.
