data_PCOD8074228
_publ_section_title
;
Structure prediction by ZEFSAII (Michael W. Deem and Ramdas Pophale) SiO2 
 PCOD8074228
Probable space group: P 21/M
;
_chemical_formula_sum "Si O2"
_cell_formula_units_Z 20
_cell_length_a 9.053601
_cell_length_b 8.931320
_cell_length_c 13.579736
_cell_angle_alpha 90.000000
_cell_angle_beta 71.701952
_cell_angle_gamma 90.000000
_cell_volume 1042.543302
_symmetry_space_group_name_H-M "P 21/M"
_symmetry_group_IT_number 11
_symmetry_cell_setting 'monoclinic'
loop_
_space_group_symop_operation_xyz
x,y,z
-x,1/2+y,-z
-x,-y,-z
x,1/2-y,z
loop_
_atom_site_type_symbol
_atom_site_label
_atom_site_fract_x
_atom_site_fract_y
_atom_site_fract_z
Si Si1 0.032653 0.427290 0.597464
Si Si2 0.660194 0.423462 0.992164
Si Si3 0.626653 0.924948 0.405148
Si Si4 0.786360 0.924747 0.790605
Si Si5 0.444271 0.919591 0.778385
O O1 0.014505 0.250000 0.592900
O O2 0.204095 0.475948 0.594775
O O3 0.000000 0.500000 0.500000
O O4 0.913770 0.489440 0.701748
O O5 0.655374 0.250000 0.962385
O O6 0.679970 0.439998 0.106156
O O7 0.500000 0.500000 0.000000
O O8 0.792340 0.508256 0.900840
O O9 0.604876 0.750000 0.420277
O O10 0.500000 0.000000 0.500000
O O11 0.603936 0.968238 0.296688
O O12 0.826210 0.750000 0.786385
O O13 0.618625 0.955641 0.777634
O O14 0.437788 0.750000 0.739523
#
# Coordination Sequence:
#
# PCOD8074228 Si02
#       5
#     4   4   4   4   4
#     4  11  24  40  57  81 110 142 182 227 274 329
#     4   9  17  31  53  82 114 147 183 225 268 318
#     4  11  24  39  57  81 109 141 181 225 272 327
#     4  10  20  35  57  85 113 145 185 227 270 322
#     4   9  19  35  56  83 113 143 181 224 267 318
#
# _framework density 19.183855000000001
#
# number of rings (size 3 to 8) (size 9 to 14) (size 15 to 20)
#    0.000    2.000    0.000    4.800    0.000   12.800 
#    0.000    1.000    0.000    0.000    0.000    0.000 
#    0.000    0.000    0.000    0.000    0.000    0.000 
#
# Total GULP energy -247978.705866 kJ/mol
# GULP energy per Si atom -12398.935293 kJ/mol
# Density = 1.914019 g / cm^3
# Si number density = 19.183855 Si / 1000 Ang^3
#
#
#
# Elastic Constant Matrix: (Units=GPa)
#
#
# Indices 1 2 3 4 5 6 
#
# 1 86.5473 42.7547 60.6997 0.0000 -10.6305 0.0000
# 2 42.7547 70.8277 48.2862 0.0000 -5.8142 0.0000
# 3 60.6997 48.2862 151.6540 0.0000 -19.7186 0.0000
# 4 0.0000 0.0000 0.0000 44.6503 0.0000 -2.2542
# 5 -10.6305 -5.8142 -19.7186 0.0000 32.4670 0.0000
# 6 0.0000 0.0000 0.0000 -2.2542 0.0000 29.0795
#
#
#
# Elastic Compliance Matrix: (Units=1/GPa)
#
#
# Indices 1 2 3 4 5 6 
#
# 1 0.019206 -0.008130 -0.004854 0.000000 0.001885 0.000000
# 2 -0.008130 0.021477 -0.003724 0.000000 -0.001078 0.000000
# 3 -0.004854 -0.003724 0.010238 0.000000 0.003962 0.000000
# 4 0.000000 0.000000 0.000000 0.022484 0.000000 0.001743
# 5 0.001885 -0.001078 0.003962 0.000000 0.033631 0.000000
# 6 0.000000 0.000000 0.000000 0.001743 0.000000 0.034524
#
#
# Mechanical properties :
#
#
# Convention : Reuss Voigt Hill
#
# Bulk Modulus (GPa) = 57.12737 68.05667 62.59202
# Shear Modulus (GPa) = 27.65330 31.72526 29.68928
#
# Velocity S-wave (km/s) = 3.80081 4.07104 3.93825
# Velocity P-wave (km/s) = 7.00750 7.59282 7.30602
#
# Compressibility (1/GPa) = 0.01750475
#
# Stress axis : x y z
#
# Youngs Moduli (GPa) = 52.06634 46.56151 97.67977
#
# Poissons Ratio (x) = 0.37855 0.47410
# Poissons Ratio (y) = 0.42330 0.36379
# Poissons Ratio (z) = 0.25271 0.17341
#
# Static dielectric constant tensor:
#      x y z
#    x 3.277190 0.000000 -0.084750 
#    y 0.000000 3.777910 0.000000 
#    z -0.084750 0.000000 3.986010 
# 
# 
# High freq. dielectric constant tensor:
#      x y z
#    x 1.718610 0.000000 -0.011230 
#    y 0.000000 1.761020 0.000000 
#    z -0.011230 0.000000 1.769050 
# 
# From -- ./inp_files/15947.got.cif
#   From: 2010.06.25/outbox.cif.g09.slc.cpg/sg11_8_cif.got.tgz:15947.got - 2010.06.27 23:14:04.
