data_PCOD8074639
_publ_section_title
;
Structure prediction by ZEFSAII (Michael W. Deem and Ramdas Pophale) SiO2 
 PCOD8074639
Probable space group: P 21/M
;
_chemical_formula_sum "Si O2"
_cell_formula_units_Z 32
_cell_length_a 20.348605
_cell_length_b 8.846109
_cell_length_c 25.196575
_cell_angle_alpha 90.000000
_cell_angle_beta 156.883330
_cell_angle_gamma 90.000000
_cell_volume 1780.672098
_symmetry_space_group_name_H-M "P 21/M"
_symmetry_group_IT_number 11
_symmetry_cell_setting 'monoclinic'
loop_
_space_group_symop_operation_xyz
x,y,z
-x,1/2+y,-z
-x,-y,-z
x,1/2-y,z
loop_
_atom_site_type_symbol
_atom_site_label
_atom_site_fract_x
_atom_site_fract_y
_atom_site_fract_z
Si Si1 0.152244 0.575772 0.143603
Si Si2 0.645349 0.573534 0.140885
Si Si3 0.985594 0.424228 0.844892
Si Si4 0.338695 0.926368 0.119685
Si Si5 0.821471 0.071038 0.614030
Si Si6 0.427619 0.573979 0.070180
Si Si7 0.542410 0.570697 0.685880
Si Si8 0.864388 0.928753 0.213656
O O1 0.157292 0.750000 0.130307
O O2 0.131638 0.555944 0.191104
O O3 0.324919 0.498073 0.256141
O O4 0.000000 0.500000 0.000000
O O5 0.630986 0.750000 0.121511
O O6 0.607404 0.533258 0.174696
O O7 0.820043 0.521097 0.242194
O O8 0.500000 0.500000 0.000000
O O9 0.043876 0.250000 0.881900
O O10 0.878305 0.479679 0.714867
O O11 0.146044 0.529934 0.969425
O O12 0.349036 0.750000 0.141573
O O13 0.441735 0.965933 0.142669
O O14 0.421801 0.023238 0.227489
O O15 0.811508 0.250000 0.603256
O O16 0.638900 0.004949 0.465293
O O17 0.954784 0.006745 0.669648
O O18 0.385900 0.750000 0.031619
O O19 0.275533 0.483665 0.931373
O O20 0.552702 0.750000 0.689472
O O21 0.869471 0.750000 0.211824
#
# Coordination Sequence:
#
# PCOD8074639 Si02
#       8
#     4   4   4   4   4   4   4   4
#     4  11  22  36  57  82 107 135 170 211 258 312
#     4   8  14  24  41  69 102 132 164 204 254 303
#     4  10  20  36  58  79 102 133 170 213 258 305
#     4  11  21  33  52  77 105 137 176 216 257 311
#     4   9  19  35  54  78 105 135 176 216 256 304
#     4   9  17  28  44  73 107 133 164 212 261 304
#     4  11  23  38  55  75 104 140 174 217 261 303
#     4   9  15  27  50  74  99 135 172 208 251 306
#
# _framework density 17.970744
#
# number of rings (size 3 to 8) (size 9 to 14) (size 15 to 20)
#    0.000    2.250    2.500    1.125    0.000    1.500 
#    0.000    2.500    0.000    0.750    0.000    0.000 
#    0.000    0.000    0.000    0.000    0.000    0.250 
#
# Total GULP energy -396517.614690 kJ/mol
# GULP energy per Si atom -12391.175459 kJ/mol
# Density = 1.792984 g / cm^3
# Si number density = 17.970744 Si / 1000 Ang^3
#
#
#
# Elastic Constant Matrix: (Units=GPa)
#
#
# Indices 1 2 3 4 5 6 
#
# 1 160.6637 33.8083 69.4172 0.0000 22.5808 0.0000
# 2 33.8083 45.1280 25.3292 0.0000 6.9769 0.0000
# 3 69.4172 25.3292 118.0719 0.0000 12.1743 0.0000
# 4 0.0000 0.0000 0.0000 12.4800 0.0000 4.8539
# 5 22.5808 6.9769 12.1743 0.0000 25.2486 0.0000
# 6 0.0000 0.0000 0.0000 4.8539 0.0000 19.0729
#
#
#
# Elastic Compliance Matrix: (Units=1/GPa)
#
#
# Indices 1 2 3 4 5 6 
#
# 1 0.009684 -0.004011 -0.004266 0.000000 -0.005495 0.000000
# 2 -0.004011 0.027368 -0.003266 0.000000 -0.002401 0.000000
# 3 -0.004266 -0.003266 0.011777 0.000000 -0.000961 0.000000
# 4 0.000000 0.000000 0.000000 0.088931 0.000000 -0.022632
# 5 -0.005495 -0.002401 -0.000961 0.000000 0.045648 0.000000
# 6 0.000000 0.000000 0.000000 -0.022632 0.000000 0.058190
#
#
# Mechanical properties :
#
#
# Convention : Reuss Voigt Hill
#
# Bulk Modulus (GPa) = 38.84404 64.55256 51.69830
# Shear Modulus (GPa) = 18.29733 24.38089 21.33911
#
# Velocity S-wave (km/s) = 3.19434 3.68734 3.44966
# Velocity P-wave (km/s) = 5.93862 7.35714 6.68561
#
# Compressibility (1/GPa) = 0.02574398
#
# Stress axis : x y z
#
# Youngs Moduli (GPa) = 103.26511 36.53920 84.90898
#
# Poissons Ratio (x) = 0.14654 0.36225
# Poissons Ratio (y) = 0.41415 0.27727
# Poissons Ratio (z) = 0.44057 0.11932
#
# Static dielectric constant tensor:
#      x y z
#    x 4.115720 0.000000 0.299130 
#    y 0.000000 3.191020 0.000000 
#    z 0.299130 0.000000 3.248550 
# 
# 
# High freq. dielectric constant tensor:
#      x y z
#    x 1.722540 0.000000 0.018480 
#    y 0.000000 1.687440 0.000000 
#    z 0.018480 0.000000 1.658830 
# 
# From -- ./inp_files/66396.got.cif
#   From: 2010.06.25/outbox.cif.g09.slc.cpg/sg11_34_cif.got.tgz:66396.got - 2010.06.27 23:14:04.
