data_PCOD8074046
_publ_section_title
;
Structure prediction by ZEFSAII (Michael W. Deem and Ramdas Pophale) SiO2 
 PCOD8074046
Probable space group: P 21/M
;
_chemical_formula_sum "Si O2"
_cell_formula_units_Z 32
_cell_length_a 16.036916
_cell_length_b 14.213190
_cell_length_c 19.449413
_cell_angle_alpha 90.000000
_cell_angle_beta 157.858539
_cell_angle_gamma 90.000000
_cell_volume 1670.855388
_symmetry_space_group_name_H-M "P 21/M"
_symmetry_group_IT_number 11
_symmetry_cell_setting 'monoclinic'
loop_
_space_group_symop_operation_xyz
x,y,z
-x,1/2+y,-z
-x,-y,-z
x,1/2-y,z
loop_
_atom_site_type_symbol
_atom_site_label
_atom_site_fract_x
_atom_site_fract_y
_atom_site_fract_z
Si Si1 0.667434 0.038901 0.274427
Si Si2 0.872554 0.638901 0.367837
Si Si3 0.251244 0.855778 0.163302
Si Si4 0.625445 0.528285 0.820174
Si Si5 0.241408 0.147697 0.195393
Si Si6 0.981927 0.643872 0.168640
Si Si7 0.712480 0.857326 0.092940
Si Si8 0.560968 0.107122 0.546858
O O1 0.576128 0.045661 0.282214
O O2 0.873721 0.109428 0.427777
O O3 0.726309 0.929504 0.304602
O O4 0.486847 0.074081 0.081392
O O5 0.841806 0.750000 0.363133
O O6 0.796241 0.616842 0.232359
O O7 0.240865 0.750000 0.126611
O O8 0.392220 0.856902 0.340950
O O9 0.359828 0.917703 0.185905
O O10 0.005027 0.895798 0.989493
O O11 0.594517 0.582253 0.724147
O O12 0.852508 0.568058 0.024516
O O13 0.223126 0.250000 0.146492
O O14 0.346206 0.158692 0.351427
O O15 0.913612 0.750000 0.094638
O O16 0.239313 0.628595 0.352704
O O17 0.922819 0.627942 0.203511
O O18 0.625932 0.750000 0.023596
O O19 0.500000 0.000000 0.500000
#
# Coordination Sequence:
#
# PCOD8074046 Si02
#       8
#     4   4   4   4   4   4   4   4
#     4  10  22  37  57  85 116 143 181 230 275 328
#     4  10  21  38  60  84 112 146 183 223 277 337
#     4  11  23  40  55  77 114 152 191 232 273 323
#     4  11  21  37  57  82 110 149 185 225 278 329
#     4  11  22  35  56  81 108 145 189 233 280 326
#     4  10  20  35  55  84 116 140 178 235 281 324
#     4   9  19  35  58  85 112 143 178 224 279 330
#     4  12  22  35  54  77 111 149 189 231 277 324
#
# _framework density 19.151868
#
# number of rings (size 3 to 8) (size 9 to 14) (size 15 to 20)
#    0.000    1.500    2.500    3.375    1.750    2.000 
#    0.000    0.000    0.000    0.000    0.000    3.500 
#    0.000    0.000    0.000    0.000    0.000    0.000 
#
# Total GULP energy -396702.841058 kJ/mol
# GULP energy per Si atom -12396.963783 kJ/mol
# Density = 1.910828 g / cm^3
# Si number density = 19.151868 Si / 1000 Ang^3
#
#
#
# Elastic Constant Matrix: (Units=GPa)
#
#
# Indices 1 2 3 4 5 6 
#
# 1 47.2153 16.5269 12.8323 0.0000 -7.1761 0.0000
# 2 16.5269 102.7197 10.7134 0.0000 0.8988 0.0000
# 3 12.8323 10.7134 65.1344 0.0000 -18.3736 0.0000
# 4 0.0000 0.0000 0.0000 26.2887 0.0000 -0.0285
# 5 -7.1761 0.8988 -18.3736 0.0000 21.6009 0.0000
# 6 0.0000 0.0000 0.0000 -0.0285 0.0000 24.9924
#
#
#
# Elastic Compliance Matrix: (Units=1/GPa)
#
#
# Indices 1 2 3 4 5 6 
#
# 1 0.024046 -0.003670 -0.002417 0.000000 0.006085 0.000000
# 2 -0.003670 0.010558 -0.001949 0.000000 -0.003316 0.000000
# 3 -0.002417 -0.001949 0.020980 0.000000 0.017124 0.000000
# 4 0.000000 0.000000 0.000000 0.038039 0.000000 0.000043
# 5 0.006085 -0.003316 0.017124 0.000000 0.063019 0.000000
# 6 0.000000 0.000000 0.000000 0.000043 0.000000 0.040012
#
#
# Mechanical properties :
#
#
# Convention : Reuss Voigt Hill
#
# Bulk Modulus (GPa) = 25.30910 32.80161 29.05536
# Shear Modulus (GPa) = 22.13393 26.24285 24.18839
#
# Velocity S-wave (km/s) = 3.40326 3.70570 3.55770
# Velocity P-wave (km/s) = 5.35598 5.95600 5.66394
#
# Compressibility (1/GPa) = 0.03951147
#
# Stress axis : x y z
#
# Youngs Moduli (GPa) = 41.58706 94.71490 47.66443
#
# Poissons Ratio (x) = 0.34760 0.11521
# Poissons Ratio (y) = 0.15262 0.09290
# Poissons Ratio (z) = 0.10052 0.18461
#
# Static dielectric constant tensor:
#      x y z
#    x 3.404940 0.000000 -0.236120 
#    y 0.000000 3.635690 0.000000 
#    z -0.236120 0.000000 3.502730 
# 
# 
# High freq. dielectric constant tensor:
#      x y z
#    x 1.727780 0.000000 -0.010120 
#    y 0.000000 1.755350 0.000000 
#    z -0.010120 0.000000 1.745640 
# 
# From -- ./inp_files/66285.got.cif
#   From: 2010.06.25/outbox.cif.g09.slc.cpg/sg11_34_cif.got.tgz:66285.got - 2010.06.27 23:14:04.
