data_PCOD8074304
_publ_section_title
;
Structure prediction by ZEFSAII (Michael W. Deem and Ramdas Pophale) SiO2 
 PCOD8074304
Probable space group: P 21/M
;
_chemical_formula_sum "Si O2"
_cell_formula_units_Z 32
_cell_length_a 12.119698
_cell_length_b 9.046218
_cell_length_c 15.195170
_cell_angle_alpha 90.000000
_cell_angle_beta 87.708922
_cell_angle_gamma 90.000000
_cell_volume 1664.627676
_symmetry_space_group_name_H-M "P 21/M"
_symmetry_group_IT_number 11
_symmetry_cell_setting 'monoclinic'
loop_
_space_group_symop_operation_xyz
x,y,z
-x,1/2+y,-z
-x,-y,-z
x,1/2-y,z
loop_
_atom_site_type_symbol
_atom_site_label
_atom_site_fract_x
_atom_site_fract_y
_atom_site_fract_z
Si Si1 0.411181 0.423596 0.564475
Si Si2 0.414598 0.424205 0.766136
Si Si3 0.191668 0.075304 0.859140
Si Si4 0.045574 0.574956 0.191508
Si Si5 0.033801 0.421591 0.366902
Si Si6 0.794188 0.918923 0.942719
Si Si7 0.456288 0.080828 0.087698
Si Si8 0.162978 0.078384 0.538431
O O1 0.500000 0.500000 0.500000
O O2 0.419513 0.250000 0.548629
O O3 0.437700 0.465615 0.664361
O O4 0.288284 0.478909 0.543126
O O5 0.425898 0.250000 0.782842
O O6 0.291710 0.480173 0.794759
O O7 0.502061 0.506521 0.824268
O O8 0.187648 0.250000 0.858964
O O9 0.077003 0.013719 0.825104
O O10 0.211643 0.019909 0.957698
O O11 0.049998 0.750000 0.201322
O O12 0.085775 0.500504 0.280477
O O13 0.124097 0.526499 0.110459
O O14 0.017585 0.250000 0.348456
O O15 0.121945 0.450346 0.440994
O O16 0.914238 0.489524 0.392133
O O17 0.837998 0.750000 0.938307
O O18 0.674943 0.929629 0.902776
O O19 0.496186 0.250000 0.081818
O O20 0.500000 0.000000 0.000000
O O21 0.154532 0.250000 0.565633
#
# Coordination Sequence:
#
# PCOD8074304 Si02
#       8
#     4   4   4   4   4   4   4   4
#     4  10  22  39  60  84 117 155 193 240 291 345
#     4  10  20  38  62  86 113 150 192 238 292 343
#     4   9  18  36  59  80 109 148 189 233 283 335
#     4  11  22  35  55  83 116 151 188 229 278 343
#     4  10  20  35  58  86 114 145 184 234 284 338
#     4  10  21  38  57  78 110 150 187 234 286 330
#     4  11  22  38  61  85 113 149 190 239 285 338
#     4   9  19  38  61  82 108 148 192 233 282 339
#
# _framework density 19.223517999999999
#
# number of rings (size 3 to 8) (size 9 to 14) (size 15 to 20)
#    0.000    2.000    1.250    2.250    0.000    5.500 
#    0.000    6.875    0.000    0.000    0.000    0.000 
#    0.000    0.000    0.000    0.000    0.000    0.000 
#
# Total GULP energy -396901.315360 kJ/mol
# GULP energy per Si atom -12403.166105 kJ/mol
# Density = 1.917976 g / cm^3
# Si number density = 19.223518 Si / 1000 Ang^3
#
#
#
# Elastic Constant Matrix: (Units=GPa)
#
#
# Indices 1 2 3 4 5 6 
#
# 1 85.6265 38.6233 55.2665 0.0000 3.5612 0.0000
# 2 38.6233 71.1588 52.2339 0.0000 0.5994 0.0000
# 3 55.2665 52.2339 133.2510 0.0000 -6.0163 0.0000
# 4 0.0000 0.0000 0.0000 35.0392 0.0000 -4.3865
# 5 3.5612 0.5994 -6.0163 0.0000 31.6022 0.0000
# 6 0.0000 0.0000 0.0000 -4.3865 0.0000 32.5714
#
#
#
# Elastic Compliance Matrix: (Units=1/GPa)
#
#
# Indices 1 2 3 4 5 6 
#
# 1 0.017792 -0.005784 -0.005242 0.000000 -0.002893 0.000000
# 2 -0.005784 0.021720 -0.006157 0.000000 -0.000932 0.000000
# 3 -0.005242 -0.006157 0.012230 0.000000 0.003036 0.000000
# 4 0.000000 0.000000 0.000000 0.029029 0.000000 0.003909
# 5 -0.002893 -0.000932 0.003036 0.000000 0.032565 0.000000
# 6 0.000000 0.000000 0.000000 0.003909 0.000000 0.031228
#
#
# Mechanical properties :
#
#
# Convention : Reuss Voigt Hill
#
# Bulk Modulus (GPa) = 57.55871 64.69819 61.12845
# Shear Modulus (GPa) = 27.06753 29.43672 28.25212
#
# Velocity S-wave (km/s) = 3.75646 3.91741 3.83778
# Velocity P-wave (km/s) = 6.98724 7.36141 7.17676
#
# Compressibility (1/GPa) = 0.01737356
#
# Stress axis : x y z
#
# Youngs Moduli (GPa) = 56.20582 46.03985 81.76875
#
# Poissons Ratio (x) = 0.26632 0.42866
# Poissons Ratio (y) = 0.32512 0.50347
# Poissons Ratio (z) = 0.29465 0.28348
#
# Static dielectric constant tensor:
#      x y z
#    x 3.621120 0.000000 0.135980 
#    y 0.000000 3.398370 0.000000 
#    z 0.135980 0.000000 3.608580 
# 
# 
# High freq. dielectric constant tensor:
#      x y z
#    x 1.750080 0.000000 0.005400 
#    y 0.000000 1.735000 0.000000 
#    z 0.005400 0.000000 1.759550 
# 
# From -- ./inp_files/49281.got.cif
#   From: 2010.06.25/outbox.cif.g09.slc.cpg/sg11_25_cif.got.tgz:49281.got - 2010.06.27 23:14:04.
