data_PCOD8074116
_publ_section_title
;
Structure prediction by ZEFSAII (Michael W. Deem and Ramdas Pophale) SiO2 
 PCOD8074116
Probable space group: P 21/M
;
_chemical_formula_sum "Si O2"
_cell_formula_units_Z 32
_cell_length_a 24.664619
_cell_length_b 8.966916
_cell_length_c 14.415705
_cell_angle_alpha 90.000000
_cell_angle_beta 148.886197
_cell_angle_gamma 90.000000
_cell_volume 1647.498925
_symmetry_space_group_name_H-M "P 21/M"
_symmetry_group_IT_number 11
_symmetry_cell_setting 'monoclinic'
loop_
_space_group_symop_operation_xyz
x,y,z
-x,1/2+y,-z
-x,-y,-z
x,1/2-y,z
loop_
_atom_site_type_symbol
_atom_site_label
_atom_site_fract_x
_atom_site_fract_y
_atom_site_fract_z
Si Si1 0.429319 0.928192 0.974932
Si Si2 0.011349 0.574784 0.297281
Si Si3 0.296663 0.074393 0.318806
Si Si4 0.602263 0.075545 0.689882
Si Si5 0.936047 0.924730 0.987056
Si Si6 0.212730 0.425959 0.681538
Si Si7 0.902427 0.920824 0.314528
Si Si8 0.500890 0.424188 0.723861
O O1 0.433111 0.750000 0.974426
O O2 0.471445 0.991905 0.135434
O O3 0.500000 0.000000 0.000000
O O4 0.311132 0.983546 0.786738
O O5 0.040715 0.750000 0.341725
O O6 0.110715 0.478982 0.475447
O O7 0.979362 0.518382 0.148993
O O8 0.907571 0.546296 0.211398
O O9 0.307481 0.250000 0.318412
O O10 0.390274 0.011706 0.521870
O O11 0.300341 0.999185 0.221388
O O12 0.186135 0.031934 0.203168
O O13 0.600950 0.250000 0.667050
O O14 0.597843 0.044217 0.794459
O O15 0.500000 0.000000 0.500000
O O16 0.951656 0.750000 0.001666
O O17 0.000000 0.000000 0.000000
O O18 0.229905 0.250000 0.690077
O O19 0.199765 0.466134 0.773651
O O20 0.922164 0.750000 0.363945
O O21 0.000000 0.000000 0.500000
O O22 0.484357 0.250000 0.712350
#
# Coordination Sequence:
#
# PCOD8074116 Si02
#       8
#     4   4   4   4   4   4   4   4
#     4  11  23  39  55  75 105 143 185 228 266 312
#     4   9  18  35  56  80 110 144 177 216 266 320
#     4   9  18  35  56  79 107 141 175 215 266 318
#     4   9  16  30  53  82 110 137 170 211 260 320
#     4  10  22  37  54  77 107 143 186 227 266 312
#     4  10  20  35  56  83 109 138 175 219 270 323
#     4   8  15  29  51  77 106 134 167 210 260 319
#     4   8  17  34  55  77 106 140 172 208 262 320
#
# _framework density 19.423380999999999
#
# number of rings (size 3 to 8) (size 9 to 14) (size 15 to 20)
#    0.000    2.750    0.000    1.875    0.000    3.500 
#    0.000    8.750    0.000    0.000    0.000    0.000 
#    0.000    0.000    0.000    0.000    0.000    0.000 
#
# Total GULP energy -396424.327932 kJ/mol
# GULP energy per Si atom -12388.260248 kJ/mol
# Density = 1.937917 g / cm^3
# Si number density = 19.423381 Si / 1000 Ang^3
#
#
#
# Elastic Constant Matrix: (Units=GPa)
#
#
# Indices 1 2 3 4 5 6 
#
# 1 128.6100 35.6763 28.9010 0.0000 -1.1730 0.0000
# 2 35.6763 50.1347 17.7478 0.0000 2.8473 0.0000
# 3 28.9010 17.7478 57.9534 0.0000 -1.6029 0.0000
# 4 0.0000 0.0000 0.0000 17.2164 0.0000 1.4841
# 5 -1.1730 2.8473 -1.6029 0.0000 32.8400 0.0000
# 6 0.0000 0.0000 0.0000 1.4841 0.0000 34.2087
#
#
#
# Elastic Compliance Matrix: (Units=1/GPa)
#
#
# Indices 1 2 3 4 5 6 
#
# 1 0.010212 -0.006184 -0.003178 0.000000 0.000746 0.000000
# 2 -0.006184 0.026288 -0.005042 0.000000 -0.002746 0.000000
# 3 -0.003178 -0.005042 0.020421 0.000000 0.001320 0.000000
# 4 0.000000 0.000000 0.000000 0.058302 0.000000 -0.002529
# 5 0.000746 -0.002746 0.001320 0.000000 0.030780 0.000000
# 6 0.000000 0.000000 0.000000 -0.002529 0.000000 0.029342
#
#
# Mechanical properties :
#
#
# Convention : Reuss Voigt Hill
#
# Bulk Modulus (GPa) = 35.57291 44.59426 40.08358
# Shear Modulus (GPa) = 23.41649 27.14456 25.28053
#
# Velocity S-wave (km/s) = 3.47592 3.74240 3.61162
# Velocity P-wave (km/s) = 5.87057 6.45623 6.17035
#
# Compressibility (1/GPa) = 0.02811128
#
# Stress axis : x y z
#
# Youngs Moduli (GPa) = 97.92479 38.04016 48.96953
#
# Poissons Ratio (x) = 0.23525 0.15563
# Poissons Ratio (y) = 0.60559 0.24693
# Poissons Ratio (z) = 0.31122 0.19182
#
# Static dielectric constant tensor:
#      x y z
#    x 4.218280 0.000000 -0.133020 
#    y 0.000000 3.612000 0.000000 
#    z -0.133020 0.000000 3.453760 
# 
# 
# High freq. dielectric constant tensor:
#      x y z
#    x 1.770000 0.000000 0.002580 
#    y 0.000000 1.743670 0.000000 
#    z 0.002580 0.000000 1.736610 
# 
# From -- ./inp_files/51679.got.cif
#   From: 2010.06.25/outbox.cif.g09.slc.cpg/sg11_26_cif.got.tgz:51679.got - 2010.06.27 23:14:04.
