data_PCOD8074485
_publ_section_title
;
Structure prediction by ZEFSAII (Michael W. Deem and Ramdas Pophale) SiO2 
 PCOD8074485
Probable space group: P 21/M
;
_chemical_formula_sum "Si O2"
_cell_formula_units_Z 32
_cell_length_a 25.929449
_cell_length_b 9.148214
_cell_length_c 20.506931
_cell_angle_alpha 90.000000
_cell_angle_beta 158.992535
_cell_angle_gamma 90.000000
_cell_volume 1743.840711
_symmetry_space_group_name_H-M "P 21/M"
_symmetry_group_IT_number 11
_symmetry_cell_setting 'monoclinic'
loop_
_space_group_symop_operation_xyz
x,y,z
-x,1/2+y,-z
-x,-y,-z
x,1/2-y,z
loop_
_atom_site_type_symbol
_atom_site_label
_atom_site_fract_x
_atom_site_fract_y
_atom_site_fract_z
Si Si1 0.151058 0.421583 0.179190
Si Si2 0.782305 0.920420 0.489912
Si Si3 0.353664 0.420740 0.156524
Si Si4 0.356438 0.422965 0.538933
Si Si5 0.646226 0.576945 0.192126
Si Si6 0.913783 0.080521 0.453842
Si Si7 0.953326 0.916575 0.249727
Si Si8 0.359559 0.419001 0.312482
O O1 0.124063 0.250000 0.152927
O O2 0.248673 0.476307 0.354909
O O3 0.227151 0.466713 0.201567
O O4 0.000000 0.500000 0.000000
O O5 0.813413 0.750000 0.530682
O O6 0.704823 0.976747 0.463855
O O7 0.681119 0.958447 0.308827
O O8 0.937451 0.995320 0.667078
O O9 0.384693 0.250000 0.182714
O O10 0.487633 0.507766 0.286196
O O11 0.323899 0.459266 0.196501
O O12 0.209775 0.473758 0.949777
O O13 0.375972 0.250000 0.559911
O O14 0.638463 0.750000 0.169987
O O15 0.764962 0.505168 0.285880
O O16 0.500000 0.500000 0.000000
O O17 0.884195 0.250000 0.401289
O O18 0.007906 0.065770 0.629465
O O19 0.000000 0.000000 0.500000
O O20 0.962637 0.750000 0.236749
O O21 0.500000 0.500000 0.500000
O O22 0.392225 0.250000 0.360997
#
# Coordination Sequence:
#
# PCOD8074485 Si02
#       8
#     4   4   4   4   4   4   4   4
#     4  10  22  37  54  79 108 138 176 221 266 316
#     4   9  20  37  56  79 108 142 180 220 264 317
#     4  10  21  36  55  80 107 139 179 220 264 317
#     4  10  21  38  55  77 109 141 177 221 265 314
#     4  10  20  36  57  82 111 144 183 225 270 324
#     4  10  20  36  57  82 112 145 181 224 271 321
#     4   9  20  37  56  80 109 141 179 220 265 318
#     4  10  20  36  56  78 106 139 176 220 266 314
#
# _framework density 18.350300000000001
#
# number of rings (size 3 to 8) (size 9 to 14) (size 15 to 20)
#    0.000    2.250    1.250    0.750    1.750    4.000 
#    0.000    2.500    0.000    0.000    0.000    0.000 
#    0.000    0.000    0.000    0.000    0.000    0.000 
#
# Total GULP energy -396860.697560 kJ/mol
# GULP energy per Si atom -12401.896799 kJ/mol
# Density = 1.830853 g / cm^3
# Si number density = 18.350300 Si / 1000 Ang^3
#
#
#
# Elastic Constant Matrix: (Units=GPa)
#
#
# Indices 1 2 3 4 5 6 
#
# 1 146.9401 55.5408 66.4410 0.0000 25.0078 0.0000
# 2 55.5408 67.8306 58.8905 0.0000 12.4583 0.0000
# 3 66.4410 58.8905 158.6455 0.0000 25.5196 0.0000
# 4 0.0000 0.0000 0.0000 35.7521 0.0000 8.3913
# 5 25.0078 12.4583 25.5196 0.0000 24.9615 0.0000
# 6 0.0000 0.0000 0.0000 8.3913 0.0000 30.2965
#
#
#
# Elastic Compliance Matrix: (Units=1/GPa)
#
#
# Indices 1 2 3 4 5 6 
#
# 1 0.010985 -0.006953 -0.000966 0.000000 -0.006547 0.000000
# 2 -0.006953 0.026359 -0.007034 0.000000 0.001001 0.000000
# 3 -0.000966 -0.007034 0.010291 0.000000 -0.006043 0.000000
# 4 0.000000 0.000000 0.000000 0.029915 0.000000 -0.008286
# 5 -0.006547 0.001001 -0.006043 0.000000 0.052299 0.000000
# 6 0.000000 0.000000 0.000000 -0.008286 0.000000 0.035302
#
#
# Mechanical properties :
#
#
# Convention : Reuss Voigt Hill
#
# Bulk Modulus (GPa) = 56.40676 81.68454 69.04565
# Shear Modulus (GPa) = 24.87987 31.03829 27.95908
#
# Velocity S-wave (km/s) = 3.68615 4.11716 3.90761
# Velocity P-wave (km/s) = 6.99447 8.19829 7.62019
#
# Compressibility (1/GPa) = 0.01772837
#
# Stress axis : x y z
#
# Youngs Moduli (GPa) = 91.03487 37.93815 97.17267
#
# Poissons Ratio (x) = 0.26379 0.09389
# Poissons Ratio (y) = 0.63298 0.68348
# Poissons Ratio (z) = 0.08796 0.26684
#
# Static dielectric constant tensor:
#      x y z
#    x 3.579790 0.000000 -0.067900 
#    y 0.000000 3.429160 0.000000 
#    z -0.067900 0.000000 3.400760 
# 
# 
# High freq. dielectric constant tensor:
#      x y z
#    x 1.720170 0.000000 0.002140 
#    y 0.000000 1.709540 0.000000 
#    z 0.002140 0.000000 1.717870 
# 
# From -- ./inp_files/67203.got.cif
#   From: 2010.06.25/outbox.cif.g09.slc.cpg/sg11_34_cif.got.tgz:67203.got - 2010.06.27 23:14:04.
