data_PCOD8074188
_publ_section_title
;
Structure prediction by ZEFSAII (Michael W. Deem and Ramdas Pophale) SiO2 
 PCOD8074188
Probable space group: P 21/M
;
_chemical_formula_sum "Si O2"
_cell_formula_units_Z 32
_cell_length_a 11.929611
_cell_length_b 8.853963
_cell_length_c 31.201691
_cell_angle_alpha 90.000000
_cell_angle_beta 30.493330
_cell_angle_gamma 90.000000
_cell_volume 1672.342204
_symmetry_space_group_name_H-M "P 21/M"
_symmetry_group_IT_number 11
_symmetry_cell_setting 'monoclinic'
loop_
_space_group_symop_operation_xyz
x,y,z
-x,1/2+y,-z
-x,-y,-z
x,1/2-y,z
loop_
_atom_site_type_symbol
_atom_site_label
_atom_site_fract_x
_atom_site_fract_y
_atom_site_fract_z
Si Si1 0.989580 0.423188 0.388948
Si Si2 0.691841 0.428181 0.075588
Si Si3 0.899183 0.072183 0.095655
Si Si4 0.540945 0.572019 0.532226
Si Si5 0.192072 0.427958 0.231153
Si Si6 0.158928 0.428867 0.712735
Si Si7 0.195071 0.076806 0.409824
Si Si8 0.690956 0.070254 0.253522
O O1 0.907382 0.250000 0.413691
O O2 0.784996 0.530919 0.467694
O O3 0.096447 0.472838 0.308995
O O4 0.168253 0.444762 0.367559
O O5 0.710500 0.250000 0.066528
O O6 0.754374 0.483729 0.102863
O O7 0.445053 0.481363 0.145904
O O8 0.857186 0.499871 0.986468
O O9 0.928524 0.250000 0.085290
O O10 0.776949 0.018934 0.178781
O O11 0.500000 0.500000 0.500000
O O12 0.509473 0.750000 0.539716
O O13 0.368528 0.506876 0.622327
O O14 0.166324 0.250000 0.231505
O O15 0.065186 0.518867 0.236272
O O16 0.180412 0.250000 0.702748
O O17 0.155662 0.484501 0.762820
O O18 0.182895 0.250000 0.426763
O O19 0.437075 0.014187 0.342380
O O20 0.000000 0.000000 0.500000
O O21 0.709269 0.250000 0.253600
#
# Coordination Sequence:
#
# PCOD8074188 Si02
#       8
#     4   4   4   4   4   4   4   4
#     4  10  20  35  57  83 111 144 187 235 284 334
#     4   9  18  34  59  90 119 146 181 228 285 342
#     4   9  18  35  60  88 116 148 185 227 279 339
#     4  12  23  37  56  80 111 149 191 233 280 331
#     4  10  20  36  58  82 111 147 185 230 285 339
#     4  12  25  39  56  81 113 149 193 240 284 334
#     4  10  21  36  55  81 111 145 185 230 277 332
#     4  10  21  39  60  81 112 154 195 230 278 341
#
# _framework density 19.134841000000002
#
# number of rings (size 3 to 8) (size 9 to 14) (size 15 to 20)
#    0.000    1.750    1.250    3.750    0.000    7.000 
#    0.000    0.625    0.000    4.500    0.000    0.000 
#    0.000    0.000    0.000    0.000    0.000    0.000 
#
# Total GULP energy -396891.266778 kJ/mol
# GULP energy per Si atom -12402.852087 kJ/mol
# Density = 1.909129 g / cm^3
# Si number density = 19.134841 Si / 1000 Ang^3
#
#
#
# Elastic Constant Matrix: (Units=GPa)
#
#
# Indices 1 2 3 4 5 6 
#
# 1 120.6821 45.7330 63.8287 0.0000 -5.9809 0.0000
# 2 45.7330 77.3154 47.3324 0.0000 -3.7759 0.0000
# 3 63.8287 47.3324 138.9812 0.0000 -11.2025 0.0000
# 4 0.0000 0.0000 0.0000 31.7141 0.0000 -2.1058
# 5 -5.9809 -3.7759 -11.2025 0.0000 31.2294 0.0000
# 6 0.0000 0.0000 0.0000 -2.1058 0.0000 27.1000
#
#
#
# Elastic Compliance Matrix: (Units=1/GPa)
#
#
# Indices 1 2 3 4 5 6 
#
# 1 0.012205 -0.004786 -0.003948 0.000000 0.000343 0.000000
# 2 -0.004786 0.018218 -0.004019 0.000000 -0.000156 0.000000
# 3 -0.003948 -0.004019 0.010583 0.000000 0.002554 0.000000
# 4 0.000000 0.000000 0.000000 0.031695 0.000000 0.002463
# 5 0.000343 -0.000156 0.002554 0.000000 0.032984 0.000000
# 6 0.000000 0.000000 0.000000 0.002463 0.000000 0.037092
#
#
# Mechanical properties :
#
#
# Convention : Reuss Voigt Hill
#
# Bulk Modulus (GPa) = 64.51417 72.30745 68.41081
# Shear Modulus (GPa) = 28.82710 30.01435 29.42072
#
# Velocity S-wave (km/s) = 3.88561 3.96482 3.92541
# Velocity P-wave (km/s) = 7.34298 7.67008 7.50831
#
# Compressibility (1/GPa) = 0.01550047
#
# Stress axis : x y z
#
# Youngs Moduli (GPa) = 81.93558 54.89175 94.49259
#
# Poissons Ratio (x) = 0.26270 0.37303
# Poissons Ratio (y) = 0.39212 0.37976
# Poissons Ratio (z) = 0.32345 0.22061
#
# Static dielectric constant tensor:
#      x y z
#    x 3.545960 0.000000 -0.233070 
#    y 0.000000 3.230660 0.000000 
#    z -0.233070 0.000000 3.292040 
# 
# 
# High freq. dielectric constant tensor:
#      x y z
#    x 1.751610 0.000000 -0.002380 
#    y 0.000000 1.733590 0.000000 
#    z -0.002380 0.000000 1.742010 
# 
# From -- ./inp_files/45191.got.cif
#   From: 2010.06.25/outbox.cif.g09.slc.cpg/sg11_23_cif.got.tgz:45191.got - 2010.06.27 23:14:04.
