data_PCOD8074497
_publ_section_title
;
Structure prediction by ZEFSAII (Michael W. Deem and Ramdas Pophale) SiO2 
 PCOD8074497
Probable space group: P 21/M
;
_chemical_formula_sum "Si O2"
_cell_formula_units_Z 32
_cell_length_a 28.745010
_cell_length_b 9.063675
_cell_length_c 11.936659
_cell_angle_alpha 90.000000
_cell_angle_beta 149.297801
_cell_angle_gamma 90.000000
_cell_volume 1587.851571
_symmetry_space_group_name_H-M "P 21/M"
_symmetry_group_IT_number 11
_symmetry_cell_setting 'monoclinic'
loop_
_space_group_symop_operation_xyz
x,y,z
-x,1/2+y,-z
-x,-y,-z
x,1/2-y,z
loop_
_atom_site_type_symbol
_atom_site_label
_atom_site_fract_x
_atom_site_fract_y
_atom_site_fract_z
Si Si1 0.491827 0.576188 0.362169
Si Si2 0.804738 0.079730 0.026976
Si Si3 0.825478 0.917983 0.286251
Si Si4 0.341897 0.417201 0.911305
Si Si5 0.272058 0.421363 0.531744
Si Si6 0.669635 0.920612 0.592253
Si Si7 0.917236 0.073993 0.893391
Si Si8 0.978368 0.078952 0.258699
O O1 0.500000 0.500000 0.500000
O O2 0.486823 0.750000 0.372536
O O3 0.575516 0.531388 0.455299
O O4 0.402639 0.525737 0.110809
O O5 0.780750 0.250000 0.987572
O O6 0.749824 0.016466 0.809380
O O7 0.912001 0.051133 0.226443
O O8 0.776182 0.002102 0.082618
O O9 0.838512 0.750000 0.273645
O O10 0.762359 0.929735 0.263811
O O11 0.922946 0.994901 0.515296
O O12 0.378306 0.250000 0.002507
O O13 0.338647 0.462368 0.773640
O O14 0.243488 0.250000 0.479535
O O15 0.330952 0.454246 0.541875
O O16 0.180417 0.516815 0.350489
O O17 0.689987 0.750000 0.658450
O O18 0.920152 0.250000 0.884863
O O19 0.929643 0.018620 0.046681
O O20 0.000000 0.000000 0.000000
O O21 0.997257 0.250000 0.277355
#
# Coordination Sequence:
#
# PCOD8074497 Si02
#       8
#     4   4   4   4   4   4   4   4
#     4  11  24  42  64  91 121 155 196 246 300 359
#     4  11  21  35  56  85 117 150 194 245 293 345
#     4  10  20  36  56  79 113 156 194 235 292 353
#     4  10  22  40  62  87 118 155 195 241 298 357
#     4  10  21  40  63  87 117 156 199 243 297 359
#     4  10  22  40  62  87 118 155 197 244 300 360
#     4  11  21  36  57  84 119 160 204 248 294 347
#     4   9  19  35  54  79 114 152 193 240 291 345
#
# _framework density 20.153017999999999
#
# number of rings (size 3 to 8) (size 9 to 14) (size 15 to 20)
#    0.000    1.750    1.250    3.000    0.000    7.500 
#    0.000    3.125    0.000    0.000    0.000    0.000 
#    0.000    0.000    0.000    0.000    0.000    0.000 
#
# Total GULP energy -396817.111977 kJ/mol
# GULP energy per Si atom -12400.534749 kJ/mol
# Density = 2.010715 g / cm^3
# Si number density = 20.153018 Si / 1000 Ang^3
#
#
#
# Elastic Constant Matrix: (Units=GPa)
#
#
# Indices 1 2 3 4 5 6 
#
# 1 123.4537 47.0221 51.3633 0.0000 -11.6933 0.0000
# 2 47.0221 75.4459 44.3919 0.0000 -3.6832 0.0000
# 3 51.3633 44.3919 116.5060 0.0000 -12.2962 0.0000
# 4 0.0000 0.0000 0.0000 32.0916 0.0000 1.7684
# 5 -11.6933 -3.6832 -12.2962 0.0000 38.3810 0.0000
# 6 0.0000 0.0000 0.0000 1.7684 0.0000 24.1647
#
#
#
# Elastic Compliance Matrix: (Units=1/GPa)
#
#
# Indices 1 2 3 4 5 6 
#
# 1 0.011533 -0.005445 -0.002788 0.000000 0.002098 0.000000
# 2 -0.005445 0.019663 -0.005245 0.000000 -0.001452 0.000000
# 3 -0.002788 -0.005245 0.012077 0.000000 0.002516 0.000000
# 4 0.000000 0.000000 0.000000 0.031287 0.000000 -0.002290
# 5 0.002098 -0.001452 0.002516 0.000000 0.027360 0.000000
# 6 0.000000 0.000000 0.000000 -0.002290 0.000000 0.041550
#
#
# Mechanical properties :
#
#
# Convention : Reuss Voigt Hill
#
# Bulk Modulus (GPa) = 61.28883 66.77336 64.03110
# Shear Modulus (GPa) = 28.43075 30.43602 29.43338
#
# Velocity S-wave (km/s) = 3.76006 3.89040 3.82579
# Velocity P-wave (km/s) = 7.02343 7.30653 7.16638
#
# Compressibility (1/GPa) = 0.01631619
#
# Stress axis : x y z
#
# Youngs Moduli (GPa) = 86.70836 50.85604 82.80462
#
# Poissons Ratio (x) = 0.27690 0.23089
# Poissons Ratio (y) = 0.47212 0.43432
# Poissons Ratio (z) = 0.24178 0.26674
#
# Static dielectric constant tensor:
#      x y z
#    x 3.827710 0.000000 -0.089040 
#    y 0.000000 3.510200 0.000000 
#    z -0.089040 0.000000 3.670800 
# 
# 
# High freq. dielectric constant tensor:
#      x y z
#    x 1.800170 0.000000 -0.005130 
#    y 0.000000 1.772360 0.000000 
#    z -0.005130 0.000000 1.786420 
# 
# From -- ./inp_files/45270.got.cif
#   From: 2010.06.25/outbox.cif.g09.slc.cpg/sg11_23_cif.got.tgz:45270.got - 2010.06.27 23:14:04.
