data_PCOD8074621
_publ_section_title
;
Structure prediction by ZEFSAII (Michael W. Deem and Ramdas Pophale) SiO2 
 PCOD8074621
Probable space group: P 21/M
;
_chemical_formula_sum "Si O2"
_cell_formula_units_Z 28
_cell_length_a 9.405685
_cell_length_b 11.382646
_cell_length_c 15.105089
_cell_angle_alpha 90.000000
_cell_angle_beta 121.181625
_cell_angle_gamma 90.000000
_cell_volume 1383.542067
_symmetry_space_group_name_H-M "P 21/M"
_symmetry_group_IT_number 11
_symmetry_cell_setting 'monoclinic'
loop_
_space_group_symop_operation_xyz
x,y,z
-x,1/2+y,-z
-x,-y,-z
x,1/2-y,z
loop_
_atom_site_type_symbol
_atom_site_label
_atom_site_fract_x
_atom_site_fract_y
_atom_site_fract_z
Si Si1 0.164959 0.111664 0.361741
Si Si2 0.202967 0.526003 0.726432
Si Si3 0.532630 0.620537 0.854180
Si Si4 0.698505 0.618574 0.077014
Si Si5 0.020597 0.881523 0.066572
Si Si6 0.694758 0.885167 0.403905
Si Si7 0.329486 0.972445 0.255710
O O1 0.178770 0.250000 0.348345
O O2 0.245872 0.074644 0.480474
O O3 0.264750 0.043276 0.319388
O O4 0.972680 0.074206 0.299598
O O5 0.338848 0.629979 0.763543
O O6 0.296929 0.446128 0.828359
O O7 0.195231 0.457927 0.630879
O O8 0.608850 0.750000 0.886302
O O9 0.641134 0.561324 0.814202
O O10 0.570099 0.562221 0.963060
O O11 0.641727 0.750000 0.082497
O O12 0.881539 0.612789 0.095830
O O13 0.013856 0.750000 0.016465
O O14 0.193024 0.881834 0.176420
O O15 0.000000 0.000000 0.000000
O O16 0.737888 0.750000 0.401532
O O17 0.497962 0.904435 0.333738
#
# Coordination Sequence:
#
# PCOD8074621 Si02
#       7
#     4   4   4   4   4   4   4
#     4  11  23  39  60  88 118 152 202 256 310 365
#     4  11  21  38  60  84 118 156 199 243 305 361
#     4  10  21  36  57  85 120 157 196 245 301 361
#     4  10  20  36  57  84 119 156 198 242 293 356
#     4  11  22  38  61  92 126 161 202 249 300 363
#     4  10  23  41  60  84 115 154 202 257 307 362
#     4  11  21  39  62  85 118 157 200 248 304 360
#
# _framework density 20.237909999999999
#
# number of rings (size 3 to 8) (size 9 to 14) (size 15 to 20)
#    0.000    1.429    2.857    3.000    0.000    0.571 
#    0.000    0.000    0.000    6.857    0.000    0.000 
#    0.000    0.000    0.000    0.000    0.000    0.000 
#
# Total GULP energy -346978.726102 kJ/mol
# GULP energy per Si atom -12392.097361 kJ/mol
# Density = 2.019185 g / cm^3
# Si number density = 20.237910 Si / 1000 Ang^3
#
#
#
# Elastic Constant Matrix: (Units=GPa)
#
#
# Indices 1 2 3 4 5 6 
#
# 1 42.0723 5.8329 9.1657 0.0000 -8.2428 0.0000
# 2 5.8329 78.4435 30.5866 0.0000 -17.6747 0.0000
# 3 9.1657 30.5866 106.1773 0.0000 -9.4234 0.0000
# 4 0.0000 0.0000 0.0000 27.7355 0.0000 -6.3029
# 5 -8.2428 -17.6747 -9.4234 0.0000 39.0136 0.0000
# 6 0.0000 0.0000 0.0000 -6.3029 0.0000 -2.7373
#
#
#
# Elastic Compliance Matrix: (Units=1/GPa)
#
#
# Indices 1 2 3 4 5 6 
#
# 1 0.025104 -0.000111 -0.001705 0.000000 0.004842 0.000000
# 2 -0.000111 0.015682 -0.003964 0.000000 0.006123 0.000000
# 3 -0.001705 -0.003964 0.010746 0.000000 0.000439 0.000000
# 4 0.000000 0.000000 0.000000 0.023669 0.000000 -0.054501
# 5 0.004842 0.006123 0.000439 0.000000 0.029535 0.000000
# 6 0.000000 0.000000 0.000000 -0.054501 0.000000 -0.239827
#
#
# Mechanical properties :
#
#
# Convention : Reuss Voigt Hill
#
# Bulk Modulus (GPa) = 25.01806 35.31814 30.16810
# Shear Modulus (GPa) = -45.37001 24.87621 -10.24690
#
# Velocity S-wave (km/s) = -4.73994 3.50978 -2.25260
# Velocity P-wave (km/s) = 4.19132 5.82358 2.85893
#
# Compressibility (1/GPa) = 0.03997112
#
# Stress axis : x y z
#
# Youngs Moduli (GPa) = 39.83405 63.76821 93.05384
#
# Poissons Ratio (x) = 0.00706 0.15870
# Poissons Ratio (y) = 0.00441 0.36891
# Poissons Ratio (z) = 0.06794 0.25280
#
# Static dielectric constant tensor:
#      x y z
#    x 3.607290 0.000000 0.087200 
#    y 0.000000 3.744440 0.000000 
#    z 0.087200 0.000000 3.886380 
# 
# 
# High freq. dielectric constant tensor:
#      x y z
#    x 1.796640 0.000000 0.007960 
#    y 0.000000 1.789360 0.000000 
#    z 0.007960 0.000000 1.803200 
# 
# From -- ./inp_files/21177.got.cif
#   From: 2010.06.25/outbox.cif.g09.slc.cpg/sg11_11_cif.got.tgz:21177.got - 2010.06.27 23:14:04.
