data_PCOD8074085
_publ_section_title
;
Structure prediction by ZEFSAII (Michael W. Deem and Ramdas Pophale) SiO2 
 PCOD8074085
Probable space group: P 21/M
;
_chemical_formula_sum "Si O2"
_cell_formula_units_Z 32
_cell_length_a 12.373269
_cell_length_b 8.703427
_cell_length_c 15.185863
_cell_angle_alpha 90.000000
_cell_angle_beta 92.329907
_cell_angle_gamma 90.000000
_cell_volume 1634.011273
_symmetry_space_group_name_H-M "P 21/M"
_symmetry_group_IT_number 11
_symmetry_cell_setting 'monoclinic'
loop_
_space_group_symop_operation_xyz
x,y,z
-x,1/2+y,-z
-x,-y,-z
x,1/2-y,z
loop_
_atom_site_type_symbol
_atom_site_label
_atom_site_fract_x
_atom_site_fract_y
_atom_site_fract_z
Si Si1 0.547868 0.430910 0.090487
Si Si2 0.396267 0.067377 0.240843
Si Si3 0.403262 0.067760 0.439558
Si Si4 0.808159 0.932305 0.868409
Si Si5 0.826408 0.070188 0.526881
Si Si6 0.981362 0.073293 0.375805
Si Si7 0.043488 0.928369 0.824747
Si Si8 0.767748 0.929881 0.063620
O O1 0.534672 0.250000 0.083413
O O2 0.485914 0.493515 0.174999
O O3 0.671614 0.478510 0.107371
O O4 0.500000 0.500000 0.000000
O O5 0.396284 0.250000 0.242362
O O6 0.417746 0.005203 0.339952
O O7 0.279966 0.005079 0.203839
O O8 0.410223 0.250000 0.443234
O O9 0.500000 0.000000 0.500000
O O10 0.287102 0.017402 0.472867
O O11 0.808278 0.750000 0.867920
O O12 0.925040 0.992497 0.843901
O O13 0.778926 0.992029 0.964614
O O14 0.802124 0.250000 0.530536
O O15 0.886032 0.021191 0.438319
O O16 0.907952 0.022658 0.608072
O O17 0.013013 0.250000 0.393181
O O18 0.934719 0.047182 0.277410
O O19 0.057872 0.750000 0.852222
O O20 0.123594 0.035811 0.880703
O O21 0.742079 0.750000 0.064594
#
# Coordination Sequence:
#
# PCOD8074085 Si02
#       8
#     4   4   4   4   4   4   4   4
#     4  11  21  38  62  85 111 145 190 236 281 338
#     4   9  19  37  62  85 108 148 193 231 282 345
#     4  11  23  40  61  84 115 153 193 239 290 347
#     4   9  17  33  57  81 108 143 187 232 274 329
#     4  10  20  36  59  86 115 145 187 240 290 341
#     4   9  19  36  59  84 112 151 193 232 282 346
#     4  10  20  35  56  81 111 149 195 231 272 338
#     4  11  22  36  54  80 117 151 185 233 286 332
#
# _framework density 19.583708000000001
#
# number of rings (size 3 to 8) (size 9 to 14) (size 15 to 20)
#    0.000    2.000    1.250    2.625    0.000    4.000 
#    0.000    8.125    0.000    0.000    0.000    0.000 
#    0.000    0.000    0.000    0.000    0.000    0.000 
#
# Total GULP energy -396843.854405 kJ/mol
# GULP energy per Si atom -12401.370450 kJ/mol
# Density = 1.953913 g / cm^3
# Si number density = 19.583708 Si / 1000 Ang^3
#
#
#
# Elastic Constant Matrix: (Units=GPa)
#
#
# Indices 1 2 3 4 5 6 
#
# 1 151.8808 30.3361 83.3293 0.0000 -1.8764 0.0000
# 2 30.3361 48.4498 29.9330 0.0000 -0.1436 0.0000
# 3 83.3293 29.9330 128.6761 0.0000 8.3695 0.0000
# 4 0.0000 0.0000 0.0000 26.2380 0.0000 3.4261
# 5 -1.8764 -0.1436 8.3695 0.0000 33.7506 0.0000
# 6 0.0000 0.0000 0.0000 3.4261 0.0000 34.8696
#
#
#
# Elastic Compliance Matrix: (Units=1/GPa)
#
#
# Indices 1 2 3 4 5 6 
#
# 1 0.010678 -0.002709 -0.006426 0.000000 0.002176 0.000000
# 2 -0.002709 0.024868 -0.004094 0.000000 0.000970 0.000000
# 3 -0.006426 -0.004094 0.013121 0.000000 -0.003629 0.000000
# 4 0.000000 0.000000 0.000000 0.038608 0.000000 -0.003793
# 5 0.002176 0.000970 -0.003629 0.000000 0.030654 0.000000
# 6 0.000000 0.000000 0.000000 -0.003793 0.000000 0.029051
#
#
# Mechanical properties :
#
#
# Convention : Reuss Voigt Hill
#
# Bulk Modulus (GPa) = 45.02589 68.46705 56.74647
# Shear Modulus (GPa) = 27.64858 31.33219 29.49039
#
# Velocity S-wave (km/s) = 3.76149 4.00423 3.88476
# Velocity P-wave (km/s) = 6.47352 7.51103 7.01149
#
# Compressibility (1/GPa) = 0.02220944
#
# Stress axis : x y z
#
# Youngs Moduli (GPa) = 93.65227 40.21201 76.21237
#
# Poissons Ratio (x) = 0.10894 0.48975
# Poissons Ratio (y) = 0.25372 0.31198
# Poissons Ratio (z) = 0.60182 0.16461
#
# Static dielectric constant tensor:
#      x y z
#    x 3.732210 0.000000 -0.154420 
#    y 0.000000 3.348670 0.000000 
#    z -0.154420 0.000000 3.807290 
# 
# 
# High freq. dielectric constant tensor:
#      x y z
#    x 1.772990 0.000000 -0.005470 
#    y 0.000000 1.739860 0.000000 
#    z -0.005470 0.000000 1.770300 
# 
# From -- ./inp_files/49334.got.cif
#   From: 2010.06.25/outbox.cif.g09.slc.cpg/sg11_25_cif.got.tgz:49334.got - 2010.06.27 23:14:04.
