data_PCOD8074968
_publ_section_title
;
Structure prediction by ZEFSAII (Michael W. Deem and Ramdas Pophale) SiO2 
 PCOD8074968
Probable space group: P 21/M
;
_chemical_formula_sum "Si O2"
_cell_formula_units_Z 32
_cell_length_a 5.075702
_cell_length_b 23.039550
_cell_length_c 13.931752
_cell_angle_alpha 90.000000
_cell_angle_beta 110.685607
_cell_angle_gamma 90.000000
_cell_volume 1524.175093
_symmetry_space_group_name_H-M "P 21/M"
_symmetry_group_IT_number 11
_symmetry_cell_setting 'monoclinic'
loop_
_space_group_symop_operation_xyz
x,y,z
-x,1/2+y,-z
-x,-y,-z
x,1/2-y,z
loop_
_atom_site_type_symbol
_atom_site_label
_atom_site_fract_x
_atom_site_fract_y
_atom_site_fract_z
Si Si1 0.115851 0.819015 0.808086
Si Si2 0.032304 0.968213 0.297044
Si Si3 0.252010 0.684417 0.349725
Si Si4 0.462951 0.598701 0.241625
Si Si5 0.142300 0.407769 0.363809
Si Si6 0.286582 0.183429 0.857129
Si Si7 0.224873 0.902719 0.500583
Si Si8 0.265227 0.181651 0.069285
O O1 0.088986 0.750000 0.790111
O O2 0.965408 0.848844 0.698756
O O3 0.974636 0.840280 0.889553
O O4 0.434892 0.841691 0.854767
O O5 0.714998 0.946850 0.268792
O O6 0.175674 0.938189 0.221417
O O7 0.206770 0.951393 0.415166
O O8 0.037303 0.037465 0.287121
O O9 0.360280 0.750000 0.368823
O O10 0.497388 0.644092 0.335461
O O11 0.186515 0.661071 0.447723
O O12 0.978665 0.677204 0.247274
O O13 0.464515 0.640401 0.147589
O O14 0.478833 0.407627 0.407664
O O15 0.023927 0.412110 0.455963
O O16 0.401150 0.250000 0.872444
O O17 0.199887 0.161973 0.952023
O O18 0.279519 0.250000 0.072740
#
# Coordination Sequence:
#
# PCOD8074968 Si02
#       8
#     4   4   4   4   4   4   4   4
#     4  10  22  41  61  87 118 147 194 252 294 340
#     4  11  23  39  60  83 119 156 204 249 280 337
#     4  10  22  37  57  91 130 155 185 234 298 367
#     4  11  20  38  57  88 121 157 188 235 295 339
#     4  12  24  40  63  84 114 159 206 242 293 340
#     4  10  20  36  63  92 121 155 190 233 298 362
#     4  11  22  38  58  87 116 155 199 240 288 345
#     4   9  20  37  62  90 115 149 194 241 291 348
#
# _framework density 20.994962999999998
#
# number of rings (size 3 to 8) (size 9 to 14) (size 15 to 20)
#    0.000    1.500    2.500    4.125    1.750    1.000 
#    0.000    0.000    0.000    4.500    0.000    0.000 
#    0.000    0.000    0.000    0.000    0.000    0.000 
#
# Total GULP energy -396714.590083 kJ/mol
# GULP energy per Si atom -12397.330940 kJ/mol
# Density = 2.094718 g / cm^3
# Si number density = 20.994963 Si / 1000 Ang^3
#
#
#
# Elastic Constant Matrix: (Units=GPa)
#
#
# Indices 1 2 3 4 5 6 
#
# 1 80.0911 19.6412 2.1371 0.0000 -10.8533 0.0000
# 2 19.6412 86.3715 15.8774 0.0000 -7.0445 0.0000
# 3 2.1371 15.8774 45.1602 0.0000 -9.4861 0.0000
# 4 0.0000 0.0000 0.0000 20.3764 0.0000 -4.0435
# 5 -10.8533 -7.0445 -9.4861 0.0000 19.8486 0.0000
# 6 0.0000 0.0000 0.0000 -4.0435 0.0000 24.1719
#
#
#
# Elastic Compliance Matrix: (Units=1/GPa)
#
#
# Indices 1 2 3 4 5 6 
#
# 1 0.014198 -0.002968 0.001980 0.000000 0.007657 0.000000
# 2 -0.002968 0.013118 -0.004262 0.000000 0.000995 0.000000
# 3 0.001980 -0.004262 0.026076 0.000000 0.012032 0.000000
# 4 0.000000 0.000000 0.000000 0.050761 0.000000 0.008491
# 5 0.007657 0.000995 0.012032 0.000000 0.060672 0.000000
# 6 0.000000 0.000000 0.000000 0.008491 0.000000 0.042791
#
#
# Mechanical properties :
#
#
# Convention : Reuss Voigt Hill
#
# Bulk Modulus (GPa) = 23.31525 31.88158 27.59842
# Shear Modulus (GPa) = 21.51337 24.47718 22.99528
#
# Velocity S-wave (km/s) = 3.20455 3.41817 3.31309
# Velocity P-wave (km/s) = 4.98212 5.54949 5.27344
#
# Compressibility (1/GPa) = 0.04289037
#
# Stress axis : x y z
#
# Youngs Moduli (GPa) = 70.43030 76.23343 38.35002
#
# Poissons Ratio (x) = 0.22628 -0.07593
# Poissons Ratio (y) = 0.20906 0.16346
# Poissons Ratio (z) = -0.13945 0.32493
#
# Static dielectric constant tensor:
#      x y z
#    x 4.014220 0.000000 -0.303770 
#    y 0.000000 3.834160 0.000000 
#    z -0.303770 0.000000 3.670410 
# 
# 
# High freq. dielectric constant tensor:
#      x y z
#    x 1.835350 0.000000 -0.015240 
#    y 0.000000 1.809130 0.000000 
#    z -0.015240 0.000000 1.795520 
# 
# From -- ./inp_files/30262.got.cif
#   From: 2010.06.25/outbox.cif.g09.slc.cpg/sg11_16_cif.got.tgz:30262.got - 2010.06.27 23:14:04.
