data_PCOD8074663
_publ_section_title
;
Structure prediction by ZEFSAII (Michael W. Deem and Ramdas Pophale) SiO2 
 PCOD8074663
Probable space group: P 21/M
;
_chemical_formula_sum "Si O2"
_cell_formula_units_Z 28
_cell_length_a 9.107371
_cell_length_b 8.730375
_cell_length_c 29.200618
_cell_angle_alpha 90.000000
_cell_angle_beta 38.702178
_cell_angle_gamma 90.000000
_cell_volume 1451.734424
_symmetry_space_group_name_H-M "P 21/M"
_symmetry_group_IT_number 11
_symmetry_cell_setting 'monoclinic'
loop_
_space_group_symop_operation_xyz
x,y,z
-x,1/2+y,-z
-x,-y,-z
x,1/2-y,z
loop_
_atom_site_type_symbol
_atom_site_label
_atom_site_fract_x
_atom_site_fract_y
_atom_site_fract_z
Si Si1 0.423776 0.431973 0.566477
Si Si2 0.672117 0.571084 0.994858
Si Si3 0.110253 0.931419 0.291124
Si Si4 0.743452 0.568626 0.567475
Si Si5 0.043143 0.070110 0.849894
Si Si6 0.722375 0.069835 0.845637
Si Si7 0.426253 0.568598 0.297569
O O1 0.500000 0.500000 0.500000
O O2 0.449652 0.250000 0.559693
O O3 0.583702 0.501406 0.566664
O O4 0.157918 0.484306 0.640537
O O5 0.690403 0.750000 0.982267
O O6 0.930273 0.498751 0.924321
O O7 0.500000 0.500000 0.000000
O O8 0.549736 0.534869 0.073943
O O9 0.131879 0.750000 0.284882
O O10 0.223147 0.002931 0.217307
O O11 0.250901 0.991545 0.300991
O O12 0.756965 0.750000 0.559327
O O13 0.632950 0.522734 0.642508
O O14 0.000000 0.500000 0.500000
O O15 0.012449 0.250000 0.860500
O O16 0.313275 0.022492 0.781488
O O17 0.905470 0.004253 0.838864
O O18 0.766415 0.250000 0.832136
O O19 0.403521 0.750000 0.312387
#
# Coordination Sequence:
#
# PCOD8074663 Si02
#       7
#     4   4   4   4   4   4   4
#     4  11  22  38  61  88 117 149 186 230 279 334
#     4   9  16  27  47  73 102 135 177 227 276 326
#     4   9  18  33  55  80 107 141 182 225 273 328
#     4  12  25  41  61  85 114 148 186 231 282 337
#     4   9  17  30  50  75 106 142 180 222 272 331
#     4   8  14  27  47  72 100 135 177 221 268 320
#     4  10  20  36  58  83 110 144 185 228 275 332
#
# _framework density 19.287272999999999
#
# number of rings (size 3 to 8) (size 9 to 14) (size 15 to 20)
#    0.000    2.286    0.000    4.714    0.000    4.000 
#    0.000    1.429    0.000    6.857    0.000    0.000 
#    0.000    0.000    0.000    0.000    0.000    0.000 
#
# Total GULP energy -347085.902894 kJ/mol
# GULP energy per Si atom -12395.925103 kJ/mol
# Density = 1.924337 g / cm^3
# Si number density = 19.287273 Si / 1000 Ang^3
#
#
#
# Elastic Constant Matrix: (Units=GPa)
#
#
# Indices 1 2 3 4 5 6 
#
# 1 145.1964 39.1345 91.1885 0.0000 -0.0722 0.0000
# 2 39.1345 64.7870 62.6525 0.0000 -3.4395 0.0000
# 3 91.1885 62.6525 194.5125 0.0000 2.4377 0.0000
# 4 0.0000 0.0000 0.0000 32.7616 0.0000 0.6799
# 5 -0.0722 -3.4395 2.4377 0.0000 34.1302 0.0000
# 6 0.0000 0.0000 0.0000 0.6799 0.0000 21.3585
#
#
#
# Elastic Compliance Matrix: (Units=1/GPa)
#
#
# Indices 1 2 3 4 5 6 
#
# 1 0.009969 -0.002174 -0.003975 0.000000 0.000086 0.000000
# 2 -0.002174 0.023158 -0.006475 0.000000 0.002792 0.000000
# 3 -0.003975 -0.006475 0.009106 0.000000 -0.001311 0.000000
# 4 0.000000 0.000000 0.000000 0.030544 0.000000 -0.000972
# 5 0.000086 0.002792 -0.001311 0.000000 0.029675 0.000000
# 6 0.000000 0.000000 0.000000 -0.000972 0.000000 0.046851
#
#
# Mechanical properties :
#
#
# Convention : Reuss Voigt Hill
#
# Bulk Modulus (GPa) = 58.86852 87.82744 73.34798
# Shear Modulus (GPa) = 27.74498 31.75143 29.74821
#
# Velocity S-wave (km/s) = 3.79689 4.06179 3.93157
# Velocity P-wave (km/s) = 7.05762 8.22392 7.66299
#
# Compressibility (1/GPa) = 0.01698701
#
# Stress axis : x y z
#
# Youngs Moduli (GPa) = 100.30759 43.18099 109.81200
#
# Poissons Ratio (x) = 0.09386 0.43646
# Poissons Ratio (y) = 0.21804 0.71106
# Poissons Ratio (z) = 0.39868 0.27961
#
# Static dielectric constant tensor:
#      x y z
#    x 4.394140 0.000000 0.000510 
#    y 0.000000 2.789750 0.000000 
#    z 0.000510 0.000000 4.113570 
# 
# 
# High freq. dielectric constant tensor:
#      x y z
#    x 1.736560 0.000000 0.000690 
#    y 0.000000 1.723550 0.000000 
#    z 0.000690 0.000000 1.777380 
# 
# From -- ./inp_files/72729.got.cif
#   From: 2010.06.25/outbox.cif.g09.slc.cpg/sg11_37_cif.got.tgz:72729.got - 2010.06.27 23:14:04.
