data_PCOD8074793
_publ_section_title
;
Structure prediction by ZEFSAII (Michael W. Deem and Ramdas Pophale) SiO2 
 PCOD8074793
Probable space group: P 21/M
;
_chemical_formula_sum "Si O2"
_cell_formula_units_Z 32
_cell_length_a 9.270926
_cell_length_b 8.598256
_cell_length_c 21.014183
_cell_angle_alpha 90.000000
_cell_angle_beta 107.298635
_cell_angle_gamma 90.000000
_cell_volume 1599.351043
_symmetry_space_group_name_H-M "P 21/M"
_symmetry_group_IT_number 11
_symmetry_cell_setting 'monoclinic'
loop_
_space_group_symop_operation_xyz
x,y,z
-x,1/2+y,-z
-x,-y,-z
x,1/2-y,z
loop_
_atom_site_type_symbol
_atom_site_label
_atom_site_fract_x
_atom_site_fract_y
_atom_site_fract_z
Si Si1 0.624898 0.073621 0.783357
Si Si2 0.882203 0.425551 0.270673
Si Si3 0.410644 0.430794 0.090218
Si Si4 0.628520 0.427773 0.331896
Si Si5 0.139535 0.933059 0.978444
Si Si6 0.806669 0.072957 0.685703
Si Si7 0.257213 0.068029 0.870054
Si Si8 0.491154 0.933246 0.428948
O O1 0.612569 0.250000 0.807610
O O2 0.766776 0.055107 0.755056
O O3 0.642716 0.957359 0.844419
O O4 0.474281 0.036665 0.725124
O O5 0.866560 0.250000 0.242809
O O6 0.796663 0.444458 0.326615
O O7 0.814797 0.538660 0.208387
O O8 0.054027 0.462269 0.310414
O O9 0.396461 0.250000 0.071627
O O10 0.300406 0.526920 0.030513
O O11 0.581973 0.483813 0.102190
O O12 0.571092 0.250000 0.321177
O O13 0.623524 0.489090 0.403813
O O14 0.118449 0.750000 0.971272
O O15 0.140532 0.004815 0.907720
O O16 0.000000 0.000000 0.000000
O O17 0.850684 0.250000 0.675946
O O18 0.668505 0.019184 0.623207
O O19 0.282307 0.250000 0.882746
O O20 0.514835 0.750000 0.432702
O O21 0.500000 0.000000 0.500000
#
# Coordination Sequence:
#
# PCOD8074793 Si02
#       8
#     4   4   4   4   4   4   4   4
#     4  10  20  36  59  88 118 157 205 250 302 362
#     4  11  23  38  60  92 126 160 204 253 307 365
#     4  12  24  41  64  91 122 159 206 255 310 372
#     4  10  20  36  59  89 124 158 200 250 298 355
#     4  12  27  47  66  89 122 159 205 258 315 377
#     4   9  21  38  58  87 124 160 201 249 302 361
#     4  12  25  43  66  90 121 163 207 255 312 373
#     4  10  21  39  64  92 123 161 207 249 299 362
#
# _framework density 20.008113999999999
#
# number of rings (size 3 to 8) (size 9 to 14) (size 15 to 20)
#    0.000    1.250    1.250    6.000    1.750    4.500 
#    0.000    0.625    0.000    0.000    0.000    0.000 
#    0.000    0.000    0.000    0.000    0.000    0.000 
#
# Total GULP energy -396933.433170 kJ/mol
# GULP energy per Si atom -12404.169787 kJ/mol
# Density = 1.996258 g / cm^3
# Si number density = 20.008114 Si / 1000 Ang^3
#
#
#
# Elastic Constant Matrix: (Units=GPa)
#
#
# Indices 1 2 3 4 5 6 
#
# 1 111.2720 41.9551 40.6493 0.0000 -14.3028 0.0000
# 2 41.9551 92.4206 30.3401 0.0000 -14.4528 0.0000
# 3 40.6493 30.3401 106.5318 0.0000 -23.8487 0.0000
# 4 0.0000 0.0000 0.0000 34.2660 0.0000 -2.1152
# 5 -14.3028 -14.4528 -23.8487 0.0000 26.2750 0.0000
# 6 0.0000 0.0000 0.0000 -2.1152 0.0000 35.5205
#
#
#
# Elastic Compliance Matrix: (Units=1/GPa)
#
#
# Indices 1 2 3 4 5 6 
#
# 1 0.011841 -0.004164 -0.003015 0.000000 0.001419 0.000000
# 2 -0.004164 0.013813 -0.001445 0.000000 0.004020 0.000000
# 3 -0.003015 -0.001445 0.013056 0.000000 0.009415 0.000000
# 4 0.000000 0.000000 0.000000 0.029291 0.000000 0.001744
# 5 0.001419 0.004020 0.009415 0.000000 0.049588 0.000000
# 6 0.000000 0.000000 0.000000 0.001744 0.000000 0.028257
#
#
# Mechanical properties :
#
#
# Convention : Reuss Voigt Hill
#
# Bulk Modulus (GPa) = 46.59154 59.56814 53.07984
# Shear Modulus (GPa) = 29.36906 32.36430 30.86668
#
# Velocity S-wave (km/s) = 3.83542 4.02625 3.93199
# Velocity P-wave (km/s) = 6.55369 7.17293 6.87029
#
# Compressibility (1/GPa) = 0.02146313
#
# Stress axis : x y z
#
# Youngs Moduli (GPa) = 84.45584 72.39399 76.59090
#
# Poissons Ratio (x) = 0.30142 0.23089
# Poissons Ratio (y) = 0.35164 0.11071
# Poissons Ratio (z) = 0.25459 0.10464
#
# Static dielectric constant tensor:
#      x y z
#    x 4.934330 0.000000 -0.290630 
#    y 0.000000 3.805960 0.000000 
#    z -0.290630 0.000000 3.691230 
# 
# 
# High freq. dielectric constant tensor:
#      x y z
#    x 1.781330 0.000000 -0.016920 
#    y 0.000000 1.795580 0.000000 
#    z -0.016920 0.000000 1.771050 
# 
# From -- ./inp_files/63255.got.cif
#   From: 2010.06.25/outbox.cif.g09.slc.cpg/sg11_32_cif.got.tgz:63255.got - 2010.06.27 23:14:04.
