data_PCOD8074294
_publ_section_title
;
Structure prediction by ZEFSAII (Michael W. Deem and Ramdas Pophale) SiO2 
 PCOD8074294
Probable space group: P 21/M
;
_chemical_formula_sum "Si O2"
_cell_formula_units_Z 28
_cell_length_a 17.481476
_cell_length_b 9.255931
_cell_length_c 22.377445
_cell_angle_alpha 90.000000
_cell_angle_beta 23.435695
_cell_angle_gamma 90.000000
_cell_volume 1440.076842
_symmetry_space_group_name_H-M "P 21/M"
_symmetry_group_IT_number 11
_symmetry_cell_setting 'monoclinic'
loop_
_space_group_symop_operation_xyz
x,y,z
-x,1/2+y,-z
-x,-y,-z
x,1/2-y,z
loop_
_atom_site_type_symbol
_atom_site_label
_atom_site_fract_x
_atom_site_fract_y
_atom_site_fract_z
Si Si1 0.698442 0.081339 0.865894
Si Si2 0.891888 0.086595 0.171733
Si Si3 0.665284 0.585808 0.414599
Si Si4 0.151719 0.078666 0.347873
Si Si5 0.672787 0.587095 0.128255
Si Si6 0.588826 0.412688 0.073201
Si Si7 0.422855 0.586686 0.696212
O O1 0.684964 0.250000 0.856115
O O2 0.858560 0.998544 0.710570
O O3 0.732205 0.070689 0.913269
O O4 0.500000 0.000000 0.000000
O O5 0.826814 0.250000 0.232803
O O6 0.759199 0.028765 0.212348
O O7 0.862679 0.990814 0.252892
O O8 0.114535 0.077015 0.996080
O O9 0.500000 0.500000 0.500000
O O10 0.668961 0.750000 0.389800
O O11 0.622525 0.576978 0.515966
O O12 0.105459 0.250000 0.375559
O O13 0.366422 0.051632 0.218254
O O14 0.000000 0.000000 0.500000
O O15 0.600022 0.750000 0.174974
O O16 0.664264 0.520222 0.069074
O O17 0.539179 0.505790 0.271653
O O18 0.602137 0.250000 0.088252
O O19 0.379546 0.750000 0.747204
#
# Coordination Sequence:
#
# PCOD8074294 Si02
#       7
#     4   4   4   4   4   4   4
#     4   9  17  32  55  80 105 136 171 206 247 301
#     4   9  19  34  50  73 101 131 173 220 261 308
#     4   9  17  30  50  73  94 123 162 207 258 308
#     4  10  20  35  58  86 111 137 171 213 257 307
#     4  11  22  33  50  76 104 135 174 219 261 301
#     4   9  20  37  54  75 106 141 173 206 255 313
#     4   9  18  33  51  71 100 135 172 215 264 314
#
# _framework density 19.443408000000002
#
# number of rings (size 3 to 8) (size 9 to 14) (size 15 to 20)
#    0.000    2.571    0.000    3.857    0.000    7.429 
#    0.000    1.429    0.000    1.714    0.000    0.000 
#    0.000    0.000    0.000    0.000    0.000    0.000 
#
# Total GULP energy -346963.119295 kJ/mol
# GULP energy per Si atom -12391.539975 kJ/mol
# Density = 1.939915 g / cm^3
# Si number density = 19.443408 Si / 1000 Ang^3
#
#
#
# Elastic Constant Matrix: (Units=GPa)
#
#
# Indices 1 2 3 4 5 6 
#
# 1 60.1704 44.7614 25.0764 0.0000 26.8359 0.0000
# 2 44.7614 139.1781 58.9841 0.0000 32.0652 0.0000
# 3 25.0764 58.9841 96.8429 0.0000 33.9460 0.0000
# 4 0.0000 0.0000 0.0000 37.5507 0.0000 8.4717
# 5 26.8359 32.0652 33.9460 0.0000 29.3779 0.0000
# 6 0.0000 0.0000 0.0000 8.4717 0.0000 29.7325
#
#
#
# Elastic Compliance Matrix: (Units=1/GPa)
#
#
# Indices 1 2 3 4 5 6 
#
# 1 0.031480 -0.005824 0.005458 0.000000 -0.028707 0.000000
# 2 -0.005824 0.011512 -0.004982 0.000000 -0.001489 0.000000
# 3 0.005458 -0.004982 0.019814 0.000000 -0.022443 0.000000
# 4 0.000000 0.000000 0.000000 0.028460 0.000000 -0.008109
# 5 -0.028707 -0.001489 -0.022443 0.000000 0.087820 0.000000
# 6 0.000000 0.000000 0.000000 -0.008109 0.000000 0.035944
#
#
# Mechanical properties :
#
#
# Convention : Reuss Voigt Hill
#
# Bulk Modulus (GPa) = 19.18972 61.53725 40.36348
# Shear Modulus (GPa) = 20.56797 30.49020 25.52908
#
# Velocity S-wave (km/s) = 3.25597 3.96428 3.62746
# Velocity P-wave (km/s) = 4.90164 7.25756 6.19267
#
# Compressibility (1/GPa) = 0.05211124
#
# Stress axis : x y z
#
# Youngs Moduli (GPa) = 31.76585 86.86220 50.46960
#
# Poissons Ratio (x) = 0.50588 -0.27547
# Poissons Ratio (y) = 0.18500 0.25144
# Poissons Ratio (z) = -0.17338 0.43274
#
# Static dielectric constant tensor:
#      x y z
#    x 3.258640 0.000000 0.327350 
#    y 0.000000 3.873780 0.000000 
#    z 0.327350 0.000000 4.052320 
# 
# 
# High freq. dielectric constant tensor:
#      x y z
#    x 1.718120 0.000000 0.027950 
#    y 0.000000 1.770110 0.000000 
#    z 0.027950 0.000000 1.756550 
# 
# From -- ./inp_files/28536.got.cif
#   From: 2010.06.25/outbox.cif.g09.slc.cpg/sg11_15_cif.got.tgz:28536.got - 2010.06.27 23:14:04.
