data_PCOD8074762
_publ_section_title
;
Structure prediction by ZEFSAII (Michael W. Deem and Ramdas Pophale) SiO2 
 PCOD8074762
Probable space group: P 21/M
;
_chemical_formula_sum "Si O2"
_cell_formula_units_Z 32
_cell_length_a 17.037041
_cell_length_b 14.398005
_cell_length_c 24.082443
_cell_angle_alpha 90.000000
_cell_angle_beta 163.802901
_cell_angle_gamma 90.000000
_cell_volume 1647.827300
_symmetry_space_group_name_H-M "P 21/M"
_symmetry_group_IT_number 11
_symmetry_cell_setting 'monoclinic'
loop_
_space_group_symop_operation_xyz
x,y,z
-x,1/2+y,-z
-x,-y,-z
x,1/2-y,z
loop_
_atom_site_type_symbol
_atom_site_label
_atom_site_fract_x
_atom_site_fract_y
_atom_site_fract_z
Si Si1 0.806947 0.518780 0.088001
Si Si2 0.258070 0.145198 0.570276
Si Si3 0.973631 0.642578 0.103330
Si Si4 0.194790 0.578255 0.656576
Si Si5 0.646713 0.148589 0.350698
Si Si6 0.771905 0.014149 0.529302
Si Si7 0.169962 0.639775 0.981309
Si Si8 0.182400 0.482192 0.178065
O O1 0.931070 0.603947 0.136388
O O2 0.950893 0.522186 0.245611
O O3 0.476103 0.533310 0.873188
O O4 0.869908 0.418790 0.102305
O O5 0.299775 0.250000 0.580013
O O6 0.517216 0.114128 0.785311
O O7 0.964910 0.133449 0.403550
O O8 0.263939 0.090441 0.516451
O O9 0.072856 0.750000 0.173035
O O10 0.199318 0.577571 0.225423
O O11 0.687126 0.629970 0.873480
O O12 0.261678 0.646624 0.651186
O O13 0.000000 0.500000 0.500000
O O14 0.717187 0.250000 0.422269
O O15 0.812300 0.075857 0.501281
O O16 0.499877 0.046476 0.379047
O O17 0.127981 0.750000 0.942143
O O18 0.946777 0.603686 0.875105
O O19 0.000000 0.500000 0.000000
#
# Coordination Sequence:
#
# PCOD8074762 Si02
#       8
#     4   4   4   4   4   4   4   4
#     4  10  23  39  60  86 121 153 187 243 293 341
#     4  11  22  38  63  89 114 151 197 243 288 344
#     4   9  19  37  60  83 112 155 202 236 276 340
#     4  11  19  40  66  82 108 152 196 233 283 352
#     4  10  20  36  59  86 113 149 196 241 282 338
#     4  12  23  38  57  88 125 150 189 243 297 338
#     4  10  21  39  61  87 116 156 202 236 278 345
#     4  11  20  36  59  87 117 156 195 237 285 339
#
# _framework density 19.419511
#
# number of rings (size 3 to 8) (size 9 to 14) (size 15 to 20)
#    0.000    1.500    5.000    1.125    0.000    5.500 
#    0.000    1.250    0.000    0.000    0.000    0.000 
#    0.000    0.000    0.000    0.000    0.000    0.000 
#
# Total GULP energy -396836.076678 kJ/mol
# GULP energy per Si atom -12401.127396 kJ/mol
# Density = 1.937531 g / cm^3
# Si number density = 19.419511 Si / 1000 Ang^3
#
#
#
# Elastic Constant Matrix: (Units=GPa)
#
#
# Indices 1 2 3 4 5 6 
#
# 1 74.2649 27.1915 39.0426 0.0000 3.5133 0.0000
# 2 27.1915 105.1971 27.9621 0.0000 -10.4295 0.0000
# 3 39.0426 27.9621 98.9635 0.0000 -8.4609 0.0000
# 4 0.0000 0.0000 0.0000 17.3731 0.0000 2.2488
# 5 3.5133 -10.4295 -8.4609 0.0000 38.5225 0.0000
# 6 0.0000 0.0000 0.0000 2.2488 0.0000 21.2057
#
#
#
# Elastic Compliance Matrix: (Units=1/GPa)
#
#
# Indices 1 2 3 4 5 6 
#
# 1 0.018391 -0.003390 -0.006645 0.000000 -0.004054 0.000000
# 2 -0.003390 0.011086 -0.001541 0.000000 0.002972 0.000000
# 3 -0.006645 -0.001541 0.013430 0.000000 0.003138 0.000000
# 4 0.000000 0.000000 0.000000 0.058361 0.000000 -0.006189
# 5 -0.004054 0.002972 0.003138 0.000000 0.027823 0.000000
# 6 0.000000 0.000000 0.000000 -0.006189 0.000000 0.047813
#
#
# Mechanical properties :
#
#
# Convention : Reuss Voigt Hill
#
# Bulk Modulus (GPa) = 50.61475 51.86866 51.24171
# Shear Modulus (GPa) = 24.19651 27.70223 25.94937
#
# Velocity S-wave (km/s) = 3.53369 3.78102 3.65944
# Velocity P-wave (km/s) = 6.53986 6.76971 6.65578
#
# Compressibility (1/GPa) = 0.01975709
#
# Stress axis : x y z
#
# Youngs Moduli (GPa) = 54.37327 90.20042 74.46085
#
# Poissons Ratio (x) = 0.30575 0.49476
# Poissons Ratio (y) = 0.18431 0.11475
# Poissons Ratio (z) = 0.36129 0.13901
#
# Static dielectric constant tensor:
#      x y z
#    x 3.737010 0.000000 0.287940 
#    y 0.000000 3.598130 0.000000 
#    z 0.287940 0.000000 3.471630 
# 
# 
# High freq. dielectric constant tensor:
#      x y z
#    x 1.752930 0.000000 0.009850 
#    y 0.000000 1.761200 0.000000 
#    z 0.009850 0.000000 1.736870 
# 
# From -- ./inp_files/47654.got.cif
#   From: 2010.06.25/outbox.cif.g09.slc.cpg/sg11_24_cif.got.tgz:47654.got - 2010.06.27 23:14:04.
