data_PCOD8074536
_publ_section_title
;
Structure prediction by ZEFSAII (Michael W. Deem and Ramdas Pophale) SiO2 
 PCOD8074536
Probable space group: P 21/M
;
_chemical_formula_sum "Si O2"
_cell_formula_units_Z 28
_cell_length_a 14.574023
_cell_length_b 17.298715
_cell_length_c 6.978654
_cell_angle_alpha 90.000000
_cell_angle_beta 121.979888
_cell_angle_gamma 90.000000
_cell_volume 1492.384282
_symmetry_space_group_name_H-M "P 21/M"
_symmetry_group_IT_number 11
_symmetry_cell_setting 'monoclinic'
loop_
_space_group_symop_operation_xyz
x,y,z
-x,1/2+y,-z
-x,-y,-z
x,1/2-y,z
loop_
_atom_site_type_symbol
_atom_site_label
_atom_site_fract_x
_atom_site_fract_y
_atom_site_fract_z
Si Si1 0.099589 0.948126 0.049219
Si Si2 0.626965 0.437702 0.248261
Si Si3 0.768901 0.839123 0.409690
Si Si4 0.701201 0.546550 0.660288
Si Si5 0.612241 0.577138 0.961364
Si Si6 0.829446 0.162555 0.538065
Si Si7 0.983370 0.163447 0.356432
O O1 0.129004 0.885427 0.238636
O O2 0.199401 0.004944 0.123660
O O3 0.074711 0.901697 0.830628
O O4 0.000000 0.000000 0.000000
O O5 0.636902 0.487390 0.453911
O O6 0.510227 0.396499 0.125760
O O7 0.719977 0.373763 0.330263
O O8 0.634766 0.491663 0.069678
O O9 0.751189 0.750000 0.435890
O O10 0.743158 0.883126 0.577604
O O11 0.890985 0.857948 0.480331
O O12 0.692654 0.862387 0.149031
O O13 0.625483 0.578187 0.746171
O O14 0.802980 0.250000 0.571736
O O15 0.927802 0.160769 0.499819
O O16 0.971345 0.250000 0.253587
#
# Coordination Sequence:
#
# PCOD8074536 Si02
#       7
#     4   4   4   4   4   4   4
#     4  11  21  34  55  83 110 144 183 226 272 327
#     4   9  20  38  57  83 110 136 185 234 267 321
#     4  10  22  36  51  80 114 142 181 224 267 329
#     4  10  20  36  56  83 109 142 181 228 276 323
#     4  10  20  36  60  81 107 147 183 224 277 325
#     4  10  22  38  57  80 110 147 182 224 278 329
#     4  10  21  37  55  79 115 148 179 224 274 328
#
# _framework density 18.761922999999999
#
# number of rings (size 3 to 8) (size 9 to 14) (size 15 to 20)
#    0.000    2.000    1.429    1.714    2.000    1.714 
#    0.000    0.000    0.000    0.000    0.000    0.000 
#    0.000    0.000    0.000    0.000    0.000    0.000 
#
# Total GULP energy -347244.725856 kJ/mol
# GULP energy per Si atom -12401.597352 kJ/mol
# Density = 1.871922 g / cm^3
# Si number density = 18.761923 Si / 1000 Ang^3
#
#
#
# Elastic Constant Matrix: (Units=GPa)
#
#
# Indices 1 2 3 4 5 6 
#
# 1 102.1759 37.2871 38.6168 0.0000 7.6512 0.0000
# 2 37.2871 84.8576 25.9378 0.0000 6.8828 0.0000
# 3 38.6168 25.9378 67.0448 0.0000 7.4379 0.0000
# 4 0.0000 0.0000 0.0000 26.2213 0.0000 -3.6752
# 5 7.6512 6.8828 7.4379 0.0000 33.6750 0.0000
# 6 0.0000 0.0000 0.0000 -3.6752 0.0000 9.2652
#
#
#
# Elastic Compliance Matrix: (Units=1/GPa)
#
#
# Indices 1 2 3 4 5 6 
#
# 1 0.013677 -0.004036 -0.006215 0.000000 -0.000910 0.000000
# 2 -0.004036 0.014644 -0.003188 0.000000 -0.001372 0.000000
# 3 -0.006215 -0.003188 0.019990 0.000000 -0.002351 0.000000
# 4 0.000000 0.000000 0.000000 0.040382 0.000000 0.016018
# 5 -0.000910 -0.001372 -0.002351 0.000000 0.030702 0.000000
# 6 0.000000 0.000000 0.000000 0.016018 0.000000 0.114285
#
#
# Mechanical properties :
#
#
# Convention : Reuss Voigt Hill
#
# Bulk Modulus (GPa) = 46.66182 50.86241 48.76212
# Shear Modulus (GPa) = 18.67738 23.98139 21.32938
#
# Velocity S-wave (km/s) = 3.15857 3.57906 3.37537
# Velocity P-wave (km/s) = 6.18276 6.65190 6.42162
#
# Compressibility (1/GPa) = 0.02143080
#
# Stress axis : x y z
#
# Youngs Moduli (GPa) = 73.11436 68.28828 50.02578
#
# Poissons Ratio (x) = 0.27563 0.31093
# Poissons Ratio (y) = 0.29511 0.15950
# Poissons Ratio (z) = 0.45444 0.21772
#
# Static dielectric constant tensor:
#      x y z
#    x 3.450480 0.000000 0.148840 
#    y 0.000000 3.555820 0.000000 
#    z 0.148840 0.000000 3.340080 
# 
# 
# High freq. dielectric constant tensor:
#      x y z
#    x 1.735650 0.000000 0.008450 
#    y 0.000000 1.725980 0.000000 
#    z 0.008450 0.000000 1.730550 
# 
# From -- ./inp_files/6695.got.cif
#   From: 2010.06.25/outbox.cif.g09.slc.cpg/sg11_4_cif.got.tgz:6695.got - 2010.06.27 23:14:04.
