data_PCOD8074721
_publ_section_title
;
Structure prediction by ZEFSAII (Michael W. Deem and Ramdas Pophale) SiO2 
 PCOD8074721
Probable space group: P 21/M
;
_chemical_formula_sum "Si O2"
_cell_formula_units_Z 28
_cell_length_a 26.400250
_cell_length_b 9.105891
_cell_length_c 9.200579
_cell_angle_alpha 90.000000
_cell_angle_beta 43.026313
_cell_angle_gamma 90.000000
_cell_volume 1509.185974
_symmetry_space_group_name_H-M "P 21/M"
_symmetry_group_IT_number 11
_symmetry_cell_setting 'monoclinic'
loop_
_space_group_symop_operation_xyz
x,y,z
-x,1/2+y,-z
-x,-y,-z
x,1/2-y,z
loop_
_atom_site_type_symbol
_atom_site_label
_atom_site_fract_x
_atom_site_fract_y
_atom_site_fract_z
Si Si1 0.420109 0.081860 0.312143
Si Si2 0.830510 0.422531 0.470934
Si Si3 0.280321 0.079733 0.804585
Si Si4 0.433036 0.078898 0.952551
Si Si5 0.850888 0.921514 0.122560
Si Si6 0.305677 0.575605 0.050418
Si Si7 0.990111 0.080972 0.168876
O O1 0.446387 0.250000 0.274562
O O2 0.344281 0.049901 0.553582
O O3 0.483226 0.977458 0.245866
O O4 0.406103 0.045270 0.172520
O O5 0.821898 0.250000 0.463359
O O6 0.830123 0.496740 0.314477
O O7 0.762571 0.482932 0.708602
O O8 0.907325 0.458928 0.400964
O O9 0.278698 0.250000 0.855942
O O10 0.202999 0.029125 0.893962
O O11 0.293104 0.976621 0.913902
O O12 0.430010 0.250000 0.920496
O O13 0.381483 0.992550 0.949427
O O14 0.839218 0.750000 0.178976
O O15 0.936313 0.956767 0.889487
O O16 0.311684 0.750000 0.040452
O O17 0.991840 0.250000 0.125471
O O18 0.000000 0.000000 0.000000
#
# Coordination Sequence:
#
# PCOD8074721 Si02
#       7
#     4   4   4   4   4   4   4
#     4   9  19  36  57  80 104 129 162 205 252 302
#     4   9  18  32  51  75 103 134 168 208 253 300
#     4  10  21  36  52  73 103 137 171 207 248 296
#     4  10  20  36  59  82 102 127 163 208 254 300
#     4   9  17  31  54  79 101 129 168 212 254 298
#     4  11  23  36  50  72 104 140 174 207 247 297
#     4   8  14  27  48  74 101 128 162 206 253 297
#
# _framework density 18.553049000000001
#
# number of rings (size 3 to 8) (size 9 to 14) (size 15 to 20)
#    0.000    2.571    0.000    1.714    0.000    4.571 
#    0.000    0.714    0.000    0.000    0.000    0.000 
#    0.000    0.000    0.000    0.000    0.000    0.000 
#
# Total GULP energy -347017.423109 kJ/mol
# GULP energy per Si atom -12393.479397 kJ/mol
# Density = 1.851082 g / cm^3
# Si number density = 18.553049 Si / 1000 Ang^3
#
#
#
# Elastic Constant Matrix: (Units=GPa)
#
#
# Indices 1 2 3 4 5 6 
#
# 1 142.6681 45.5521 40.6303 0.0000 -18.0347 0.0000
# 2 45.5521 53.3127 18.9921 0.0000 -6.1830 0.0000
# 3 40.6303 18.9921 27.1257 0.0000 -10.3628 0.0000
# 4 0.0000 0.0000 0.0000 22.3028 0.0000 2.8139
# 5 -18.0347 -6.1830 -10.3628 0.0000 25.2962 0.0000
# 6 0.0000 0.0000 0.0000 2.8139 0.0000 27.9291
#
#
#
# Elastic Compliance Matrix: (Units=1/GPa)
#
#
# Indices 1 2 3 4 5 6 
#
# 1 0.013498 -0.005820 -0.015424 0.000000 0.001882 0.000000
# 2 -0.005820 0.027534 -0.011351 0.000000 -0.002070 0.000000
# 3 -0.015424 -0.011351 0.074280 0.000000 0.016659 0.000000
# 4 0.000000 0.000000 0.000000 0.045415 0.000000 -0.004576
# 5 0.001882 -0.002070 0.016659 0.000000 0.047192 0.000000
# 6 0.000000 0.000000 0.000000 -0.004576 0.000000 0.036266
#
#
# Mechanical properties :
#
#
# Convention : Reuss Voigt Hill
#
# Bulk Modulus (GPa) = 19.95142 48.16172 34.05657
# Shear Modulus (GPa) = 15.33358 22.96776 19.15067
#
# Velocity S-wave (km/s) = 2.87796 3.52227 3.21629
# Velocity P-wave (km/s) = 4.67125 6.52358 5.67352
#
# Compressibility (1/GPa) = 0.05012173
#
# Stress axis : x y z
#
# Youngs Moduli (GPa) = 74.08426 36.31899 13.46260
#
# Poissons Ratio (x) = 0.21139 0.20765
# Poissons Ratio (y) = 0.43119 0.15281
# Poissons Ratio (z) = 1.14269 0.41224
#
# Static dielectric constant tensor:
#      x y z
#    x 3.632130 0.000000 -0.471460 
#    y 0.000000 3.340220 0.000000 
#    z -0.471460 0.000000 3.520670 
# 
# 
# High freq. dielectric constant tensor:
#      x y z
#    x 1.723370 0.000000 -0.028530 
#    y 0.000000 1.719430 0.000000 
#    z -0.028530 0.000000 1.709170 
# 
# From -- ./inp_files/28411.got.cif
#   From: 2010.06.25/outbox.cif.g09.slc.cpg/sg11_15_cif.got.tgz:28411.got - 2010.06.27 23:14:04.
