data_PCOD8074415
_publ_section_title
;
Structure prediction by ZEFSAII (Michael W. Deem and Ramdas Pophale) SiO2 
 PCOD8074415
Probable space group: P 21/M
;
_chemical_formula_sum "Si O2"
_cell_formula_units_Z 32
_cell_length_a 11.810644
_cell_length_b 9.130009
_cell_length_c 31.018702
_cell_angle_alpha 90.000000
_cell_angle_beta 149.824414
_cell_angle_gamma 90.000000
_cell_volume 1681.262398
_symmetry_space_group_name_H-M "P 21/M"
_symmetry_group_IT_number 11
_symmetry_cell_setting 'monoclinic'
loop_
_space_group_symop_operation_xyz
x,y,z
-x,1/2+y,-z
-x,-y,-z
x,1/2-y,z
loop_
_atom_site_type_symbol
_atom_site_label
_atom_site_fract_x
_atom_site_fract_y
_atom_site_fract_z
Si Si1 0.468557 0.418202 0.034144
Si Si2 0.307551 0.918488 0.753302
Si Si3 0.051768 0.583420 0.129135
Si Si4 0.179028 0.419775 0.088764
Si Si5 0.820455 0.921423 0.208053
Si Si6 0.107940 0.579755 0.596316
Si Si7 0.685863 0.078282 0.426081
Si Si8 0.773347 0.420198 0.720259
O O1 0.540742 0.250000 0.051686
O O2 0.617632 0.491865 0.119585
O O3 0.500000 0.500000 0.000000
O O4 0.213374 0.430363 0.965801
O O5 0.244242 0.750000 0.741554
O O6 0.572322 0.944724 0.848249
O O7 0.244852 0.962377 0.684011
O O8 0.163698 0.021621 0.737728
O O9 0.130944 0.750000 0.147549
O O10 0.177572 0.479977 0.136870
O O11 0.112936 0.531332 0.197381
O O12 0.115313 0.250000 0.068963
O O13 0.000000 0.500000 0.000000
O O14 0.765366 0.750000 0.188383
O O15 0.053715 0.956229 0.261048
O O16 0.043740 0.750000 0.573399
O O17 0.264967 0.536971 0.607483
O O18 0.877739 0.488544 0.519816
O O19 0.679124 0.250000 0.431611
O O20 0.448502 0.012419 0.362026
O O21 0.709690 0.250000 0.700163
#
# Coordination Sequence:
#
# PCOD8074415 Si02
#       8
#     4   4   4   4   4   4   4   4
#     4  11  21  36  56  80 112 150 192 237 283 332
#     4  10  22  40  59  81 113 153 193 233 282 337
#     4  10  21  37  56  80 112 147 187 234 284 336
#     4  11  23  38  56  82 115 149 188 234 281 333
#     4  11  23  39  57  82 114 151 196 238 281 336
#     4   9  19  38  61  85 116 149 181 227 287 340
#     4  10  20  35  60  92 117 141 183 231 279 341
#     4  10  21  38  56  80 115 149 182 229 287 335
#
# _framework density 19.033318000000001
#
# number of rings (size 3 to 8) (size 9 to 14) (size 15 to 20)
#    0.000    1.750    1.250    3.000    0.000    8.500 
#    0.000    0.625    0.000    0.000    0.000    0.000 
#    0.000    0.000    0.000    0.000    0.000    0.000 
#
# Total GULP energy -396965.731480 kJ/mol
# GULP energy per Si atom -12405.179109 kJ/mol
# Density = 1.899000 g / cm^3
# Si number density = 19.033318 Si / 1000 Ang^3
#
#
#
# Elastic Constant Matrix: (Units=GPa)
#
#
# Indices 1 2 3 4 5 6 
#
# 1 98.9810 55.2271 35.0595 0.0000 -0.5966 0.0000
# 2 55.2271 97.1061 48.3197 0.0000 6.7224 0.0000
# 3 35.0595 48.3197 102.2605 0.0000 6.2695 0.0000
# 4 0.0000 0.0000 0.0000 33.8186 0.0000 -2.0233
# 5 -0.5966 6.7224 6.2695 0.0000 28.1999 0.0000
# 6 0.0000 0.0000 0.0000 -2.0233 0.0000 36.3921
#
#
#
# Elastic Compliance Matrix: (Units=1/GPa)
#
#
# Indices 1 2 3 4 5 6 
#
# 1 0.015143 -0.008013 -0.001564 0.000000 0.002578 0.000000
# 2 -0.008013 0.017796 -0.005466 0.000000 -0.003197 0.000000
# 3 -0.001564 -0.005466 0.012997 0.000000 -0.001620 0.000000
# 4 0.000000 0.000000 0.000000 0.029668 0.000000 0.001649
# 5 0.002578 -0.003197 -0.001620 0.000000 0.036638 0.000000
# 6 0.000000 0.000000 0.000000 0.001649 0.000000 0.027570
#
#
# Mechanical properties :
#
#
# Convention : Reuss Voigt Hill
#
# Bulk Modulus (GPa) = 63.08424 63.95113 63.51768
# Shear Modulus (GPa) = 28.54191 30.33154 29.43673
#
# Velocity S-wave (km/s) = 3.87664 3.99633 3.93694
# Velocity P-wave (km/s) = 7.29752 7.41395 7.35597
#
# Compressibility (1/GPa) = 0.01585182
#
# Stress axis : x y z
#
# Youngs Moduli (GPa) = 66.03674 56.19180 76.94055
#
# Poissons Ratio (x) = 0.45025 0.12031
# Poissons Ratio (y) = 0.52913 0.42055
# Poissons Ratio (z) = 0.10326 0.30714
#
# Static dielectric constant tensor:
#      x y z
#    x 3.950240 0.000000 -0.539560 
#    y 0.000000 3.704410 0.000000 
#    z -0.539560 0.000000 4.013250 
# 
# 
# High freq. dielectric constant tensor:
#      x y z
#    x 1.740400 0.000000 -0.000580 
#    y 0.000000 1.745350 0.000000 
#    z -0.000580 0.000000 1.736900 
# 
# From -- ./inp_files/45175.got.cif
#   From: 2010.06.25/outbox.cif.g09.slc.cpg/sg11_23_cif.got.tgz:45175.got - 2010.06.27 23:14:04.
