data_PCOD8074166
_publ_section_title
;
Structure prediction by ZEFSAII (Michael W. Deem and Ramdas Pophale) SiO2 
 PCOD8074166
Probable space group: P 21/M
;
_chemical_formula_sum "Si O2"
_cell_formula_units_Z 28
_cell_length_a 22.926173
_cell_length_b 9.144357
_cell_length_c 26.304331
_cell_angle_alpha 90.000000
_cell_angle_beta 164.570534
_cell_angle_gamma 90.000000
_cell_volume 1467.162970
_symmetry_space_group_name_H-M "P 21/M"
_symmetry_group_IT_number 11
_symmetry_cell_setting 'monoclinic'
loop_
_space_group_symop_operation_xyz
x,y,z
-x,1/2+y,-z
-x,-y,-z
x,1/2-y,z
loop_
_atom_site_type_symbol
_atom_site_label
_atom_site_fract_x
_atom_site_fract_y
_atom_site_fract_z
Si Si1 0.522393 0.920809 0.397384
Si Si2 0.432261 0.919371 0.869074
Si Si3 0.676129 0.079397 0.334715
Si Si4 0.302355 0.916768 0.310338
Si Si5 0.063742 0.922483 0.205270
Si Si6 0.617376 0.076947 0.832082
Si Si7 0.167998 0.420704 0.726697
O O1 0.587901 0.750000 0.453142
O O2 0.308310 0.949724 0.254637
O O3 0.450797 0.972488 0.281691
O O4 0.731512 0.014370 0.590999
O O5 0.384804 0.750000 0.838170
O O6 0.441747 0.956321 0.817594
O O7 0.231934 0.002655 0.727616
O O8 0.663826 0.968072 0.087645
O O9 0.651805 0.250000 0.328829
O O10 0.928584 0.030716 0.543382
O O11 0.571243 0.978171 0.289225
O O12 0.357400 0.750000 0.366555
O O13 0.088417 0.955776 0.164684
O O14 0.500000 0.000000 0.500000
O O15 0.045531 0.750000 0.201271
O O16 0.843557 0.000771 0.038567
O O17 0.645287 0.250000 0.859925
O O18 0.174252 0.250000 0.720818
#
# Coordination Sequence:
#
# PCOD8074166 Si02
#       7
#     4   4   4   4   4   4   4
#     4   9  19  37  57  78 108 142 178 224 274 323
#     4   9  18  33  54  80 106 132 165 208 260 312
#     4  10  21  36  52  73 105 141 177 217 258 306
#     4   8  15  30  53  79 104 133 172 219 273 326
#     4  10  20  35  57  82 107 138 178 225 275 327
#     4  11  24  38  53  77 109 147 187 223 266 321
#     4   9  18  33  54  79 104 131 166 211 261 309
#
# _framework density 19.084451000000001
#
# number of rings (size 3 to 8) (size 9 to 14) (size 15 to 20)
#    0.000    2.571    0.000    1.286    0.000    4.571 
#    0.000    1.429    0.000    0.000    0.000    0.000 
#    0.000    0.000    0.000    0.000    0.000    0.000 
#
# Total GULP energy -347031.847121 kJ/mol
# GULP energy per Si atom -12393.994540 kJ/mol
# Density = 1.904101 g / cm^3
# Si number density = 19.084451 Si / 1000 Ang^3
#
#
#
# Elastic Constant Matrix: (Units=GPa)
#
#
# Indices 1 2 3 4 5 6 
#
# 1 88.1761 28.2642 18.3696 0.0000 2.0752 0.0000
# 2 28.2642 52.3654 22.3260 0.0000 3.1627 0.0000
# 3 18.3696 22.3260 60.2376 0.0000 3.8210 0.0000
# 4 0.0000 0.0000 0.0000 21.2636 0.0000 4.4556
# 5 2.0752 3.1627 3.8210 0.0000 27.0673 0.0000
# 6 0.0000 0.0000 0.0000 4.4556 0.0000 33.2870
#
#
#
# Elastic Compliance Matrix: (Units=1/GPa)
#
#
# Indices 1 2 3 4 5 6 
#
# 1 0.013863 -0.006745 -0.001726 0.000000 -0.000031 0.000000
# 2 -0.006745 0.026021 -0.007494 0.000000 -0.001465 0.000000
# 3 -0.001726 -0.007494 0.020020 0.000000 -0.001818 0.000000
# 4 0.000000 0.000000 0.000000 0.048386 0.000000 -0.006477
# 5 -0.000031 -0.001465 -0.001818 0.000000 0.037375 0.000000
# 6 0.000000 0.000000 0.000000 -0.006477 0.000000 0.030909
#
#
# Mechanical properties :
#
#
# Convention : Reuss Voigt Hill
#
# Bulk Modulus (GPa) = 35.74728 37.63318 36.69023
# Shear Modulus (GPa) = 22.95379 25.11154 24.03267
#
# Velocity S-wave (km/s) = 3.47183 3.63135 3.55248
# Velocity P-wave (km/s) = 5.90281 6.11100 6.00781
#
# Compressibility (1/GPa) = 0.02797416
#
# Stress axis : x y z
#
# Youngs Moduli (GPa) = 72.13316 38.43068 49.94968
#
# Poissons Ratio (x) = 0.25922 0.08620
# Poissons Ratio (y) = 0.48654 0.37434
# Poissons Ratio (z) = 0.12448 0.28801
#
# Static dielectric constant tensor:
#      x y z
#    x 3.835700 0.000000 0.026900 
#    y 0.000000 3.404550 0.000000 
#    z 0.026900 0.000000 3.432250 
# 
# 
# High freq. dielectric constant tensor:
#      x y z
#    x 1.747650 0.000000 0.003220 
#    y 0.000000 1.741540 0.000000 
#    z 0.003220 0.000000 1.732220 
# 
# From -- ./inp_files/66760.got.cif
#   From: 2010.06.25/outbox.cif.g09.slc.cpg/sg11_34_cif.got.tgz:66760.got - 2010.06.27 23:14:04.
