data_PCOD8074510
_publ_section_title
;
Structure prediction by ZEFSAII (Michael W. Deem and Ramdas Pophale) SiO2 
 PCOD8074510
Probable space group: P 21/M
;
_chemical_formula_sum "Si O2"
_cell_formula_units_Z 32
_cell_length_a 13.449885
_cell_length_b 9.269880
_cell_length_c 20.435977
_cell_angle_alpha 90.000000
_cell_angle_beta 140.334307
_cell_angle_gamma 90.000000
_cell_volume 1626.363811
_symmetry_space_group_name_H-M "P 21/M"
_symmetry_group_IT_number 11
_symmetry_cell_setting 'monoclinic'
loop_
_space_group_symop_operation_xyz
x,y,z
-x,1/2+y,-z
-x,-y,-z
x,1/2-y,z
loop_
_atom_site_type_symbol
_atom_site_label
_atom_site_fract_x
_atom_site_fract_y
_atom_site_fract_z
Si Si1 0.952007 0.580453 0.833422
Si Si2 0.122642 0.421304 0.349329
Si Si3 0.296936 0.582382 0.056355
Si Si4 0.296061 0.580091 0.208938
Si Si5 0.835300 0.409117 0.288525
Si Si6 0.627131 0.920688 0.424111
Si Si7 0.490941 0.909005 0.931232
Si Si8 0.837897 0.579256 0.411358
O O1 0.919700 0.750000 0.822314
O O2 0.901533 0.518784 0.736352
O O3 0.851316 0.500938 0.836760
O O4 0.131306 0.545013 0.939508
O O5 0.113390 0.250000 0.341778
O O6 0.288192 0.472855 0.465375
O O7 0.983068 0.476505 0.325136
O O8 0.337379 0.750000 0.066883
O O9 0.302278 0.542136 0.135511
O O10 0.428467 0.487904 0.088660
O O11 0.274652 0.750000 0.208490
O O12 0.450931 0.521881 0.325534
O O13 0.881770 0.250000 0.341223
O O14 0.692987 0.388932 0.168283
O O15 0.770456 0.521092 0.309245
O O16 0.622214 0.750000 0.420326
O O17 0.727796 0.974672 0.413787
O O18 0.567201 0.750000 0.977833
O O19 0.500000 0.000000 0.000000
O O20 0.856083 0.750000 0.419169
O O21 0.000000 0.500000 0.500000
#
# Coordination Sequence:
#
# PCOD8074510 Si02
#       8
#     4   4   4   4   4   4   4   4
#     4  10  21  37  59  81 104 143 188 235 290 343
#     4   9  17  33  55  76 105 146 186 220 269 340
#     4  10  21  39  59  81 112 148 189 232 284 347
#     4  10  21  37  58  82 109 142 183 237 290 337
#     4  10  20  36  56  80 112 151 191 230 276 336
#     4   9  18  33  54  78 108 148 183 217 275 340
#     4  11  23  37  58  87 120 155 190 233 283 338
#     4  11  20  33  55  82 112 148 188 230 275 331
#
# _framework density 19.675794
#
# number of rings (size 3 to 8) (size 9 to 14) (size 15 to 20)
#    0.000    2.000    1.250    2.625    0.000    5.500 
#    0.000    1.875    0.000    0.000    0.000    0.000 
#    0.000    0.000    0.000    0.000    0.000    0.000 
#
# Total GULP energy -396649.534548 kJ/mol
# GULP energy per Si atom -12395.297955 kJ/mol
# Density = 1.963101 g / cm^3
# Si number density = 19.675794 Si / 1000 Ang^3
#
#
#
# Elastic Constant Matrix: (Units=GPa)
#
#
# Indices 1 2 3 4 5 6 
#
# 1 80.5096 31.2279 31.8354 0.0000 -6.0069 0.0000
# 2 31.2279 56.0094 25.2804 0.0000 -3.4821 0.0000
# 3 31.8354 25.2804 122.0908 0.0000 -11.2819 0.0000
# 4 0.0000 0.0000 0.0000 19.0002 0.0000 -1.6113
# 5 -6.0069 -3.4821 -11.2819 0.0000 30.5323 0.0000
# 6 0.0000 0.0000 0.0000 -1.6113 0.0000 33.0676
#
#
#
# Elastic Compliance Matrix: (Units=1/GPa)
#
#
# Indices 1 2 3 4 5 6 
#
# 1 0.016655 -0.008049 -0.002545 0.000000 0.001418 0.000000
# 2 -0.008049 0.023602 -0.002781 0.000000 0.000081 0.000000
# 3 -0.002545 -0.002781 0.009685 0.000000 0.002761 0.000000
# 4 0.000000 0.000000 0.000000 0.052849 0.000000 0.002575
# 5 0.001418 0.000081 0.002761 0.000000 0.034061 0.000000
# 6 0.000000 0.000000 0.000000 0.002575 0.000000 0.030367
#
#
# Mechanical properties :
#
#
# Convention : Reuss Voigt Hill
#
# Bulk Modulus (GPa) = 43.11776 48.36636 45.74206
# Shear Modulus (GPa) = 24.78928 27.87107 26.33018
#
# Velocity S-wave (km/s) = 3.55334 3.76775 3.66211
# Velocity P-wave (km/s) = 6.22870 6.60022 6.41715
#
# Compressibility (1/GPa) = 0.02319230
#
# Stress axis : x y z
#
# Youngs Moduli (GPa) = 60.04131 42.36916 103.25028
#
# Poissons Ratio (x) = 0.34103 0.26279
# Poissons Ratio (y) = 0.48328 0.28712
# Poissons Ratio (z) = 0.15281 0.11782
#
# Static dielectric constant tensor:
#      x y z
#    x 3.851150 0.000000 -0.208030 
#    y 0.000000 3.116980 0.000000 
#    z -0.208030 0.000000 3.669030 
# 
# 
# High freq. dielectric constant tensor:
#      x y z
#    x 1.764070 0.000000 -0.000560 
#    y 0.000000 1.737460 0.000000 
#    z -0.000560 0.000000 1.787150 
# 
# From -- ./inp_files/65235.got.cif
#   From: 2010.06.25/outbox.cif.g09.slc.cpg/sg11_33_cif.got.tgz:65235.got - 2010.06.27 23:14:04.
