data_PCOD8074039
_publ_section_title
;
Structure prediction by ZEFSAII (Michael W. Deem and Ramdas Pophale) SiO2 
 PCOD8074039
Probable space group: P 21/M
;
_chemical_formula_sum "Si O2"
_cell_formula_units_Z 32
_cell_length_a 25.626363
_cell_length_b 8.838639
_cell_length_c 14.769270
_cell_angle_alpha 90.000000
_cell_angle_beta 150.295643
_cell_angle_gamma 90.000000
_cell_volume 1657.664839
_symmetry_space_group_name_H-M "P 21/M"
_symmetry_group_IT_number 11
_symmetry_cell_setting 'monoclinic'
loop_
_space_group_symop_operation_xyz
x,y,z
-x,1/2+y,-z
-x,-y,-z
x,1/2-y,z
loop_
_atom_site_type_symbol
_atom_site_label
_atom_site_fract_x
_atom_site_fract_y
_atom_site_fract_z
Si Si1 0.757368 0.424875 0.816651
Si Si2 0.662218 0.427743 0.480855
Si Si3 0.558825 0.071958 0.835633
Si Si4 0.272453 0.925706 0.760212
Si Si5 0.012921 0.923948 0.785211
Si Si6 0.042160 0.575515 0.474858
Si Si7 0.403859 0.071023 0.300216
Si Si8 0.214481 0.072840 0.492421
O O1 0.734482 0.250000 0.804429
O O2 0.708431 0.472524 0.647673
O O3 0.705550 0.524359 0.817771
O O4 0.882435 0.456442 0.998806
O O5 0.639414 0.250000 0.439273
O O6 0.556059 0.520826 0.306307
O O7 0.745825 0.476805 0.532146
O O8 0.561163 0.250000 0.819261
O O9 0.596612 0.985527 0.803289
O O10 0.634096 0.027625 0.032132
O O11 0.278168 0.750000 0.741041
O O12 0.164759 0.963714 0.649505
O O13 0.279408 0.025030 0.679707
O O14 0.003785 0.750000 0.742814
O O15 0.908947 0.970673 0.684483
O O16 0.023414 0.018491 0.709657
O O17 0.020814 0.750000 0.452573
O O18 0.000000 0.500000 0.500000
O O19 0.417279 0.250000 0.320846
O O20 0.500000 0.000000 0.500000
O O21 0.231705 0.250000 0.500854
#
# Coordination Sequence:
#
# PCOD8074039 Si02
#       8
#     4   4   4   4   4   4   4   4
#     4  10  22  40  61  86 119 158 199 242 293 349
#     4  11  23  39  61  87 117 156 198 244 295 354
#     4  11  23  40  62  88 118 155 198 246 295 349
#     4   9  21  40  60  83 115 154 195 240 295 350
#     4   9  20  39  60  84 116 154 195 242 295 346
#     4  10  20  35  55  83 115 152 194 239 291 351
#     4  12  24  39  60  87 121 159 197 243 294 349
#     4  10  21  39  63  88 117 153 195 248 297 347
#
# _framework density 19.304262999999999
#
# number of rings (size 3 to 8) (size 9 to 14) (size 15 to 20)
#    0.000    1.750    1.250    2.625    1.750    4.000 
#    0.000    0.000    0.000    0.000    0.000    0.000 
#    0.000    0.000    0.000    0.000    0.000    0.000 
#
# Total GULP energy -396941.845054 kJ/mol
# GULP energy per Si atom -12404.432658 kJ/mol
# Density = 1.926033 g / cm^3
# Si number density = 19.304263 Si / 1000 Ang^3
#
#
#
# Elastic Constant Matrix: (Units=GPa)
#
#
# Indices 1 2 3 4 5 6 
#
# 1 107.1685 41.0055 26.0595 0.0000 8.5426 0.0000
# 2 41.0055 79.0485 33.3245 0.0000 1.0578 0.0000
# 3 26.0595 33.3245 106.9321 0.0000 15.1283 0.0000
# 4 0.0000 0.0000 0.0000 28.9084 0.0000 -1.2517
# 5 8.5426 1.0578 15.1283 0.0000 14.6980 0.0000
# 6 0.0000 0.0000 0.0000 -1.2517 0.0000 38.1621
#
#
#
# Elastic Compliance Matrix: (Units=1/GPa)
#
#
# Indices 1 2 3 4 5 6 
#
# 1 0.012264 -0.006223 -0.000122 0.000000 -0.006554 0.000000
# 2 -0.006223 0.017951 -0.005158 0.000000 0.007633 0.000000
# 3 -0.000122 -0.005158 0.012789 0.000000 -0.012721 0.000000
# 4 0.000000 0.000000 0.000000 0.034641 0.000000 0.001136
# 5 -0.006554 0.007633 -0.012721 0.000000 0.084389 0.000000
# 6 0.000000 0.000000 0.000000 0.001136 0.000000 0.026241
#
#
# Mechanical properties :
#
#
# Convention : Reuss Voigt Hill
#
# Bulk Modulus (GPa) = 50.00454 54.88091 52.44272
# Shear Modulus (GPa) = 22.94142 29.20434 26.07288
#
# Velocity S-wave (km/s) = 3.45108 3.89375 3.67908
# Velocity P-wave (km/s) = 6.46835 6.97898 6.72851
#
# Compressibility (1/GPa) = 0.01999818
#
# Stress axis : x y z
#
# Youngs Moduli (GPa) = 81.53772 55.70862 78.19522
#
# Poissons Ratio (x) = 0.34666 0.00956
# Poissons Ratio (y) = 0.50738 0.40330
# Poissons Ratio (z) = 0.00997 0.28732
#
# Static dielectric constant tensor:
#      x y z
#    x 3.635430 0.000000 -0.085570 
#    y 0.000000 3.596820 0.000000 
#    z -0.085570 0.000000 4.049760 
# 
# 
# High freq. dielectric constant tensor:
#      x y z
#    x 1.754970 0.000000 0.002630 
#    y 0.000000 1.757960 0.000000 
#    z 0.002630 0.000000 1.755990 
# 
# From -- ./inp_files/56185.got.cif
#   From: 2010.06.25/outbox.cif.g09.slc.cpg/sg11_29_cif.got.tgz:56185.got - 2010.06.27 23:14:04.
