data_PCOD8074412
_publ_section_title
;
Structure prediction by ZEFSAII (Michael W. Deem and Ramdas Pophale) SiO2 
 PCOD8074412
Probable space group: P 21/M
;
_chemical_formula_sum "Si O2"
_cell_formula_units_Z 32
_cell_length_a 31.468011
_cell_length_b 8.575727
_cell_length_c 12.043313
_cell_angle_alpha 90.000000
_cell_angle_beta 150.065997
_cell_angle_gamma 90.000000
_cell_volume 1621.767558
_symmetry_space_group_name_H-M "P 21/M"
_symmetry_group_IT_number 11
_symmetry_cell_setting 'monoclinic'
loop_
_space_group_symop_operation_xyz
x,y,z
-x,1/2+y,-z
-x,-y,-z
x,1/2-y,z
loop_
_atom_site_type_symbol
_atom_site_label
_atom_site_fract_x
_atom_site_fract_y
_atom_site_fract_z
Si Si1 0.907462 0.933210 0.910155
Si Si2 0.472775 0.567953 0.554845
Si Si3 0.087718 0.430283 0.334274
Si Si4 0.593598 0.567105 0.196848
Si Si5 0.708440 0.569148 0.841289
Si Si6 0.617534 0.432960 0.019546
Si Si7 0.232907 0.931848 0.805889
Si Si8 0.251217 0.431971 0.311506
O O1 0.923366 0.750000 0.965037
O O2 0.887801 0.969090 0.737067
O O3 0.829522 0.002586 0.805863
O O4 0.990382 0.025850 0.137867
O O5 0.500000 0.500000 0.500000
O O6 0.493856 0.750000 0.607864
O O7 0.373449 0.540572 0.345947
O O8 0.523579 0.478558 0.765861
O O9 0.102918 0.250000 0.396453
O O10 0.145875 0.534234 0.545372
O O11 0.584020 0.750000 0.184262
O O12 0.635359 0.521446 0.174179
O O13 0.658710 0.501250 0.438188
O O14 0.500000 0.500000 0.000000
O O15 0.681173 0.750000 0.785442
O O16 0.759529 0.533573 0.843502
O O17 0.767350 0.525909 0.079075
O O18 0.622444 0.250000 0.052416
O O19 0.687116 0.488026 0.087127
O O20 0.240280 0.750000 0.849278
O O21 0.251169 0.250000 0.337875
#
# Coordination Sequence:
#
# PCOD8074412 Si02
#       8
#     4   4   4   4   4   4   4   4
#     4   9  18  37  62  87 116 149 186 231 289 350
#     4  12  23  37  57  82 113 153 197 241 293 345
#     4  10  20  35  60  91 119 146 184 235 291 350
#     4  11  22  38  59  85 119 155 195 240 293 349
#     4  11  22  38  60  84 115 153 197 244 290 346
#     4  11  23  38  57  83 116 151 195 245 293 345
#     4  11  23  38  57  83 116 152 192 239 291 344
#     4   9  20  38  60  84 113 154 195 236 287 347
#
# _framework density 19.731556999999999
#
# number of rings (size 3 to 8) (size 9 to 14) (size 15 to 20)
#    0.000    1.500    1.250    4.500    0.000    4.000 
#    0.000    5.000    0.000    0.000    0.000    0.000 
#    0.000    0.000    0.000    0.000    0.000    0.000 
#
# Total GULP energy -396932.088183 kJ/mol
# GULP energy per Si atom -12404.127756 kJ/mol
# Density = 1.968665 g / cm^3
# Si number density = 19.731557 Si / 1000 Ang^3
#
#
#
# Elastic Constant Matrix: (Units=GPa)
#
#
# Indices 1 2 3 4 5 6 
#
# 1 132.1155 30.0551 59.9747 0.0000 1.7038 0.0000
# 2 30.0551 51.1913 21.0447 0.0000 -0.0230 0.0000
# 3 59.9747 21.0447 112.9447 0.0000 -3.0923 0.0000
# 4 0.0000 0.0000 0.0000 30.0746 0.0000 0.1019
# 5 1.7038 -0.0230 -3.0923 0.0000 35.2931 0.0000
# 6 0.0000 0.0000 0.0000 0.1019 0.0000 27.6081
#
#
#
# Elastic Compliance Matrix: (Units=1/GPa)
#
#
# Indices 1 2 3 4 5 6 
#
# 1 0.010817 -0.004309 -0.004967 0.000000 -0.000960 0.000000
# 2 -0.004309 0.022876 -0.001973 0.000000 0.000050 0.000000
# 3 -0.004967 -0.001973 0.011894 0.000000 0.001281 0.000000
# 4 0.000000 0.000000 0.000000 0.033251 0.000000 -0.000123
# 5 -0.000960 0.000050 0.001281 0.000000 0.028493 0.000000
# 6 0.000000 0.000000 0.000000 -0.000123 0.000000 0.036222
#
#
# Mechanical properties :
#
#
# Convention : Reuss Voigt Hill
#
# Bulk Modulus (GPa) = 43.31198 57.60006 50.45602
# Shear Modulus (GPa) = 28.77764 30.94028 29.85896
#
# Velocity S-wave (km/s) = 3.82312 3.96417 3.89428
# Velocity P-wave (km/s) = 6.44101 7.08577 6.77107
#
# Compressibility (1/GPa) = 0.02308830
#
# Stress axis : x y z
#
# Youngs Moduli (GPa) = 92.45003 43.71483 84.07503
#
# Poissons Ratio (x) = 0.18837 0.41761
# Poissons Ratio (y) = 0.39837 0.16587
# Poissons Ratio (z) = 0.45921 0.08624
#
# Static dielectric constant tensor:
#      x y z
#    x 4.926880 0.000000 0.416530 
#    y 0.000000 3.447380 0.000000 
#    z 0.416530 0.000000 3.831430 
# 
# 
# High freq. dielectric constant tensor:
#      x y z
#    x 1.769010 0.000000 -0.006060 
#    y 0.000000 1.764510 0.000000 
#    z -0.006060 0.000000 1.769820 
# 
# From -- ./inp_files/45285.got.cif
#   From: 2010.06.25/outbox.cif.g09.slc.cpg/sg11_23_cif.got.tgz:45285.got - 2010.06.27 23:14:04.
