data_PCOD8074086
_publ_section_title
;
Structure prediction by ZEFSAII (Michael W. Deem and Ramdas Pophale) SiO2 
 PCOD8074086
Probable space group: P 21/M
;
_chemical_formula_sum "Si O2"
_cell_formula_units_Z 32
_cell_length_a 9.113892
_cell_length_b 12.575507
_cell_length_c 19.588676
_cell_angle_alpha 90.000000
_cell_angle_beta 132.853929
_cell_angle_gamma 90.000000
_cell_volume 1645.855766
_symmetry_space_group_name_H-M "P 21/M"
_symmetry_group_IT_number 11
_symmetry_cell_setting 'monoclinic'
loop_
_space_group_symop_operation_xyz
x,y,z
-x,1/2+y,-z
-x,-y,-z
x,1/2-y,z
loop_
_atom_site_type_symbol
_atom_site_label
_atom_site_fract_x
_atom_site_fract_y
_atom_site_fract_z
Si Si1 0.861925 0.371546 0.043181
Si Si2 0.881477 0.942012 0.625061
Si Si3 0.833165 0.870498 0.325538
Si Si4 0.215499 0.461002 0.548944
Si Si5 0.438872 0.373814 0.372552
Si Si6 0.783608 0.369898 0.169661
Si Si7 0.497402 0.521574 0.145453
Si Si8 0.693684 0.867665 0.817638
O O1 0.795077 0.250000 0.016587
O O2 0.870852 0.407746 0.124876
O O3 0.083426 0.389206 0.083294
O O4 0.708507 0.437247 0.949662
O O5 0.809284 0.892469 0.529239
O O6 0.683003 0.940868 0.609077
O O7 0.053717 0.875990 0.717778
O O8 0.973646 0.058460 0.635266
O O9 0.909077 0.750000 0.346052
O O10 0.728102 0.891758 0.366554
O O11 0.655091 0.886612 0.214267
O O12 0.358385 0.562500 0.580027
O O13 0.000000 0.500000 0.500000
O O14 0.482262 0.250000 0.408305
O O15 0.300271 0.373090 0.262103
O O16 0.706294 0.250000 0.141493
O O17 0.592372 0.443392 0.120232
O O18 0.458256 0.454037 0.201512
O O19 0.621781 0.750000 0.817836
#
# Coordination Sequence:
#
# PCOD8074086 Si02
#       8
#     4   4   4   4   4   4   4   4
#     4  10  20  35  56  81 112 150 193 234 287 347
#     4  10  21  38  63  86 117 151 196 239 295 344
#     4  10  22  39  57  81 120 159 197 235 282 349
#     4  10  22  40  58  89 117 151 191 237 287 354
#     4  11  21  39  64  89 118 151 190 245 298 342
#     4  10  20  35  56  86 115 144 193 248 289 338
#     4  11  20  35  56  83 115 156 191 235 292 338
#     4  10  20  35  58  86 115 149 190 241 293 340
#
# _framework density 19.442772999999999
#
# number of rings (size 3 to 8) (size 9 to 14) (size 15 to 20)
#    0.000    1.750    2.500    2.250    0.000    3.000 
#    0.000    2.500    0.000    0.750    0.000    0.000 
#    0.000    0.000    0.000    0.000    0.000    0.000 
#
# Total GULP energy -396509.825783 kJ/mol
# GULP energy per Si atom -12390.932056 kJ/mol
# Density = 1.939852 g / cm^3
# Si number density = 19.442773 Si / 1000 Ang^3
#
#
#
# Elastic Constant Matrix: (Units=GPa)
#
#
# Indices 1 2 3 4 5 6 
#
# 1 102.2717 48.8446 17.5286 0.0000 3.0082 0.0000
# 2 48.8446 88.8492 22.4047 0.0000 -2.3270 0.0000
# 3 17.5286 22.4047 77.0298 0.0000 1.2447 0.0000
# 4 0.0000 0.0000 0.0000 14.8242 0.0000 1.4070
# 5 3.0082 -2.3270 1.2447 0.0000 29.4029 0.0000
# 6 0.0000 0.0000 0.0000 1.4070 0.0000 26.4234
#
#
#
# Elastic Compliance Matrix: (Units=1/GPa)
#
#
# Indices 1 2 3 4 5 6 
#
# 1 0.013432 -0.007199 -0.000932 0.000000 -0.001905 0.000000
# 2 -0.007199 0.016041 -0.003062 0.000000 0.002136 0.000000
# 3 -0.000932 -0.003062 0.014097 0.000000 -0.000744 0.000000
# 4 0.000000 0.000000 0.000000 0.067800 0.000000 -0.003610
# 5 -0.001905 0.002136 -0.000744 0.000000 0.034406 0.000000
# 6 0.000000 0.000000 0.000000 -0.003610 0.000000 0.038038
#
#
# Mechanical properties :
#
#
# Convention : Reuss Voigt Hill
#
# Bulk Modulus (GPa) = 47.20615 49.52295 48.36455
# Shear Modulus (GPa) = 23.44567 26.08828 24.76697
#
# Velocity S-wave (km/s) = 3.47635 3.66703 3.57296
# Velocity P-wave (km/s) = 6.35968 6.59211 6.47694
#
# Compressibility (1/GPa) = 0.02118368
#
# Stress axis : x y z
#
# Youngs Moduli (GPa) = 74.44995 62.34138 70.93904
#
# Poissons Ratio (x) = 0.44880 0.06610
# Poissons Ratio (y) = 0.53597 0.21721
# Poissons Ratio (z) = 0.06937 0.19088
#
# Static dielectric constant tensor:
#      x y z
#    x 3.794570 0.000000 -0.299860 
#    y 0.000000 3.389400 0.000000 
#    z -0.299860 0.000000 3.766940 
# 
# 
# High freq. dielectric constant tensor:
#      x y z
#    x 1.760980 0.000000 -0.001810 
#    y 0.000000 1.735520 0.000000 
#    z -0.001810 0.000000 1.764630 
# 
# From -- ./inp_files/26596.got.cif
#   From: 2010.06.25/outbox.cif.g09.slc.cpg/sg11_14_cif.got.tgz:26596.got - 2010.06.27 23:14:04.
