data_PCOD8074320
_publ_section_title
;
Structure prediction by ZEFSAII (Michael W. Deem and Ramdas Pophale) SiO2 
 PCOD8074320
Probable space group: P 21/M
;
_chemical_formula_sum "Si O2"
_cell_formula_units_Z 28
_cell_length_a 24.454916
_cell_length_b 9.046263
_cell_length_c 22.236111
_cell_angle_alpha 90.000000
_cell_angle_beta 162.830266
_cell_angle_gamma 90.000000
_cell_volume 1452.163648
_symmetry_space_group_name_H-M "P 21/M"
_symmetry_group_IT_number 11
_symmetry_cell_setting 'monoclinic'
loop_
_space_group_symop_operation_xyz
x,y,z
-x,1/2+y,-z
-x,-y,-z
x,1/2-y,z
loop_
_atom_site_type_symbol
_atom_site_label
_atom_site_fract_x
_atom_site_fract_y
_atom_site_fract_z
Si Si1 0.124693 0.422803 0.303755
Si Si2 0.544730 0.423382 0.724227
Si Si3 0.065750 0.912641 0.126851
Si Si4 0.970787 0.423946 0.381907
Si Si5 0.878744 0.075466 0.153778
Si Si6 0.298546 0.924378 0.793140
Si Si7 0.491818 0.587149 0.553001
O O1 0.093344 0.250000 0.260209
O O2 0.340198 0.464739 0.531491
O O3 0.012458 0.502541 0.132032
O O4 0.042201 0.475272 0.280698
O O5 0.567803 0.250000 0.736777
O O6 0.599749 0.501124 0.719138
O O7 0.683136 0.480546 0.921523
O O8 0.973209 0.750000 0.029495
O O9 0.283685 0.898094 0.355279
O O10 0.000000 0.000000 0.000000
O O11 0.016832 0.250000 0.429597
O O12 0.913517 0.489004 0.256627
O O13 0.796241 0.457043 0.241878
O O14 0.158726 0.508501 0.597070
O O15 0.873980 0.250000 0.154639
O O16 0.322461 0.750000 0.807245
O O17 0.500000 0.000000 0.000000
O O18 0.500000 0.500000 0.500000
O O19 0.579857 0.750000 0.636522
#
# Coordination Sequence:
#
# PCOD8074320 Si02
#       7
#     4   4   4   4   4   4   4
#     4   9  18  33  52  74 102 134 171 219 270 322
#     4   9  18  33  51  73 102 133 169 216 267 322
#     4  10  21  35  51  72  99 130 168 216 270 327
#     4   9  19  36  57  85 117 150 192 236 275 329
#     4   9  18  33  56  81 105 139 182 224 270 326
#     4  10  20  35  58  86 119 156 192 233 279 326
#     4  10  21  35  51  72  98 129 167 215 268 323
#
# _framework density 19.281573000000002
#
# number of rings (size 3 to 8) (size 9 to 14) (size 15 to 20)
#    0.000    2.571    0.000    1.286    2.000    3.429 
#    0.000    5.714    0.000    3.429    0.000    0.000 
#    0.000    0.000    0.000    0.000    0.000    0.000 
#
# Total GULP energy -347090.891347 kJ/mol
# GULP energy per Si atom -12396.103262 kJ/mol
# Density = 1.923769 g / cm^3
# Si number density = 19.281573 Si / 1000 Ang^3
#
#
#
# Elastic Constant Matrix: (Units=GPa)
#
#
# Indices 1 2 3 4 5 6 
#
# 1 148.4362 53.6782 82.3075 0.0000 -29.8712 0.0000
# 2 53.6782 91.0202 54.6814 0.0000 -10.0381 0.0000
# 3 82.3075 54.6814 137.3500 0.0000 -16.6782 0.0000
# 4 0.0000 0.0000 0.0000 24.5250 0.0000 -4.3984
# 5 -29.8712 -10.0381 -16.6782 0.0000 41.6184 0.0000
# 6 0.0000 0.0000 0.0000 -4.3984 0.0000 24.1670
#
#
#
# Elastic Compliance Matrix: (Units=1/GPa)
#
#
# Indices 1 2 3 4 5 6 
#
# 1 0.011935 -0.003324 -0.005136 0.000000 0.005706 0.000000
# 2 -0.003324 0.015427 -0.004192 0.000000 -0.000345 0.000000
# 3 -0.005136 -0.004192 0.012043 0.000000 0.000129 0.000000
# 4 0.000000 0.000000 0.000000 0.042150 0.000000 0.007671
# 5 0.005706 -0.000345 0.000129 0.000000 0.028092 0.000000
# 6 0.000000 0.000000 0.000000 0.007671 0.000000 0.042775
#
#
# Mechanical properties :
#
#
# Convention : Reuss Voigt Hill
#
# Bulk Modulus (GPa) = 70.91257 84.23785 77.57521
# Shear Modulus (GPa) = 27.40832 30.47137 28.93985
#
# Velocity S-wave (km/s) = 3.77434 3.97966 3.87836
# Velocity P-wave (km/s) = 7.47338 8.05605 7.77018
#
# Compressibility (1/GPa) = 0.01410187
#
# Stress axis : x y z
#
# Youngs Moduli (GPa) = 83.78642 64.82133 83.03657
#
# Poissons Ratio (x) = 0.21545 0.42647
# Poissons Ratio (y) = 0.27849 0.34807
# Poissons Ratio (z) = 0.43033 0.27172
#
# Static dielectric constant tensor:
#      x y z
#    x 3.766850 0.000000 -0.122770 
#    y 0.000000 3.656440 0.000000 
#    z -0.122770 0.000000 3.651470 
# 
# 
# High freq. dielectric constant tensor:
#      x y z
#    x 1.750630 0.000000 0.001270 
#    y 0.000000 1.736570 0.000000 
#    z 0.001270 0.000000 1.754660 
# 
# From -- ./inp_files/66765.got.cif
#   From: 2010.06.25/outbox.cif.g09.slc.cpg/sg11_34_cif.got.tgz:66765.got - 2010.06.27 23:14:04.
