data_PCOD8074271
_publ_section_title
;
Structure prediction by ZEFSAII (Michael W. Deem and Ramdas Pophale) SiO2 
 PCOD8074271
Probable space group: P 21/M
;
_chemical_formula_sum "Si O2"
_cell_formula_units_Z 32
_cell_length_a 28.589124
_cell_length_b 8.881564
_cell_length_c 12.475764
_cell_angle_alpha 90.000000
_cell_angle_beta 30.902401
_cell_angle_gamma 90.000000
_cell_volume 1626.908738
_symmetry_space_group_name_H-M "P 21/M"
_symmetry_group_IT_number 11
_symmetry_cell_setting 'monoclinic'
loop_
_space_group_symop_operation_xyz
x,y,z
-x,1/2+y,-z
-x,-y,-z
x,1/2-y,z
loop_
_atom_site_type_symbol
_atom_site_label
_atom_site_fract_x
_atom_site_fract_y
_atom_site_fract_z
Si Si1 0.495369 0.078975 0.337981
Si Si2 0.448301 0.079152 0.196054
Si Si3 0.786797 0.570679 0.604164
Si Si4 0.703174 0.572890 0.213296
Si Si5 0.274644 0.573267 0.482270
Si Si6 0.680621 0.573866 0.021427
Si Si7 0.971211 0.076236 0.167878
Si Si8 0.837470 0.922820 0.131434
O O1 0.500289 0.250000 0.369957
O O2 0.508344 0.071031 0.184557
O O3 0.397114 0.006154 0.561773
O O4 0.578591 0.990502 0.226292
O O5 0.426534 0.250000 0.206736
O O6 0.354765 0.990244 0.399745
O O7 0.500000 0.000000 0.000000
O O8 0.791119 0.750000 0.589744
O O9 0.720643 0.506358 0.642475
O O10 0.887334 0.505324 0.390096
O O11 0.744713 0.512540 0.799846
O O12 0.696520 0.750000 0.244461
O O13 0.728421 0.532525 0.040777
O O14 0.784421 0.512501 0.130865
O O15 0.282722 0.750000 0.450027
O O16 0.183313 0.526410 0.723943
O O17 0.668591 0.750000 0.030729
O O18 0.945122 0.250000 0.195921
O O19 0.053354 0.066460 0.093583
O O20 0.000000 0.000000 0.000000
O O21 0.808174 0.750000 0.212303
#
# Coordination Sequence:
#
# PCOD8074271 Si02
#       8
#     4   4   4   4   4   4   4   4
#     4  10  20  35  58  83 113 152 193 239 290 343
#     4  11  22  36  53  79 116 157 195 236 291 351
#     4  11  23  39  58  83 119 158 193 239 293 348
#     4   9  18  38  62  84 112 152 197 238 288 348
#     4  12  23  35  56  84 115 151 192 239 289 346
#     4  10  22  38  59  84 113 153 199 242 286 339
#     4  11  22  36  61  91 117 151 190 239 293 351
#     4  10  20  38  62  85 114 148 186 235 293 352
#
# _framework density 19.669203
#
# number of rings (size 3 to 8) (size 9 to 14) (size 15 to 20)
#    0.000    1.500    2.500    3.375    0.000    4.500 
#    0.000    1.250    0.000    0.000    0.000    0.000 
#    0.000    0.000    0.000    0.000    0.000    0.000 
#
# Total GULP energy -396731.615675 kJ/mol
# GULP energy per Si atom -12397.862990 kJ/mol
# Density = 1.962443 g / cm^3
# Si number density = 19.669203 Si / 1000 Ang^3
#
#
#
# Elastic Constant Matrix: (Units=GPa)
#
#
# Indices 1 2 3 4 5 6 
#
# 1 109.3320 33.5604 45.4777 0.0000 3.1214 0.0000
# 2 33.5604 80.5115 26.4123 0.0000 2.5187 0.0000
# 3 45.4777 26.4123 81.1360 0.0000 2.4730 0.0000
# 4 0.0000 0.0000 0.0000 26.7264 0.0000 -7.4340
# 5 3.1214 2.5187 2.4730 0.0000 33.1853 0.0000
# 6 0.0000 0.0000 0.0000 -7.4340 0.0000 22.0335
#
#
#
# Elastic Compliance Matrix: (Units=1/GPa)
#
#
# Indices 1 2 3 4 5 6 
#
# 1 0.012674 -0.003294 -0.006017 0.000000 -0.000494 0.000000
# 2 -0.003294 0.014779 -0.002947 0.000000 -0.000592 0.000000
# 3 -0.006017 -0.002947 0.016671 0.000000 -0.000453 0.000000
# 4 0.000000 0.000000 0.000000 0.041291 0.000000 0.013931
# 5 -0.000494 -0.000592 -0.000453 0.000000 0.030259 0.000000
# 6 0.000000 0.000000 0.000000 0.013931 0.000000 0.050086
#
#
# Mechanical properties :
#
#
# Convention : Reuss Voigt Hill
#
# Bulk Modulus (GPa) = 50.99706 53.54226 52.26966
# Shear Modulus (GPa) = 25.40514 27.42433 26.41473
#
# Velocity S-wave (km/s) = 3.59781 3.73805 3.66860
# Velocity P-wave (km/s) = 6.57591 6.77578 6.67659
#
# Compressibility (1/GPa) = 0.01960897
#
# Stress axis : x y z
#
# Youngs Moduli (GPa) = 78.89931 67.66450 59.98619
#
# Poissons Ratio (x) = 0.22288 0.36093
# Poissons Ratio (y) = 0.25988 0.17676
# Poissons Ratio (z) = 0.47472 0.19938
#
# Static dielectric constant tensor:
#      x y z
#    x 3.827660 0.000000 -0.077880 
#    y 0.000000 3.435550 0.000000 
#    z -0.077880 0.000000 3.657380 
# 
# 
# High freq. dielectric constant tensor:
#      x y z
#    x 1.772540 0.000000 -0.004480 
#    y 0.000000 1.753280 0.000000 
#    z -0.004480 0.000000 1.759820 
# 
# From -- ./inp_files/45118.got.cif
#   From: 2010.06.25/outbox.cif.g09.slc.cpg/sg11_23_cif.got.tgz:45118.got - 2010.06.27 23:14:04.
