data_PCOD8074496
_publ_section_title
;
Structure prediction by ZEFSAII (Michael W. Deem and Ramdas Pophale) SiO2 
 PCOD8074496
Probable space group: P 21/M
;
_chemical_formula_sum "Si O2"
_cell_formula_units_Z 32
_cell_length_a 14.831418
_cell_length_b 20.955719
_cell_length_c 14.834687
_cell_angle_alpha 90.000000
_cell_angle_beta 20.174192
_cell_angle_gamma 90.000000
_cell_volume 1590.105314
_symmetry_space_group_name_H-M "P 21/M"
_symmetry_group_IT_number 11
_symmetry_cell_setting 'monoclinic'
loop_
_space_group_symop_operation_xyz
x,y,z
-x,1/2+y,-z
-x,-y,-z
x,1/2-y,z
loop_
_atom_site_type_symbol
_atom_site_label
_atom_site_fract_x
_atom_site_fract_y
_atom_site_fract_z
Si Si1 0.989406 0.680135 0.487553
Si Si2 0.662824 0.173150 0.159442
Si Si3 0.892783 0.863776 0.395762
Si Si4 0.253344 0.914071 0.756788
Si Si5 0.699849 0.947943 0.206977
Si Si6 0.597155 0.563668 0.094558
Si Si7 0.536739 0.674181 0.034928
Si Si8 0.055700 0.498644 0.554391
O O1 0.011936 0.750000 0.509342
O O2 0.934382 0.689526 0.432949
O O3 0.265810 0.646691 0.247960
O O4 0.750192 0.646725 0.763811
O O5 0.660289 0.250000 0.159791
O O6 0.390786 0.143474 0.381797
O O7 0.711108 0.148826 0.215601
O O8 0.892311 0.144051 0.883189
O O9 0.926388 0.927674 0.422530
O O10 0.465571 0.912606 0.478273
O O11 0.292102 0.977071 0.780072
O O12 0.966814 0.912751 0.982620
O O13 0.655255 0.942787 0.144017
O O14 0.584453 0.639541 0.085261
O O15 0.326572 0.531915 0.322144
O O16 0.824933 0.533023 0.822892
O O17 0.543613 0.750000 0.041442
O O18 0.000000 0.500000 0.500000
#
# Coordination Sequence:
#
# PCOD8074496 Si02
#       8
#     4   4   4   4   4   4   4   4
#     4  10  20  36  56  79 112 157 201 237 279 345
#     4  12  25  41  63  92 126 161 200 253 313 378
#     4  12  23  39  59  87 122 162 204 243 298 365
#     4  10  21  40  60  87 114 145 190 239 298 353
#     4  10  21  38  65  86 110 149 192 241 291 352
#     4  12  23  40  60  89 119 154 205 247 298 362
#     4  10  21  37  57  80 113 152 192 242 291 341
#     4  12  25  39  60  90 128 166 202 256 309 352
#
# _framework density 20.124452999999999
#
# number of rings (size 3 to 8) (size 9 to 14) (size 15 to 20)
#    0.000    1.000    0.000    8.250    0.000    3.000 
#    0.000    1.250    0.000    0.000    0.000    0.000 
#    0.000    0.000    0.000    0.000    0.000    0.000 
#
# Total GULP energy -396741.235854 kJ/mol
# GULP energy per Si atom -12398.163620 kJ/mol
# Density = 2.007865 g / cm^3
# Si number density = 20.124453 Si / 1000 Ang^3
#
#
#
# Elastic Constant Matrix: (Units=GPa)
#
#
# Indices 1 2 3 4 5 6 
#
# 1 135.2860 46.0488 52.2215 0.0000 20.9344 0.0000
# 2 46.0488 85.9261 38.7068 0.0000 3.8479 0.0000
# 3 52.2215 38.7068 171.8041 0.0000 5.1921 0.0000
# 4 0.0000 0.0000 0.0000 8.4891 0.0000 4.9451
# 5 20.9344 3.8479 5.1921 0.0000 31.9735 0.0000
# 6 0.0000 0.0000 0.0000 4.9451 0.0000 35.4624
#
#
#
# Elastic Compliance Matrix: (Units=1/GPa)
#
#
# Indices 1 2 3 4 5 6 
#
# 1 0.010663 -0.004523 -0.002037 0.000000 -0.006106 0.000000
# 2 -0.004523 0.014909 -0.002029 0.000000 0.001497 0.000000
# 3 -0.002037 -0.002029 0.006883 0.000000 0.000461 0.000000
# 4 0.000000 0.000000 0.000000 0.128212 0.000000 -0.017879
# 5 -0.006106 0.001497 0.000461 0.000000 0.035019 0.000000
# 6 0.000000 0.000000 0.000000 -0.017879 0.000000 0.030692
#
#
# Mechanical properties :
#
#
# Convention : Reuss Voigt Hill
#
# Bulk Modulus (GPa) = 65.46575 74.10783 69.78679
# Shear Modulus (GPa) = 20.10865 32.25428 26.18146
#
# Velocity S-wave (km/s) = 3.16447 4.00777 3.61082
# Velocity P-wave (km/s) = 6.77885 7.63682 7.22059
#
# Compressibility (1/GPa) = 0.01527516
#
# Stress axis : x y z
#
# Youngs Moduli (GPa) = 93.78549 67.07374 145.28166
#
# Poissons Ratio (x) = 0.30337 0.29601
# Poissons Ratio (y) = 0.42419 0.29483
# Poissons Ratio (z) = 0.19109 0.13612
#
# Static dielectric constant tensor:
#      x y z
#    x 3.381870 0.000000 0.288380 
#    y 0.000000 3.701590 0.000000 
#    z 0.288380 0.000000 3.549150 
# 
# 
# High freq. dielectric constant tensor:
#      x y z
#    x 1.784740 0.000000 -0.005160 
#    y 0.000000 1.782540 0.000000 
#    z -0.005160 0.000000 1.813550 
# 
# From -- ./inp_files/52698.got.cif
#   From: 2010.06.25/outbox.cif.g09.slc.cpg/sg11_27_cif.got.tgz:52698.got - 2010.06.27 23:14:04.
