data_PCOD8074784
_publ_section_title
;
Structure prediction by ZEFSAII (Michael W. Deem and Ramdas Pophale) SiO2 
 PCOD8074784
Probable space group: P 21/M
;
_chemical_formula_sum "Si O2"
_cell_formula_units_Z 20
_cell_length_a 9.401689
_cell_length_b 17.226623
_cell_length_c 9.065675
_cell_angle_alpha 90.000000
_cell_angle_beta 46.818419
_cell_angle_gamma 90.000000
_cell_volume 1070.646441
_symmetry_space_group_name_H-M "P 21/M"
_symmetry_group_IT_number 11
_symmetry_cell_setting 'monoclinic'
loop_
_space_group_symop_operation_xyz
x,y,z
-x,1/2+y,-z
-x,-y,-z
x,1/2-y,z
loop_
_atom_site_type_symbol
_atom_site_label
_atom_site_fract_x
_atom_site_fract_y
_atom_site_fract_z
Si Si1 0.806424 0.532040 0.564608
Si Si2 0.196337 0.993668 0.770702
Si Si3 0.477178 0.082974 0.783027
Si Si4 0.771289 0.335740 0.386614
Si Si5 0.801848 0.838825 0.783332
O O1 0.828964 0.531216 0.372598
O O2 0.627240 0.478572 0.747451
O O3 0.772976 0.619916 0.645450
O O4 0.000000 0.500000 0.500000
O O5 0.248817 0.902003 0.723389
O O6 0.368201 0.038580 0.728830
O O7 0.000000 0.000000 0.000000
O O8 0.598666 0.154498 0.628104
O O9 0.328645 0.116013 0.006257
O O10 0.756478 0.250000 0.325002
O O11 0.975373 0.345876 0.325518
O O12 0.734061 0.750000 0.816386
#
# Coordination Sequence:
#
# PCOD8074784 Si02
#       5
#     4   4   4   4   4
#     4  11  20  38  61  87 119 155 198 246 290 352
#     4  11  21  39  62  90 118 158 205 237 292 360
#     4  11  21  39  64  86 116 161 199 238 297 361
#     4  10  20  36  59  87 119 151 195 245 292 350
#     4  11  22  38  60  90 119 155 198 246 299 351
#
# _framework density 18.680304
#
# number of rings (size 3 to 8) (size 9 to 14) (size 15 to 20)
#    0.000    1.200    6.000    3.600    0.000    0.000 
#    0.000    6.000    0.000    0.000    0.000    0.000 
#    0.000    0.000    0.000    0.000    0.000    0.000 
#
# Total GULP energy -247959.166265 kJ/mol
# GULP energy per Si atom -12397.958313 kJ/mol
# Density = 1.863779 g / cm^3
# Si number density = 18.680304 Si / 1000 Ang^3
#
#
#
# Elastic Constant Matrix: (Units=GPa)
#
#
# Indices 1 2 3 4 5 6 
#
# 1 107.7935 63.1395 48.5880 0.0000 -6.1323 0.0000
# 2 63.1395 158.7974 67.3089 0.0000 13.2805 0.0000
# 3 48.5880 67.3089 115.2151 0.0000 3.0016 0.0000
# 4 0.0000 0.0000 0.0000 25.4366 0.0000 4.9059
# 5 -6.1323 13.2805 3.0016 0.0000 30.2039 0.0000
# 6 0.0000 0.0000 0.0000 4.9059 0.0000 9.3105
#
#
#
# Elastic Compliance Matrix: (Units=1/GPa)
#
#
# Indices 1 2 3 4 5 6 
#
# 1 0.013659 -0.004462 -0.003286 0.000000 0.005062 0.000000
# 2 -0.004462 0.010148 -0.003917 0.000000 -0.004979 0.000000
# 3 -0.003286 -0.003917 0.012358 0.000000 -0.000173 0.000000
# 4 0.000000 0.000000 0.000000 0.043761 0.000000 -0.023058
# 5 0.005062 -0.004979 -0.000173 0.000000 0.036342 0.000000
# 6 0.000000 0.000000 0.000000 -0.023058 0.000000 0.119556
#
#
# Mechanical properties :
#
#
# Convention : Reuss Voigt Hill
#
# Bulk Modulus (GPa) = 77.90488 82.20875 80.05681
# Shear Modulus (GPa) = 18.98017 26.50817 22.74417
#
# Velocity S-wave (km/s) = 3.19102 3.77111 3.49312
# Velocity P-wave (km/s) = 7.44121 7.94138 7.69536
#
# Compressibility (1/GPa) = 0.01283617
#
# Stress axis : x y z
#
# Youngs Moduli (GPa) = 73.20963 98.54022 80.91907
#
# Poissons Ratio (x) = 0.43966 0.26587
# Poissons Ratio (y) = 0.32664 0.31698
# Poissons Ratio (z) = 0.24054 0.38601
#
# Static dielectric constant tensor:
#      x y z
#    x 3.812630 0.000000 -0.215800 
#    y 0.000000 4.218310 0.000000 
#    z -0.215800 0.000000 3.542430 
# 
# 
# High freq. dielectric constant tensor:
#      x y z
#    x 1.717580 0.000000 -0.021630 
#    y 0.000000 1.729200 0.000000 
#    z -0.021630 0.000000 1.737310 
# 
# From -- ./inp_files/13047.got.cif
#   From: 2010.06.25/outbox.cif.g09.slc.cpg/sg11_7_cif.got.tgz:13047.got - 2010.06.27 23:14:04.
