data_PCOD8074775
_publ_section_title
;
Structure prediction by ZEFSAII (Michael W. Deem and Ramdas Pophale) SiO2 
 PCOD8074775
Probable space group: P 21/M
;
_chemical_formula_sum "Si O2"
_cell_formula_units_Z 32
_cell_length_a 30.145916
_cell_length_b 8.864314
_cell_length_c 12.642562
_cell_angle_alpha 90.000000
_cell_angle_beta 151.763301
_cell_angle_gamma 90.000000
_cell_volume 1598.363567
_symmetry_space_group_name_H-M "P 21/M"
_symmetry_group_IT_number 11
_symmetry_cell_setting 'monoclinic'
loop_
_space_group_symop_operation_xyz
x,y,z
-x,1/2+y,-z
-x,-y,-z
x,1/2-y,z
loop_
_atom_site_type_symbol
_atom_site_label
_atom_site_fract_x
_atom_site_fract_y
_atom_site_fract_z
Si Si1 0.870743 0.423053 0.969533
Si Si2 0.599278 0.931243 0.233492
Si Si3 0.905829 0.579344 0.832300
Si Si4 0.034925 0.070889 0.466192
Si Si5 0.242744 0.429472 0.848315
Si Si6 0.268151 0.422192 0.670959
Si Si7 0.335222 0.925581 0.410967
Si Si8 0.406019 0.429665 0.349166
O O1 0.885625 0.250000 0.970109
O O2 0.856286 0.511826 0.830889
O O3 0.776662 0.445071 0.841587
O O4 0.961952 0.483433 0.222973
O O5 0.598320 0.750000 0.237506
O O6 0.664117 0.995346 0.274319
O O7 0.636160 0.996052 0.420506
O O8 0.500000 0.000000 0.000000
O O9 0.929139 0.750000 0.907925
O O10 0.838751 0.563488 0.590785
O O11 0.000000 0.500000 0.000000
O O12 0.033484 0.250000 0.474251
O O13 0.139124 0.009329 0.659498
O O14 0.000000 0.000000 0.500000
O O15 0.237575 0.250000 0.830044
O O16 0.274649 0.497379 0.801187
O O17 0.318047 0.482478 0.093001
O O18 0.299659 0.250000 0.747655
O O19 0.364003 0.750000 0.474092
O O20 0.390722 0.007390 0.434101
O O21 0.500000 0.500000 0.500000
O O22 0.415148 0.250000 0.371404
#
# Coordination Sequence:
#
# PCOD8074775 Si02
#       8
#     4   4   4   4   4   4   4   4
#     4  10  21  37  59  87 120 157 199 250 305 359
#     4  11  23  40  64  94 124 160 205 254 308 369
#     4  11  21  35  57  86 121 161 202 246 297 361
#     4  10  20  36  59  86 118 156 200 249 300 360
#     4   9  19  37  60  86 118 158 200 246 304 367
#     4   9  19  37  60  86 120 159 199 245 302 365
#     4  11  23  41  64  90 126 164 202 253 308 369
#     4  11  24  41  64  91 120 158 207 259 313 375
#
# _framework density 20.020477
#
# number of rings (size 3 to 8) (size 9 to 14) (size 15 to 20)
#    0.000    1.750    1.250    3.000    1.750    3.000 
#    0.000    0.625    0.000    4.500    0.000    0.000 
#    0.000    0.000    0.000    0.000    0.000    0.000 
#
# Total GULP energy -396799.231361 kJ/mol
# GULP energy per Si atom -12399.975980 kJ/mol
# Density = 1.997491 g / cm^3
# Si number density = 20.020477 Si / 1000 Ang^3
#
#
#
# Elastic Constant Matrix: (Units=GPa)
#
#
# Indices 1 2 3 4 5 6 
#
# 1 170.2459 39.2567 65.2951 0.0000 -1.0466 0.0000
# 2 39.2567 68.5377 35.8176 0.0000 1.7544 0.0000
# 3 65.2951 35.8176 122.3077 0.0000 6.1980 0.0000
# 4 0.0000 0.0000 0.0000 27.7601 0.0000 0.6377
# 5 -1.0466 1.7544 6.1980 0.0000 39.5027 0.0000
# 6 0.0000 0.0000 0.0000 0.6377 0.0000 32.8378
#
#
#
# Elastic Compliance Matrix: (Units=1/GPa)
#
#
# Indices 1 2 3 4 5 6 
#
# 1 0.007817 -0.002711 -0.003423 0.000000 0.000865 0.000000
# 2 -0.002711 0.018167 -0.003859 0.000000 -0.000273 0.000000
# 3 -0.003423 -0.003859 0.011219 0.000000 -0.001680 0.000000
# 4 0.000000 0.000000 0.000000 0.036039 0.000000 -0.000700
# 5 0.000865 -0.000273 -0.001680 0.000000 0.025613 0.000000
# 6 0.000000 0.000000 0.000000 -0.000700 0.000000 0.030466
#
#
# Mechanical properties :
#
#
# Convention : Reuss Voigt Hill
#
# Bulk Modulus (GPa) = 58.08294 71.31447 64.69871
# Shear Modulus (GPa) = 32.24833 34.73489 33.49161
#
# Velocity S-wave (km/s) = 4.01779 4.16981 4.09451
# Velocity P-wave (km/s) = 7.11325 7.67341 7.39863
#
# Compressibility (1/GPa) = 0.01721676
#
# Stress axis : x y z
#
# Youngs Moduli (GPa) = 127.92384 55.04515 89.13510
#
# Poissons Ratio (x) = 0.14921 0.30513
# Poissons Ratio (y) = 0.34675 0.34399
# Poissons Ratio (z) = 0.43792 0.21243
#
# Static dielectric constant tensor:
#      x y z
#    x 3.699220 0.000000 0.007340 
#    y 0.000000 3.455280 0.000000 
#    z 0.007340 0.000000 3.883840 
# 
# 
# High freq. dielectric constant tensor:
#      x y z
#    x 1.798330 0.000000 0.002210 
#    y 0.000000 1.758540 0.000000 
#    z 0.002210 0.000000 1.792790 
# 
# From -- ./inp_files/45247.got.cif
#   From: 2010.06.25/outbox.cif.g09.slc.cpg/sg11_23_cif.got.tgz:45247.got - 2010.06.27 23:14:04.
