data_PCOD8074748
_publ_section_title
;
Structure prediction by ZEFSAII (Michael W. Deem and Ramdas Pophale) SiO2 
 PCOD8074748
Probable space group: P 21/M
;
_chemical_formula_sum "Si O2"
_cell_formula_units_Z 20
_cell_length_a 7.882788
_cell_length_b 13.954390
_cell_length_c 8.943402
_cell_angle_alpha 90.000000
_cell_angle_beta 91.259697
_cell_angle_gamma 90.000000
_cell_volume 983.531974
_symmetry_space_group_name_H-M "P 21/M"
_symmetry_group_IT_number 11
_symmetry_cell_setting 'monoclinic'
loop_
_space_group_symop_operation_xyz
x,y,z
-x,1/2+y,-z
-x,-y,-z
x,1/2-y,z
loop_
_atom_site_type_symbol
_atom_site_label
_atom_site_fract_x
_atom_site_fract_y
_atom_site_fract_z
Si Si1 0.505817 0.352357 0.082440
Si Si2 0.630050 0.362754 0.582161
Si Si3 0.361660 0.992718 0.688007
Si Si4 0.184459 0.898772 0.116302
Si Si5 0.823385 0.917470 0.061292
O O1 0.501741 0.250000 0.167724
O O2 0.503249 0.440385 0.197973
O O3 0.674161 0.351700 0.984951
O O4 0.344110 0.354358 0.968997
O O5 0.598107 0.250000 0.552975
O O6 0.700926 0.415280 0.434938
O O7 0.452218 0.414388 0.619145
O O8 0.770820 0.378467 0.711396
O O9 0.200230 0.025083 0.782253
O O10 0.995897 0.854862 0.079105
O O11 0.163788 0.011509 0.080902
#
# Coordination Sequence:
#
# PCOD8074748 Si02
#       5
#     4   4   4   4   4
#     4  11  20  36  59  87 119 151 190 237 287 342
#     4  11  21  36  59  85 115 154 195 238 283 339
#     4  10  21  38  57  84 119 153 193 233 292 340
#     4  10  20  36  59  85 114 147 195 241 282 339
#     4  10  20  37  59  85 113 153 189 237 293 338
#
# _framework density 20.334876000000001
#
# number of rings (size 3 to 8) (size 9 to 14) (size 15 to 20)
#    0.000    1.600    4.000    2.400    0.000    2.400 
#    0.000    0.000    0.000    0.000    0.000    0.000 
#    0.000    0.000    0.000    0.000    0.000    0.000 
#
# Total GULP energy -247871.225594 kJ/mol
# GULP energy per Si atom -12393.561280 kJ/mol
# Density = 2.028859 g / cm^3
# Si number density = 20.334876 Si / 1000 Ang^3
#
#
#
# Elastic Constant Matrix: (Units=GPa)
#
#
# Indices 1 2 3 4 5 6 
#
# 1 125.5455 31.3607 22.0001 0.0000 6.6762 0.0000
# 2 31.3607 109.0411 29.0602 0.0000 3.0618 0.0000
# 3 22.0001 29.0602 92.5963 0.0000 -1.1808 0.0000
# 4 0.0000 0.0000 0.0000 8.2695 0.0000 -6.8006
# 5 6.6762 3.0618 -1.1808 0.0000 22.8024 0.0000
# 6 0.0000 0.0000 0.0000 -6.8006 0.0000 -6.2968
#
#
#
# Elastic Compliance Matrix: (Units=1/GPa)
#
#
# Indices 1 2 3 4 5 6 
#
# 1 0.008875 -0.002090 -0.001483 0.000000 -0.002395 0.000000
# 2 -0.002090 0.010552 -0.002827 0.000000 -0.000951 0.000000
# 3 -0.001483 -0.002827 0.012058 0.000000 0.001438 0.000000
# 4 0.000000 0.000000 0.000000 0.064045 0.000000 -0.069168
# 5 -0.002395 -0.000951 0.001438 0.000000 0.044758 0.000000
# 6 0.000000 0.000000 0.000000 -0.069168 0.000000 -0.084108
#
#
# Mechanical properties :
#
#
# Convention : Reuss Voigt Hill
#
# Bulk Modulus (GPa) = 53.52263 54.66942 54.09603
# Shear Modulus (GPa) = 66.48270 21.27246 43.87758
#
# Velocity S-wave (km/s) = 5.72406 3.23787 4.65020
# Velocity P-wave (km/s) = 8.37044 6.39698 7.44935
#
# Compressibility (1/GPa) = 0.01868369
#
# Stress axis : x y z
#
# Youngs Moduli (GPa) = 112.68228 94.76788 82.93531
#
# Poissons Ratio (x) = 0.19805 0.12301
# Poissons Ratio (y) = 0.23549 0.23448
# Poissons Ratio (z) = 0.16713 0.26793
#
# Static dielectric constant tensor:
#      x y z
#    x 3.662700 0.000000 0.057180 
#    y 0.000000 3.667190 0.000000 
#    z 0.057180 0.000000 3.768700 
# 
# 
# High freq. dielectric constant tensor:
#      x y z
#    x 1.782080 0.000000 0.002190 
#    y 0.000000 1.790710 0.000000 
#    z 0.002190 0.000000 1.786420 
# 
# From -- ./inp_files/12380.got.cif
#   From: 2010.06.25/outbox.cif.g09.slc.cpg/sg11_7_cif.got.tgz:12380.got - 2010.06.27 23:14:04.
