data_PCOD8074227
_publ_section_title
;
Structure prediction by ZEFSAII (Michael W. Deem and Ramdas Pophale) SiO2 
 PCOD8074227
Probable space group: P 21/M
;
_chemical_formula_sum "Si O2"
_cell_formula_units_Z 28
_cell_length_a 9.280644
_cell_length_b 8.909846
_cell_length_c 29.083557
_cell_angle_alpha 90.000000
_cell_angle_beta 142.350045
_cell_angle_gamma 90.000000
_cell_volume 1468.994780
_symmetry_space_group_name_H-M "P 21/M"
_symmetry_group_IT_number 11
_symmetry_cell_setting 'monoclinic'
loop_
_space_group_symop_operation_xyz
x,y,z
-x,1/2+y,-z
-x,-y,-z
x,1/2-y,z
loop_
_atom_site_type_symbol
_atom_site_label
_atom_site_fract_x
_atom_site_fract_y
_atom_site_fract_z
Si Si1 0.189197 0.575867 0.132772
Si Si2 0.345703 0.425645 0.999611
Si Si3 0.412635 0.072374 0.431177
Si Si4 0.746892 0.074002 0.432405
Si Si5 0.086456 0.426081 0.702410
Si Si6 0.507825 0.073327 0.141148
Si Si7 0.403416 0.421141 0.695949
O O1 0.203613 0.750000 0.120886
O O2 0.288713 0.473110 0.117400
O O3 0.339933 0.551529 0.217164
O O4 0.924070 0.522311 0.075018
O O5 0.364890 0.250000 0.998219
O O6 0.500000 0.500000 0.000000
O O7 0.443686 0.475745 0.073594
O O8 0.407052 0.250000 0.435636
O O9 0.588681 0.021744 0.435277
O O10 0.500000 0.000000 0.500000
O O11 0.155211 0.014275 0.353501
O O12 0.783480 0.250000 0.442110
O O13 0.617932 0.028679 0.352882
O O14 0.000000 0.000000 0.500000
O O15 0.042745 0.250000 0.697948
O O16 0.257985 0.483628 0.785773
O O17 0.200811 0.460444 0.681713
O O18 0.553121 0.250000 0.157454
O O19 0.374175 0.250000 0.672067
#
# Coordination Sequence:
#
# PCOD8074227 Si02
#       7
#     4   4   4   4   4   4   4
#     4   9  19  37  58  81 110 146 187 229 273 331
#     4  10  22  37  54  80 114 149 188 233 280 330
#     4  11  24  40  58  84 115 147 186 231 276 328
#     4  11  24  39  57  82 112 144 181 224 271 324
#     4  10  21  38  60  85 112 146 186 228 276 332
#     4  10  20  35  57  85 113 144 185 232 278 330
#     4   9  19  36  58  83 110 140 181 227 271 325
#
# _framework density 19.060652999999999
#
# number of rings (size 3 to 8) (size 9 to 14) (size 15 to 20)
#    0.000    2.000    0.000    3.857    0.000   11.429 
#    0.000    2.857    0.000    0.000    0.000    0.000 
#    0.000    0.000    0.000    0.000    0.000    0.000 
#
# Total GULP energy -347315.955918 kJ/mol
# GULP energy per Si atom -12404.141283 kJ/mol
# Density = 1.901727 g / cm^3
# Si number density = 19.060653 Si / 1000 Ang^3
#
#
#
# Elastic Constant Matrix: (Units=GPa)
#
#
# Indices 1 2 3 4 5 6 
#
# 1 141.4919 52.4916 96.1741 0.0000 7.2944 0.0000
# 2 52.4916 56.1533 46.0299 0.0000 -1.6129 0.0000
# 3 96.1741 46.0299 138.3996 0.0000 5.4524 0.0000
# 4 0.0000 0.0000 0.0000 35.6912 0.0000 -0.7681
# 5 7.2944 -1.6129 5.4524 0.0000 36.3353 0.0000
# 6 0.0000 0.0000 0.0000 -0.7681 0.0000 36.0581
#
#
#
# Elastic Compliance Matrix: (Units=1/GPa)
#
#
# Indices 1 2 3 4 5 6 
#
# 1 0.015722 -0.008086 -0.008146 0.000000 -0.002293 0.000000
# 2 -0.008086 0.028838 -0.004111 0.000000 0.003520 0.000000
# 3 -0.008146 -0.004111 0.014281 0.000000 -0.000690 0.000000
# 4 0.000000 0.000000 0.000000 0.028031 0.000000 0.000597
# 5 -0.002293 0.003520 -0.000690 0.000000 0.028242 0.000000
# 6 0.000000 0.000000 0.000000 0.000597 0.000000 0.027746
#
#
# Mechanical properties :
#
#
# Convention : Reuss Voigt Hill
#
# Bulk Modulus (GPa) = 55.07992 80.60399 67.84196
# Shear Modulus (GPa) = 26.37187 31.04020 28.70603
#
# Velocity S-wave (km/s) = 3.72368 4.03984 3.88498
# Velocity P-wave (km/s) = 6.88823 8.00877 7.46954
#
# Compressibility (1/GPa) = 0.01815544
#
# Stress axis : x y z
#
# Youngs Moduli (GPa) = 63.60390 34.67676 70.02509
#
# Poissons Ratio (x) = 0.28038 0.57042
# Poissons Ratio (y) = 0.51427 0.28788
# Poissons Ratio (z) = 0.51812 0.14256
#
# Static dielectric constant tensor:
#      x y z
#    x 3.595630 0.000000 0.067560 
#    y 0.000000 3.521440 0.000000 
#    z 0.067560 0.000000 3.679490 
# 
# 
# High freq. dielectric constant tensor:
#      x y z
#    x 1.739600 0.000000 0.003860 
#    y 0.000000 1.745370 0.000000 
#    z 0.003860 0.000000 1.757590 
# 
# From -- ./inp_files/28435.got.cif
#   From: 2010.06.25/outbox.cif.g09.slc.cpg/sg11_15_cif.got.tgz:28435.got - 2010.06.27 23:14:04.
