data_PCOD8074118
_publ_section_title
;
Structure prediction by ZEFSAII (Michael W. Deem and Ramdas Pophale) SiO2 
 PCOD8074118
Probable space group: P 21/M
;
_chemical_formula_sum "Si O2"
_cell_formula_units_Z 32
_cell_length_a 21.009616
_cell_length_b 9.145839
_cell_length_c 26.766298
_cell_angle_alpha 90.000000
_cell_angle_beta 160.482773
_cell_angle_gamma 90.000000
_cell_volume 1718.279457
_symmetry_space_group_name_H-M "P 21/M"
_symmetry_group_IT_number 11
_symmetry_cell_setting 'monoclinic'
loop_
_space_group_symop_operation_xyz
x,y,z
-x,1/2+y,-z
-x,-y,-z
x,1/2-y,z
loop_
_atom_site_type_symbol
_atom_site_label
_atom_site_fract_x
_atom_site_fract_y
_atom_site_fract_z
Si Si1 0.132225 0.917528 0.839427
Si Si2 0.830765 0.918320 0.032735
Si Si3 0.223182 0.581864 0.287077
Si Si4 0.493685 0.919457 0.047386
Si Si5 0.270496 0.418207 0.507821
Si Si6 0.201411 0.078224 0.644331
Si Si7 0.447328 0.079158 0.537317
Si Si8 0.404894 0.576733 0.703226
O O1 0.170890 0.750000 0.881729
O O2 0.948245 0.936649 0.669063
O O3 0.101839 0.000116 0.868234
O O4 0.314900 0.983120 0.945983
O O5 0.817737 0.750000 0.037773
O O6 0.995786 0.946456 0.112954
O O7 0.626324 0.970261 0.861305
O O8 0.264773 0.750000 0.330599
O O9 0.335791 0.540009 0.319272
O O10 0.299046 0.491555 0.389844
O O11 0.461118 0.750000 0.011958
O O12 0.687129 0.946296 0.221363
O O13 0.500000 0.000000 0.000000
O O14 0.315502 0.250000 0.555443
O O15 0.408745 0.474042 0.565273
O O16 0.299201 0.523550 0.575696
O O17 0.173928 0.250000 0.612643
O O18 0.320829 0.005421 0.688578
O O19 0.000000 0.000000 0.500000
O O20 0.403137 0.250000 0.502765
O O21 0.376063 0.750000 0.688147
#
# Coordination Sequence:
#
# PCOD8074118 Si02
#       8
#     4   4   4   4   4   4   4   4
#     4  10  20  37  59  83 111 143 187 234 278 330
#     4  10  20  35  56  83 112 148 188 232 283 331
#     4   9  17  30  52  81 112 145 183 231 286 337
#     4  10  23  40  60  87 115 146 182 228 276 327
#     4  10  21  36  56  83 114 150 189 235 285 334
#     4  11  24  43  64  87 116 151 189 229 279 337
#     4   9  17  31  52  80 112 145 185 232 283 338
#     4  11  24  40  58  82 114 153 193 232 278 335
#
# _framework density 18.623280999999999
#
# number of rings (size 3 to 8) (size 9 to 14) (size 15 to 20)
#    0.000    2.000    2.500    0.750    1.750    3.000 
#    0.000    0.625    0.000    0.000    0.000    0.000 
#    0.000    0.000    0.000    0.000    0.000    0.000 
#
# Total GULP energy -396750.419353 kJ/mol
# GULP energy per Si atom -12398.450605 kJ/mol
# Density = 1.858089 g / cm^3
# Si number density = 18.623281 Si / 1000 Ang^3
#
#
#
# Elastic Constant Matrix: (Units=GPa)
#
#
# Indices 1 2 3 4 5 6 
#
# 1 80.5504 35.3479 41.0905 0.0000 9.0522 0.0000
# 2 35.3479 61.4412 38.5835 0.0000 1.2849 0.0000
# 3 41.0905 38.5835 103.2823 0.0000 18.5202 0.0000
# 4 0.0000 0.0000 0.0000 26.1251 0.0000 -1.8220
# 5 9.0522 1.2849 18.5202 0.0000 35.3124 0.0000
# 6 0.0000 0.0000 0.0000 -1.8220 0.0000 29.6925
#
#
#
# Elastic Compliance Matrix: (Units=1/GPa)
#
#
# Indices 1 2 3 4 5 6 
#
# 1 0.018127 -0.007991 -0.003803 0.000000 -0.002361 0.000000
# 2 -0.007991 0.025245 -0.007124 0.000000 0.004866 0.000000
# 3 -0.003803 -0.007124 0.015051 0.000000 -0.006660 0.000000
# 4 0.000000 0.000000 0.000000 0.038442 0.000000 0.002359
# 5 -0.002361 0.004866 -0.006660 0.000000 0.032240 0.000000
# 6 0.000000 0.000000 0.000000 0.002359 0.000000 0.033823
#
#
# Mechanical properties :
#
#
# Convention : Reuss Voigt Hill
#
# Bulk Modulus (GPa) = 48.57653 52.81309 50.69481
# Shear Modulus (GPa) = 24.08176 26.90945 25.49561
#
# Velocity S-wave (km/s) = 3.59987 3.80536 3.70404
# Velocity P-wave (km/s) = 6.58932 6.90853 6.75081
#
# Compressibility (1/GPa) = 0.02058607
#
# Stress axis : x y z
#
# Youngs Moduli (GPa) = 55.16754 39.61152 66.44141
#
# Poissons Ratio (x) = 0.31653 0.25268
# Poissons Ratio (y) = 0.44084 0.47335
# Poissons Ratio (z) = 0.20980 0.28221
#
# Static dielectric constant tensor:
#      x y z
#    x 3.569160 0.000000 0.378130 
#    y 0.000000 3.413310 0.000000 
#    z 0.378130 0.000000 3.593000 
# 
# 
# High freq. dielectric constant tensor:
#      x y z
#    x 1.723910 0.000000 0.022130 
#    y 0.000000 1.721510 0.000000 
#    z 0.022130 0.000000 1.724150 
# 
# From -- ./inp_files/72226.got.cif
#   From: 2010.06.25/outbox.cif.g09.slc.cpg/sg11_37_cif.got.tgz:72226.got - 2010.06.27 23:14:04.
