data_PCOD8074159
_publ_section_title
;
Structure prediction by ZEFSAII (Michael W. Deem and Ramdas Pophale) SiO2 
 PCOD8074159
Probable space group: P 21/M
;
_chemical_formula_sum "Si O2"
_cell_formula_units_Z 28
_cell_length_a 21.597761
_cell_length_b 8.897225
_cell_length_c 14.788871
_cell_angle_alpha 90.000000
_cell_angle_beta 31.342850
_cell_angle_gamma 90.000000
_cell_volume 1478.201376
_symmetry_space_group_name_H-M "P 21/M"
_symmetry_group_IT_number 11
_symmetry_cell_setting 'monoclinic'
loop_
_space_group_symop_operation_xyz
x,y,z
-x,1/2+y,-z
-x,-y,-z
x,1/2-y,z
loop_
_atom_site_type_symbol
_atom_site_label
_atom_site_fract_x
_atom_site_fract_y
_atom_site_fract_z
Si Si1 0.525353 0.427737 0.563818
Si Si2 0.887843 0.427728 0.938191
Si Si3 0.128154 0.572785 0.659839
Si Si4 0.349467 0.575373 0.261472
Si Si5 0.793253 0.427737 0.246286
Si Si6 0.618326 0.924696 0.964241
Si Si7 0.323018 0.927368 0.930437
O O1 0.500000 0.500000 0.500000
O O2 0.511526 0.250000 0.573421
O O3 0.657055 0.476742 0.428616
O O4 0.437272 0.489569 0.748653
O O5 0.898689 0.250000 0.928677
O O6 0.015370 0.496021 0.752827
O O7 0.846992 0.495187 0.086492
O O8 0.793824 0.477378 0.979245
O O9 0.110833 0.750000 0.678517
O O10 0.248040 0.526371 0.458250
O O11 0.136091 0.513587 0.753670
O O12 0.339917 0.750000 0.246385
O O13 0.331737 0.475882 0.194596
O O14 0.477192 0.542102 0.147513
O O15 0.800437 0.250000 0.231532
O O16 0.646255 0.750000 0.943418
O O17 0.689419 0.019640 0.950770
O O18 0.342039 0.750000 0.900316
#
# Coordination Sequence:
#
# PCOD8074159 Si02
#       7
#     4   4   4   4   4   4   4
#     4  11  20  34  55  80 112 146 182 224 273 327
#     4  10  21  37  53  74 111 151 185 225 273 320
#     4  10  20  35  57  80 105 143 187 226 271 324
#     4   9  19  37  58  84 115 142 173 224 284 331
#     4   9  18  35  55  77 110 147 180 224 279 323
#     4  10  20  36  61  88 110 140 179 224 277 333
#     4  11  22  37  55  80 114 151 184 223 278 328
#
# _framework density 18.941939000000001
#
# number of rings (size 3 to 8) (size 9 to 14) (size 15 to 20)
#    0.000    2.000    1.429    2.571    0.000    4.571 
#    0.000    3.571    0.000    0.000    0.000    0.000 
#    0.000    0.000    0.000    0.000    0.000    0.000 
#
# Total GULP energy -347254.944397 kJ/mol
# GULP energy per Si atom -12401.962300 kJ/mol
# Density = 1.889883 g / cm^3
# Si number density = 18.941939 Si / 1000 Ang^3
#
#
#
# Elastic Constant Matrix: (Units=GPa)
#
#
# Indices 1 2 3 4 5 6 
#
# 1 123.2914 35.6407 53.9450 0.0000 -1.8841 0.0000
# 2 35.6407 49.3565 28.1802 0.0000 -2.1669 0.0000
# 3 53.9450 28.1802 89.5608 0.0000 -5.8295 0.0000
# 4 0.0000 0.0000 0.0000 31.1252 0.0000 1.3983
# 5 -1.8841 -2.1669 -5.8295 0.0000 26.6441 0.0000
# 6 0.0000 0.0000 0.0000 1.3983 0.0000 29.8928
#
#
#
# Elastic Compliance Matrix: (Units=1/GPa)
#
#
# Indices 1 2 3 4 5 6 
#
# 1 0.012184 -0.005624 -0.005623 0.000000 -0.000826 0.000000
# 2 -0.005624 0.027296 -0.005156 0.000000 0.000694 0.000000
# 3 -0.005623 -0.005156 0.016355 0.000000 0.002761 0.000000
# 4 0.000000 0.000000 0.000000 0.032196 0.000000 -0.001506
# 5 -0.000826 0.000694 0.002761 0.000000 0.038134 0.000000
# 6 0.000000 0.000000 0.000000 -0.001506 0.000000 0.033523
#
#
# Mechanical properties :
#
#
# Convention : Reuss Voigt Hill
#
# Bulk Modulus (GPa) = 43.42392 55.30448 49.36420
# Shear Modulus (GPa) = 24.97860 27.16196 26.07028
#
# Velocity S-wave (km/s) = 3.63532 3.79087 3.71391
# Velocity P-wave (km/s) = 6.37144 6.95853 6.67145
#
# Compressibility (1/GPa) = 0.02302878
#
# Stress axis : x y z
#
# Youngs Moduli (GPa) = 82.07209 36.63499 61.14476
#
# Poissons Ratio (x) = 0.20604 0.34383
# Poissons Ratio (y) = 0.46159 0.31526
# Poissons Ratio (z) = 0.46150 0.18889
#
# Static dielectric constant tensor:
#      x y z
#    x 4.874180 0.000000 4.359530 
#    y 0.000000 3.313080 0.000000 
#    z 4.359530 0.000000 18.262290 
# 
# 
# High freq. dielectric constant tensor:
#      x y z
#    x 1.743140 0.000000 0.000300 
#    y 0.000000 1.723420 0.000000 
#    z 0.000300 0.000000 1.730510 
# 
# From -- ./inp_files/48899.got.cif
#   From: 2010.06.25/outbox.cif.g09.slc.cpg/sg11_25_cif.got.tgz:48899.got - 2010.06.27 23:14:04.
