data_PCOD8074518
_publ_section_title
;
Structure prediction by ZEFSAII (Michael W. Deem and Ramdas Pophale) SiO2 
 PCOD8074518
Probable space group: P 21/M
;
_chemical_formula_sum "Si O2"
_cell_formula_units_Z 32
_cell_length_a 25.024541
_cell_length_b 8.541491
_cell_length_c 15.531551
_cell_angle_alpha 90.000000
_cell_angle_beta 30.452411
_cell_angle_gamma 90.000000
_cell_volume 1682.559958
_symmetry_space_group_name_H-M "P 21/M"
_symmetry_group_IT_number 11
_symmetry_cell_setting 'monoclinic'
loop_
_space_group_symop_operation_xyz
x,y,z
-x,1/2+y,-z
-x,-y,-z
x,1/2-y,z
loop_
_atom_site_type_symbol
_atom_site_label
_atom_site_fract_x
_atom_site_fract_y
_atom_site_fract_z
Si Si1 0.199893 0.431403 0.407906
Si Si2 0.694864 0.069791 0.901351
Si Si3 0.986377 0.567557 0.754736
Si Si4 0.565418 0.567434 0.330884
Si Si5 0.224028 0.931391 0.022594
Si Si6 0.487297 0.931853 0.251738
Si Si7 0.262168 0.566811 0.495662
Si Si8 0.953260 0.933778 0.151826
O O1 0.209578 0.250000 0.417908
O O2 0.251193 0.462594 0.244727
O O3 0.261265 0.530021 0.395340
O O4 0.077030 0.477896 0.575880
O O5 0.707913 0.250000 0.857323
O O6 0.751573 0.030933 0.912243
O O7 0.571494 0.029621 0.079694
O O8 0.012032 0.750000 0.715604
O O9 0.984000 0.512359 0.856738
O O10 0.875243 0.534714 0.865288
O O11 0.500000 0.500000 0.500000
O O12 0.586828 0.750000 0.314352
O O13 0.677067 0.479488 0.173399
O O14 0.499572 0.533977 0.335823
O O15 0.198800 0.750000 0.042217
O O16 0.504948 0.750000 0.206088
O O17 0.372212 0.989024 0.383155
O O18 0.243512 0.750000 0.536579
O O19 0.170563 0.472315 0.671294
O O20 0.971197 0.750000 0.131311
O O21 0.000000 0.000000 0.000000
#
# Coordination Sequence:
#
# PCOD8074518 Si02
#       8
#     4   4   4   4   4   4   4   4
#     4  11  22  37  57  81 111 145 181 225 275 327
#     4  10  21  37  58  82 110 144 183 226 270 323
#     4  11  22  38  59  83 111 144 183 227 276 328
#     4  10  20  36  56  81 112 146 185 227 274 325
#     4  10  21  38  58  82 111 144 183 227 276 327
#     4   9  20  37  57  80 109 144 181 225 273 322
#     4  10  20  37  58  81 110 144 184 229 276 325
#     4  11  22  38  58  82 113 147 185 228 274 325
#
# _framework density 19.018636999999998
#
# number of rings (size 3 to 8) (size 9 to 14) (size 15 to 20)
#    0.000    1.750    0.000    6.375    0.000    5.000 
#    0.000    3.750    0.000    0.000    0.000    0.000 
#    0.000    0.000    0.000    0.000    0.000    0.000 
#
# Total GULP energy -396976.156495 kJ/mol
# GULP energy per Si atom -12405.504890 kJ/mol
# Density = 1.897535 g / cm^3
# Si number density = 19.018637 Si / 1000 Ang^3
#
#
#
# Elastic Constant Matrix: (Units=GPa)
#
#
# Indices 1 2 3 4 5 6 
#
# 1 87.7751 22.9199 65.9216 0.0000 -14.0926 0.0000
# 2 22.9199 69.8229 24.5243 0.0000 2.0431 0.0000
# 3 65.9216 24.5243 110.5990 0.0000 8.7420 0.0000
# 4 0.0000 0.0000 0.0000 37.7477 0.0000 -0.0212
# 5 -14.0926 2.0431 8.7420 0.0000 40.0825 0.0000
# 6 0.0000 0.0000 0.0000 -0.0212 0.0000 29.9083
#
#
#
# Elastic Compliance Matrix: (Units=1/GPa)
#
#
# Indices 1 2 3 4 5 6 
#
# 1 0.026357 -0.003420 -0.015973 0.000000 0.012925 0.000000
# 2 -0.003420 0.015975 -0.001368 0.000000 -0.001718 0.000000
# 3 -0.015973 -0.001368 0.019643 0.000000 -0.009830 0.000000
# 4 0.000000 0.000000 0.000000 0.026492 0.000000 0.000019
# 5 0.012925 -0.001718 -0.009830 0.000000 0.031724 0.000000
# 6 0.000000 0.000000 0.000000 0.000019 0.000000 0.033436
#
#
# Mechanical properties :
#
#
# Convention : Reuss Voigt Hill
#
# Bulk Modulus (GPa) = 48.89312 54.99207 51.94259
# Shear Modulus (GPa) = 24.75640 31.86978 28.31309
#
# Velocity S-wave (km/s) = 3.61181 4.09799 3.86256
# Velocity P-wave (km/s) = 6.56943 7.16721 6.87482
#
# Compressibility (1/GPa) = 0.02045278
#
# Stress axis : x y z
#
# Youngs Moduli (GPa) = 37.93999 62.59637 50.90889
#
# Poissons Ratio (x) = 0.21407 0.81319
# Poissons Ratio (y) = 0.12975 0.06966
# Poissons Ratio (z) = 0.60603 0.08565
#
# Static dielectric constant tensor:
#      x y z
#    x 3.457370 0.000000 -0.047170 
#    y 0.000000 3.639400 0.000000 
#    z -0.047170 0.000000 3.472180 
# 
# 
# High freq. dielectric constant tensor:
#      x y z
#    x 1.737760 0.000000 -0.001210 
#    y 0.000000 1.754460 0.000000 
#    z -0.001210 0.000000 1.743780 
# 
# From -- ./inp_files/55590.got.cif
#   From: 2010.06.25/outbox.cif.g09.slc.cpg/sg11_28_cif.got.tgz:55590.got - 2010.06.27 23:14:04.
