data_PCOD8074177
_publ_section_title
;
Structure prediction by ZEFSAII (Michael W. Deem and Ramdas Pophale) SiO2 
 PCOD8074177
Probable space group: P 21/M
;
_chemical_formula_sum "Si O2"
_cell_formula_units_Z 32
_cell_length_a 28.591393
_cell_length_b 8.824519
_cell_length_c 14.280994
_cell_angle_alpha 90.000000
_cell_angle_beta 27.637714
_cell_angle_gamma 90.000000
_cell_volume 1671.436006
_symmetry_space_group_name_H-M "P 21/M"
_symmetry_group_IT_number 11
_symmetry_cell_setting 'monoclinic'
loop_
_space_group_symop_operation_xyz
x,y,z
-x,1/2+y,-z
-x,-y,-z
x,1/2-y,z
loop_
_atom_site_type_symbol
_atom_site_label
_atom_site_fract_x
_atom_site_fract_y
_atom_site_fract_z
Si Si1 0.013524 0.924364 0.574952
Si Si2 0.420482 0.426002 0.287210
Si Si3 0.633224 0.572464 0.945896
Si Si4 0.766685 0.423772 0.853018
Si Si5 0.286484 0.572465 0.374063
Si Si6 0.823227 0.427966 0.963531
Si Si7 0.107429 0.928024 0.828420
Si Si8 0.241912 0.074417 0.741620
O O1 0.981458 0.750000 0.626559
O O2 0.131653 0.940840 0.390587
O O3 0.000000 0.000000 0.500000
O O4 0.937060 0.009310 0.780957
O O5 0.422829 0.250000 0.254241
O O6 0.381201 0.522113 0.269008
O O7 0.348996 0.454025 0.502979
O O8 0.530258 0.481236 0.119688
O O9 0.612219 0.750000 0.977065
O O10 0.682008 0.531892 0.959558
O O11 0.710214 0.519335 0.728548
O O12 0.729684 0.250000 0.915694
O O13 0.785099 0.474147 0.927723
O O14 0.295782 0.750000 0.336787
O O15 0.181767 0.531409 0.610683
O O16 0.824516 0.250000 0.974620
O O17 0.749471 0.502604 0.170443
O O18 0.095549 0.750000 0.861643
O O19 0.152070 0.994290 0.844726
O O20 0.000000 0.000000 0.000000
O O21 0.215022 0.250000 0.796307
#
# Coordination Sequence:
#
# PCOD8074177 Si02
#       8
#     4   4   4   4   4   4   4   4
#     4   9  17  31  52  76 105 140 178 220 266 317
#     4  10  21  39  60  81 108 140 178 225 273 326
#     4  12  24  36  56  83 109 141 180 226 277 325
#     4   9  20  37  54  77 110 145 181 225 273 318
#     4  10  21  38  59  82 110 144 181 221 268 324
#     4  10  20  35  57  82 110 146 185 226 272 324
#     4  10  21  37  58  84 116 150 183 224 270 318
#     4  10  21  37  59  83 108 144 186 225 270 326
#
# _framework density 19.145213999999999
#
# number of rings (size 3 to 8) (size 9 to 14) (size 15 to 20)
#    0.000    2.000    0.000    4.500    0.000    7.000 
#    0.000    1.875    0.000    0.000    0.000    0.000 
#    0.000    0.000    0.000    0.000    0.000    0.000 
#
# Total GULP energy -396830.634311 kJ/mol
# GULP energy per Si atom -12400.957322 kJ/mol
# Density = 1.910164 g / cm^3
# Si number density = 19.145214 Si / 1000 Ang^3
#
#
#
# Elastic Constant Matrix: (Units=GPa)
#
#
# Indices 1 2 3 4 5 6 
#
# 1 82.6161 29.7260 44.6954 0.0000 1.9337 0.0000
# 2 29.7260 78.1436 33.4953 0.0000 2.9862 0.0000
# 3 44.6954 33.4953 79.9646 0.0000 0.0380 0.0000
# 4 0.0000 0.0000 0.0000 34.5424 0.0000 1.5228
# 5 1.9337 2.9862 0.0380 0.0000 30.7094 0.0000
# 6 0.0000 0.0000 0.0000 1.5228 0.0000 35.5500
#
#
#
# Elastic Compliance Matrix: (Units=1/GPa)
#
#
# Indices 1 2 3 4 5 6 
#
# 1 0.017959 -0.003044 -0.008763 0.000000 -0.000824 0.000000
# 2 -0.003044 0.016184 -0.005077 0.000000 -0.001376 0.000000
# 3 -0.008763 -0.005077 0.019529 0.000000 0.001021 0.000000
# 4 0.000000 0.000000 0.000000 0.029005 0.000000 -0.001242
# 5 -0.000824 -0.001376 0.001021 0.000000 0.032748 0.000000
# 6 0.000000 0.000000 0.000000 -0.001242 0.000000 0.028183
#
#
# Mechanical properties :
#
#
# Convention : Reuss Voigt Hill
#
# Bulk Modulus (GPa) = 50.23842 50.72863 50.48353
# Shear Modulus (GPa) = 27.17244 29.01421 28.09332
#
# Velocity S-wave (km/s) = 3.77142 3.89714 3.83480
# Velocity P-wave (km/s) = 6.72774 6.84139 6.78480
#
# Compressibility (1/GPa) = 0.01990509
#
# Stress axis : x y z
#
# Youngs Moduli (GPa) = 55.68096 61.79069 51.20485
#
# Poissons Ratio (x) = 0.18811 0.44869
# Poissons Ratio (y) = 0.16951 0.25995
# Poissons Ratio (z) = 0.48791 0.31369
#
# Static dielectric constant tensor:
#      x y z
#    x 3.361800 0.000000 0.054050 
#    y 0.000000 3.840560 0.000000 
#    z 0.054050 0.000000 3.711010 
# 
# 
# High freq. dielectric constant tensor:
#      x y z
#    x 1.729890 0.000000 0.002840 
#    y 0.000000 1.758520 0.000000 
#    z 0.002840 0.000000 1.746200 
# 
# From -- ./inp_files/56455.got.cif
#   From: 2010.06.25/outbox.cif.g09.slc.cpg/sg11_29_cif.got.tgz:56455.got - 2010.06.27 23:14:04.
