data_PCOD8074983
_publ_section_title
;
Structure prediction by ZEFSAII (Michael W. Deem and Ramdas Pophale) SiO2 
 PCOD8074983
Probable space group: P 21/M
;
_chemical_formula_sum "Si O2"
_cell_formula_units_Z 32
_cell_length_a 12.185113
_cell_length_b 9.141396
_cell_length_c 21.914985
_cell_angle_alpha 90.000000
_cell_angle_beta 136.316204
_cell_angle_gamma 90.000000
_cell_volume 1686.004903
_symmetry_space_group_name_H-M "P 21/M"
_symmetry_group_IT_number 11
_symmetry_cell_setting 'monoclinic'
loop_
_space_group_symop_operation_xyz
x,y,z
-x,1/2+y,-z
-x,-y,-z
x,1/2-y,z
loop_
_atom_site_type_symbol
_atom_site_label
_atom_site_fract_x
_atom_site_fract_y
_atom_site_fract_z
Si Si1 0.294333 0.077404 0.313284
Si Si2 0.509177 0.422121 0.939084
Si Si3 0.351579 0.577335 0.547857
Si Si4 0.840243 0.076174 0.412965
Si Si5 0.124546 0.920795 0.351209
Si Si6 0.796351 0.078770 0.971087
Si Si7 0.217615 0.420469 0.735887
Si Si8 0.843688 0.920451 0.870642
O O1 0.282758 0.250000 0.318594
O O2 0.472490 0.016308 0.395434
O O3 0.247429 0.032672 0.226411
O O4 0.170757 0.001923 0.308295
O O5 0.506522 0.250000 0.949941
O O6 0.363191 0.468902 0.837115
O O7 0.500000 0.500000 0.000000
O O8 0.671675 0.473698 0.971927
O O9 0.353988 0.750000 0.543389
O O10 0.296139 0.533933 0.593311
O O11 0.229401 0.513621 0.448857
O O12 0.868431 0.250000 0.420661
O O13 0.780817 0.016183 0.324521
O O14 0.000000 0.000000 0.500000
O O15 0.156631 0.750000 0.355505
O O16 0.941414 0.954049 0.290483
O O17 0.779077 0.250000 0.953250
O O18 0.972351 0.033021 0.063303
O O19 0.757678 0.002563 0.891412
O O20 0.227450 0.250000 0.721437
O O21 0.829523 0.750000 0.878568
#
# Coordination Sequence:
#
# PCOD8074983 Si02
#       8
#     4   4   4   4   4   4   4   4
#     4  10  21  35  55  82 109 139 184 231 272 323
#     4  10  23  40  60  85 117 151 188 238 288 339
#     4   9  19  36  55  78 113 147 177 224 278 326
#     4  11  21  37  61  87 116 153 192 234 283 338
#     4  10  20  37  56  75 110 150 182 223 277 332
#     4   9  19  37  56  78 110 142 178 227 279 328
#     4  10  22  40  58  83 117 152 190 236 287 339
#     4   9  19  35  56  80 107 141 179 227 278 328
#
# _framework density 18.979780000000002
#
# number of rings (size 3 to 8) (size 9 to 14) (size 15 to 20)
#    0.000    2.250    1.250    0.750    3.500    2.000 
#    0.000    1.250    0.000    0.000    0.000    0.000 
#    0.000    0.000    0.000    0.000    0.000    0.000 
#
# Total GULP energy -396854.157188 kJ/mol
# GULP energy per Si atom -12401.692412 kJ/mol
# Density = 1.893658 g / cm^3
# Si number density = 18.979780 Si / 1000 Ang^3
#
#
#
# Elastic Constant Matrix: (Units=GPa)
#
#
# Indices 1 2 3 4 5 6 
#
# 1 131.2185 40.8019 47.6219 0.0000 -11.7325 0.0000
# 2 40.8019 43.6723 34.8025 0.0000 -10.1931 0.0000
# 3 47.6219 34.8025 103.2351 0.0000 -4.6985 0.0000
# 4 0.0000 0.0000 0.0000 28.3685 0.0000 -9.2641
# 5 -11.7325 -10.1931 -4.6985 0.0000 29.4905 0.0000
# 6 0.0000 0.0000 0.0000 -9.2641 0.0000 30.7797
#
#
#
# Elastic Compliance Matrix: (Units=1/GPa)
#
#
# Indices 1 2 3 4 5 6 
#
# 1 0.011140 -0.008309 -0.002283 0.000000 0.001196 0.000000
# 2 -0.008309 0.040202 -0.009305 0.000000 0.009107 0.000000
# 3 -0.002283 -0.009305 0.013789 0.000000 -0.001928 0.000000
# 4 0.000000 0.000000 0.000000 0.039093 0.000000 0.011766
# 5 0.001196 0.009107 -0.001928 0.000000 0.037226 0.000000
# 6 0.000000 0.000000 0.000000 0.011766 0.000000 0.036030
#
#
# Mechanical properties :
#
#
# Convention : Reuss Voigt Hill
#
# Bulk Modulus (GPa) = 39.47013 58.28650 48.87831
# Shear Modulus (GPa) = 22.15122 28.05436 25.10279
#
# Velocity S-wave (km/s) = 3.41998 3.84880 3.64071
# Velocity P-wave (km/s) = 6.03623 7.10827 6.59407
#
# Compressibility (1/GPa) = 0.02533561
#
# Stress axis : x y z
#
# Youngs Moduli (GPa) = 89.76483 24.87439 72.52071
#
# Poissons Ratio (x) = 0.20669 0.16559
# Poissons Ratio (y) = 0.74588 0.67483
# Poissons Ratio (z) = 0.20496 0.23146
#
# Static dielectric constant tensor:
#      x y z
#    x 3.651800 0.000000 0.089020 
#    y 0.000000 3.339680 0.000000 
#    z 0.089020 0.000000 3.652080 
# 
# 
# High freq. dielectric constant tensor:
#      x y z
#    x 1.750040 0.000000 0.001540 
#    y 0.000000 1.717520 0.000000 
#    z 0.001540 0.000000 1.745530 
# 
# From -- ./inp_files/64412.got.cif
#   From: 2010.06.25/outbox.cif.g09.slc.cpg/sg11_33_cif.got.tgz:64412.got - 2010.06.27 23:14:04.
