data_PCOD8074786
_publ_section_title
;
Structure prediction by ZEFSAII (Michael W. Deem and Ramdas Pophale) SiO2 
 PCOD8074786
Probable space group: P 21/M
;
_chemical_formula_sum "Si O2"
_cell_formula_units_Z 28
_cell_length_a 11.836690
_cell_length_b 9.042307
_cell_length_c 15.026448
_cell_angle_alpha 90.000000
_cell_angle_beta 119.146809
_cell_angle_gamma 90.000000
_cell_volume 1404.644479
_symmetry_space_group_name_H-M "P 21/M"
_symmetry_group_IT_number 11
_symmetry_cell_setting 'monoclinic'
loop_
_space_group_symop_operation_xyz
x,y,z
-x,1/2+y,-z
-x,-y,-z
x,1/2-y,z
loop_
_atom_site_type_symbol
_atom_site_label
_atom_site_fract_x
_atom_site_fract_y
_atom_site_fract_z
Si Si1 0.756248 0.917923 0.691250
Si Si2 0.878849 0.580311 0.998126
Si Si3 0.001388 0.580587 0.222828
Si Si4 0.074154 0.078848 0.610001
Si Si5 0.386089 0.080064 0.185126
Si Si6 0.382754 0.923482 0.503472
Si Si7 0.632715 0.921442 0.317955
O O1 0.766168 0.750000 0.661408
O O2 0.641949 0.932528 0.719619
O O3 0.740841 0.027059 0.601066
O O4 0.891659 0.974803 0.782620
O O5 0.884383 0.750000 0.967390
O O6 0.882551 0.568939 0.107455
O O7 0.739092 0.515337 0.914754
O O8 0.000000 0.500000 0.000000
O O9 0.049355 0.750000 0.245999
O O10 0.969053 0.520805 0.309385
O O11 0.040610 0.250000 0.585141
O O12 0.228367 0.053980 0.673097
O O13 0.000000 0.000000 0.500000
O O14 0.413038 0.250000 0.168577
O O15 0.513680 0.982475 0.211609
O O16 0.402930 0.750000 0.511174
O O17 0.500000 0.000000 0.500000
O O18 0.363648 0.978696 0.594356
O O19 0.607366 0.750000 0.330610
#
# Coordination Sequence:
#
# PCOD8074786 Si02
#       7
#     4   4   4   4   4   4   4
#     4  11  21  34  54  84 120 151 188 237 290 349
#     4  10  20  36  59  87 119 155 194 242 294 350
#     4  10  21  38  61  86 116 155 199 244 295 348
#     4  10  23  42  62  87 116 154 200 245 291 347
#     4  10  21  36  55  83 119 154 189 235 293 351
#     4  12  23  35  53  80 113 148 189 233 289 353
#     4  11  23  39  59  83 116 155 197 244 294 347
#
# _framework density 19.933869000000001
#
# number of rings (size 3 to 8) (size 9 to 14) (size 15 to 20)
#    0.000    1.429    2.857    3.000    0.000    5.143 
#    0.000    0.714    0.000    0.000    0.000    0.000 
#    0.000    0.000    0.000    0.000    0.000    0.000 
#
# Total GULP energy -347069.139176 kJ/mol
# GULP energy per Si atom -12395.326399 kJ/mol
# Density = 1.988850 g / cm^3
# Si number density = 19.933869 Si / 1000 Ang^3
#
#
#
# Elastic Constant Matrix: (Units=GPa)
#
#
# Indices 1 2 3 4 5 6 
#
# 1 79.8008 40.1774 32.8913 0.0000 16.3143 0.0000
# 2 40.1774 103.0275 34.0914 0.0000 9.6231 0.0000
# 3 32.8913 34.0914 101.9459 0.0000 15.0476 0.0000
# 4 0.0000 0.0000 0.0000 29.4183 0.0000 7.3841
# 5 16.3143 9.6231 15.0476 0.0000 35.5434 0.0000
# 6 0.0000 0.0000 0.0000 7.3841 0.0000 27.8625
#
#
#
# Elastic Compliance Matrix: (Units=1/GPa)
#
#
# Indices 1 2 3 4 5 6 
#
# 1 0.017582 -0.005333 -0.003105 0.000000 -0.005312 0.000000
# 2 -0.005333 0.012607 -0.002510 0.000000 0.000097 0.000000
# 3 -0.003105 -0.002510 0.012095 0.000000 -0.003016 0.000000
# 4 0.000000 0.000000 0.000000 0.036415 0.000000 -0.009651
# 5 -0.005312 0.000097 -0.003016 0.000000 0.031823 0.000000
# 6 0.000000 0.000000 0.000000 -0.009651 0.000000 0.038448
#
#
# Mechanical properties :
#
#
# Convention : Reuss Voigt Hill
#
# Bulk Modulus (GPa) = 49.04580 55.45494 52.25037
# Shear Modulus (GPa) = 28.14333 30.40578 29.27456
#
# Velocity S-wave (km/s) = 3.76152 3.90979 3.83637
# Velocity P-wave (km/s) = 6.59720 6.94707 6.77439
#
# Compressibility (1/GPa) = 0.02038911
#
# Stress axis : x y z
#
# Youngs Moduli (GPa) = 56.87694 79.32017 82.67616
#
# Poissons Ratio (x) = 0.42299 0.25673
# Poissons Ratio (y) = 0.30331 0.20749
# Poissons Ratio (z) = 0.17661 0.19907
#
# Static dielectric constant tensor:
#      x y z
#    x 3.659690 0.000000 0.125950 
#    y 0.000000 3.479680 0.000000 
#    z 0.125950 0.000000 4.203840 
# 
# 
# High freq. dielectric constant tensor:
#      x y z
#    x 1.762120 0.000000 0.020310 
#    y 0.000000 1.775040 0.000000 
#    z 0.020310 0.000000 1.787490 
# 
# From -- ./inp_files/37667.got.cif
#   From: 2010.06.25/outbox.cif.g09.slc.cpg/sg11_19_cif.got.tgz:37667.got - 2010.06.27 23:14:04.
