data_PCOD8074883
_publ_section_title
;
Structure prediction by ZEFSAII (Michael W. Deem and Ramdas Pophale) SiO2 
 PCOD8074883
Probable space group: P 21/M
;
_chemical_formula_sum "Si O2"
_cell_formula_units_Z 32
_cell_length_a 15.231694
_cell_length_b 9.003659
_cell_length_c 24.856502
_cell_angle_alpha 90.000000
_cell_angle_beta 27.464525
_cell_angle_gamma 90.000000
_cell_volume 1572.157026
_symmetry_space_group_name_H-M "P 21/M"
_symmetry_group_IT_number 11
_symmetry_cell_setting 'monoclinic'
loop_
_space_group_symop_operation_xyz
x,y,z
-x,1/2+y,-z
-x,-y,-z
x,1/2-y,z
loop_
_atom_site_type_symbol
_atom_site_label
_atom_site_fract_x
_atom_site_fract_y
_atom_site_fract_z
Si Si1 0.873756 0.425492 0.523143
Si Si2 0.495211 0.918538 0.756463
Si Si3 0.867687 0.082767 0.113146
Si Si4 0.039885 0.921411 0.820155
Si Si5 0.300929 0.423528 0.594607
Si Si6 0.631791 0.078491 0.885333
Si Si7 0.050422 0.423936 0.630847
Si Si8 0.617671 0.919122 0.078355
O O1 0.901711 0.250000 0.509903
O O2 0.658375 0.466246 0.653654
O O3 0.928165 0.482914 0.434810
O O4 0.000000 0.500000 0.500000
O O5 0.572313 0.750000 0.721616
O O6 0.350666 0.925043 0.785438
O O7 0.388987 0.968276 0.868387
O O8 0.945756 0.250000 0.072474
O O9 0.885567 0.016593 0.163121
O O10 0.000000 0.000000 0.000000
O O11 0.099596 0.750000 0.778893
O O12 0.134892 0.021513 0.723569
O O13 0.813260 0.942935 0.939487
O O14 0.500000 0.500000 0.500000
O O15 0.330179 0.250000 0.587026
O O16 0.228803 0.458078 0.573148
O O17 0.613612 0.250000 0.908986
O O18 0.556517 0.043962 0.866348
O O19 0.852507 0.027620 0.767357
O O20 0.500000 0.000000 0.000000
O O21 0.042712 0.250000 0.619927
O O22 0.605276 0.750000 0.106539
#
# Coordination Sequence:
#
# PCOD8074883 Si02
#       8
#     4   4   4   4   4   4   4   4
#     4  12  26  44  68  96 127 166 210 259 314 378
#     4  11  23  38  60  91 125 163 207 253 308 372
#     4  10  21  37  59  89 126 166 206 256 313 370
#     4  10  21  38  60  88 125 164 206 259 317 372
#     4  11  25  43  64  89 121 165 216 269 320 376
#     4  10  21  37  61  90 119 153 194 243 301 365
#     4  10  23  44  65  90 128 167 208 260 315 371
#     4  10  20  36  60  90 123 160 200 247 305 371
#
# _framework density 20.354202000000001
#
# number of rings (size 3 to 8) (size 9 to 14) (size 15 to 20)
#    0.000    1.500    1.250    3.375    1.750    4.500 
#    0.000    0.000    0.000    0.000    0.000    0.000 
#    0.000    0.000    0.000    0.000    0.000    0.000 
#
# Total GULP energy -396889.750643 kJ/mol
# GULP energy per Si atom -12402.804708 kJ/mol
# Density = 2.030788 g / cm^3
# Si number density = 20.354202 Si / 1000 Ang^3
#
#
#
# Elastic Constant Matrix: (Units=GPa)
#
#
# Indices 1 2 3 4 5 6 
#
# 1 113.9396 62.2014 47.6596 0.0000 -6.4842 0.0000
# 2 62.2014 105.8494 52.3574 0.0000 5.3175 0.0000
# 3 47.6596 52.3574 101.6643 0.0000 0.3419 0.0000
# 4 0.0000 0.0000 0.0000 42.4661 0.0000 3.6504
# 5 -6.4842 5.3175 0.3419 0.0000 37.1592 0.0000
# 6 0.0000 0.0000 0.0000 3.6504 0.0000 30.6942
#
#
#
# Elastic Compliance Matrix: (Units=1/GPa)
#
#
# Indices 1 2 3 4 5 6 
#
# 1 0.014011 -0.006914 -0.003019 0.000000 0.003462 0.000000
# 2 -0.006914 0.016204 -0.005092 0.000000 -0.003478 0.000000
# 3 -0.003019 -0.005092 0.013874 0.000000 0.000074 0.000000
# 4 0.000000 0.000000 0.000000 0.023791 0.000000 -0.002829
# 5 0.003462 -0.003478 0.000074 0.000000 0.028012 0.000000
# 6 0.000000 0.000000 0.000000 -0.002829 0.000000 0.032916
#
#
# Mechanical properties :
#
#
# Convention : Reuss Voigt Hill
#
# Bulk Modulus (GPa) = 71.23433 71.76557 71.49995
# Shear Modulus (GPa) = 30.57394 32.67957 31.62676
#
# Velocity S-wave (km/s) = 3.87989 4.01127 3.94613
# Velocity P-wave (km/s) = 7.42595 7.53582 7.48109
#
# Compressibility (1/GPa) = 0.01403818
#
# Stress axis : x y z
#
# Youngs Moduli (GPa) = 71.37314 61.71413 72.07796
#
# Poissons Ratio (x) = 0.42668 0.21762
# Poissons Ratio (y) = 0.49346 0.36703
# Poissons Ratio (z) = 0.21549 0.31425
#
# Static dielectric constant tensor:
#      x y z
#    x 4.041590 0.000000 -0.171450 
#    y 0.000000 3.792040 0.000000 
#    z -0.171450 0.000000 3.683090 
# 
# 
# High freq. dielectric constant tensor:
#      x y z
#    x 1.811320 0.000000 -0.007190 
#    y 0.000000 1.790680 0.000000 
#    z -0.007190 0.000000 1.799760 
# 
# From -- ./inp_files/68989.got.cif
#   From: 2010.06.25/outbox.cif.g09.slc.cpg/sg11_35_cif.got.tgz:68989.got - 2010.06.27 23:14:04.
