data_PCOD8074106
_publ_section_title
;
Structure prediction by ZEFSAII (Michael W. Deem and Ramdas Pophale) SiO2 
 PCOD8074106
Probable space group: P 21/M
;
_chemical_formula_sum "Si O2"
_cell_formula_units_Z 28
_cell_length_a 11.155087
_cell_length_b 8.827579
_cell_length_c 16.216168
_cell_angle_alpha 90.000000
_cell_angle_beta 60.310398
_cell_angle_gamma 90.000000
_cell_volume 1387.213599
_symmetry_space_group_name_H-M "P 21/M"
_symmetry_group_IT_number 11
_symmetry_cell_setting 'monoclinic'
loop_
_space_group_symop_operation_xyz
x,y,z
-x,1/2+y,-z
-x,-y,-z
x,1/2-y,z
loop_
_atom_site_type_symbol
_atom_site_label
_atom_site_fract_x
_atom_site_fract_y
_atom_site_fract_z
Si Si1 0.091004 0.927150 0.039568
Si Si2 0.688633 0.927013 0.588340
Si Si3 0.337869 0.571221 0.227990
Si Si4 0.623142 0.073237 0.321738
Si Si5 0.177768 0.574227 0.606904
Si Si6 0.897329 0.925736 0.792690
Si Si7 0.622690 0.426534 0.138802
O O1 0.057764 0.750000 0.056914
O O2 0.052624 0.009226 0.137196
O O3 0.251917 0.955769 0.965511
O O4 0.000000 0.000000 0.000000
O O5 0.709732 0.750000 0.595117
O O6 0.536411 0.964676 0.604804
O O7 0.711903 0.005252 0.668019
O O8 0.801066 0.987357 0.485955
O O9 0.335951 0.750000 0.233350
O O10 0.235695 0.516865 0.191478
O O11 0.490242 0.516069 0.150675
O O12 0.653959 0.250000 0.312833
O O13 0.721350 0.999995 0.357888
O O14 0.661478 0.012283 0.217323
O O15 0.212990 0.750000 0.581060
O O16 0.020160 0.550154 0.686022
O O17 0.860131 0.750000 0.815211
O O18 0.582193 0.250000 0.158771
#
# Coordination Sequence:
#
# PCOD8074106 Si02
#       7
#     4   4   4   4   4   4   4
#     4  11  23  40  64  93 123 154 190 234 285 343
#     4  10  20  35  57  84 116 152 188 234 291 349
#     4  11  23  40  61  85 113 148 195 245 291 346
#     4   8  15  31  55  83 113 144 182 228 281 338
#     4  10  20  35  56  82 113 152 195 238 286 340
#     4  11  24  41  60  83 116 156 196 242 292 343
#     4   9  19  38  62  86 116 154 192 236 289 341
#
# _framework density 20.184346000000001
#
# number of rings (size 3 to 8) (size 9 to 14) (size 15 to 20)
#    0.000    2.000    0.000    4.714    0.000    5.714 
#    0.000    2.857    0.000    0.000    0.000    0.000 
#    0.000    0.000    0.000    0.000    0.000    0.000 
#
# Total GULP energy -347292.054211 kJ/mol
# GULP energy per Si atom -12403.287650 kJ/mol
# Density = 2.013841 g / cm^3
# Si number density = 20.184346 Si / 1000 Ang^3
#
#
#
# Elastic Constant Matrix: (Units=GPa)
#
#
# Indices 1 2 3 4 5 6 
#
# 1 91.5484 44.5896 17.0114 0.0000 9.7339 0.0000
# 2 44.5896 114.7754 47.4788 0.0000 -5.2813 0.0000
# 3 17.0114 47.4788 72.3306 0.0000 -5.3754 0.0000
# 4 0.0000 0.0000 0.0000 31.7675 0.0000 2.7461
# 5 9.7339 -5.2813 -5.3754 0.0000 24.5343 0.0000
# 6 0.0000 0.0000 0.0000 2.7461 0.0000 29.8355
#
#
#
# Elastic Compliance Matrix: (Units=1/GPa)
#
#
# Indices 1 2 3 4 5 6 
#
# 1 0.014597 -0.005984 -0.000032 0.000000 -0.007086 0.000000
# 2 -0.005984 0.014431 -0.007785 0.000000 0.003775 0.000000
# 3 -0.000032 -0.007785 0.019131 0.000000 0.002528 0.000000
# 4 0.000000 0.000000 0.000000 0.031731 0.000000 -0.002921
# 5 -0.007086 0.003775 0.002528 0.000000 0.044937 0.000000
# 6 0.000000 0.000000 0.000000 -0.002921 0.000000 0.033786
#
#
# Mechanical properties :
#
#
# Convention : Reuss Voigt Hill
#
# Bulk Modulus (GPa) = 48.64288 55.20155 51.92221
# Shear Modulus (GPa) = 25.89757 28.53244 27.21500
#
# Velocity S-wave (km/s) = 3.58586 3.76386 3.67593
# Velocity P-wave (km/s) = 6.42621 6.80418 6.61789
#
# Compressibility (1/GPa) = 0.02055799
#
# Stress axis : x y z
#
# Youngs Moduli (GPa) = 68.50713 69.29298 52.27090
#
# Poissons Ratio (x) = 0.41463 0.00167
# Poissons Ratio (y) = 0.40993 0.40694
# Poissons Ratio (z) = 0.00219 0.53946
#
# Static dielectric constant tensor:
#      x y z
#    x 3.647420 0.000000 0.016610 
#    y 0.000000 3.525800 0.000000 
#    z 0.016610 0.000000 3.683530 
# 
# 
# High freq. dielectric constant tensor:
#      x y z
#    x 1.789710 0.000000 0.000380 
#    y 0.000000 1.776910 0.000000 
#    z 0.000380 0.000000 1.792380 
# 
# From -- ./inp_files/49107.got.cif
#   From: 2010.06.25/outbox.cif.g09.slc.cpg/sg11_25_cif.got.tgz:49107.got - 2010.06.27 23:14:04.
