data_PCOD8074811
_publ_section_title
;
Structure prediction by ZEFSAII (Michael W. Deem and Ramdas Pophale) SiO2 
 PCOD8074811
Probable space group: P 21/M
;
_chemical_formula_sum "Si O2"
_cell_formula_units_Z 32
_cell_length_a 31.378082
_cell_length_b 8.916819
_cell_length_c 12.678208
_cell_angle_alpha 90.000000
_cell_angle_beta 27.532642
_cell_angle_gamma 90.000000
_cell_volume 1639.739204
_symmetry_space_group_name_H-M "P 21/M"
_symmetry_group_IT_number 11
_symmetry_cell_setting 'monoclinic'
loop_
_space_group_symop_operation_xyz
x,y,z
-x,1/2+y,-z
-x,-y,-z
x,1/2-y,z
loop_
_atom_site_type_symbol
_atom_site_label
_atom_site_fract_x
_atom_site_fract_y
_atom_site_fract_z
Si Si1 0.851231 0.924356 0.916237
Si Si2 0.782104 0.425331 0.867016
Si Si3 0.592106 0.920557 0.332555
Si Si4 0.878492 0.074831 0.435376
Si Si5 0.214604 0.572457 0.575425
Si Si6 0.351835 0.083790 0.559122
Si Si7 0.593620 0.424680 0.760381
Si Si8 0.066473 0.572321 0.070474
O O1 0.874486 0.750000 0.850009
O O2 0.851056 0.001121 0.801541
O O3 0.925733 0.998653 0.830461
O O4 0.753240 0.952693 0.184527
O O5 0.775173 0.250000 0.906507
O O6 0.821308 0.459224 0.665775
O O7 0.680607 0.494761 0.092785
O O8 0.595521 0.750000 0.283515
O O9 0.588817 0.924345 0.465657
O O10 0.500000 0.000000 0.500000
O O11 0.904100 0.250000 0.370205
O O12 0.818254 0.020150 0.467732
O O13 0.970609 0.977575 0.230272
O O14 0.215724 0.750000 0.580171
O O15 0.318335 0.511128 0.367655
O O16 0.146624 0.512110 0.816352
O O17 0.360785 0.250000 0.488842
O O18 0.390337 0.957687 0.397579
O O19 0.582757 0.250000 0.802836
O O20 0.500000 0.500000 0.000000
O O21 0.069580 0.750000 0.076113
#
# Coordination Sequence:
#
# PCOD8074811 Si02
#       8
#     4   4   4   4   4   4   4   4
#     4  10  20  36  60  85 114 151 192 242 293 347
#     4  10  21  37  58  84 117 156 197 241 297 354
#     4  10  21  37  59  86 116 152 197 243 294 353
#     4  10  22  40  59  83 118 159 195 237 297 356
#     4   9  20  39  60  83 116 154 194 241 293 346
#     4   9  19  36  56  80 110 146 188 238 290 341
#     4  11  22  37  58  86 118 152 192 240 292 350
#     4  11  21  36  61  90 115 149 198 245 293 353
#
# _framework density 19.515298000000001
#
# number of rings (size 3 to 8) (size 9 to 14) (size 15 to 20)
#    0.000    2.000    1.250    3.000    0.000    5.000 
#    0.000    4.375    0.000    0.000    0.000    0.000 
#    0.000    0.000    0.000    0.000    0.000    0.000 
#
# Total GULP energy -396851.284347 kJ/mol
# GULP energy per Si atom -12401.602636 kJ/mol
# Density = 1.947088 g / cm^3
# Si number density = 19.515298 Si / 1000 Ang^3
#
#
#
# Elastic Constant Matrix: (Units=GPa)
#
#
# Indices 1 2 3 4 5 6 
#
# 1 129.3127 48.4041 63.3552 0.0000 -4.8604 0.0000
# 2 48.4041 94.4636 47.2398 0.0000 0.0001 0.0000
# 3 63.3552 47.2398 90.1237 0.0000 -8.7483 0.0000
# 4 0.0000 0.0000 0.0000 31.5066 0.0000 -4.0298
# 5 -4.8604 0.0001 -8.7483 0.0000 32.7112 0.0000
# 6 0.0000 0.0000 0.0000 -4.0298 0.0000 32.8860
#
#
#
# Elastic Compliance Matrix: (Units=1/GPa)
#
#
# Indices 1 2 3 4 5 6 
#
# 1 0.012276 -0.002669 -0.007242 0.000000 -0.000113 0.000000
# 2 -0.002669 0.015064 -0.006220 0.000000 -0.002060 0.000000
# 3 -0.007242 -0.006220 0.019858 0.000000 0.004235 0.000000
# 4 0.000000 0.000000 0.000000 0.032245 0.000000 0.003951
# 5 -0.000113 -0.002060 0.004235 0.000000 0.031686 0.000000
# 6 0.000000 0.000000 0.000000 0.003951 0.000000 0.030892
#
#
# Mechanical properties :
#
#
# Convention : Reuss Voigt Hill
#
# Bulk Modulus (GPa) = 66.94774 70.21090 68.57932
# Shear Modulus (GPa) = 27.89219 29.74750 28.81984
#
# Velocity S-wave (km/s) = 3.78464 3.90849 3.84706
# Velocity P-wave (km/s) = 7.31285 7.51158 7.41288
#
# Compressibility (1/GPa) = 0.01493702
#
# Stress axis : x y z
#
# Youngs Moduli (GPa) = 81.45997 66.38287 50.35737
#
# Poissons Ratio (x) = 0.17716 0.36468
# Poissons Ratio (y) = 0.21740 0.31322
# Poissons Ratio (z) = 0.58992 0.41290
#
# Static dielectric constant tensor:
#      x y z
#    x 3.781510 0.000000 0.056660 
#    y 0.000000 3.522310 0.000000 
#    z 0.056660 0.000000 3.570980 
# 
# 
# High freq. dielectric constant tensor:
#      x y z
#    x 1.770730 0.000000 -0.002700 
#    y 0.000000 1.756670 0.000000 
#    z -0.002700 0.000000 1.755070 
# 
# From -- ./inp_files/45139.got.cif
#   From: 2010.06.25/outbox.cif.g09.slc.cpg/sg11_23_cif.got.tgz:45139.got - 2010.06.27 23:14:04.
