data_PCOD8074390
_publ_section_title
;
Structure prediction by ZEFSAII (Michael W. Deem and Ramdas Pophale) SiO2 
 PCOD8074390
Probable space group: P 21/M
;
_chemical_formula_sum "Si O2"
_cell_formula_units_Z 28
_cell_length_a 11.639733
_cell_length_b 8.808596
_cell_length_c 14.399319
_cell_angle_alpha 90.000000
_cell_angle_beta 110.312507
_cell_angle_gamma 90.000000
_cell_volume 1384.547932
_symmetry_space_group_name_H-M "P 21/M"
_symmetry_group_IT_number 11
_symmetry_cell_setting 'monoclinic'
loop_
_space_group_symop_operation_xyz
x,y,z
-x,1/2+y,-z
-x,-y,-z
x,1/2-y,z
loop_
_atom_site_type_symbol
_atom_site_label
_atom_site_fract_x
_atom_site_fract_y
_atom_site_fract_z
Si Si1 0.451813 0.070833 0.392079
Si Si2 0.116969 0.926181 0.486024
Si Si3 0.356066 0.926071 0.049191
Si Si4 0.806033 0.075556 0.694957
Si Si5 0.388662 0.575814 0.849007
Si Si6 0.337847 0.428908 0.655223
Si Si7 0.886409 0.073644 0.917689
O O1 0.472200 0.250000 0.400037
O O2 0.500000 0.000000 0.500000
O O3 0.310023 0.034369 0.337671
O O4 0.528720 0.996944 0.330154
O O5 0.119367 0.750000 0.512562
O O6 0.111572 0.951662 0.373422
O O7 0.239352 0.003087 0.557576
O O8 0.000000 0.000000 0.500000
O O9 0.385828 0.750000 0.079293
O O10 0.239968 0.987537 0.073721
O O11 0.470318 0.026190 0.111626
O O12 0.327970 0.949638 0.932327
O O13 0.759693 0.250000 0.685829
O O14 0.888448 0.037160 0.808182
O O15 0.382171 0.750000 0.816251
O O16 0.310232 0.476348 0.753764
O O17 0.336898 0.250000 0.643278
O O18 0.895656 0.250000 0.940656
O O19 0.000000 0.000000 0.000000
#
# Coordination Sequence:
#
# PCOD8074390 Si02
#       7
#     4   4   4   4   4   4   4
#     4  12  23  37  62  94 126 159 198 248 306 367
#     4  11  24  42  62  85 119 160 204 251 302 365
#     4   9  19  37  59  86 121 157 194 245 307 366
#     4  10  22  41  64  90 123 161 202 253 309 365
#     4  10  20  35  59  90 121 155 196 246 303 365
#     4  12  24  39  60  88 122 162 204 249 303 362
#     4  10  22  40  61  86 117 156 201 249 301 358
#
# _framework density 20.223208
#
# number of rings (size 3 to 8) (size 9 to 14) (size 15 to 20)
#    0.000    1.429    1.429    4.286    0.000    4.571 
#    0.000    2.857    0.000    0.000    0.000    0.000 
#    0.000    0.000    0.000    0.000    0.000    0.000 
#
# Total GULP energy -347317.180730 kJ/mol
# GULP energy per Si atom -12404.185026 kJ/mol
# Density = 2.017718 g / cm^3
# Si number density = 20.223208 Si / 1000 Ang^3
#
#
#
# Elastic Constant Matrix: (Units=GPa)
#
#
# Indices 1 2 3 4 5 6 
#
# 1 103.6579 44.5107 42.1896 0.0000 -12.3773 0.0000
# 2 44.5107 127.2777 52.2878 0.0000 -6.9627 0.0000
# 3 42.1896 52.2878 132.0496 0.0000 -13.4903 0.0000
# 4 0.0000 0.0000 0.0000 35.9126 0.0000 4.2258
# 5 -12.3773 -6.9627 -13.4903 0.0000 28.6934 0.0000
# 6 0.0000 0.0000 0.0000 4.2258 0.0000 33.4433
#
#
#
# Elastic Compliance Matrix: (Units=1/GPa)
#
#
# Indices 1 2 3 4 5 6 
#
# 1 0.012379 -0.003177 -0.002343 0.000000 0.003467 0.000000
# 2 -0.003177 0.010207 -0.003061 0.000000 -0.000333 0.000000
# 3 -0.002343 -0.003061 0.009826 0.000000 0.002867 0.000000
# 4 0.000000 0.000000 0.000000 0.028266 0.000000 -0.003572
# 5 0.003467 -0.000333 0.002867 0.000000 0.037614 0.000000
# 6 0.000000 0.000000 0.000000 -0.003572 0.000000 0.030353
#
#
# Mechanical properties :
#
#
# Convention : Reuss Voigt Hill
#
# Bulk Modulus (GPa) = 65.56796 71.21793 68.39294
# Shear Modulus (GPa) = 33.13697 34.54299 33.83998
#
# Velocity S-wave (km/s) = 4.05231 4.13738 4.09507
# Velocity P-wave (km/s) = 7.37478 7.62341 7.50013
#
# Compressibility (1/GPa) = 0.01525135
#
# Stress axis : x y z
#
# Youngs Moduli (GPa) = 80.78293 97.97200 101.76854
#
# Poissons Ratio (x) = 0.31125 0.23843
# Poissons Ratio (y) = 0.25664 0.31148
# Poissons Ratio (z) = 0.18926 0.29986
#
# Static dielectric constant tensor:
#      x y z
#    x 3.763220 0.000000 -0.232050 
#    y 0.000000 3.730620 0.000000 
#    z -0.232050 0.000000 3.903760 
# 
# 
# High freq. dielectric constant tensor:
#      x y z
#    x 1.780120 0.000000 -0.016380 
#    y 0.000000 1.793250 0.000000 
#    z -0.016380 0.000000 1.803490 
# 
# From -- ./inp_files/49467.got.cif
#   From: 2010.06.25/outbox.cif.g09.slc.cpg/sg11_25_cif.got.tgz:49467.got - 2010.06.27 23:14:04.
