data_PCOD8074964
_publ_section_title
;
Structure prediction by ZEFSAII (Michael W. Deem and Ramdas Pophale) SiO2 
 PCOD8074964
Probable space group: P 21/M
;
_chemical_formula_sum "Si O2"
_cell_formula_units_Z 26
_cell_length_a 7.804106
_cell_length_b 12.078887
_cell_length_c 13.573205
_cell_angle_alpha 90.000000
_cell_angle_beta 117.465233
_cell_angle_gamma 90.000000
_cell_volume 1135.268253
_symmetry_space_group_name_H-M "P 21/M"
_symmetry_group_IT_number 11
_symmetry_cell_setting 'monoclinic'
loop_
_space_group_symop_operation_xyz
x,y,z
-x,1/2+y,-z
-x,-y,-z
x,1/2-y,z
loop_
_atom_site_type_symbol
_atom_site_label
_atom_site_fract_x
_atom_site_fract_y
_atom_site_fract_z
Si Si1 0.396848 0.372889 0.269675
Si Si2 0.546393 0.250000 0.766916
Si Si3 0.347154 0.970226 0.097500
Si Si4 0.183576 0.250000 0.792552
Si Si5 0.763830 0.994223 0.139314
Si Si6 0.754293 0.250000 0.619216
Si Si7 0.078179 0.374433 0.348314
Si Si8 0.322635 0.965760 0.517642
O O1 0.452211 0.250000 0.247171
O O2 0.271398 0.438903 0.155502
O O3 0.265367 0.363040 0.330614
O O4 0.595662 0.441704 0.350071
O O5 0.645515 0.354062 0.845123
O O6 0.314561 0.250000 0.726692
O O7 0.586296 0.250000 0.659538
O O8 0.551794 0.023882 0.121032
O O9 0.208942 0.960727 0.965420
O O10 0.227904 0.360945 0.864944
O O11 0.957394 0.250000 0.724117
O O12 0.915736 0.053137 0.251170
O O13 0.753449 0.353294 0.547948
O O14 0.003721 0.250000 0.355784
O O15 0.151537 0.440997 0.466281
O O16 0.500000 0.000000 0.500000
#
# Coordination Sequence:
#
# PCOD8074964 Si02
#       8
#     4   2   4   2   4   2   4   4
#     4  10  21  39  59  90 124 155 206 257 300 371
#     4  10  22  40  60  93 128 159 210 260 303 380
#     4  10  23  40  61  87 121 165 205 253 317 369
#     4  10  22  40  63  93 125 157 218 263 301 376
#     4  10  22  41  62  84 122 165 203 258 315 368
#     4  12  20  40  71  88 119 176 202 249 328 364
#     4  10  21  37  60  90 123 155 199 255 308 368
#     4  10  20  36  63  88 121 160 208 247 307 376
#
# _framework density 22.902076999999998
#
# number of rings (size 3 to 8) (size 9 to 14) (size 15 to 20)
#    0.000    1.846    2.308    1.846    3.231    1.231 
#    1.385    0.769    6.769    0.000    0.000    0.000 
#    0.000    0.000    0.000    0.000    0.000    0.000 
#
# Total GULP energy -322160.244425 kJ/mol
# GULP energy per Si atom -12390.778632 kJ/mol
# Density = 2.284995 g / cm^3
# Si number density = 22.902077 Si / 1000 Ang^3
#
#
#
# Elastic Constant Matrix: (Units=GPa)
#
#
# Indices 1 2 3 4 5 6 
#
# 1 27.1559 14.1154 19.5003 0.0000 3.5896 0.0000
# 2 14.1154 150.5593 17.8467 0.0000 5.0718 0.0000
# 3 19.5003 17.8467 49.9553 0.0000 10.9434 0.0000
# 4 0.0000 0.0000 0.0000 6.4783 0.0000 9.2456
# 5 3.5896 5.0718 10.9434 0.0000 31.1145 0.0000
# 6 0.0000 0.0000 0.0000 9.2456 0.0000 22.2244
#
#
#
# Elastic Compliance Matrix: (Units=1/GPa)
#
#
# Indices 1 2 3 4 5 6 
#
# 1 0.052164 -0.002597 -0.019729 0.000000 0.001344 0.000000
# 2 -0.002597 0.007067 -0.001435 0.000000 -0.000348 0.000000
# 3 -0.019729 -0.001435 0.029993 0.000000 -0.008039 0.000000
# 4 0.000000 0.000000 0.000000 0.379929 0.000000 -0.158054
# 5 0.001344 -0.000348 -0.008039 0.000000 0.034868 0.000000
# 6 0.000000 0.000000 0.000000 -0.158054 0.000000 0.110748
#
#
# Mechanical properties :
#
#
# Convention : Reuss Voigt Hill
#
# Bulk Modulus (GPa) = 23.97979 36.73281 30.35630
# Shear Modulus (GPa) = 7.39435 23.71066 15.55251
#
# Velocity S-wave (km/s) = 1.79880 3.22111 2.60876
# Velocity P-wave (km/s) = 3.84806 5.46882 4.72840
#
# Compressibility (1/GPa) = 0.04170178
#
# Stress axis : x y z
#
# Youngs Moduli (GPa) = 19.17037 141.49915 33.34121
#
# Poissons Ratio (x) = 0.36750 0.65779
# Poissons Ratio (y) = 0.04979 0.04784
# Poissons Ratio (z) = 0.37821 0.20302
#
# Static dielectric constant tensor:
#      x y z
#    x 3.904470 0.000000 0.085550 
#    y 0.000000 4.488190 0.000000 
#    z 0.085550 0.000000 4.278470 
# 
# 
# High freq. dielectric constant tensor:
#      x y z
#    x 1.880390 0.000000 0.008460 
#    y 0.000000 1.922310 0.000000 
#    z 0.008460 0.000000 1.898680 
# 
# From -- ./inp_files/46905.got.cif
#   From: 2010.06.25/outbox.cif.g09.slc.cpg/sg11_24_cif.got.tgz:46905.got - 2010.06.27 23:14:04.
