data_PCOD8074402
_publ_section_title
;
Structure prediction by ZEFSAII (Michael W. Deem and Ramdas Pophale) SiO2 
 PCOD8074402
Probable space group: P 21/M
;
_chemical_formula_sum "Si O2"
_cell_formula_units_Z 32
_cell_length_a 17.560627
_cell_length_b 14.041536
_cell_length_c 12.585149
_cell_angle_alpha 90.000000
_cell_angle_beta 149.253594
_cell_angle_gamma 90.000000
_cell_volume 1586.489217
_symmetry_space_group_name_H-M "P 21/M"
_symmetry_group_IT_number 11
_symmetry_cell_setting 'monoclinic'
loop_
_space_group_symop_operation_xyz
x,y,z
-x,1/2+y,-z
-x,-y,-z
x,1/2-y,z
loop_
_atom_site_type_symbol
_atom_site_label
_atom_site_fract_x
_atom_site_fract_y
_atom_site_fract_z
Si Si1 0.677448 0.646090 0.106043
Si Si2 0.383703 0.932052 0.803278
Si Si3 0.272838 0.640375 0.274505
Si Si4 0.679908 0.509268 0.496836
Si Si5 0.941365 0.642915 0.565314
Si Si6 0.596932 0.359961 0.794776
Si Si7 0.056077 0.141241 0.187026
Si Si8 0.209884 0.553454 0.799889
O O1 0.723088 0.750000 0.111310
O O2 0.765806 0.631737 0.324549
O O3 0.732188 0.554507 0.102745
O O4 0.497683 0.652124 0.905092
O O5 0.258652 0.908036 0.741365
O O6 0.299629 0.973643 0.599549
O O7 0.500000 0.000000 0.000000
O O8 0.309513 0.750000 0.341718
O O9 0.343738 0.580496 0.454879
O O10 0.347084 0.607503 0.253682
O O11 0.095664 0.623848 0.058413
O O12 0.539423 0.577033 0.331635
O O13 0.820655 0.568878 0.708846
O O14 0.995846 0.750000 0.606683
O O15 0.968095 0.617661 0.718916
O O16 0.031501 0.567793 0.598971
O O17 0.549393 0.250000 0.736939
O O18 0.727126 0.375149 0.035721
O O19 0.111085 0.250000 0.238564
#
# Coordination Sequence:
#
# PCOD8074402 Si02
#       8
#     4   4   4   4   4   4   4   4
#     4  10  21  35  53  81 120 161 196 233 289 356
#     4  10  21  38  54  87 123 153 197 238 289 354
#     4  10  23  42  62  87 118 154 199 242 294 359
#     4  12  22  39  62  89 121 159 193 238 306 349
#     4  10  20  35  60  88 116 156 200 247 296 340
#     4  11  22  39  63  90 116 149 201 253 293 344
#     4  10  20  37  62  92 116 146 198 252 295 342
#     4  11  20  38  58  86 118 158 196 248 295 345
#
# _framework density 20.170323
#
# number of rings (size 3 to 8) (size 9 to 14) (size 15 to 20)
#    0.000    1.500    3.750    3.375    0.000    1.500 
#    0.000    0.000    0.000    1.500    0.000    0.000 
#    0.000    0.000    0.000    0.000    0.000    0.000 
#
# Total GULP energy -396607.528468 kJ/mol
# GULP energy per Si atom -12393.985265 kJ/mol
# Density = 2.012441 g / cm^3
# Si number density = 20.170323 Si / 1000 Ang^3
#
#
#
# Elastic Constant Matrix: (Units=GPa)
#
#
# Indices 1 2 3 4 5 6 
#
# 1 70.1331 29.9897 8.2805 0.0000 -11.1367 0.0000
# 2 29.9897 81.0731 21.1007 0.0000 -4.3715 0.0000
# 3 8.2805 21.1007 44.3929 0.0000 -11.3248 0.0000
# 4 0.0000 0.0000 0.0000 23.4254 0.0000 -1.1364
# 5 -11.1367 -4.3715 -11.3248 0.0000 35.7471 0.0000
# 6 0.0000 0.0000 0.0000 -1.1364 0.0000 29.0124
#
#
#
# Elastic Compliance Matrix: (Units=1/GPa)
#
#
# Indices 1 2 3 4 5 6 
#
# 1 0.017747 -0.006581 0.001113 0.000000 0.005077 0.000000
# 2 -0.006581 0.016522 -0.007217 0.000000 -0.002316 0.000000
# 3 0.001113 -0.007217 0.027864 0.000000 0.008292 0.000000
# 4 0.000000 0.000000 0.000000 0.042770 0.000000 0.001675
# 5 0.005077 -0.002316 0.008292 0.000000 0.031899 0.000000
# 6 0.000000 0.000000 0.000000 0.001675 0.000000 0.034534
#
#
# Mechanical properties :
#
#
# Convention : Reuss Voigt Hill
#
# Bulk Modulus (GPa) = 27.20039 34.92678 31.06358
# Shear Modulus (GPa) = 23.92793 26.71886 25.32340
#
# Velocity S-wave (km/s) = 3.44800 3.64354 3.54712
# Velocity P-wave (km/s) = 5.41906 5.92064 5.67540
#
# Compressibility (1/GPa) = 0.03676418
#
# Stress axis : x y z
#
# Youngs Moduli (GPa) = 56.34628 60.52454 35.88860
#
# Poissons Ratio (x) = 0.39830 -0.03993
# Poissons Ratio (y) = 0.37080 0.25899
# Poissons Ratio (z) = -0.06269 0.43678
#
# Static dielectric constant tensor:
#      x y z
#    x 3.775810 0.000000 0.320680 
#    y 0.000000 3.914430 0.000000 
#    z 0.320680 0.000000 3.783020 
# 
# 
# High freq. dielectric constant tensor:
#      x y z
#    x 1.767230 0.000000 0.011250 
#    y 0.000000 1.789840 0.000000 
#    z 0.011250 0.000000 1.789380 
# 
# From -- ./inp_files/41705.got.cif
#   From: 2010.06.25/outbox.cif.g09.slc.cpg/sg11_21_cif.got.tgz:41705.got - 2010.06.27 23:14:04.
