data_PCOD8074895
_publ_section_title
;
Structure prediction by ZEFSAII (Michael W. Deem and Ramdas Pophale) SiO2 
 PCOD8074895
Probable space group: P 21/M
;
_chemical_formula_sum "Si O2"
_cell_formula_units_Z 32
_cell_length_a 15.338743
_cell_length_b 8.667245
_cell_length_c 25.137449
_cell_angle_alpha 90.000000
_cell_angle_beta 27.957457
_cell_angle_gamma 90.000000
_cell_volume 1566.730562
_symmetry_space_group_name_H-M "P 21/M"
_symmetry_group_IT_number 11
_symmetry_cell_setting 'monoclinic'
loop_
_space_group_symop_operation_xyz
x,y,z
-x,1/2+y,-z
-x,-y,-z
x,1/2-y,z
loop_
_atom_site_type_symbol
_atom_site_label
_atom_site_fract_x
_atom_site_fract_y
_atom_site_fract_z
Si Si1 0.881344 0.433374 0.515985
Si Si2 0.481601 0.072979 0.759932
Si Si3 0.874407 0.928600 0.113222
Si Si4 0.034014 0.930994 0.826214
Si Si5 0.298372 0.431103 0.596582
Si Si6 0.630742 0.069295 0.885157
Si Si7 0.040081 0.432951 0.640849
Si Si8 0.628477 0.932087 0.068052
O O1 0.891284 0.250000 0.511358
O O2 0.674268 0.500480 0.636632
O O3 0.949096 0.490188 0.422326
O O4 0.000000 0.500000 0.500000
O O5 0.520104 0.250000 0.753569
O O6 0.338726 0.055872 0.789023
O O7 0.404548 0.993464 0.855704
O O8 0.928515 0.750000 0.094409
O O9 0.890171 0.033283 0.156321
O O10 0.000000 0.000000 0.000000
O O11 0.054067 0.750000 0.803387
O O12 0.153297 0.025170 0.720013
O O13 0.821166 0.992217 0.938256
O O14 0.500000 0.500000 0.500000
O O15 0.323893 0.250000 0.582296
O O16 0.210653 0.486110 0.587191
O O17 0.621013 0.250000 0.897911
O O18 0.546243 0.020129 0.873718
O O19 0.844397 0.012075 0.772935
O O20 0.500000 0.000000 0.000000
O O21 0.038642 0.250000 0.634044
O O22 0.653168 0.750000 0.060347
#
# Coordination Sequence:
#
# PCOD8074895 Si02
#       8
#     4   4   4   4   4   4   4   4
#     4  11  23  40  65  93 125 165 208 255 307 367
#     4   9  19  36  58  84 115 155 201 243 299 365
#     4  11  21  37  60  89 123 162 204 254 310 368
#     4  11  22  38  61  89 123 161 203 253 308 369
#     4  11  25  44  64  89 122 163 211 263 314 369
#     4  10  20  36  61  87 116 152 192 242 298 358
#     4  10  23  43  64  89 125 163 206 259 310 363
#     4   9  17  33  58  85 115 153 192 234 294 364
#
# _framework density 20.424700000000001
#
# number of rings (size 3 to 8) (size 9 to 14) (size 15 to 20)
#    0.000    1.750    1.250    3.000    1.750    3.500 
#    0.000    2.500    0.000    0.000    0.000    0.000 
#    0.000    0.000    0.000    0.000    0.000    0.000 
#
# Total GULP energy -396746.771173 kJ/mol
# GULP energy per Si atom -12398.336599 kJ/mol
# Density = 2.037821 g / cm^3
# Si number density = 20.424700 Si / 1000 Ang^3
#
#
#
# Elastic Constant Matrix: (Units=GPa)
#
#
# Indices 1 2 3 4 5 6 
#
# 1 132.8972 35.0318 63.6052 0.0000 -7.5149 0.0000
# 2 35.0318 34.1389 29.4259 0.0000 -7.1558 0.0000
# 3 63.6052 29.4259 146.5665 0.0000 -11.3145 0.0000
# 4 0.0000 0.0000 0.0000 30.8740 0.0000 4.7815
# 5 -7.5149 -7.1558 -11.3145 0.0000 41.9916 0.0000
# 6 0.0000 0.0000 0.0000 4.7815 0.0000 31.2852
#
#
#
# Elastic Compliance Matrix: (Units=1/GPa)
#
#
# Indices 1 2 3 4 5 6 
#
# 1 0.011402 -0.009052 -0.003158 0.000000 -0.000353 0.000000
# 2 -0.009052 0.043352 -0.004422 0.000000 0.004576 0.000000
# 3 -0.003158 -0.004422 0.009170 0.000000 0.001152 0.000000
# 4 0.000000 0.000000 0.000000 0.033175 0.000000 -0.005070
# 5 -0.000353 0.004576 0.001152 0.000000 0.024841 0.000000
# 6 0.000000 0.000000 0.000000 -0.005070 0.000000 0.032739
#
#
# Mechanical properties :
#
#
# Convention : Reuss Voigt Hill
#
# Bulk Modulus (GPa) = 32.61636 63.30313 47.95974
# Shear Modulus (GPa) = 25.23157 33.19950 29.21554
#
# Velocity S-wave (km/s) = 3.51856 4.03607 3.78617
# Velocity P-wave (km/s) = 5.70182 7.26502 6.53036
#
# Compressibility (1/GPa) = 0.03065946
#
# Stress axis : x y z
#
# Youngs Moduli (GPa) = 87.70123 23.06696 109.05049
#
# Poissons Ratio (x) = 0.20881 0.34439
# Poissons Ratio (y) = 0.79391 0.48222
# Poissons Ratio (z) = 0.27696 0.10200
#
# Static dielectric constant tensor:
#      x y z
#    x 3.958260 0.000000 -0.196390 
#    y 0.000000 3.503450 0.000000 
#    z -0.196390 0.000000 3.946700 
# 
# 
# High freq. dielectric constant tensor:
#      x y z
#    x 1.813550 0.000000 -0.004420 
#    y 0.000000 1.773820 0.000000 
#    z -0.004420 0.000000 1.812260 
# 
# From -- ./inp_files/68988.got.cif
#   From: 2010.06.25/outbox.cif.g09.slc.cpg/sg11_35_cif.got.tgz:68988.got - 2010.06.27 23:14:04.
