data_PCOD8074579
_publ_section_title
;
Structure prediction by ZEFSAII (Michael W. Deem and Ramdas Pophale) SiO2 
 PCOD8074579
Probable space group: P 21/M
;
_chemical_formula_sum "Si O2"
_cell_formula_units_Z 28
_cell_length_a 21.600667
_cell_length_b 9.002766
_cell_length_c 14.729136
_cell_angle_alpha 90.000000
_cell_angle_beta 31.160242
_cell_angle_gamma 90.000000
_cell_volume 1482.090778
_symmetry_space_group_name_H-M "P 21/M"
_symmetry_group_IT_number 11
_symmetry_cell_setting 'monoclinic'
loop_
_space_group_symop_operation_xyz
x,y,z
-x,1/2+y,-z
-x,-y,-z
x,1/2-y,z
loop_
_atom_site_type_symbol
_atom_site_label
_atom_site_fract_x
_atom_site_fract_y
_atom_site_fract_z
Si Si1 0.823234 0.920727 0.923317
Si Si2 0.883978 0.919171 0.047277
Si Si3 0.974653 0.574708 0.436988
Si Si4 0.365124 0.425849 0.351281
Si Si5 0.707786 0.574884 0.752405
Si Si6 0.842027 0.422187 0.279327
Si Si7 0.605603 0.574765 0.069698
O O1 0.854133 0.750000 0.860662
O O2 0.930858 0.023463 0.755950
O O3 0.809630 0.943722 0.048184
O O4 0.700700 0.968256 0.028005
O O5 0.871451 0.750000 0.097674
O O6 0.828300 0.027736 0.191998
O O7 0.023716 0.955214 0.854742
O O8 0.981839 0.750000 0.439966
O O9 0.000000 0.500000 0.500000
O O10 0.843944 0.520790 0.569393
O O11 0.368523 0.250000 0.357142
O O12 0.364622 0.476034 0.245940
O O13 0.245999 0.483667 0.548152
O O14 0.481696 0.496085 0.251757
O O15 0.706680 0.750000 0.763974
O O16 0.650511 0.508949 0.916452
O O17 0.808046 0.250000 0.329417
O O18 0.584091 0.750000 0.092721
#
# Coordination Sequence:
#
# PCOD8074579 Si02
#       7
#     4   4   4   4   4   4   4
#     4  10  20  36  57  81 112 146 178 219 273 324
#     4   9  19  36  60  87 111 138 175 219 269 327
#     4  11  20  33  53  79 111 144 179 219 267 319
#     4  11  22  36  55  79 107 142 187 229 266 314
#     4   9  19  35  54  77 108 145 181 223 272 316
#     4  10  20  36  58  84 112 140 174 220 274 323
#     4  10  20  37  55  74 109 148 182 221 269 321
#
# _framework density 18.892230000000001
#
# number of rings (size 3 to 8) (size 9 to 14) (size 15 to 20)
#    0.000    2.000    1.429    2.571    0.000    1.714 
#    0.000    3.571    0.000    0.000    0.000    0.000 
#    0.000    0.000    0.000    0.000    0.000    0.000 
#
# Total GULP energy -347256.274630 kJ/mol
# GULP energy per Si atom -12402.009808 kJ/mol
# Density = 1.884923 g / cm^3
# Si number density = 18.892230 Si / 1000 Ang^3
#
#
#
# Elastic Constant Matrix: (Units=GPa)
#
#
# Indices 1 2 3 4 5 6 
#
# 1 116.8351 32.8923 44.1645 0.0000 -1.5884 0.0000
# 2 32.8923 59.7074 30.2085 0.0000 -3.2429 0.0000
# 3 44.1645 30.2085 73.0698 0.0000 -4.1691 0.0000
# 4 0.0000 0.0000 0.0000 35.2648 0.0000 1.8584
# 5 -1.5884 -3.2429 -4.1691 0.0000 26.0881 0.0000
# 6 0.0000 0.0000 0.0000 1.8584 0.0000 24.3816
#
#
#
# Elastic Compliance Matrix: (Units=1/GPa)
#
#
# Indices 1 2 3 4 5 6 
#
# 1 0.011692 -0.003644 -0.005596 0.000000 -0.000635 0.000000
# 2 -0.003644 0.022354 -0.006957 0.000000 0.001445 0.000000
# 3 -0.005596 -0.006957 0.020058 0.000000 0.002000 0.000000
# 4 0.000000 0.000000 0.000000 0.028471 0.000000 -0.002170
# 5 -0.000635 0.001445 0.002000 0.000000 0.038792 0.000000
# 6 0.000000 0.000000 0.000000 -0.002170 0.000000 0.041180
#
#
# Mechanical properties :
#
#
# Convention : Reuss Voigt Hill
#
# Bulk Modulus (GPa) = 46.06204 51.57144 48.81674
# Shear Modulus (GPa) = 24.73066 26.63670 25.68368
#
# Velocity S-wave (km/s) = 3.62199 3.75898 3.69112
# Velocity P-wave (km/s) = 6.47504 6.79682 6.63788
#
# Compressibility (1/GPa) = 0.02170985
#
# Stress axis : x y z
#
# Youngs Moduli (GPa) = 85.52991 44.73489 49.85473
#
# Poissons Ratio (x) = 0.16301 0.27901
# Poissons Ratio (y) = 0.31167 0.34682
# Poissons Ratio (z) = 0.47867 0.31121
#
# Static dielectric constant tensor:
#      x y z
#    x 3.605030 0.000000 -0.045210 
#    y 0.000000 3.442010 0.000000 
#    z -0.045210 0.000000 3.532840 
# 
# 
# High freq. dielectric constant tensor:
#      x y z
#    x 1.739490 0.000000 -0.001860 
#    y 0.000000 1.724350 0.000000 
#    z -0.001860 0.000000 1.725540 
# 
# From -- ./inp_files/37424.got.cif
#   From: 2010.06.25/outbox.cif.g09.slc.cpg/sg11_19_cif.got.tgz:37424.got - 2010.06.27 23:14:04.
