data_PCOD8074680
_publ_section_title
;
Structure prediction by ZEFSAII (Michael W. Deem and Ramdas Pophale) SiO2 
 PCOD8074680
Probable space group: P 21/M
;
_chemical_formula_sum "Si O2"
_cell_formula_units_Z 28
_cell_length_a 9.513445
_cell_length_b 8.656931
_cell_length_c 26.695947
_cell_angle_alpha 90.000000
_cell_angle_beta 41.181364
_cell_angle_gamma 90.000000
_cell_volume 1447.659425
_symmetry_space_group_name_H-M "P 21/M"
_symmetry_group_IT_number 11
_symmetry_cell_setting 'monoclinic'
loop_
_space_group_symop_operation_xyz
x,y,z
-x,1/2+y,-z
-x,-y,-z
x,1/2-y,z
loop_
_atom_site_type_symbol
_atom_site_label
_atom_site_fract_x
_atom_site_fract_y
_atom_site_fract_z
Si Si1 0.861795 0.932999 0.714844
Si Si2 0.719322 0.419743 0.951930
Si Si3 0.937502 0.432251 0.070543
Si Si4 0.351362 0.931099 0.581863
Si Si5 0.474926 0.068450 0.762807
Si Si6 0.369234 0.927728 0.688017
Si Si7 0.941722 0.080747 0.789255
O O1 0.840125 0.750000 0.723207
O O2 0.106939 0.988045 0.639574
O O3 0.703847 0.998206 0.715395
O O4 0.790048 0.011165 0.786458
O O5 0.693396 0.250000 0.984662
O O6 0.810123 0.392055 0.873425
O O7 0.868915 0.528588 0.944677
O O8 0.500000 0.500000 0.000000
O O9 0.910330 0.250000 0.073227
O O10 0.716747 0.498180 0.152570
O O11 0.000000 0.500000 0.000000
O O12 0.352806 0.750000 0.575620
O O13 0.448578 0.975663 0.610726
O O14 0.500000 0.000000 0.500000
O O15 0.469965 0.250000 0.772969
O O16 0.459691 0.035273 0.707556
O O17 0.422188 0.750000 0.686374
O O18 0.116323 0.950317 0.753652
O O19 0.036396 0.250000 0.747942
#
# Coordination Sequence:
#
# PCOD8074680 Si02
#       7
#     4   4   4   4   4   4   4
#     4  10  22  39  60  88 121 159 201 244 296 356
#     4  11  24  40  59  85 118 153 199 250 302 357
#     4  12  26  44  64  86 120 162 203 253 309 362
#     4   9  20  38  63  93 124 156 196 243 294 356
#     4  12  24  40  62  90 122 158 204 252 302 361
#     4  10  20  37  61  88 118 157 199 240 293 354
#     4  10  20  36  58  84 114 150 197 248 293 351
#
# _framework density 19.341566
#
# number of rings (size 3 to 8) (size 9 to 14) (size 15 to 20)
#    0.000    1.429    1.429    5.143    2.000    5.143 
#    0.000    0.714    0.000    0.000    0.000    0.000 
#    0.000    0.000    0.000    0.000    0.000    0.000 
#
# Total GULP energy -347027.841416 kJ/mol
# GULP energy per Si atom -12393.851479 kJ/mol
# Density = 1.929754 g / cm^3
# Si number density = 19.341566 Si / 1000 Ang^3
#
#
#
# Elastic Constant Matrix: (Units=GPa)
#
#
# Indices 1 2 3 4 5 6 
#
# 1 125.7119 42.2618 59.0858 0.0000 4.5810 0.0000
# 2 42.2618 121.2464 49.5689 0.0000 7.0913 0.0000
# 3 59.0858 49.5689 95.6432 0.0000 15.4365 0.0000
# 4 0.0000 0.0000 0.0000 29.7766 0.0000 3.8513
# 5 4.5810 7.0913 15.4365 0.0000 27.0661 0.0000
# 6 0.0000 0.0000 0.0000 3.8513 0.0000 33.5642
#
#
#
# Elastic Compliance Matrix: (Units=1/GPa)
#
#
# Indices 1 2 3 4 5 6 
#
# 1 0.011516 -0.001381 -0.006765 0.000000 0.002271 0.000000
# 2 -0.001381 0.010634 -0.004677 0.000000 0.000115 0.000000
# 3 -0.006765 -0.004677 0.018367 0.000000 -0.008105 0.000000
# 4 0.000000 0.000000 0.000000 0.034089 0.000000 -0.003912
# 5 0.002271 0.000115 -0.008105 0.000000 0.041154 0.000000
# 6 0.000000 0.000000 0.000000 -0.003912 0.000000 0.030242
#
#
# Mechanical properties :
#
#
# Convention : Reuss Voigt Hill
#
# Bulk Modulus (GPa) = 67.24415 71.60382 69.42399
# Shear Modulus (GPa) = 28.31169 30.86039 29.58604
#
# Velocity S-wave (km/s) = 3.83008 3.99876 3.91533
# Velocity P-wave (km/s) = 7.37574 7.64338 7.51075
#
# Compressibility (1/GPa) = 0.01487118
#
# Stress axis : x y z
#
# Youngs Moduli (GPa) = 86.83718 94.03497 54.44679
#
# Poissons Ratio (x) = 0.12987 0.36833
# Poissons Ratio (y) = 0.11993 0.25463
# Poissons Ratio (z) = 0.58744 0.43978
#
# Static dielectric constant tensor:
#      x y z
#    x 3.943340 0.000000 0.205430 
#    y 0.000000 3.692900 0.000000 
#    z 0.205430 0.000000 3.174880 
# 
# 
# High freq. dielectric constant tensor:
#      x y z
#    x 1.761680 0.000000 0.011890 
#    y 0.000000 1.771710 0.000000 
#    z 0.011890 0.000000 1.734160 
# 
# From -- ./inp_files/70809.got.cif
#   From: 2010.06.25/outbox.cif.g09.slc.cpg/sg11_36_cif.got.tgz:70809.got - 2010.06.27 23:14:04.
