data_PCOD8074677
_publ_section_title
;
Structure prediction by ZEFSAII (Michael W. Deem and Ramdas Pophale) SiO2 
 PCOD8074677
Probable space group: P 21/M
;
_chemical_formula_sum "Si O2"
_cell_formula_units_Z 28
_cell_length_a 20.011574
_cell_length_b 8.927381
_cell_length_c 13.519769
_cell_angle_alpha 90.000000
_cell_angle_beta 144.793779
_cell_angle_gamma 90.000000
_cell_volume 1392.482509
_symmetry_space_group_name_H-M "P 21/M"
_symmetry_group_IT_number 11
_symmetry_cell_setting 'monoclinic'
loop_
_space_group_symop_operation_xyz
x,y,z
-x,1/2+y,-z
-x,-y,-z
x,1/2-y,z
loop_
_atom_site_type_symbol
_atom_site_label
_atom_site_fract_x
_atom_site_fract_y
_atom_site_fract_z
Si Si1 0.819379 0.426061 0.003056
Si Si2 0.724491 0.580975 0.076427
Si Si3 0.297480 0.926593 0.498302
Si Si4 0.514689 0.426179 0.123697
Si Si5 0.941370 0.426371 0.703726
Si Si6 0.091305 0.078915 0.541102
Si Si7 0.380343 0.572042 0.387458
O O1 0.837079 0.250000 0.019498
O O2 0.718625 0.480701 0.808210
O O3 0.787468 0.471529 0.076008
O O4 0.939708 0.500908 0.114505
O O5 0.733527 0.750000 0.045086
O O6 0.784449 0.571065 0.255965
O O7 0.592138 0.532889 0.933152
O O8 0.314454 0.750000 0.517067
O O9 0.371969 0.988728 0.681568
O O10 0.161848 0.967785 0.345038
O O11 0.344805 0.991648 0.452131
O O12 0.521136 0.250000 0.112870
O O13 0.500000 0.500000 0.000000
O O14 0.959702 0.250000 0.715968
O O15 0.900840 0.489031 0.550087
O O16 0.053364 0.250000 0.474465
O O17 0.000000 0.000000 0.500000
O O18 0.500000 0.500000 0.500000
O O19 0.393907 0.750000 0.403720
#
# Coordination Sequence:
#
# PCOD8074677 Si02
#       7
#     4   4   4   4   4   4   4
#     4  11  23  37  58  87 116 147 190 245 294 340
#     4  10  21  36  57  83 114 153 195 235 287 352
#     4   9  20  39  61  83 115 156 193 233 290 351
#     4  10  20  36  58  84 113 149 188 233 284 340
#     4  11  22  37  58  84 116 158 199 237 289 352
#     4  11  21  34  54  83 118 157 196 240 289 341
#     4  10  22  42  65  89 115 148 193 242 294 350
#
# _framework density 20.107973000000001
#
# number of rings (size 3 to 8) (size 9 to 14) (size 15 to 20)
#    0.000    1.714    1.429    3.000    0.000    4.000 
#    0.000    2.857    0.000    0.000    0.000    0.000 
#    0.000    0.000    0.000    0.000    0.000    0.000 
#
# Total GULP energy -347246.213598 kJ/mol
# GULP energy per Si atom -12401.650486 kJ/mol
# Density = 2.006221 g / cm^3
# Si number density = 20.107973 Si / 1000 Ang^3
#
#
#
# Elastic Constant Matrix: (Units=GPa)
#
#
# Indices 1 2 3 4 5 6 
#
# 1 135.4110 43.7360 69.7163 0.0000 6.6367 0.0000
# 2 43.7360 67.9675 45.4512 0.0000 11.9546 0.0000
# 3 69.7163 45.4512 156.3301 0.0000 12.2347 0.0000
# 4 0.0000 0.0000 0.0000 30.2328 0.0000 1.4309
# 5 6.6367 11.9546 12.2347 0.0000 35.6949 0.0000
# 6 0.0000 0.0000 0.0000 1.4309 0.0000 24.1551
#
#
#
# Elastic Compliance Matrix: (Units=1/GPa)
#
#
# Indices 1 2 3 4 5 6 
#
# 1 0.010628 -0.004673 -0.003441 0.000000 0.000768 0.000000
# 2 -0.004673 0.021022 -0.003643 0.000000 -0.004923 0.000000
# 3 -0.003441 -0.003643 0.009089 0.000000 -0.001255 0.000000
# 4 0.000000 0.000000 0.000000 0.033170 0.000000 -0.001965
# 5 0.000768 -0.004923 -0.001255 0.000000 0.029951 0.000000
# 6 0.000000 0.000000 0.000000 -0.001965 0.000000 0.041515
#
#
# Mechanical properties :
#
#
# Convention : Reuss Voigt Hill
#
# Bulk Modulus (GPa) = 58.05550 75.27953 66.66752
# Shear Modulus (GPa) = 28.63187 31.40358 30.01773
#
# Velocity S-wave (km/s) = 3.77756 3.95618 3.86790
# Velocity P-wave (km/s) = 6.92540 7.64117 7.29207
#
# Compressibility (1/GPa) = 0.01722490
#
# Stress axis : x y z
#
# Youngs Moduli (GPa) = 94.08809 47.56991 110.02730
#
# Poissons Ratio (x) = 0.22230 0.37863
# Poissons Ratio (y) = 0.43968 0.40078
# Poissons Ratio (z) = 0.32378 0.17328
#
# Static dielectric constant tensor:
#      x y z
#    x 3.672490 0.000000 -0.035210 
#    y 0.000000 3.447750 0.000000 
#    z -0.035210 0.000000 4.025430 
# 
# 
# High freq. dielectric constant tensor:
#      x y z
#    x 1.786180 0.000000 0.007850 
#    y 0.000000 1.769130 0.000000 
#    z 0.007850 0.000000 1.801380 
# 
# From -- ./inp_files/38470.got.cif
#   From: 2010.06.25/outbox.cif.g09.slc.cpg/sg11_20_cif.got.tgz:38470.got - 2010.06.27 23:14:04.
