data_PCOD8074334
_publ_section_title
;
Structure prediction by ZEFSAII (Michael W. Deem and Ramdas Pophale) SiO2 
 PCOD8074334
Probable space group: P 21/M
;
_chemical_formula_sum "Si O2"
_cell_formula_units_Z 24
_cell_length_a 15.001992
_cell_length_b 11.641460
_cell_length_c 14.819722
_cell_angle_alpha 90.000000
_cell_angle_beta 27.986209
_cell_angle_gamma 90.000000
_cell_volume 1214.532304
_symmetry_space_group_name_H-M "P 21/M"
_symmetry_group_IT_number 11
_symmetry_cell_setting 'monoclinic'
loop_
_space_group_symop_operation_xyz
x,y,z
-x,1/2+y,-z
-x,-y,-z
x,1/2-y,z
loop_
_atom_site_type_symbol
_atom_site_label
_atom_site_fract_x
_atom_site_fract_y
_atom_site_fract_z
Si Si1 0.080651 0.620962 0.195282
Si Si2 0.467798 0.122117 0.924107
Si Si3 0.191610 0.979797 0.275043
Si Si4 0.641926 0.964587 0.163891
Si Si5 0.876103 0.619090 0.112598
Si Si6 0.688355 0.879958 0.471617
O O1 0.096475 0.750000 0.145658
O O2 0.150720 0.616694 0.236208
O O3 0.862108 0.580630 0.381285
O O4 0.206201 0.549162 0.015061
O O5 0.515805 0.250000 0.908678
O O6 0.644379 0.048227 0.800733
O O7 0.454371 0.110246 0.828602
O O8 0.267583 0.089613 0.150858
O O9 0.000000 0.000000 0.500000
O O10 0.743888 0.880034 0.142539
O O11 0.486018 0.036911 0.356118
O O12 0.975087 0.750000 0.024686
O O13 0.746211 0.609456 0.316163
O O14 0.000000 0.500000 0.000000
O O15 0.627023 0.750000 0.550386
#
# Coordination Sequence:
#
# PCOD8074334 Si02
#       6
#     4   4   4   4   4   4
#     4  10  20  35  58  87 118 155 200 248 295 353
#     4  10  22  38  57  85 119 153 196 246 300 359
#     4  10  21  38  59  83 116 156 198 244 299 359
#     4  11  21  38  61  84 122 157 197 244 306 355
#     4  11  23  41  64  90 124 160 204 252 305 367
#     4  10  21  37  60  90 119 156 203 251 298 358
#
# _framework density 19.760691999999999
#
# number of rings (size 3 to 8) (size 9 to 14) (size 15 to 20)
#    0.000    1.667    1.667    3.000    0.000    2.000 
#    0.000    5.833    0.000    0.000    0.000    0.000 
#    0.000    0.000    0.000    0.000    0.000    0.000 
#
# Total GULP energy -297409.801704 kJ/mol
# GULP energy per Si atom -12392.075071 kJ/mol
# Density = 1.971572 g / cm^3
# Si number density = 19.760692 Si / 1000 Ang^3
#
#
#
# Elastic Constant Matrix: (Units=GPa)
#
#
# Indices 1 2 3 4 5 6 
#
# 1 126.7931 21.0284 19.1681 0.0000 4.0279 0.0000
# 2 21.0284 101.1596 43.2026 0.0000 0.8908 0.0000
# 3 19.1681 43.2026 101.5001 0.0000 3.4105 0.0000
# 4 0.0000 0.0000 0.0000 22.6148 0.0000 -5.2080
# 5 4.0279 0.8908 3.4105 0.0000 25.3096 0.0000
# 6 0.0000 0.0000 0.0000 -5.2080 0.0000 26.0170
#
#
#
# Elastic Compliance Matrix: (Units=1/GPa)
#
#
# Indices 1 2 3 4 5 6 
#
# 1 0.008285 -0.001296 -0.000975 0.000000 -0.001142 0.000000
# 2 -0.001296 0.012286 -0.005000 0.000000 0.000448 0.000000
# 3 -0.000975 -0.005000 0.012209 0.000000 -0.001314 0.000000
# 4 0.000000 0.000000 0.000000 0.046356 0.000000 0.009279
# 5 -0.001142 0.000448 -0.001314 0.000000 0.039854 0.000000
# 6 0.000000 0.000000 0.000000 0.009279 0.000000 0.040294
#
#
# Mechanical properties :
#
#
# Convention : Reuss Voigt Hill
#
# Bulk Modulus (GPa) = 54.82715 55.13902 54.98309
# Shear Modulus (GPa) = 27.79257 31.19184 29.49221
#
# Velocity S-wave (km/s) = 3.75435 3.97732 3.86744
# Velocity P-wave (km/s) = 6.82637 7.00400 6.91575
#
# Compressibility (1/GPa) = 0.01823914
#
# Stress axis : x y z
#
# Youngs Moduli (GPa) = 120.69392 81.39282 81.90987
#
# Poissons Ratio (x) = 0.10548 0.07984
# Poissons Ratio (y) = 0.15642 0.40953
# Poissons Ratio (z) = 0.11764 0.40694
#
# Static dielectric constant tensor:
#      x y z
#    x 4.036240 0.000000 0.016890 
#    y 0.000000 3.695780 0.000000 
#    z 0.016890 0.000000 3.477320 
# 
# 
# High freq. dielectric constant tensor:
#      x y z
#    x 1.793370 0.000000 0.003830 
#    y 0.000000 1.765350 0.000000 
#    z 0.003830 0.000000 1.760150 
# 
# From -- ./inp_files/52200.got.cif
#   From: 2010.06.25/outbox.cif.g09.slc.cpg/sg11_27_cif.got.tgz:52200.got - 2010.06.27 23:14:04.
