data_PCOD8074734
_publ_section_title
;
Structure prediction by ZEFSAII (Michael W. Deem and Ramdas Pophale) SiO2 
 PCOD8074734
Probable space group: P 21/M
;
_chemical_formula_sum "Si O2"
_cell_formula_units_Z 32
_cell_length_a 16.740449
_cell_length_b 23.047076
_cell_length_c 11.786636
_cell_angle_alpha 90.000000
_cell_angle_beta 158.265739
_cell_angle_gamma 90.000000
_cell_volume 1683.950015
_symmetry_space_group_name_H-M "P 21/M"
_symmetry_group_IT_number 11
_symmetry_cell_setting 'monoclinic'
loop_
_space_group_symop_operation_xyz
x,y,z
-x,1/2+y,-z
-x,-y,-z
x,1/2-y,z
loop_
_atom_site_type_symbol
_atom_site_label
_atom_site_fract_x
_atom_site_fract_y
_atom_site_fract_z
Si Si1 0.924593 0.317265 0.729317
Si Si2 0.338676 0.102008 0.668544
Si Si3 0.947228 0.990185 0.609588
Si Si4 0.252599 0.000425 0.213225
Si Si5 0.817207 0.084432 0.258527
Si Si6 0.960831 0.594909 0.923287
Si Si7 0.542051 0.683116 0.969120
Si Si8 0.910839 0.815894 0.288908
O O1 0.915444 0.250000 0.755058
O O2 0.698809 0.337535 0.376166
O O3 0.100054 0.328111 0.861002
O O4 0.976154 0.354887 0.906881
O O5 0.263345 0.039377 0.614902
O O6 0.161085 0.124856 0.343968
O O7 0.564562 0.091884 0.904112
O O8 0.357623 0.147259 0.795671
O O9 0.080686 0.940977 0.720181
O O10 0.866273 0.042522 0.427497
O O11 0.101429 0.017279 0.908077
O O12 0.212446 0.049867 0.253611
O O13 0.500000 0.000000 0.500000
O O14 0.177724 0.938309 0.166978
O O15 0.913449 0.147024 0.412320
O O16 0.548318 0.750000 0.014017
O O17 0.675888 0.671660 0.030548
O O18 0.985421 0.750000 0.407866
#
# Coordination Sequence:
#
# PCOD8074734 Si02
#       8
#     4   4   4   4   4   4   4   4
#     4  10  21  39  60  85 115 152 195 240 286 345
#     4  11  21  37  56  84 118 145 189 238 284 345
#     4  10  22  35  53  84 115 150 190 232 288 337
#     4  10  21  40  58  80 119 160 194 234 292 349
#     4  11  20  34  56  84 114 147 188 236 284 340
#     4  10  23  38  58  87 117 154 196 237 289 350
#     4  10  21  37  60  85 113 150 191 238 293 340
#     4  10  20  36  59  84 111 147 194 241 284 341
#
# _framework density 19.002939999999999
#
# number of rings (size 3 to 8) (size 9 to 14) (size 15 to 20)
#    0.000    1.750    2.500    1.875    0.000    2.500 
#    2.250    0.000    0.000    0.000    0.000    0.000 
#    0.000    0.000    0.000    0.000    0.000    0.000 
#
# Total GULP energy -396845.044882 kJ/mol
# GULP energy per Si atom -12401.407653 kJ/mol
# Density = 1.895969 g / cm^3
# Si number density = 19.002940 Si / 1000 Ang^3
#
#
#
# Elastic Constant Matrix: (Units=GPa)
#
#
# Indices 1 2 3 4 5 6 
#
# 1 90.9525 35.9322 44.9051 0.0000 -5.8107 0.0000
# 2 35.9322 71.6802 40.0127 0.0000 -7.2663 0.0000
# 3 44.9051 40.0127 83.8276 0.0000 -4.1219 0.0000
# 4 0.0000 0.0000 0.0000 28.6686 0.0000 -6.7439
# 5 -5.8107 -7.2663 -4.1219 0.0000 37.7098 0.0000
# 6 0.0000 0.0000 0.0000 -6.7439 0.0000 31.2996
#
#
#
# Elastic Compliance Matrix: (Units=1/GPa)
#
#
# Indices 1 2 3 4 5 6 
#
# 1 0.015930 -0.004299 -0.006436 0.000000 0.000923 0.000000
# 2 -0.004299 0.020453 -0.007338 0.000000 0.002477 0.000000
# 3 -0.006436 -0.007338 0.018862 0.000000 -0.000344 0.000000
# 4 0.000000 0.000000 0.000000 0.036744 0.000000 0.007917
# 5 0.000923 0.002477 -0.000344 0.000000 0.027100 0.000000
# 6 0.000000 0.000000 0.000000 0.007917 0.000000 0.033655
#
#
# Mechanical properties :
#
#
# Convention : Reuss Voigt Hill
#
# Bulk Modulus (GPa) = 52.35772 54.24003 53.29888
# Shear Modulus (GPa) = 25.60735 27.90963 26.75849
#
# Velocity S-wave (km/s) = 3.67488 3.83652 3.75657
# Velocity P-wave (km/s) = 6.75415 6.94479 6.85013
#
# Compressibility (1/GPa) = 0.01909938
#
# Stress axis : x y z
#
# Youngs Moduli (GPa) = 62.77604 48.89215 53.01538
#
# Poissons Ratio (x) = 0.21020 0.34120
# Poissons Ratio (y) = 0.26989 0.38902
# Poissons Ratio (z) = 0.40401 0.35877
#
# Static dielectric constant tensor:
#      x y z
#    x 3.781070 0.000000 0.110920 
#    y 0.000000 3.405930 0.000000 
#    z 0.110920 0.000000 3.346480 
# 
# 
# High freq. dielectric constant tensor:
#      x y z
#    x 1.756500 0.000000 0.006110 
#    y 0.000000 1.734240 0.000000 
#    z 0.006110 0.000000 1.727550 
# 
# From -- ./inp_files/42036.got.cif
#   From: 2010.06.25/outbox.cif.g09.slc.cpg/sg11_22_cif.got.tgz:42036.got - 2010.06.27 23:14:04.
