data_PCOD8074567
_publ_section_title
;
Structure prediction by ZEFSAII (Michael W. Deem and Ramdas Pophale) SiO2 
 PCOD8074567
Probable space group: P 21/M
;
_chemical_formula_sum "Si O2"
_cell_formula_units_Z 20
_cell_length_a 7.085754
_cell_length_b 18.182497
_cell_length_c 8.965570
_cell_angle_alpha 90.000000
_cell_angle_beta 49.305718
_cell_angle_gamma 90.000000
_cell_volume 875.791939
_symmetry_space_group_name_H-M "P 21/M"
_symmetry_group_IT_number 11
_symmetry_cell_setting 'monoclinic'
loop_
_space_group_symop_operation_xyz
x,y,z
-x,1/2+y,-z
-x,-y,-z
x,1/2-y,z
loop_
_atom_site_type_symbol
_atom_site_label
_atom_site_fract_x
_atom_site_fract_y
_atom_site_fract_z
Si Si1 0.152262 0.442391 0.083895
Si Si2 0.483595 0.052536 0.185572
Si Si3 0.795978 0.833890 0.517957
Si Si4 0.714958 0.665987 0.226968
Si Si5 0.785104 0.420709 0.523131
O O1 0.392953 0.425322 0.065806
O O2 0.897411 0.449409 0.307208
O O3 0.232676 0.519632 0.959223
O O4 0.126521 0.376371 0.979517
O O5 0.460890 0.123351 0.305240
O O6 0.285494 0.991673 0.344940
O O7 0.763187 0.750000 0.585995
O O8 0.857297 0.838886 0.311262
O O9 0.018575 0.870822 0.492449
O O10 0.683209 0.750000 0.191480
O O11 0.448138 0.629990 0.390632
#
# Coordination Sequence:
#
# PCOD8074567 Si02
#       5
#     4   4   4   4   4
#     4   9  18  34  58  81 108 143 182 229 273 322
#     4   9  19  37  58  85 112 142 188 231 273 333
#     4  10  20  36  57  80 113 150 182 226 281 331
#     4  10  22  37  54  83 115 145 188 231 271 330
#     4  10  20  39  62  80 110 151 185 227 281 328
#
# _framework density 22.836476000000001
#
# number of rings (size 3 to 8) (size 9 to 14) (size 15 to 20)
#    0.000    2.400    0.000    3.000    0.000    7.200 
#    0.000   17.000    0.000   15.600    0.000    0.000 
#    0.000    0.000    0.000    0.000    0.000    0.000 
#
# Total GULP energy -247982.870348 kJ/mol
# GULP energy per Si atom -12399.143517 kJ/mol
# Density = 2.278450 g / cm^3
# Si number density = 22.836476 Si / 1000 Ang^3
#
#
#
# Elastic Constant Matrix: (Units=GPa)
#
#
# Indices 1 2 3 4 5 6 
#
# 1 22.9221 26.6781 22.0766 0.0000 -2.7249 0.0000
# 2 26.6781 154.3351 60.1359 0.0000 14.5403 0.0000
# 3 22.0766 60.1359 142.6853 0.0000 2.8046 0.0000
# 4 0.0000 0.0000 0.0000 34.1966 0.0000 10.2382
# 5 -2.7249 14.5403 2.8046 0.0000 29.9423 0.0000
# 6 0.0000 0.0000 0.0000 10.2382 0.0000 24.9118
#
#
#
# Elastic Compliance Matrix: (Units=1/GPa)
#
#
# Indices 1 2 3 4 5 6 
#
# 1 0.061335 -0.009366 -0.005752 0.000000 0.010669 0.000000
# 2 -0.009366 0.009559 -0.002476 0.000000 -0.005262 0.000000
# 3 -0.005752 -0.002476 0.008945 0.000000 -0.000159 0.000000
# 4 0.000000 0.000000 0.000000 0.033346 0.000000 -0.013704
# 5 0.010669 -0.005262 -0.000159 0.000000 0.036939 0.000000
# 6 0.000000 0.000000 0.000000 -0.013704 0.000000 0.045774
#
#
# Mechanical properties :
#
#
# Convention : Reuss Voigt Hill
#
# Bulk Modulus (GPa) = 22.39616 59.74708 41.07162
# Shear Modulus (GPa) = 20.32763 31.88024 26.10394
#
# Velocity S-wave (km/s) = 2.98676 3.74039 3.38462
# Velocity P-wave (km/s) = 4.66077 6.69879 5.77047
#
# Compressibility (1/GPa) = 0.04465052
#
# Stress axis : x y z
#
# Youngs Moduli (GPa) = 16.30380 104.61324 111.79256
#
# Poissons Ratio (x) = 0.97982 0.64306
# Poissons Ratio (y) = 0.15270 0.27681
# Poissons Ratio (z) = 0.09378 0.25904
#
# Static dielectric constant tensor:
#      x y z
#    x 3.785350 0.000000 0.107880 
#    y 0.000000 4.287090 0.000000 
#    z 0.107880 0.000000 4.371210 
# 
# 
# High freq. dielectric constant tensor:
#      x y z
#    x 1.889040 0.000000 0.013430 
#    y 0.000000 1.898480 0.000000 
#    z 0.013430 0.000000 1.912290 
# 
# From -- ./inp_files/13419.got.cif
#   From: 2010.06.25/outbox.cif.g09.slc.cpg/sg11_7_cif.got.tgz:13419.got - 2010.06.27 23:14:04.
