data_PCOD8074211
_publ_section_title
;
Structure prediction by ZEFSAII (Michael W. Deem and Ramdas Pophale) SiO2 
 PCOD8074211
Probable space group: P 21/M
;
_chemical_formula_sum "Si O2"
_cell_formula_units_Z 28
_cell_length_a 25.122064
_cell_length_b 8.807057
_cell_length_c 9.030876
_cell_angle_alpha 90.000000
_cell_angle_beta 135.397944
_cell_angle_gamma 90.000000
_cell_volume 1403.019139
_symmetry_space_group_name_H-M "P 21/M"
_symmetry_group_IT_number 11
_symmetry_cell_setting 'monoclinic'
loop_
_space_group_symop_operation_xyz
x,y,z
-x,1/2+y,-z
-x,-y,-z
x,1/2-y,z
loop_
_atom_site_type_symbol
_atom_site_label
_atom_site_fract_x
_atom_site_fract_y
_atom_site_fract_z
Si Si1 0.091807 0.573707 0.551376
Si Si2 0.630717 0.571252 0.921714
Si Si3 0.652132 0.929822 0.630339
Si Si4 0.515423 0.070332 0.188980
Si Si5 0.210011 0.928697 0.252104
Si Si6 0.767739 0.427825 0.368045
Si Si7 0.920945 0.925692 0.165428
O O1 0.098999 0.750000 0.611236
O O2 0.154233 0.524062 0.555982
O O3 0.104812 0.472420 0.721359
O O4 0.009822 0.540747 0.317549
O O5 0.638818 0.750000 0.941147
O O6 0.636056 0.511020 0.764545
O O7 0.550405 0.518251 0.828820
O O8 0.697226 0.506648 0.152773
O O9 0.643384 0.750000 0.600224
O O10 0.594845 0.009388 0.404837
O O11 0.736333 0.980636 0.754230
O O12 0.519839 0.250000 0.181808
O O13 0.500000 0.000000 0.000000
O O14 0.221337 0.750000 0.253455
O O15 0.228103 0.980903 0.454305
O O16 0.123917 0.974805 0.043820
O O17 0.754848 0.250000 0.330608
O O18 0.901408 0.750000 0.103363
#
# Coordination Sequence:
#
# PCOD8074211 Si02
#       7
#     4   4   4   4   4   4   4
#     4   9  19  37  58  81 111 147 187 232 281 333
#     4  10  23  40  59  84 114 147 186 231 278 330
#     4  11  23  40  61  86 114 147 189 233 278 331
#     4  11  23  40  61  87 118 151 186 228 279 331
#     4  11  23  38  56  82 115 150 188 231 281 334
#     4  10  22  38  57  81 111 148 189 231 278 333
#     4  10  20  35  57  84 112 145 187 233 281 334
#
# _framework density 19.956963999999999
#
# number of rings (size 3 to 8) (size 9 to 14) (size 15 to 20)
#    0.000    1.714    0.000    3.857    0.000    9.714 
#    0.000    0.000    0.000    0.000    0.000    0.000 
#    0.000    0.000    0.000    0.000    0.000    0.000 
#
# Total GULP energy -347362.254048 kJ/mol
# GULP energy per Si atom -12405.794787 kJ/mol
# Density = 1.991154 g / cm^3
# Si number density = 19.956964 Si / 1000 Ang^3
#
#
#
# Elastic Constant Matrix: (Units=GPa)
#
#
# Indices 1 2 3 4 5 6 
#
# 1 -47.6534 76.0987 -10.5093 0.0000 23.5167 0.0000
# 2 76.0987 23.3145 39.1040 0.0000 -11.8335 0.0000
# 3 -10.5093 39.1040 114.5876 0.0000 2.8899 0.0000
# 4 0.0000 0.0000 0.0000 41.3361 0.0000 2.0836
# 5 23.5167 -11.8335 2.8899 0.0000 29.1649 0.0000
# 6 0.0000 0.0000 0.0000 2.0836 0.0000 29.9971
#
#
#
# Elastic Compliance Matrix: (Units=1/GPa)
#
#
# Indices 1 2 3 4 5 6 
#
# 1 -0.000513 0.010704 -0.003829 0.000000 0.005136 0.000000
# 2 0.010704 0.008079 -0.001645 0.000000 -0.005190 0.000000
# 3 -0.003829 -0.001645 0.008898 0.000000 0.001539 0.000000
# 4 0.000000 0.000000 0.000000 0.024277 0.000000 -0.001686
# 5 0.005136 -0.005190 0.001539 0.000000 0.027888 0.000000
# 6 0.000000 0.000000 0.000000 -0.001686 0.000000 0.033454
#
#
# Mechanical properties :
#
#
# Convention : Reuss Voigt Hill
#
# Bulk Modulus (GPa) = 37.14142 33.29284 35.21713
# Shear Modulus (GPa) = 49.70246 19.13664 34.41955
#
# Velocity S-wave (km/s) = 4.99589 3.09996 4.15744
# Velocity P-wave (km/s) = 7.20622 5.43429 6.38205
#
# Compressibility (1/GPa) = 0.02692412
#
# Stress axis : x y z
#
# Youngs Moduli (GPa) = -1949.59916 123.77316 112.38271
#
# Poissons Ratio (x) = -1.32482 0.43034
# Poissons Ratio (y) = 20.86781 0.18482
# Poissons Ratio (z) = -7.46555 0.20355
#
# Static dielectric constant tensor:
#      x y z
#    x 3.886240 0.000000 -0.010520 
#    y 0.000000 4.278640 0.000000 
#    z -0.010520 0.000000 3.671290 
# 
# 
# High freq. dielectric constant tensor:
#      x y z
#    x 1.787130 0.000000 0.004920 
#    y 0.000000 1.778900 0.000000 
#    z 0.004920 0.000000 1.791190 
# 
# From -- ./inp_files/28623.got.cif
#   From: 2010.06.25/outbox.cif.g09.slc.cpg/sg11_15_cif.got.tgz:28623.got - 2010.06.27 23:14:04.
