data_PCOD8074537
_publ_section_title
;
Structure prediction by ZEFSAII (Michael W. Deem and Ramdas Pophale) SiO2 
 PCOD8074537
Probable space group: P 21/M
;
_chemical_formula_sum "Si O2"
_cell_formula_units_Z 28
_cell_length_a 28.773448
_cell_length_b 8.343310
_cell_length_c 8.934686
_cell_angle_alpha 90.000000
_cell_angle_beta 38.907952
_cell_angle_gamma 90.000000
_cell_volume 1347.157480
_symmetry_space_group_name_H-M "P 21/M"
_symmetry_group_IT_number 11
_symmetry_cell_setting 'monoclinic'
loop_
_space_group_symop_operation_xyz
x,y,z
-x,1/2+y,-z
-x,-y,-z
x,1/2-y,z
loop_
_atom_site_type_symbol
_atom_site_label
_atom_site_fract_x
_atom_site_fract_y
_atom_site_fract_z
Si Si1 0.859578 0.565974 0.499290
Si Si2 0.281872 0.939957 0.629456
Si Si3 0.572855 0.440432 0.897947
Si Si4 0.133598 0.935854 0.841037
Si Si5 0.571886 0.060836 0.237215
Si Si6 0.278964 0.940293 0.977428
Si Si7 0.992807 0.435783 0.351708
O O1 0.860032 0.750000 0.447139
O O2 0.864619 0.454351 0.341467
O O3 0.785430 0.528501 0.773792
O O4 0.929059 0.534964 0.430922
O O5 0.286014 0.750000 0.615176
O O6 0.355502 0.010771 0.367399
O O7 0.210398 0.999939 0.717724
O O8 0.277120 0.000716 0.811328
O O9 0.574436 0.250000 0.893276
O O10 0.500000 0.500000 0.000000
O O11 0.574083 0.508395 0.063589
O O12 0.120278 0.750000 0.914623
O O13 0.068981 0.042061 0.072639
O O14 0.570009 0.250000 0.237960
O O15 0.500000 0.000000 0.500000
O O16 0.643914 0.001588 0.145431
O O17 0.267933 0.750000 0.017833
O O18 0.970640 0.250000 0.409673
O O19 0.000000 0.500000 0.500000
#
# Coordination Sequence:
#
# PCOD8074537 Si02
#       7
#     4   4   4   4   4   4   4
#     4  12  25  41  61  89 122 159 200 247 299 357
#     4   9  19  36  61  86 112 147 192 239 292 352
#     4  10  20  36  56  83 114 151 194 239 290 350
#     4  11  22  40  64  90 120 158 200 247 299 357
#     4  10  21  36  58  85 117 154 197 245 300 361
#     4  10  20  38  62  87 114 152 197 247 302 360
#     4  12  25  43  65  92 124 159 199 246 298 357
#
# _framework density 20.784502
#
# number of rings (size 3 to 8) (size 9 to 14) (size 15 to 20)
#    0.000    1.429    0.000    6.000    0.000    5.714 
#    0.000    4.286    0.000    0.000    0.000    0.000 
#    0.000    0.000    0.000    0.000    0.000    0.000 
#
# Total GULP energy -347360.242553 kJ/mol
# GULP energy per Si atom -12405.722948 kJ/mol
# Density = 2.073720 g / cm^3
# Si number density = 20.784502 Si / 1000 Ang^3
#
#
#
# Elastic Constant Matrix: (Units=GPa)
#
#
# Indices 1 2 3 4 5 6 
#
# 1 173.2627 11.0719 70.0848 0.0000 -0.4764 0.0000
# 2 11.0719 44.8618 15.4157 0.0000 -1.6170 0.0000
# 3 70.0848 15.4157 165.7262 0.0000 -2.3898 0.0000
# 4 0.0000 0.0000 0.0000 35.9229 0.0000 -2.1229
# 5 -0.4764 -1.6170 -2.3898 0.0000 48.6944 0.0000
# 6 0.0000 0.0000 0.0000 -2.1229 0.0000 27.5697
#
#
#
# Elastic Compliance Matrix: (Units=1/GPa)
#
#
# Indices 1 2 3 4 5 6 
#
# 1 0.006986 -0.000736 -0.002887 0.000000 -0.000098 0.000000
# 2 -0.000736 0.023125 -0.001830 0.000000 0.000671 0.000000
# 3 -0.002887 -0.001830 0.007429 0.000000 0.000276 0.000000
# 4 0.000000 0.000000 0.000000 0.027965 0.000000 0.002153
# 5 -0.000098 0.000671 0.000276 0.000000 0.020571 0.000000
# 6 0.000000 0.000000 0.000000 0.002153 0.000000 0.036437
#
#
# Mechanical properties :
#
#
# Convention : Reuss Voigt Hill
#
# Bulk Modulus (GPa) = 37.54559 64.11061 50.82810
# Shear Modulus (GPa) = 35.13726 41.58929 38.36328
#
# Velocity S-wave (km/s) = 4.11609 4.47808 4.30090
# Velocity P-wave (km/s) = 6.37911 7.59276 7.01224
#
# Compressibility (1/GPa) = 0.02663429
#
# Stress axis : x y z
#
# Youngs Moduli (GPa) = 143.13733 43.24259 134.60074
#
# Poissons Ratio (x) = 0.03181 0.38865
# Poissons Ratio (y) = 0.10528 0.24637
# Poissons Ratio (z) = 0.41330 0.07915
#
# Static dielectric constant tensor:
#      x y z
#    x 3.944930 0.000000 -0.035750 
#    y 0.000000 3.395060 0.000000 
#    z -0.035750 0.000000 3.942330 
# 
# 
# High freq. dielectric constant tensor:
#      x y z
#    x 1.833680 0.000000 0.000100 
#    y 0.000000 1.792740 0.000000 
#    z 0.000100 0.000000 1.832560 
# 
# From -- ./inp_files/28351.got.cif
#   From: 2010.06.25/outbox.cif.g09.slc.cpg/sg11_15_cif.got.tgz:28351.got - 2010.06.27 23:14:04.
