data_PCOD8074939
_publ_section_title
;
Structure prediction by ZEFSAII (Michael W. Deem and Ramdas Pophale) SiO2 
 PCOD8074939
Probable space group: P 21/M
;
_chemical_formula_sum "Si O2"
_cell_formula_units_Z 24
_cell_length_a 14.575345
_cell_length_b 13.856459
_cell_length_c 11.167843
_cell_angle_alpha 90.000000
_cell_angle_beta 31.515542
_cell_angle_gamma 90.000000
_cell_volume 1179.010547
_symmetry_space_group_name_H-M "P 21/M"
_symmetry_group_IT_number 11
_symmetry_cell_setting 'monoclinic'
loop_
_space_group_symop_operation_xyz
x,y,z
-x,1/2+y,-z
-x,-y,-z
x,1/2-y,z
loop_
_atom_site_type_symbol
_atom_site_label
_atom_site_fract_x
_atom_site_fract_y
_atom_site_fract_z
Si Si1 0.179318 0.005022 0.060373
Si Si2 0.444714 0.400698 0.618630
Si Si3 0.803492 0.546946 0.496032
Si Si4 0.764914 0.639548 0.793232
Si Si5 0.387077 0.643248 0.318630
Si Si6 0.494997 0.854802 0.699507
O O1 0.999445 0.952984 0.220980
O O2 0.137606 0.063839 0.228356
O O3 0.331090 0.924529 0.909541
O O4 0.245364 0.084400 0.889386
O O5 0.500000 0.500000 0.500000
O O6 0.568247 0.369577 0.590751
O O7 0.467094 0.328828 0.482617
O O8 0.806900 0.608275 0.612598
O O9 0.750469 0.435353 0.575254
O O10 0.670880 0.596384 0.552390
O O11 0.829087 0.750000 0.742550
O O12 0.558128 0.631425 0.046685
O O13 0.305688 0.750000 0.391589
O O14 0.460590 0.750000 0.798910
#
# Coordination Sequence:
#
# PCOD8074939 Si02
#       6
#     4   4   4   4   4   4
#     4  10  23  40  64  87 121 158 203 249 296 357
#     4   9  17  40  61  83 116 161 194 241 298 349
#     4  12  22  39  62  91 124 151 203 248 304 353
#     4  10  21  40  62  87 121 161 200 246 298 358
#     4  10  20  36  62  87 117 161 205 244 294 358
#     4  11  23  40  62  88 124 162 198 247 303 352
#
# _framework density 20.356052999999999
#
# number of rings (size 3 to 8) (size 9 to 14) (size 15 to 20)
#    0.000    1.667    5.000    2.000    0.000    3.333 
#    0.000    0.000    0.000    0.000    0.000    0.000 
#    0.000    0.000    0.000    0.000    0.000    0.000 
#
# Total GULP energy -297395.138115 kJ/mol
# GULP energy per Si atom -12391.464088 kJ/mol
# Density = 2.030972 g / cm^3
# Si number density = 20.356053 Si / 1000 Ang^3
#
#
#
# Elastic Constant Matrix: (Units=GPa)
#
#
# Indices 1 2 3 4 5 6 
#
# 1 41.9287 25.2572 38.5098 0.0000 -6.9218 0.0000
# 2 25.2572 136.6954 32.3199 0.0000 -14.0573 0.0000
# 3 38.5098 32.3199 82.4063 0.0000 -14.5211 0.0000
# 4 0.0000 0.0000 0.0000 11.0112 0.0000 6.4969
# 5 -6.9218 -14.0573 -14.5211 0.0000 35.5356 0.0000
# 6 0.0000 0.0000 0.0000 6.4969 0.0000 23.7223
#
#
#
# Elastic Compliance Matrix: (Units=1/GPa)
#
#
# Indices 1 2 3 4 5 6 
#
# 1 0.043305 -0.003595 -0.018957 0.000000 -0.000733 0.000000
# 2 -0.003595 0.008502 -0.001277 0.000000 0.002141 0.000000
# 3 -0.018957 -0.001277 0.022365 0.000000 0.004942 0.000000
# 4 0.000000 0.000000 0.000000 0.108320 0.000000 -0.029666
# 5 -0.000733 0.002141 0.004942 0.000000 0.030864 0.000000
# 6 0.000000 0.000000 0.000000 -0.029666 0.000000 0.050279
#
#
# Mechanical properties :
#
#
# Convention : Reuss Voigt Hill
#
# Bulk Modulus (GPa) = 37.71408 50.35603 44.03506
# Shear Modulus (GPa) = 15.61858 25.05004 20.33431
#
# Velocity S-wave (km/s) = 2.77297 3.51179 3.16402
# Velocity P-wave (km/s) = 5.36842 6.42144 5.91839
#
# Compressibility (1/GPa) = 0.02651529
#
# Stress axis : x y z
#
# Youngs Moduli (GPa) = 23.09189 117.62031 44.71196
#
# Poissons Ratio (x) = 0.42283 0.84758
# Poissons Ratio (y) = 0.08301 0.05711
# Poissons Ratio (z) = 0.43774 0.15023
#
# Static dielectric constant tensor:
#      x y z
#    x 4.420320 0.000000 0.926040 
#    y 0.000000 4.265920 0.000000 
#    z 0.926040 0.000000 4.408740 
# 
# 
# High freq. dielectric constant tensor:
#      x y z
#    x 1.778850 0.000000 0.014930 
#    y 0.000000 1.814440 0.000000 
#    z 0.014930 0.000000 1.782520 
# 
# From -- ./inp_files/39563.got.cif
#   From: 2010.06.25/outbox.cif.g09.slc.cpg/sg11_20_cif.got.tgz:39563.got - 2010.06.27 23:14:04.
