data_PCOD8074005
_publ_section_title
;
Structure prediction by ZEFSAII (Michael W. Deem and Ramdas Pophale) SiO2 
 PCOD8074005
Probable space group: P 21/M
;
_chemical_formula_sum "Si O2"
_cell_formula_units_Z 32
_cell_length_a 29.882345
_cell_length_b 9.068210
_cell_length_c 12.146431
_cell_angle_alpha 90.000000
_cell_angle_beta 151.552487
_cell_angle_gamma 90.000000
_cell_volume 1567.885319
_symmetry_space_group_name_H-M "P 21/M"
_symmetry_group_IT_number 11
_symmetry_cell_setting 'monoclinic'
loop_
_space_group_symop_operation_xyz
x,y,z
-x,1/2+y,-z
-x,-y,-z
x,1/2-y,z
loop_
_atom_site_type_symbol
_atom_site_label
_atom_site_fract_x
_atom_site_fract_y
_atom_site_fract_z
Si Si1 0.466817 0.919640 0.040198
Si Si2 0.291964 0.079451 0.040025
Si Si3 0.904653 0.914245 0.912603
Si Si4 0.366219 0.418047 0.435639
Si Si5 0.109421 0.915588 0.331465
Si Si6 0.307850 0.579278 0.854320
Si Si7 0.806795 0.419700 0.872485
Si Si8 0.099197 0.076628 0.731464
O O1 0.460356 0.750000 0.991056
O O2 0.533669 0.941483 0.291189
O O3 0.367250 0.977814 0.875366
O O4 0.500000 0.000000 0.000000
O O5 0.289924 0.250000 0.005957
O O6 0.184432 0.026541 0.834383
O O7 0.335342 0.997178 0.028657
O O8 0.361646 0.048294 0.294562
O O9 0.862683 0.750000 0.840498
O O10 0.900855 0.951289 0.775950
O O11 0.841689 0.044634 0.826152
O O12 0.012164 0.919147 0.190374
O O13 0.330054 0.250000 0.375908
O O14 0.301716 0.537320 0.357032
O O15 0.121336 0.750000 0.305744
O O16 0.197768 0.951656 0.599449
O O17 0.332171 0.750000 0.922023
O O18 0.822155 0.250000 0.937886
O O19 0.868238 0.530674 0.077639
O O20 0.083544 0.250000 0.691034
O O21 0.000000 0.000000 0.500000
#
# Coordination Sequence:
#
# PCOD8074005 Si02
#       8
#     4   4   4   4   4   4   4   4
#     4  10  23  42  64  91 122 155 195 246 307 364
#     4   9  20  38  59  85 118 156 201 246 293 354
#     4  10  20  35  55  80 112 156 199 240 294 356
#     4   9  20  41  62  84 119 158 198 250 302 354
#     4   9  20  37  54  79 115 153 193 243 294 349
#     4  10  22  39  60  89 122 155 194 249 306 357
#     4  11  22  35  56  85 115 154 199 246 296 353
#     4  10  21  37  56  84 121 159 201 249 296 348
#
# _framework density 20.409655999999998
#
# number of rings (size 3 to 8) (size 9 to 14) (size 15 to 20)
#    0.000    2.250    0.000    2.625    3.500    5.000 
#    0.000    0.000    0.000    0.000    0.000    0.000 
#    0.000    0.000    0.000    0.000    0.000    0.000 
#
# Total GULP energy -396516.011657 kJ/mol
# GULP energy per Si atom -12391.125364 kJ/mol
# Density = 2.036320 g / cm^3
# Si number density = 20.409656 Si / 1000 Ang^3
#
#
#
# Elastic Constant Matrix: (Units=GPa)
#
#
# Indices 1 2 3 4 5 6 
#
# 1 108.8579 47.0023 21.8122 0.0000 -7.8193 0.0000
# 2 47.0023 76.0504 28.5373 0.0000 2.6675 0.0000
# 3 21.8122 28.5373 73.5040 0.0000 -5.1865 0.0000
# 4 0.0000 0.0000 0.0000 27.0481 0.0000 -3.5432
# 5 -7.8193 2.6675 -5.1865 0.0000 16.1741 0.0000
# 6 0.0000 0.0000 0.0000 -3.5432 0.0000 36.4730
#
#
#
# Elastic Compliance Matrix: (Units=1/GPa)
#
#
# Indices 1 2 3 4 5 6 
#
# 1 0.013472 -0.008558 -0.000119 0.000000 0.007886 0.000000
# 2 -0.008558 0.021164 -0.006359 0.000000 -0.009667 0.000000
# 3 -0.000119 -0.006359 0.016553 0.000000 0.006300 0.000000
# 4 0.000000 0.000000 0.000000 0.037448 0.000000 0.003638
# 5 0.007886 -0.009667 0.006300 0.000000 0.069254 0.000000
# 6 0.000000 0.000000 0.000000 0.003638 0.000000 0.027771
#
#
# Mechanical properties :
#
#
# Convention : Reuss Voigt Hill
#
# Bulk Modulus (GPa) = 47.35540 50.34621 48.85080
# Shear Modulus (GPa) = 22.44439 26.67641 24.56040
#
# Velocity S-wave (km/s) = 3.31976 3.61923 3.47273
# Velocity P-wave (km/s) = 6.16013 6.49512 6.32984
#
# Compressibility (1/GPa) = 0.02111692
#
# Stress axis : x y z
#
# Youngs Moduli (GPa) = 74.22931 47.25047 60.41098
#
# Poissons Ratio (x) = 0.40438 0.00716
# Poissons Ratio (y) = 0.63527 0.38416
# Poissons Ratio (z) = 0.00880 0.30047
#
# Static dielectric constant tensor:
#      x y z
#    x 3.652720 0.000000 0.163140 
#    y 0.000000 3.630820 0.000000 
#    z 0.163140 0.000000 3.757200 
# 
# 
# High freq. dielectric constant tensor:
#      x y z
#    x 1.791480 0.000000 0.005370 
#    y 0.000000 1.792570 0.000000 
#    z 0.005370 0.000000 1.793260 
# 
# From -- ./inp_files/45360.got.cif
#   From: 2010.06.25/outbox.cif.g09.slc.cpg/sg11_23_cif.got.tgz:45360.got - 2010.06.27 23:14:04.
