data_PCOD8074298
_publ_section_title
;
Structure prediction by ZEFSAII (Michael W. Deem and Ramdas Pophale) SiO2 
 PCOD8074298
Probable space group: P 21/M
;
_chemical_formula_sum "Si O2"
_cell_formula_units_Z 32
_cell_length_a 12.078858
_cell_length_b 8.844419
_cell_length_c 31.281453
_cell_angle_alpha 90.000000
_cell_angle_beta 29.756686
_cell_angle_gamma 90.000000
_cell_volume 1658.601158
_symmetry_space_group_name_H-M "P 21/M"
_symmetry_group_IT_number 11
_symmetry_cell_setting 'monoclinic'
loop_
_space_group_symop_operation_xyz
x,y,z
-x,1/2+y,-z
-x,-y,-z
x,1/2-y,z
loop_
_atom_site_type_symbol
_atom_site_label
_atom_site_fract_x
_atom_site_fract_y
_atom_site_fract_z
Si Si1 0.184821 0.927221 0.407618
Si Si2 0.309067 0.078198 0.752704
Si Si3 0.135235 0.572667 0.893781
Si Si4 0.818761 0.577752 0.297908
Si Si5 0.556858 0.927475 0.525940
Si Si6 0.982267 0.570998 0.618732
Si Si7 0.315141 0.073753 0.913714
Si Si8 0.191053 0.576124 0.238519
O O1 0.135113 0.750000 0.421099
O O2 0.431460 0.960724 0.343418
O O3 0.182018 0.000501 0.361420
O O4 0.000000 0.000000 0.500000
O O5 0.290229 0.250000 0.775203
O O6 0.165454 0.051780 0.758020
O O7 0.199418 0.972734 0.824718
O O8 0.151338 0.750000 0.892182
O O9 0.308802 0.504299 0.869507
O O10 0.884433 0.514600 0.988917
O O11 0.740036 0.750000 0.334172
O O12 0.644955 0.457803 0.374464
O O13 0.059382 0.546466 0.238574
O O14 0.596956 0.750000 0.506805
O O15 0.500000 0.000000 0.500000
O O16 0.774304 0.005055 0.472734
O O17 0.986354 0.750000 0.612515
O O18 0.907324 0.528194 0.691391
O O19 0.288351 0.250000 0.914344
O O20 0.551059 0.034486 0.856682
O O21 0.166287 0.750000 0.261696
#
# Coordination Sequence:
#
# PCOD8074298 Si02
#       8
#     4   4   4   4   4   4   4   4
#     4  11  23  39  58  82 114 150 189 236 289 342
#     4  10  22  39  58  81 113 152 190 230 282 344
#     4  10  20  35  58  86 113 146 187 232 282 339
#     4  10  21  38  59  82 111 150 195 237 282 340
#     4  12  23  37  57  82 113 150 191 236 284 333
#     4  12  24  37  56  83 115 148 190 238 285 340
#     4   9  19  36  58  85 115 145 182 231 288 344
#     4  10  20  36  58  82 111 146 185 234 289 340
#
# _framework density 19.293365999999999
#
# number of rings (size 3 to 8) (size 9 to 14) (size 15 to 20)
#    0.000    1.500    1.250    4.500    0.000    6.500 
#    0.000    0.625    0.000    0.000    0.000    0.000 
#    0.000    0.000    0.000    0.000    0.000    0.000 
#
# Total GULP energy -396915.768126 kJ/mol
# GULP energy per Si atom -12403.617754 kJ/mol
# Density = 1.924945 g / cm^3
# Si number density = 19.293366 Si / 1000 Ang^3
#
#
#
# Elastic Constant Matrix: (Units=GPa)
#
#
# Indices 1 2 3 4 5 6 
#
# 1 136.9178 45.7467 54.5037 0.0000 -8.6255 0.0000
# 2 45.7467 92.5323 37.5057 0.0000 -5.2744 0.0000
# 3 54.5037 37.5057 99.6606 0.0000 -6.2924 0.0000
# 4 0.0000 0.0000 0.0000 28.8253 0.0000 3.1760
# 5 -8.6255 -5.2744 -6.2924 0.0000 31.8192 0.0000
# 6 0.0000 0.0000 0.0000 3.1760 0.0000 25.8353
#
#
#
# Elastic Compliance Matrix: (Units=1/GPa)
#
#
# Indices 1 2 3 4 5 6 
#
# 1 0.010161 -0.003219 -0.004259 0.000000 0.001379 0.000000
# 2 -0.003219 0.013816 -0.003392 0.000000 0.000747 0.000000
# 3 -0.004259 -0.003392 0.013702 0.000000 0.000993 0.000000
# 4 0.000000 0.000000 0.000000 0.035168 0.000000 -0.004323
# 5 0.001379 0.000747 0.000993 0.000000 0.032121 0.000000
# 6 0.000000 0.000000 0.000000 -0.004323 0.000000 0.039238
#
#
# Mechanical properties :
#
#
# Convention : Reuss Voigt Hill
#
# Bulk Modulus (GPa) = 62.73316 67.18032 64.95674
# Shear Modulus (GPa) = 29.19551 30.05296 29.62423
#
# Velocity S-wave (km/s) = 3.89426 3.95103 3.92275
# Velocity P-wave (km/s) = 7.26680 7.46393 7.36602
#
# Compressibility (1/GPa) = 0.01594053
#
# Stress axis : x y z
#
# Youngs Moduli (GPa) = 98.41287 72.38120 72.98059
#
# Poissons Ratio (x) = 0.23298 0.31080
# Poissons Ratio (y) = 0.31677 0.24754
# Poissons Ratio (z) = 0.41911 0.24550
#
# Static dielectric constant tensor:
#      x y z
#    x 3.661940 0.000000 -0.162800 
#    y 0.000000 3.938910 0.000000 
#    z -0.162800 0.000000 3.687860 
# 
# 
# High freq. dielectric constant tensor:
#      x y z
#    x 1.756250 0.000000 -0.008460 
#    y 0.000000 1.752820 0.000000 
#    z -0.008460 0.000000 1.741490 
# 
# From -- ./inp_files/45193.got.cif
#   From: 2010.06.25/outbox.cif.g09.slc.cpg/sg11_23_cif.got.tgz:45193.got - 2010.06.27 23:14:04.
