data_PCOD8074193
_publ_section_title
;
Structure prediction by ZEFSAII (Michael W. Deem and Ramdas Pophale) SiO2 
 PCOD8074193
Probable space group: P 21/M
;
_chemical_formula_sum "Si O2"
_cell_formula_units_Z 32
_cell_length_a 21.258631
_cell_length_b 13.919442
_cell_length_c 18.874922
_cell_angle_alpha 90.000000
_cell_angle_beta 18.296637
_cell_angle_gamma 90.000000
_cell_volume 1753.413771
_symmetry_space_group_name_H-M "P 21/M"
_symmetry_group_IT_number 11
_symmetry_cell_setting 'monoclinic'
loop_
_space_group_symop_operation_xyz
x,y,z
-x,1/2+y,-z
-x,-y,-z
x,1/2-y,z
loop_
_atom_site_type_symbol
_atom_site_label
_atom_site_fract_x
_atom_site_fract_y
_atom_site_fract_z
Si Si1 0.221542 0.982550 0.738621
Si Si2 0.702183 0.483132 0.504879
Si Si3 0.829082 0.988283 0.624852
Si Si4 0.380682 0.138281 0.922459
Si Si5 0.046746 0.990113 0.247506
Si Si6 0.457521 0.640615 0.589229
Si Si7 0.496208 0.137881 0.959317
Si Si8 0.382790 0.639630 0.829064
O O1 0.229606 0.960050 0.647228
O O2 0.304805 0.890583 0.691492
O O3 0.342664 0.078040 0.629164
O O4 0.000000 0.000000 0.000000
O O5 0.560057 0.395997 0.680459
O O6 0.582500 0.583480 0.639394
O O7 0.899095 0.488274 0.341263
O O8 0.706711 0.087875 0.752441
O O9 0.680422 0.901129 0.802026
O O10 0.000000 0.000000 0.500000
O O11 0.924309 0.961559 0.447957
O O12 0.343709 0.250000 0.949679
O O13 0.439438 0.113815 0.939710
O O14 0.174198 0.086059 0.124353
O O15 0.189162 0.901050 0.076038
O O16 0.522092 0.750000 0.507638
O O17 0.349308 0.627261 0.780777
O O18 0.524037 0.250000 0.943742
O O19 0.412441 0.750000 0.819309
#
# Coordination Sequence:
#
# PCOD8074193 Si02
#       8
#     4   4   4   4   4   4   4   4
#     4  10  20  35  57  83 112 149 187 231 279 334
#     4  10  21  37  55  82 116 148 185 231 284 333
#     4  11  22  38  59  85 115 146 187 237 278 327
#     4  10  21  38  58  81 110 149 190 229 278 335
#     4  11  21  36  59  85 113 147 187 237 281 330
#     4   9  19  37  57  80 112 149 186 228 278 333
#     4  10  22  39  60  83 112 150 187 227 281 337
#     4   9  20  37  58  82 111 148 187 228 280 337
#
# _framework density 18.250112000000001
#
# number of rings (size 3 to 8) (size 9 to 14) (size 15 to 20)
#    0.000    2.000    2.500    0.750    0.000    4.500 
#    0.000    3.750    0.000    0.000    0.000    0.000 
#    0.000    0.000    0.000    0.000    0.000    0.000 
#
# Total GULP energy -396941.313985 kJ/mol
# GULP energy per Si atom -12404.416062 kJ/mol
# Density = 1.820857 g / cm^3
# Si number density = 18.250112 Si / 1000 Ang^3
#
#
#
# Elastic Constant Matrix: (Units=GPa)
#
#
# Indices 1 2 3 4 5 6 
#
# 1 126.8065 62.5699 59.8470 0.0000 -14.7941 0.0000
# 2 62.5699 122.0788 59.4824 0.0000 1.3068 0.0000
# 3 59.8470 59.4824 137.6932 0.0000 3.9028 0.0000
# 4 0.0000 0.0000 0.0000 15.8110 0.0000 3.5896
# 5 -14.7941 1.3068 3.9028 0.0000 31.2047 0.0000
# 6 0.0000 0.0000 0.0000 3.5896 0.0000 27.4031
#
#
#
# Elastic Compliance Matrix: (Units=1/GPa)
#
#
# Indices 1 2 3 4 5 6 
#
# 1 0.012785 -0.004844 -0.003655 0.000000 0.006722 0.000000
# 2 -0.004844 0.012211 -0.003101 0.000000 -0.002420 0.000000
# 3 -0.003655 -0.003101 0.010273 0.000000 -0.002888 0.000000
# 4 0.000000 0.000000 0.000000 0.065186 0.000000 -0.008539
# 5 0.006722 -0.002420 -0.002888 0.000000 0.035696 0.000000
# 6 0.000000 0.000000 0.000000 -0.008539 0.000000 0.037611
#
#
# Mechanical properties :
#
#
# Convention : Reuss Voigt Hill
#
# Bulk Modulus (GPa) = 82.85776 83.37524 83.11650
# Shear Modulus (GPa) = 24.87758 28.52905 26.70331
#
# Velocity S-wave (km/s) = 3.69609 3.95805 3.82931
# Velocity P-wave (km/s) = 7.98214 8.16531 8.07424
#
# Compressibility (1/GPa) = 0.01206888
#
# Stress axis : x y z
#
# Youngs Moduli (GPa) = 78.21433 81.89283 97.34635
#
# Poissons Ratio (x) = 0.39669 0.35580
# Poissons Ratio (y) = 0.37888 0.30188
# Poissons Ratio (z) = 0.28587 0.25396
#
# Static dielectric constant tensor:
#      x y z
#    x 3.461970 0.000000 0.084880 
#    y 0.000000 3.340280 0.000000 
#    z 0.084880 0.000000 3.446470 
# 
# 
# High freq. dielectric constant tensor:
#      x y z
#    x 1.716770 0.000000 0.002740 
#    y 0.000000 1.703920 0.000000 
#    z 0.002740 0.000000 1.718000 
# 
# From -- ./inp_files/61599.got.cif
#   From: 2010.06.25/outbox.cif.g09.slc.cpg/sg11_31_cif.got.tgz:61599.got - 2010.06.27 23:14:04.
