data_PCOD8074580
_publ_section_title
;
Structure prediction by ZEFSAII (Michael W. Deem and Ramdas Pophale) SiO2 
 PCOD8074580
Probable space group: P 21/M
;
_chemical_formula_sum "Si O2"
_cell_formula_units_Z 28
_cell_length_a 14.839717
_cell_length_b 8.803442
_cell_length_c 21.753836
_cell_angle_alpha 90.000000
_cell_angle_beta 30.691787
_cell_angle_gamma 90.000000
_cell_volume 1450.578942
_symmetry_space_group_name_H-M "P 21/M"
_symmetry_group_IT_number 11
_symmetry_cell_setting 'monoclinic'
loop_
_space_group_symop_operation_xyz
x,y,z
-x,1/2+y,-z
-x,-y,-z
x,1/2-y,z
loop_
_atom_site_type_symbol
_atom_site_label
_atom_site_fract_x
_atom_site_fract_y
_atom_site_fract_z
Si Si1 0.042648 0.072814 0.378806
Si Si2 0.045876 0.071130 0.127083
Si Si3 0.269430 0.571599 0.347962
Si Si4 0.244444 0.422348 0.783908
Si Si5 0.584960 0.077915 0.508410
Si Si6 0.336490 0.069924 0.861962
Si Si7 0.954874 0.570763 0.306626
O O1 0.062420 0.250000 0.353584
O O2 0.854613 0.036229 0.520904
O O3 0.060627 0.983237 0.304462
O O4 0.201497 0.018565 0.328640
O O5 0.046952 0.250000 0.136365
O O6 0.217907 0.015634 0.988672
O O7 0.869851 0.028069 0.193241
O O8 0.052092 0.991473 0.189229
O O9 0.268580 0.750000 0.333074
O O10 0.464854 0.507734 0.247375
O O11 0.170477 0.250000 0.823637
O O12 0.448246 0.424965 0.644395
O O13 0.243361 0.488918 0.853890
O O14 0.639000 0.250000 0.459827
O O15 0.500000 0.000000 0.500000
O O16 0.756543 0.988457 0.428586
O O17 0.345080 0.250000 0.852163
O O18 0.952619 0.750000 0.304066
#
# Coordination Sequence:
#
# PCOD8074580 Si02
#       7
#     4   4   4   4   4   4   4
#     4  10  20  36  61  90 116 143 178 227 283 339
#     4  11  22  36  55  79 111 149 192 236 275 328
#     4   9  18  37  62  87 115 144 178 226 283 339
#     4  10  20  36  57  81 112 149 186 227 281 336
#     4  11  21  34  55  82 114 147 182 226 277 332
#     4   9  19  36  58  82 109 147 189 229 278 333
#     4  12  24  38  56  80 113 153 192 231 280 333
#
# _framework density 19.302637000000001
#
# number of rings (size 3 to 8) (size 9 to 14) (size 15 to 20)
#    0.000    1.714    1.429    3.857    0.000    3.429 
#    0.000    3.571    0.000    0.000    0.000    0.000 
#    0.000    0.000    0.000    0.000    0.000    0.000 
#
# Total GULP energy -347289.444953 kJ/mol
# GULP energy per Si atom -12403.194463 kJ/mol
# Density = 1.925870 g / cm^3
# Si number density = 19.302637 Si / 1000 Ang^3
#
#
#
# Elastic Constant Matrix: (Units=GPa)
#
#
# Indices 1 2 3 4 5 6 
#
# 1 111.8127 42.6476 45.5918 0.0000 24.9943 0.0000
# 2 42.6476 96.6699 29.5973 0.0000 18.5400 0.0000
# 3 45.5918 29.5973 88.1728 0.0000 16.9245 0.0000
# 4 0.0000 0.0000 0.0000 20.8562 0.0000 -1.1726
# 5 24.9943 18.5400 16.9245 0.0000 27.9350 0.0000
# 6 0.0000 0.0000 0.0000 -1.1726 0.0000 32.0224
#
#
#
# Elastic Compliance Matrix: (Units=1/GPa)
#
#
# Indices 1 2 3 4 5 6 
#
# 1 0.013681 -0.003228 -0.004585 0.000000 -0.007320 0.000000
# 2 -0.003228 0.013256 -0.001863 0.000000 -0.004781 0.000000
# 3 -0.004585 -0.001863 0.015065 0.000000 -0.003788 0.000000
# 4 0.000000 0.000000 0.000000 0.048046 0.000000 0.001759
# 5 -0.007320 -0.004781 -0.003788 0.000000 0.047815 0.000000
# 6 0.000000 0.000000 0.000000 0.001759 0.000000 0.031293
#
#
# Mechanical properties :
#
#
# Convention : Reuss Voigt Hill
#
# Bulk Modulus (GPa) = 44.15157 59.14767 51.64962
# Shear Modulus (GPa) = 25.50281 28.08397 26.79339
#
# Velocity S-wave (km/s) = 3.63879 3.81849 3.72972
# Velocity P-wave (km/s) = 6.37004 7.08166 6.73525
#
# Compressibility (1/GPa) = 0.02264925
#
# Stress axis : x y z
#
# Youngs Moduli (GPa) = 73.09594 75.43906 66.37998
#
# Poissons Ratio (x) = 0.24349 0.30438
# Poissons Ratio (y) = 0.23593 0.12366
# Poissons Ratio (z) = 0.33517 0.14054
#
# Static dielectric constant tensor:
#      x y z
#    x 3.523030 0.000000 0.061400 
#    y 0.000000 3.444350 0.000000 
#    z 0.061400 0.000000 3.688460 
# 
# 
# High freq. dielectric constant tensor:
#      x y z
#    x 1.754330 0.000000 0.010470 
#    y 0.000000 1.743900 0.000000 
#    z 0.010470 0.000000 1.748310 
# 
# From -- ./inp_files/38410.got.cif
#   From: 2010.06.25/outbox.cif.g09.slc.cpg/sg11_20_cif.got.tgz:38410.got - 2010.06.27 23:14:04.
