data_PCOD8074016
_publ_section_title
;
Structure prediction by ZEFSAII (Michael W. Deem and Ramdas Pophale) SiO2 
 PCOD8074016
Probable space group: P 21/M
;
_chemical_formula_sum "Si O2"
_cell_formula_units_Z 32
_cell_length_a 10.167795
_cell_length_b 9.339133
_cell_length_c 21.052485
_cell_angle_alpha 90.000000
_cell_angle_beta 51.566789
_cell_angle_gamma 90.000000
_cell_volume 1565.969460
_symmetry_space_group_name_H-M "P 21/M"
_symmetry_group_IT_number 11
_symmetry_cell_setting 'monoclinic'
loop_
_space_group_symop_operation_xyz
x,y,z
-x,1/2+y,-z
-x,-y,-z
x,1/2-y,z
loop_
_atom_site_type_symbol
_atom_site_label
_atom_site_fract_x
_atom_site_fract_y
_atom_site_fract_z
Si Si1 0.470340 0.081898 0.444225
Si Si2 0.826248 0.582389 0.559317
Si Si3 0.340008 0.414435 0.258688
Si Si4 0.228654 0.916526 0.732033
Si Si5 0.249001 0.582752 0.046735
Si Si6 0.612128 0.586802 0.103564
Si Si7 0.124218 0.090934 0.875718
Si Si8 0.861774 0.912682 0.804328
O O1 0.489294 0.250000 0.451557
O O2 0.290805 0.046540 0.466202
O O3 0.615366 0.024406 0.354331
O O4 0.500000 0.000000 0.500000
O O5 0.866938 0.750000 0.550909
O O6 0.730457 0.534127 0.652266
O O7 0.000000 0.500000 0.500000
O O8 0.404017 0.250000 0.243276
O O9 0.489770 0.517023 0.192142
O O10 0.190982 0.429918 0.252469
O O11 0.249546 0.750000 0.737145
O O12 0.056573 0.957019 0.747792
O O13 0.233215 0.986135 0.799652
O O14 0.293634 0.750000 0.037054
O O15 0.248430 0.516553 0.117665
O O16 0.071574 0.550538 0.065910
O O17 0.389044 0.503166 0.961723
O O18 0.556462 0.750000 0.106092
O O19 0.800349 0.582745 0.076173
O O20 0.144121 0.250000 0.841334
O O21 0.836845 0.750000 0.836349
#
# Coordination Sequence:
#
# PCOD8074016 Si02
#       8
#     4   4   4   4   4   4   4   4
#     4  10  22  38  59  91 123 154 197 244 298 359
#     4  10  23  42  64  92 124 159 200 247 299 363
#     4  10  22  40  61  83 111 150 195 239 290 350
#     4   9  18  34  58  83 110 144 189 241 290 345
#     4  10  20  35  55  81 113 149 189 236 289 342
#     4  11  22  35  54  81 114 150 191 238 287 346
#     4   9  19  34  53  80 111 145 186 233 288 344
#     4   9  19  36  58  83 110 147 193 240 290 344
#
# _framework density 20.434626999999999
#
# number of rings (size 3 to 8) (size 9 to 14) (size 15 to 20)
#    0.000    2.250    0.000    1.875    1.750    5.000 
#    0.000    0.000    0.000    0.000    0.000    0.000 
#    0.000    0.000    0.000    0.000    0.000    0.000 
#
# Total GULP energy -396819.488767 kJ/mol
# GULP energy per Si atom -12400.609024 kJ/mol
# Density = 2.038812 g / cm^3
# Si number density = 20.434627 Si / 1000 Ang^3
#
#
#
# Elastic Constant Matrix: (Units=GPa)
#
#
# Indices 1 2 3 4 5 6 
#
# 1 78.7716 32.6860 34.1649 0.0000 6.1259 0.0000
# 2 32.6860 90.2128 64.4976 0.0000 0.4424 0.0000
# 3 34.1649 64.4976 123.2960 0.0000 1.2354 0.0000
# 4 0.0000 0.0000 0.0000 39.6475 0.0000 0.4414
# 5 6.1259 0.4424 1.2354 0.0000 29.0294 0.0000
# 6 0.0000 0.0000 0.0000 0.4414 0.0000 29.1206
#
#
#
# Elastic Compliance Matrix: (Units=1/GPa)
#
#
# Indices 1 2 3 4 5 6 
#
# 1 0.015566 -0.004094 -0.002140 0.000000 -0.003131 0.000000
# 2 -0.004094 0.018785 -0.008702 0.000000 0.000948 0.000000
# 3 -0.002140 -0.008702 0.013255 0.000000 0.000020 0.000000
# 4 0.000000 0.000000 0.000000 0.025226 0.000000 -0.000382
# 5 -0.003131 0.000948 0.000020 0.000000 0.035093 0.000000
# 6 0.000000 0.000000 0.000000 -0.000382 0.000000 0.034346
#
#
# Mechanical properties :
#
#
# Convention : Reuss Voigt Hill
#
# Bulk Modulus (GPa) = 56.38936 61.66415 59.02675
# Shear Modulus (GPa) = 28.08131 30.28831 29.18481
#
# Velocity S-wave (km/s) = 3.71105 3.85412 3.78326
# Velocity P-wave (km/s) = 6.78361 7.07442 6.93054
#
# Compressibility (1/GPa) = 0.01773384
#
# Stress axis : x y z
#
# Youngs Moduli (GPa) = 64.24446 53.23415 75.44195
#
# Poissons Ratio (x) = 0.21796 0.16144
# Poissons Ratio (y) = 0.26304 0.65646
# Poissons Ratio (z) = 0.13748 0.46322
#
# Static dielectric constant tensor:
#      x y z
#    x 3.750770 0.000000 -0.004050 
#    y 0.000000 3.639520 0.000000 
#    z -0.004050 0.000000 3.638370 
# 
# 
# High freq. dielectric constant tensor:
#      x y z
#    x 1.809530 0.000000 0.001150 
#    y 0.000000 1.793080 0.000000 
#    z 0.001150 0.000000 1.790470 
# 
# From -- ./inp_files/64403.got.cif
#   From: 2010.06.25/outbox.cif.g09.slc.cpg/sg11_33_cif.got.tgz:64403.got - 2010.06.27 23:14:04.
