data_PCOD8074573
_publ_section_title
;
Structure prediction by ZEFSAII (Michael W. Deem and Ramdas Pophale) SiO2 
 PCOD8074573
Probable space group: P 21/M
;
_chemical_formula_sum "Si O2"
_cell_formula_units_Z 28
_cell_length_a 9.022884
_cell_length_b 8.949066
_cell_length_c 25.367725
_cell_angle_alpha 90.000000
_cell_angle_beta 44.777983
_cell_angle_gamma 90.000000
_cell_volume 1442.780323
_symmetry_space_group_name_H-M "P 21/M"
_symmetry_group_IT_number 11
_symmetry_cell_setting 'monoclinic'
loop_
_space_group_symop_operation_xyz
x,y,z
-x,1/2+y,-z
-x,-y,-z
x,1/2-y,z
loop_
_atom_site_type_symbol
_atom_site_label
_atom_site_fract_x
_atom_site_fract_y
_atom_site_fract_z
Si Si1 0.175114 0.572676 0.491693
Si Si2 0.501996 0.925658 0.081171
Si Si3 0.391368 0.575321 0.641550
Si Si4 0.181648 0.924958 0.072190
Si Si5 0.067728 0.926965 0.635026
Si Si6 0.241240 0.920983 0.795542
Si Si7 0.610410 0.575767 0.782152
O O1 0.156196 0.750000 0.493187
O O2 0.400049 0.521706 0.414250
O O3 0.140679 0.513156 0.559818
O O4 0.000000 0.500000 0.500000
O O5 0.531076 0.750000 0.076902
O O6 0.304156 0.971426 0.094579
O O7 0.468830 0.988035 0.147376
O O8 0.715372 0.994258 0.003871
O O9 0.447532 0.750000 0.621093
O O10 0.234199 0.516913 0.636122
O O11 0.280342 0.542626 0.724821
O O12 0.195019 0.750000 0.058603
O O13 0.940711 0.972963 0.137046
O O14 0.057853 0.750000 0.637000
O O15 0.836810 0.989045 0.707547
O O16 0.169401 0.750000 0.821034
O O17 0.453809 0.954407 0.773500
O O18 0.624084 0.750000 0.793155
#
# Coordination Sequence:
#
# PCOD8074573 Si02
#       7
#     4   4   4   4   4   4   4
#     4  11  22  37  57  83 115 149 185 227 275 326
#     4  10  21  37  57  82 110 142 182 227 276 328
#     4  10  20  37  60  84 110 144 185 228 276 327
#     4  10  21  37  58  82 109 143 184 228 273 325
#     4   9  19  36  59  83 109 144 186 229 273 325
#     4  10  21  36  57  83 112 146 183 225 275 329
#     4  10  20  36  57  81 109 144 184 224 271 327
#
# _framework density 19.406974000000002
#
# number of rings (size 3 to 8) (size 9 to 14) (size 15 to 20)
#    0.000    2.000    0.000    3.429    0.000    6.857 
#    0.000    4.286    0.000    0.000    0.000    0.000 
#    0.000    0.000    0.000    0.000    0.000    0.000 
#
# Total GULP energy -347339.165696 kJ/mol
# GULP energy per Si atom -12404.970203 kJ/mol
# Density = 1.936280 g / cm^3
# Si number density = 19.406974 Si / 1000 Ang^3
#
#
#
# Elastic Constant Matrix: (Units=GPa)
#
#
# Indices 1 2 3 4 5 6 
#
# 1 89.8052 27.9685 29.8443 0.0000 -17.5900 0.0000
# 2 27.9685 59.4462 33.0585 0.0000 -5.7669 0.0000
# 3 29.8443 33.0585 91.8132 0.0000 -17.3110 0.0000
# 4 0.0000 0.0000 0.0000 34.3347 0.0000 -2.6319
# 5 -17.5900 -5.7669 -17.3110 0.0000 32.1491 0.0000
# 6 0.0000 0.0000 0.0000 -2.6319 0.0000 29.6182
#
#
#
# Elastic Compliance Matrix: (Units=1/GPa)
#
#
# Indices 1 2 3 4 5 6 
#
# 1 0.014541 -0.005328 -0.001657 0.000000 0.006108 0.000000
# 2 -0.005328 0.022989 -0.007032 0.000000 -0.002577 0.000000
# 3 -0.001657 -0.007032 0.015085 0.000000 0.005955 0.000000
# 4 0.000000 0.000000 0.000000 0.029325 0.000000 0.002606
# 5 0.006108 -0.002577 0.005955 0.000000 0.037191 0.000000
# 6 0.000000 0.000000 0.000000 0.002606 0.000000 0.033995
#
#
# Mechanical properties :
#
#
# Convention : Reuss Voigt Hill
#
# Bulk Modulus (GPa) = 40.67844 46.97858 43.82851
# Shear Modulus (GPa) = 26.40586 29.23327 27.81957
#
# Velocity S-wave (km/s) = 3.69268 3.88536 3.79024
# Velocity P-wave (km/s) = 6.25999 6.66240 6.46433
#
# Compressibility (1/GPa) = 0.02458304
#
# Stress axis : x y z
#
# Youngs Moduli (GPa) = 68.76904 43.49951 66.29206
#
# Poissons Ratio (x) = 0.23175 0.10983
# Poissons Ratio (y) = 0.36637 0.46614
# Poissons Ratio (z) = 0.11394 0.30587
#
# Static dielectric constant tensor:
#      x y z
#    x 3.835220 0.000000 -0.003590 
#    y 0.000000 3.392270 0.000000 
#    z -0.003590 0.000000 3.646420 
# 
# 
# High freq. dielectric constant tensor:
#      x y z
#    x 1.765450 0.000000 0.000940 
#    y 0.000000 1.740240 0.000000 
#    z 0.000940 0.000000 1.768740 
# 
# From -- ./inp_files/70651.got.cif
#   From: 2010.06.25/outbox.cif.g09.slc.cpg/sg11_36_cif.got.tgz:70651.got - 2010.06.27 23:14:04.
