data_PCOD8074696
_publ_section_title
;
Structure prediction by ZEFSAII (Michael W. Deem and Ramdas Pophale) SiO2 
 PCOD8074696
Probable space group: P 21/M
;
_chemical_formula_sum "Si O2"
_cell_formula_units_Z 28
_cell_length_a 16.175772
_cell_length_b 13.556609
_cell_length_c 9.526015
_cell_angle_alpha 90.000000
_cell_angle_beta 44.732542
_cell_angle_gamma 90.000000
_cell_volume 1470.197097
_symmetry_space_group_name_H-M "P 21/M"
_symmetry_group_IT_number 11
_symmetry_cell_setting 'monoclinic'
loop_
_space_group_symop_operation_xyz
x,y,z
-x,1/2+y,-z
-x,-y,-z
x,1/2-y,z
loop_
_atom_site_type_symbol
_atom_site_label
_atom_site_fract_x
_atom_site_fract_y
_atom_site_fract_z
Si Si1 0.275288 0.455440 0.786036
Si Si2 0.727055 0.947383 0.766064
Si Si3 0.529495 0.963458 0.221337
Si Si4 0.703138 0.139676 0.418044
Si Si5 0.838631 0.361145 0.532839
Si Si6 0.109166 0.363987 0.203547
Si Si7 0.637719 0.636184 0.590815
O O1 0.392937 0.445017 0.735166
O O2 0.263534 0.568445 0.750391
O O3 0.285224 0.382488 0.641513
O O4 0.161614 0.428899 0.013809
O O5 0.825753 0.886745 0.729467
O O6 0.716566 0.900134 0.625612
O O7 0.762633 0.062544 0.715861
O O8 0.601783 0.939457 0.994020
O O9 0.418594 0.890657 0.360244
O O10 0.483965 0.075967 0.271904
O O11 0.691568 0.250000 0.371675
O O12 0.805512 0.133147 0.409394
O O13 0.816857 0.250000 0.616797
O O14 0.973930 0.391931 0.384143
O O15 0.126630 0.250000 0.143673
O O16 0.605359 0.750000 0.645744
#
# Coordination Sequence:
#
# PCOD8074696 Si02
#       7
#     4   4   4   4   4   4   4
#     4  10  21  38  58  82 114 149 189 236 278 336
#     4  11  21  39  57  85 115 146 191 236 280 334
#     4  10  22  36  55  82 115 150 184 228 285 344
#     4  10  20  36  58  85 114 149 189 231 283 339
#     4  10  21  38  61  83 112 153 190 234 285 337
#     4  10  22  39  60  84 112 152 193 228 287 343
#     4  11  21  34  55  84 115 145 184 235 284 332
#
# _framework density 19.045065000000001
#
# number of rings (size 3 to 8) (size 9 to 14) (size 15 to 20)
#    0.000    1.714    2.857    3.429    0.000    6.286 
#    0.000    2.143    0.000    0.857    0.000    0.000 
#    0.000    0.000    0.000    0.000    0.000    0.000 
#
# Total GULP energy -347274.850477 kJ/mol
# GULP energy per Si atom -12402.673231 kJ/mol
# Density = 1.900172 g / cm^3
# Si number density = 19.045065 Si / 1000 Ang^3
#
#
#
# Elastic Constant Matrix: (Units=GPa)
#
#
# Indices 1 2 3 4 5 6 
#
# 1 81.6117 23.5607 41.5020 0.0000 9.9904 0.0000
# 2 23.5607 122.8615 35.0238 0.0000 -0.3287 0.0000
# 3 41.5020 35.0238 66.1105 0.0000 17.2245 0.0000
# 4 0.0000 0.0000 0.0000 20.0064 0.0000 1.3552
# 5 9.9904 -0.3287 17.2245 0.0000 20.2617 0.0000
# 6 0.0000 0.0000 0.0000 1.3552 0.0000 30.2789
#
#
#
# Elastic Compliance Matrix: (Units=1/GPa)
#
#
# Indices 1 2 3 4 5 6 
#
# 1 0.018017 -0.000197 -0.011420 0.000000 0.000821 0.000000
# 2 -0.000197 0.010140 -0.006829 0.000000 0.006067 0.000000
# 3 -0.011420 -0.006829 0.031438 0.000000 -0.021205 0.000000
# 4 0.000000 0.000000 0.000000 0.050136 0.000000 -0.002244
# 5 0.000821 0.006067 -0.021205 0.000000 0.067074 0.000000
# 6 0.000000 0.000000 0.000000 -0.002244 0.000000 0.033127
#
#
# Mechanical properties :
#
#
# Convention : Reuss Voigt Hill
#
# Bulk Modulus (GPa) = 44.04741 52.30629 48.17685
# Shear Modulus (GPa) = 19.65476 25.47588 22.56532
#
# Velocity S-wave (km/s) = 3.21598 3.66138 3.44588
# Velocity P-wave (km/s) = 6.08015 6.73783 6.41742
#
# Compressibility (1/GPa) = 0.02270281
#
# Stress axis : x y z
#
# Youngs Moduli (GPa) = 55.50338 98.61970 31.80887
#
# Poissons Ratio (x) = 0.01947 0.36325
# Poissons Ratio (y) = 0.01096 0.21721
# Poissons Ratio (z) = 0.63384 0.67344
#
# Static dielectric constant tensor:
#      x y z
#    x 3.607220 0.000000 0.043160 
#    y 0.000000 3.630710 0.000000 
#    z 0.043160 0.000000 3.318050 
# 
# 
# High freq. dielectric constant tensor:
#      x y z
#    x 1.752310 0.000000 0.003920 
#    y 0.000000 1.746320 0.000000 
#    z 0.003920 0.000000 1.725400 
# 
# From -- ./inp_files/22113.got.cif
#   From: 2010.06.25/outbox.cif.g09.slc.cpg/sg11_12_cif.got.tgz:22113.got - 2010.06.27 23:14:04.
