data_PCOD8074559
_publ_section_title
;
Structure prediction by ZEFSAII (Michael W. Deem and Ramdas Pophale) SiO2 
 PCOD8074559
Probable space group: P 21/M
;
_chemical_formula_sum "Si O2"
_cell_formula_units_Z 20
_cell_length_a 12.289712
_cell_length_b 9.604336
_cell_length_c 12.331338
_cell_angle_alpha 90.000000
_cell_angle_beta 131.881027
_cell_angle_gamma 90.000000
_cell_volume 1083.684849
_symmetry_space_group_name_H-M "P 21/M"
_symmetry_group_IT_number 11
_symmetry_cell_setting 'monoclinic'
loop_
_space_group_symop_operation_xyz
x,y,z
-x,1/2+y,-z
-x,-y,-z
x,1/2-y,z
loop_
_atom_site_type_symbol
_atom_site_label
_atom_site_fract_x
_atom_site_fract_y
_atom_site_fract_z
Si Si1 0.361514 0.909570 0.378294
Si Si2 0.857197 0.412085 0.578863
Si Si3 0.320657 0.410986 0.705600
Si Si4 0.648524 0.411102 0.875319
Si Si5 0.813495 0.589847 0.155419
O O1 0.409794 0.750000 0.424262
O O2 0.227484 0.948333 0.366875
O O3 0.310012 0.938692 0.221747
O O4 0.500000 0.000000 0.500000
O O5 0.843685 0.250000 0.539829
O O6 0.794125 0.499125 0.437644
O O7 0.024099 0.457437 0.704866
O O8 0.299047 0.250000 0.658607
O O9 0.483458 0.462634 0.786857
O O10 0.293510 0.434844 0.814542
O O11 0.664070 0.250000 0.918056
O O12 0.761239 0.498449 0.020553
O O13 0.812429 0.750000 0.117549
#
# Coordination Sequence:
#
# PCOD8074559 Si02
#       5
#     4   4   4   4   4
#     4  10  20  36  57  80 107 138 178 224 267 317
#     4  10  21  36  56  82 110 141 179 223 268 318
#     4  10  20  36  57  80 109 144 182 222 263 316
#     4  10  21  36  55  80 108 141 182 224 266 315
#     4  10  22  37  53  80 114 144 178 220 268 319
#
# _framework density 18.455549999999999
#
# number of rings (size 3 to 8) (size 9 to 14) (size 15 to 20)
#    0.000    2.000    2.000    1.200    0.000    4.000 
#    0.000    0.000    0.000    0.000    0.000    0.000 
#    0.000    0.000    0.000    0.000    0.000    0.000 
#
# Total GULP energy -248105.080066 kJ/mol
# GULP energy per Si atom -12405.254003 kJ/mol
# Density = 1.841354 g / cm^3
# Si number density = 18.455550 Si / 1000 Ang^3
#
#
#
# Elastic Constant Matrix: (Units=GPa)
#
#
# Indices 1 2 3 4 5 6 
#
# 1 50.9668 11.3791 3.7728 0.0000 -3.8633 0.0000
# 2 11.3791 58.4899 53.1394 0.0000 -0.3149 0.0000
# 3 3.7728 53.1394 101.5855 0.0000 -0.3914 0.0000
# 4 0.0000 0.0000 0.0000 44.0476 0.0000 2.4531
# 5 -3.8633 -0.3149 -0.3914 0.0000 27.1686 0.0000
# 6 0.0000 0.0000 0.0000 2.4531 0.0000 20.0562
#
#
#
# Elastic Compliance Matrix: (Units=1/GPa)
#
#
# Indices 1 2 3 4 5 6 
#
# 1 0.021093 -0.006453 0.002604 0.000000 0.002962 0.000000
# 2 -0.006453 0.034556 -0.017840 0.000000 -0.000774 0.000000
# 3 0.002604 -0.017840 0.019081 0.000000 0.000438 0.000000
# 4 0.000000 0.000000 0.000000 0.022858 0.000000 -0.002796
# 5 0.002962 -0.000774 0.000438 0.000000 0.037226 0.000000
# 6 0.000000 0.000000 0.000000 -0.002796 0.000000 0.050202
#
#
# Mechanical properties :
#
#
# Convention : Reuss Voigt Hill
#
# Bulk Modulus (GPa) = 31.89610 38.62497 35.26054
# Shear Modulus (GPa) = 20.93410 27.77120 24.35265
#
# Velocity S-wave (km/s) = 3.37159 3.88333 3.63647
# Velocity P-wave (km/s) = 5.69886 6.40946 6.06457
#
# Compressibility (1/GPa) = 0.03135179
#
# Stress axis : x y z
#
# Youngs Moduli (GPa) = 47.40867 28.93857 52.40870
#
# Poissons Ratio (x) = 0.18675 -0.13646
# Poissons Ratio (y) = 0.30594 0.93495
# Poissons Ratio (z) = -0.12344 0.51625
#
# Static dielectric constant tensor:
#      x y z
#    x 3.667200 0.000000 -0.042320 
#    y 0.000000 3.362280 0.000000 
#    z -0.042320 0.000000 3.242880 
# 
# 
# High freq. dielectric constant tensor:
#      x y z
#    x 1.730670 0.000000 -0.004500 
#    y 0.000000 1.712180 0.000000 
#    z -0.004500 0.000000 1.712410 
# 
# From -- ./inp_files/15873.got.cif
#   From: 2010.06.25/outbox.cif.g09.slc.cpg/sg11_8_cif.got.tgz:15873.got - 2010.06.27 23:14:04.
