data_PCOD8074699
_publ_section_title
;
Structure prediction by ZEFSAII (Michael W. Deem and Ramdas Pophale) SiO2 
 PCOD8074699
Probable space group: P 21/M
;
_chemical_formula_sum "Si O2"
_cell_formula_units_Z 32
_cell_length_a 8.677994
_cell_length_b 14.809526
_cell_length_c 14.544562
_cell_angle_alpha 90.000000
_cell_angle_beta 119.347493
_cell_angle_gamma 90.000000
_cell_volume 1629.333256
_symmetry_space_group_name_H-M "P 21/M"
_symmetry_group_IT_number 11
_symmetry_cell_setting 'monoclinic'
loop_
_space_group_symop_operation_xyz
x,y,z
-x,1/2+y,-z
-x,-y,-z
x,1/2-y,z
loop_
_atom_site_type_symbol
_atom_site_label
_atom_site_fract_x
_atom_site_fract_y
_atom_site_fract_z
Si Si1 0.428640 0.150447 0.635516
Si Si2 0.036703 0.506106 0.116926
Si Si3 0.812781 0.852774 0.723242
Si Si4 0.562023 0.353666 0.478229
Si Si5 0.798196 0.477155 0.426753
Si Si6 0.279943 0.849778 0.133529
Si Si7 0.677930 0.443651 0.049955
Si Si8 0.181625 0.852407 0.738707
O O1 0.341269 0.250000 0.593919
O O2 0.554061 0.129120 0.585036
O O3 0.534287 0.152433 0.761225
O O4 0.281787 0.075940 0.605036
O O5 0.155113 0.420127 0.182294
O O6 0.146415 0.597599 0.162862
O O7 0.848125 0.509719 0.114013
O O8 0.000000 0.500000 0.000000
O O9 0.809638 0.750000 0.759956
O O10 0.629300 0.878144 0.620641
O O11 0.973298 0.864907 0.698292
O O12 0.612781 0.250000 0.470659
O O13 0.713202 0.420476 0.485397
O O14 0.761446 0.420233 0.324454
O O15 0.000000 0.500000 0.500000
O O16 0.202234 0.750000 0.096381
O O17 0.305627 0.893599 0.041820
O O18 0.691214 0.371734 0.136519
O O19 0.500000 0.500000 0.000000
O O20 0.219833 0.750000 0.718293
#
# Coordination Sequence:
#
# PCOD8074699 Si02
#       8
#     4   4   4   4   4   4   4   4
#     4  10  22  39  59  81 110 149 192 235 281 335
#     4   9  19  33  53  80 109 142 183 230 273 323
#     4   9  18  35  60  83 108 143 186 235 286 333
#     4  10  21  38  59  84 111 143 188 240 285 336
#     4  12  24  36  56  85 117 152 185 231 289 348
#     4  10  20  37  58  79 108 149 190 229 275 330
#     4  10  20  36  58  85 117 150 184 231 285 342
#     4  10  21  38  59  85 116 152 192 237 289 343
#
# _framework density 19.639934
#
# number of rings (size 3 to 8) (size 9 to 14) (size 15 to 20)
#    0.000    2.000    0.000    3.375    0.000    8.000 
#    0.000    1.250    0.000    6.750    0.000    0.000 
#    0.000    0.000    0.000    0.000    0.000    0.000 
#
# Total GULP energy -396696.020168 kJ/mol
# GULP energy per Si atom -12396.750630 kJ/mol
# Density = 1.959523 g / cm^3
# Si number density = 19.639934 Si / 1000 Ang^3
#
#
#
# Elastic Constant Matrix: (Units=GPa)
#
#
# Indices 1 2 3 4 5 6 
#
# 1 93.9829 78.7148 37.8895 0.0000 7.8313 0.0000
# 2 78.7148 159.5426 49.0327 0.0000 -0.9734 0.0000
# 3 37.8895 49.0327 94.1433 0.0000 -8.5162 0.0000
# 4 0.0000 0.0000 0.0000 30.9286 0.0000 -6.1187
# 5 7.8313 -0.9734 -8.5162 0.0000 31.7413 0.0000
# 6 0.0000 0.0000 0.0000 -6.1187 0.0000 36.2880
#
#
#
# Elastic Compliance Matrix: (Units=1/GPa)
#
#
# Indices 1 2 3 4 5 6 
#
# 1 0.020119 -0.008691 -0.004144 0.000000 -0.006342 0.000000
# 2 -0.008691 0.011239 -0.002183 0.000000 0.001903 0.000000
# 3 -0.004144 -0.002183 0.013850 0.000000 0.004671 0.000000
# 4 0.000000 0.000000 0.000000 0.033448 0.000000 0.005640
# 5 -0.006342 0.001903 0.004671 0.000000 0.034381 0.000000
# 6 0.000000 0.000000 0.000000 0.005640 0.000000 0.028508
#
#
# Mechanical properties :
#
#
# Convention : Reuss Voigt Hill
#
# Bulk Modulus (GPa) = 65.92122 75.43809 70.67966
# Shear Modulus (GPa) = 28.30638 31.92703 30.11670
#
# Velocity S-wave (km/s) = 3.80052 4.03627 3.92017
# Velocity P-wave (km/s) = 7.27299 7.75989 7.52038
#
# Compressibility (1/GPa) = 0.01516962
#
# Stress axis : x y z
#
# Youngs Moduli (GPa) = 49.70499 88.97929 72.20372
#
# Poissons Ratio (x) = 0.77334 0.29923
# Poissons Ratio (y) = 0.43200 0.15764
# Poissons Ratio (z) = 0.20599 0.19427
#
# Static dielectric constant tensor:
#      x y z
#    x 3.720210 0.000000 0.068090 
#    y 0.000000 3.331580 0.000000 
#    z 0.068090 0.000000 3.617970 
# 
# 
# High freq. dielectric constant tensor:
#      x y z
#    x 1.750630 0.000000 0.001130 
#    y 0.000000 1.775570 0.000000 
#    z 0.001130 0.000000 1.773100 
# 
# From -- ./inp_files/47632.got.cif
#   From: 2010.06.25/outbox.cif.g09.slc.cpg/sg11_24_cif.got.tgz:47632.got - 2010.06.27 23:14:04.
