data_PCOD8074607
_publ_section_title
;
Structure prediction by ZEFSAII (Michael W. Deem and Ramdas Pophale) SiO2 
 PCOD8074607
Probable space group: P 21/M
;
_chemical_formula_sum "Si O2"
_cell_formula_units_Z 24
_cell_length_a 21.806263
_cell_length_b 8.447380
_cell_length_c 16.394685
_cell_angle_alpha 90.000000
_cell_angle_beta 24.067800
_cell_angle_gamma 90.000000
_cell_volume 1231.606836
_symmetry_space_group_name_H-M "P 21/M"
_symmetry_group_IT_number 11
_symmetry_cell_setting 'monoclinic'
loop_
_space_group_symop_operation_xyz
x,y,z
-x,1/2+y,-z
-x,-y,-z
x,1/2-y,z
loop_
_atom_site_type_symbol
_atom_site_label
_atom_site_fract_x
_atom_site_fract_y
_atom_site_fract_z
Si Si1 0.891031 0.434461 0.387790
Si Si2 0.962222 0.064577 0.633928
Si Si3 0.166294 0.567447 0.797160
Si Si4 0.672013 0.565840 0.064749
Si Si5 0.355165 0.432643 0.423167
Si Si6 0.185672 0.932557 0.957156
O O1 0.856297 0.250000 0.425001
O O2 0.924975 0.483414 0.439046
O O3 0.745227 0.527740 0.533462
O O4 0.030481 0.474459 0.159698
O O5 0.989170 0.250000 0.604032
O O6 0.000000 0.000000 0.500000
O O7 0.790074 0.025753 0.864556
O O8 0.163612 0.750000 0.772577
O O9 0.267542 0.468615 0.612816
O O10 0.237327 0.549143 0.801059
O O11 0.000000 0.500000 0.000000
O O12 0.711719 0.750000 0.013428
O O13 0.505316 0.536433 0.234828
O O14 0.684779 0.504144 0.142484
O O15 0.400631 0.250000 0.366910
O O16 0.156889 0.750000 0.015311
#
# Coordination Sequence:
#
# PCOD8074607 Si02
#       6
#     4   4   4   4   4   4
#     4  11  21  36  60  88 118 154 197 241 292 349
#     4  11  22  41  67  94 121 152 192 235 287 350
#     4  11  22  35  56  84 117 156 204 250 293 344
#     4  11  23  40  61  87 119 155 195 243 299 352
#     4  12  24  39  58  84 120 160 199 246 299 348
#     4  10  20  36  57  83 115 156 201 245 293 346
#
# _framework density 19.486739
#
# number of rings (size 3 to 8) (size 9 to 14) (size 15 to 20)
#    0.000    1.000    1.667    9.000    0.000    2.667 
#    0.000    0.833    0.000    0.000    0.000    0.000 
#    0.000    0.000    0.000    0.000    0.000    0.000 
#
# Total GULP energy -297735.878967 kJ/mol
# GULP energy per Si atom -12405.661624 kJ/mol
# Density = 1.944239 g / cm^3
# Si number density = 19.486739 Si / 1000 Ang^3
#
#
#
# Elastic Constant Matrix: (Units=GPa)
#
#
# Indices 1 2 3 4 5 6 
#
# 1 113.4129 14.9967 47.7542 0.0000 0.3780 0.0000
# 2 14.9967 100.8401 1.4290 0.0000 7.4567 0.0000
# 3 47.7542 1.4290 71.3547 0.0000 -8.4899 0.0000
# 4 0.0000 0.0000 0.0000 32.3146 0.0000 -1.4696
# 5 0.3780 7.4567 -8.4899 0.0000 32.6790 0.0000
# 6 0.0000 0.0000 0.0000 -1.4696 0.0000 35.4703
#
#
#
# Elastic Compliance Matrix: (Units=1/GPa)
#
#
# Indices 1 2 3 4 5 6 
#
# 1 0.012707 -0.001615 -0.008715 0.000000 -0.002043 0.000000
# 2 -0.001615 0.010309 0.000616 0.000000 -0.002174 0.000000
# 3 -0.008715 0.000616 0.020463 0.000000 0.005276 0.000000
# 4 0.000000 0.000000 0.000000 0.031004 0.000000 0.001285
# 5 -0.002043 -0.002174 0.005276 0.000000 0.032491 0.000000
# 6 0.000000 0.000000 0.000000 0.001285 0.000000 0.028246
#
#
# Mechanical properties :
#
#
# Convention : Reuss Voigt Hill
#
# Bulk Modulus (GPa) = 41.58008 45.99640 43.78824
# Shear Modulus (GPa) = 30.73797 34.85464 32.79630
#
# Velocity S-wave (km/s) = 3.97593 4.23381 4.10690
# Velocity P-wave (km/s) = 6.51624 6.89604 6.70883
#
# Compressibility (1/GPa) = 0.02404997
#
# Stress axis : x y z
#
# Youngs Moduli (GPa) = 78.69462 97.00351 48.86986
#
# Poissons Ratio (x) = 0.15669 0.42590
# Poissons Ratio (y) = 0.12711 -0.03010
# Poissons Ratio (z) = 0.68583 -0.05975
#
# Static dielectric constant tensor:
#      x y z
#    x 3.746460 0.000000 -0.023410 
#    y 0.000000 3.456350 0.000000 
#    z -0.023410 0.000000 3.188400 
# 
# 
# High freq. dielectric constant tensor:
#      x y z
#    x 1.767840 0.000000 -0.006250 
#    y 0.000000 1.781610 0.000000 
#    z -0.006250 0.000000 1.735170 
# 
# From -- ./inp_files/60725.got.cif
#   From: 2010.06.25/outbox.cif.g09.slc.cpg/sg11_31_cif.got.tgz:60725.got - 2010.06.27 23:14:04.
