data_PCOD8074885
_publ_section_title
;
Structure prediction by ZEFSAII (Michael W. Deem and Ramdas Pophale) SiO2 
 PCOD8074885
Probable space group: P 21/M
;
_chemical_formula_sum "Si O2"
_cell_formula_units_Z 28
_cell_length_a 14.538386
_cell_length_b 8.669290
_cell_length_c 12.629037
_cell_angle_alpha 90.000000
_cell_angle_beta 59.117069
_cell_angle_gamma 90.000000
_cell_volume 1366.052872
_symmetry_space_group_name_H-M "P 21/M"
_symmetry_group_IT_number 11
_symmetry_cell_setting 'monoclinic'
loop_
_space_group_symop_operation_xyz
x,y,z
-x,1/2+y,-z
-x,-y,-z
x,1/2-y,z
loop_
_atom_site_type_symbol
_atom_site_label
_atom_site_fract_x
_atom_site_fract_y
_atom_site_fract_z
Si Si1 0.606128 0.932515 0.487276
Si Si2 0.313423 0.567422 0.352931
Si Si3 0.993917 0.068045 0.188206
Si Si4 0.616027 0.932638 0.910388
Si Si5 0.227481 0.067439 0.991826
Si Si6 0.228105 0.931504 0.771210
Si Si7 0.926056 0.067785 0.454898
O O1 0.601258 0.750000 0.488822
O O2 0.500000 0.000000 0.500000
O O3 0.608830 0.992191 0.606258
O O4 0.709139 0.989300 0.361547
O O5 0.329344 0.750000 0.344591
O O6 0.338609 0.503371 0.223079
O O7 0.194345 0.514514 0.452729
O O8 0.005381 0.250000 0.191484
O O9 0.898075 0.024341 0.164207
O O10 0.964788 0.998911 0.320124
O O11 0.108027 0.000157 0.083610
O O12 0.609640 0.750000 0.903972
O O13 0.694727 0.982361 0.959093
O O14 0.500000 0.000000 0.000000
O O15 0.226755 0.250000 0.976810
O O16 0.271345 0.990842 0.858292
O O17 0.246611 0.750000 0.749503
O O18 0.934920 0.250000 0.450617
O O19 0.000000 0.000000 0.500000
#
# Coordination Sequence:
#
# PCOD8074885 Si02
#       7
#     4   4   4   4   4   4   4
#     4  12  26  44  68  96 128 166 213 263 319 383
#     4  11  23  43  68  95 130 166 211 264 320 379
#     4   9  18  37  61  88 126 166 206 255 313 375
#     4  11  25  44  66  91 126 169 218 269 321 377
#     4  10  22  40  63  91 126 170 217 263 313 373
#     4  11  22  40  65  94 130 167 208 260 320 379
#     4  10  20  36  60  90 127 168 208 257 312 374
#
# _framework density 20.497008000000001
#
# number of rings (size 3 to 8) (size 9 to 14) (size 15 to 20)
#    0.000    1.429    1.429    3.857    2.000    3.429 
#    0.000    1.429    0.000    0.000    0.000    0.000 
#    0.000    0.000    0.000    0.000    0.000    0.000 
#
# Total GULP energy -347298.942084 kJ/mol
# GULP energy per Si atom -12403.533646 kJ/mol
# Density = 2.045036 g / cm^3
# Si number density = 20.497008 Si / 1000 Ang^3
#
#
#
# Elastic Constant Matrix: (Units=GPa)
#
#
# Indices 1 2 3 4 5 6 
#
# 1 133.5638 47.7400 38.0482 0.0000 18.7650 0.0000
# 2 47.7400 80.7067 35.1784 0.0000 9.3314 0.0000
# 3 38.0482 35.1784 109.3547 0.0000 23.4800 0.0000
# 4 0.0000 0.0000 0.0000 36.5456 0.0000 3.2281
# 5 18.7650 9.3314 23.4800 0.0000 41.8395 0.0000
# 6 0.0000 0.0000 0.0000 3.2281 0.0000 33.3646
#
#
#
# Elastic Compliance Matrix: (Units=1/GPa)
#
#
# Indices 1 2 3 4 5 6 
#
# 1 0.010039 -0.005068 -0.001294 0.000000 -0.002646 0.000000
# 2 -0.005068 0.016988 -0.003839 0.000000 0.000638 0.000000
# 3 -0.001294 -0.003839 0.011963 0.000000 -0.005277 0.000000
# 4 0.000000 0.000000 0.000000 0.027599 0.000000 -0.002670
# 5 -0.002646 0.000638 -0.005277 0.000000 0.027906 0.000000
# 6 0.000000 0.000000 0.000000 -0.002670 0.000000 0.030230
#
#
# Mechanical properties :
#
#
# Convention : Reuss Voigt Hill
#
# Bulk Modulus (GPa) = 53.80030 62.83983 58.32007
# Shear Modulus (GPa) = 33.04183 35.86051 34.45117
#
# Velocity S-wave (km/s) = 4.01937 4.18730 4.10419
# Velocity P-wave (km/s) = 6.91703 7.35544 7.13960
#
# Compressibility (1/GPa) = 0.01858726
#
# Stress axis : x y z
#
# Youngs Moduli (GPa) = 99.61084 58.86564 83.59284
#
# Poissons Ratio (x) = 0.29834 0.10821
# Poissons Ratio (y) = 0.50485 0.32087
# Poissons Ratio (z) = 0.12894 0.22596
#
# Static dielectric constant tensor:
#      x y z
#    x 3.933290 0.000000 0.066670 
#    y 0.000000 3.575390 0.000000 
#    z 0.066670 0.000000 3.748030 
# 
# 
# High freq. dielectric constant tensor:
#      x y z
#    x 1.816640 0.000000 0.004960 
#    y 0.000000 1.790170 0.000000 
#    z 0.004960 0.000000 1.816110 
# 
# From -- ./inp_files/37883.got.cif
#   From: 2010.06.25/outbox.cif.g09.slc.cpg/sg11_19_cif.got.tgz:37883.got - 2010.06.27 23:14:04.
