data_PCOD8074171
_publ_section_title
;
Structure prediction by ZEFSAII (Michael W. Deem and Ramdas Pophale) SiO2 
 PCOD8074171
Probable space group: P 21/M
;
_chemical_formula_sum "Si O2"
_cell_formula_units_Z 32
_cell_length_a 19.407767
_cell_length_b 9.416374
_cell_length_c 25.145215
_cell_angle_alpha 90.000000
_cell_angle_beta 158.518211
_cell_angle_gamma 90.000000
_cell_volume 1682.826973
_symmetry_space_group_name_H-M "P 21/M"
_symmetry_group_IT_number 11
_symmetry_cell_setting 'monoclinic'
loop_
_space_group_symop_operation_xyz
x,y,z
-x,1/2+y,-z
-x,-y,-z
x,1/2-y,z
loop_
_atom_site_type_symbol
_atom_site_label
_atom_site_fract_x
_atom_site_fract_y
_atom_site_fract_z
Si Si1 0.844241 0.586295 0.046727
Si Si2 0.864882 0.587445 0.940154
Si Si3 0.827992 0.907503 0.361917
Si Si4 0.563496 0.085821 0.363358
Si Si5 0.268598 0.908568 0.890704
Si Si6 0.515302 0.589749 0.226564
Si Si7 0.059420 0.914401 0.307464
Si Si8 0.405117 0.905904 0.871261
O O1 0.779902 0.750000 0.003194
O O2 0.007164 0.554472 0.207780
O O3 0.914376 0.551601 0.037264
O O4 0.664898 0.487126 0.928874
O O5 0.906793 0.750000 0.958025
O O6 0.648248 0.550035 0.769275
O O7 0.000000 0.500000 0.000000
O O8 0.893410 0.750000 0.394116
O O9 0.676103 0.907597 0.298772
O O10 0.755108 0.982379 0.256992
O O11 0.000000 0.000000 0.500000
O O12 0.573599 0.250000 0.353068
O O13 0.719714 0.053824 0.521494
O O14 0.603021 0.991181 0.340070
O O15 0.262583 0.750000 0.913352
O O16 0.377585 0.886798 0.913906
O O17 0.060795 0.978270 0.741418
O O18 0.400387 0.027707 0.012731
O O19 0.459107 0.750000 0.202777
O O20 0.013536 0.750000 0.288455
O O21 0.385128 0.750000 0.829878
#
# Coordination Sequence:
#
# PCOD8074171 Si02
#       8
#     4   4   4   4   4   4   4   4
#     4   9  19  36  58  83 110 142 180 220 265 323
#     4   9  18  35  58  83 113 147 182 218 259 315
#     4  11  24  37  51  73 103 138 181 232 284 332
#     4   9  20  37  57  83 112 145 183 222 271 329
#     4  10  21  35  53  76 105 138 175 226 279 329
#     4  10  21  36  54  77 106 140 183 231 276 325
#     4  10  20  35  57  82 108 142 183 225 274 328
#     4  10  21  37  53  72 100 137 183 228 278 335
#
# _framework density 19.015620999999999
#
# number of rings (size 3 to 8) (size 9 to 14) (size 15 to 20)
#    0.000    2.250    0.000    3.000    1.750    8.500 
#    0.000    0.625    0.000    0.000    0.000    0.000 
#    0.000    0.000    0.000    0.000    0.000    0.000 
#
# Total GULP energy -396460.738579 kJ/mol
# GULP energy per Si atom -12389.398081 kJ/mol
# Density = 1.897234 g / cm^3
# Si number density = 19.015621 Si / 1000 Ang^3
#
#
#
# Elastic Constant Matrix: (Units=GPa)
#
#
# Indices 1 2 3 4 5 6 
#
# 1 51.3786 36.4326 28.1198 0.0000 -1.7143 0.0000
# 2 36.4326 133.7454 48.2699 0.0000 -0.4601 0.0000
# 3 28.1198 48.2699 118.0471 0.0000 -17.6993 0.0000
# 4 0.0000 0.0000 0.0000 27.4081 0.0000 4.4509
# 5 -1.7143 -0.4601 -17.6993 0.0000 25.1205 0.0000
# 6 0.0000 0.0000 0.0000 4.4509 0.0000 29.5905
#
#
#
# Elastic Compliance Matrix: (Units=1/GPa)
#
#
# Indices 1 2 3 4 5 6 
#
# 1 0.025523 -0.005512 -0.004003 0.000000 -0.001179 0.000000
# 2 -0.005512 0.010122 -0.003192 0.000000 -0.002439 0.000000
# 3 -0.004003 -0.003192 0.011942 0.000000 0.008082 0.000000
# 4 0.000000 0.000000 0.000000 0.037399 0.000000 -0.005625
# 5 -0.001179 -0.002439 0.008082 0.000000 0.045377 0.000000
# 6 0.000000 0.000000 0.000000 -0.005625 0.000000 0.034641
#
#
# Mechanical properties :
#
#
# Convention : Reuss Voigt Hill
#
# Bulk Modulus (GPa) = 45.09821 58.75727 51.92774
# Shear Modulus (GPa) = 25.27701 29.11375 27.19538
#
# Velocity S-wave (km/s) = 3.64988 3.91710 3.78585
# Velocity P-wave (km/s) = 6.44438 7.17111 6.81744
#
# Compressibility (1/GPa) = 0.02217383
#
# Stress axis : x y z
#
# Youngs Moduli (GPa) = 39.17982 98.79594 83.74125
#
# Poissons Ratio (x) = 0.54457 0.33520
# Poissons Ratio (y) = 0.21596 0.26727
# Poissons Ratio (z) = 0.15683 0.31532
#
# Static dielectric constant tensor:
#      x y z
#    x 3.197640 0.000000 -0.168070 
#    y 0.000000 3.956820 0.000000 
#    z -0.168070 0.000000 3.508260 
# 
# 
# High freq. dielectric constant tensor:
#      x y z
#    x 1.712380 0.000000 -0.009500 
#    y 0.000000 1.756190 0.000000 
#    z -0.009500 0.000000 1.734500 
# 
# From -- ./inp_files/67204.got.cif
#   From: 2010.06.25/outbox.cif.g09.slc.cpg/sg11_34_cif.got.tgz:67204.got - 2010.06.27 23:14:04.
