data_PCOD8074461
_publ_section_title
;
Structure prediction by ZEFSAII (Michael W. Deem and Ramdas Pophale) SiO2 
 PCOD8074461
Probable space group: P 21/M
;
_chemical_formula_sum "Si O2"
_cell_formula_units_Z 28
_cell_length_a 25.317766
_cell_length_b 8.907158
_cell_length_c 16.727953
_cell_angle_alpha 90.000000
_cell_angle_beta 25.045682
_cell_angle_gamma 90.000000
_cell_volume 1596.972322
_symmetry_space_group_name_H-M "P 21/M"
_symmetry_group_IT_number 11
_symmetry_cell_setting 'monoclinic'
loop_
_space_group_symop_operation_xyz
x,y,z
-x,1/2+y,-z
-x,-y,-z
x,1/2-y,z
loop_
_atom_site_type_symbol
_atom_site_label
_atom_site_fract_x
_atom_site_fract_y
_atom_site_fract_z
Si Si1 0.481130 0.926850 0.236002
Si Si2 0.886213 0.924456 0.818893
Si Si3 0.746710 0.423440 0.869217
Si Si4 0.171262 0.921004 0.420996
Si Si5 0.433143 0.925668 0.479190
Si Si6 0.317084 0.425397 0.778108
Si Si7 0.393498 0.073222 0.199642
O O1 0.475693 0.750000 0.226844
O O2 0.418637 0.969686 0.406384
O O3 0.402667 0.013858 0.277126
O O4 0.624521 0.974974 0.039212
O O5 0.862689 0.750000 0.829275
O O6 0.030192 0.956748 0.639819
O O7 0.842916 0.025798 0.804793
O O8 0.810329 0.970365 0.002564
O O9 0.709569 0.250000 0.932568
O O10 0.815512 0.448990 0.691167
O O11 0.207874 0.750000 0.392348
O O12 0.258369 0.033001 0.350848
O O13 0.423528 0.750000 0.503961
O O14 0.567795 0.983908 0.325455
O O15 0.322591 0.999319 0.682948
O O16 0.325843 0.250000 0.752364
O O17 0.413939 0.250000 0.170708
O O18 0.500000 0.000000 0.000000
#
# Coordination Sequence:
#
# PCOD8074461 Si02
#       7
#     4   4   4   4   4   4   4
#     4  11  21  36  57  79 109 143 178 222 271 320
#     4  10  20  36  55  77 111 149 182 218 266 325
#     4  11  21  32  51  81 112 144 182 219 264 321
#     4  10  22  38  55  77 108 147 186 222 266 318
#     4   9  18  32  51  78 107 138 174 216 271 320
#     4   9  17  31  51  77 107 140 176 215 265 319
#     4  12  24  38  57  80 107 141 183 226 268 313
#
# _framework density 17.533177999999999
#
# number of rings (size 3 to 8) (size 9 to 14) (size 15 to 20)
#    0.000    1.714    2.857    2.571    0.000    2.857 
#    0.000    0.000    0.000    0.857    0.000    0.000 
#    0.000    0.000    0.000    0.000    0.000    0.000 
#
# Total GULP energy -347283.565329 kJ/mol
# GULP energy per Si atom -12402.984476 kJ/mol
# Density = 1.749327 g / cm^3
# Si number density = 17.533178 Si / 1000 Ang^3
#
#
#
# Elastic Constant Matrix: (Units=GPa)
#
#
# Indices 1 2 3 4 5 6 
#
# 1 109.9600 56.5186 67.7944 0.0000 17.1528 0.0000
# 2 56.5186 81.3384 47.2840 0.0000 11.4926 0.0000
# 3 67.7944 47.2840 119.9443 0.0000 13.0677 0.0000
# 4 0.0000 0.0000 0.0000 25.1207 0.0000 2.2448
# 5 17.1528 11.4926 13.0677 0.0000 25.4145 0.0000
# 6 0.0000 0.0000 0.0000 2.2448 0.0000 32.0412
#
#
#
# Elastic Compliance Matrix: (Units=1/GPa)
#
#
# Indices 1 2 3 4 5 6 
#
# 1 0.018008 -0.008030 -0.006445 0.000000 -0.005209 0.000000
# 2 -0.008030 0.019968 -0.003114 0.000000 -0.002009 0.000000
# 3 -0.006445 -0.003114 0.013327 0.000000 -0.001094 0.000000
# 4 0.000000 0.000000 0.000000 0.040059 0.000000 -0.002807
# 5 -0.005209 -0.002009 -0.001094 0.000000 0.044334 0.000000
# 6 0.000000 0.000000 0.000000 -0.002807 0.000000 0.031406
#
#
# Mechanical properties :
#
#
# Convention : Reuss Voigt Hill
#
# Bulk Modulus (GPa) = 62.01940 72.71521 67.36731
# Shear Modulus (GPa) = 24.07823 25.82498 24.95160
#
# Velocity S-wave (km/s) = 3.70982 3.84203 3.77650
# Velocity P-wave (km/s) = 7.33483 7.82589 7.58433
#
# Compressibility (1/GPa) = 0.01612399
#
# Stress axis : x y z
#
# Youngs Moduli (GPa) = 55.53106 50.07918 75.03536
#
# Poissons Ratio (x) = 0.40215 0.48362
# Poissons Ratio (y) = 0.44593 0.23368
# Poissons Ratio (z) = 0.35791 0.15596
#
# Static dielectric constant tensor:
#      x y z
#    x 3.328050 0.000000 0.176080 
#    y 0.000000 3.296400 0.000000 
#    z 0.176080 0.000000 3.262300 
# 
# 
# High freq. dielectric constant tensor:
#      x y z
#    x 1.668060 0.000000 0.015120 
#    y 0.000000 1.681860 0.000000 
#    z 0.015120 0.000000 1.669430 
# 
# From -- ./inp_files/37499.got.cif
#   From: 2010.06.25/outbox.cif.g09.slc.cpg/sg11_19_cif.got.tgz:37499.got - 2010.06.27 23:14:04.
