data_PCOD8074181
_publ_section_title
;
Structure prediction by ZEFSAII (Michael W. Deem and Ramdas Pophale) SiO2 
 PCOD8074181
Probable space group: P 21/M
;
_chemical_formula_sum "Si O2"
_cell_formula_units_Z 32
_cell_length_a 14.937460
_cell_length_b 8.996665
_cell_length_c 14.759780
_cell_angle_alpha 90.000000
_cell_angle_beta 120.631683
_cell_angle_gamma 90.000000
_cell_volume 1706.746739
_symmetry_space_group_name_H-M "P 21/M"
_symmetry_group_IT_number 11
_symmetry_cell_setting 'monoclinic'
loop_
_space_group_symop_operation_xyz
x,y,z
-x,1/2+y,-z
-x,-y,-z
x,1/2-y,z
loop_
_atom_site_type_symbol
_atom_site_label
_atom_site_fract_x
_atom_site_fract_y
_atom_site_fract_z
Si Si1 0.210844 0.925695 0.941190
Si Si2 0.720557 0.073038 0.217348
Si Si3 0.231200 0.425629 0.287408
Si Si4 0.891886 0.419967 0.445621
Si Si5 0.277283 0.923412 0.498380
Si Si6 0.008060 0.425212 0.101074
Si Si7 0.660876 0.078038 0.820672
Si Si8 0.582510 0.922001 0.284259
O O1 0.217207 0.750000 0.939164
O O2 0.260686 0.988561 0.874290
O O3 0.090612 0.976137 0.889333
O O4 0.277223 0.983887 0.060260
O O5 0.703697 0.250000 0.213575
O O6 0.820432 0.022703 0.326876
O O7 0.620284 0.993803 0.209057
O O8 0.239174 0.250000 0.302824
O O9 0.272903 0.501472 0.399069
O O10 0.112743 0.476267 0.206128
O O11 0.306428 0.477869 0.246524
O O12 0.917618 0.250000 0.443546
O O13 0.833399 0.448784 0.510105
O O14 0.000000 0.500000 0.500000
O O15 0.302955 0.750000 0.501196
O O16 0.369055 0.995801 0.604262
O O17 0.007519 0.250000 0.084446
O O18 0.000000 0.500000 0.000000
O O19 0.689275 0.250000 0.815983
O O20 0.540138 0.056793 0.776543
O O21 0.614958 0.750000 0.304190
#
# Coordination Sequence:
#
# PCOD8074181 Si02
#       8
#     4   4   4   4   4   4   4   4
#     4   9  18  35  58  82 112 151 188 221 270 339
#     4   9  19  36  57  80 110 150 188 224 277 338
#     4  11  23  36  57  89 116 145 188 236 280 328
#     4   9  19  33  52  78 107 142 183 223 271 327
#     4  10  22  40  59  80 110 151 188 226 283 343
#     4  10  20  35  57  82 114 152 186 226 277 329
#     4  10  21  38  60  82 111 152 190 229 284 338
#     4  10  21  38  59  84 112 144 187 240 285 327
#
# _framework density 18.749119
#
# number of rings (size 3 to 8) (size 9 to 14) (size 15 to 20)
#    0.000    2.250    1.250    1.875    1.750    5.000 
#    0.000    1.250    0.000    0.000    0.000    0.000 
#    0.000    0.000    0.000    0.000    0.000    0.000 
#
# Total GULP energy -396834.216668 kJ/mol
# GULP energy per Si atom -12401.069271 kJ/mol
# Density = 1.870644 g / cm^3
# Si number density = 18.749119 Si / 1000 Ang^3
#
#
#
# Elastic Constant Matrix: (Units=GPa)
#
#
# Indices 1 2 3 4 5 6 
#
# 1 112.4665 40.4227 49.7997 0.0000 -10.2247 0.0000
# 2 40.4227 59.1463 24.3839 0.0000 -6.0174 0.0000
# 3 49.7997 24.3839 73.7512 0.0000 -29.6769 0.0000
# 4 0.0000 0.0000 0.0000 24.2913 0.0000 0.1737
# 5 -10.2247 -6.0174 -29.6769 0.0000 36.6083 0.0000
# 6 0.0000 0.0000 0.0000 0.1737 0.0000 29.3684
#
#
#
# Elastic Compliance Matrix: (Units=1/GPa)
#
#
# Indices 1 2 3 4 5 6 
#
# 1 0.015395 -0.006843 -0.010174 0.000000 -0.005073 0.000000
# 2 -0.006843 0.022844 -0.003250 0.000000 -0.000791 0.000000
# 3 -0.010174 -0.003250 0.029898 0.000000 0.020861 0.000000
# 4 0.000000 0.000000 0.000000 0.041169 0.000000 -0.000243
# 5 -0.005073 -0.000791 0.020861 0.000000 0.042681 0.000000
# 6 0.000000 0.000000 0.000000 -0.000243 0.000000 0.034052
#
#
# Mechanical properties :
#
#
# Convention : Reuss Voigt Hill
#
# Bulk Modulus (GPa) = 36.22969 52.73076 44.48022
# Shear Modulus (GPa) = 21.20687 26.77079 23.98883
#
# Velocity S-wave (km/s) = 3.36681 3.78278 3.58084
# Velocity P-wave (km/s) = 5.87190 6.87493 6.39312
#
# Compressibility (1/GPa) = 0.02760167
#
# Stress axis : x y z
#
# Youngs Moduli (GPa) = 64.95659 43.77604 33.44714
#
# Poissons Ratio (x) = 0.29957 0.34029
# Poissons Ratio (y) = 0.44451 0.10871
# Poissons Ratio (z) = 0.66086 0.14228
#
# Static dielectric constant tensor:
#      x y z
#    x 3.699900 0.000000 -0.029750 
#    y 0.000000 3.398610 0.000000 
#    z -0.029750 0.000000 3.713610 
# 
# 
# High freq. dielectric constant tensor:
#      x y z
#    x 1.736260 0.000000 -0.002170 
#    y 0.000000 1.716780 0.000000 
#    z -0.002170 0.000000 1.732540 
# 
# From -- ./inp_files/51784.got.cif
#   From: 2010.06.25/outbox.cif.g09.slc.cpg/sg11_26_cif.got.tgz:51784.got - 2010.06.27 23:14:04.
