data_PCOD8074815
_publ_section_title
;
Structure prediction by ZEFSAII (Michael W. Deem and Ramdas Pophale) SiO2 
 PCOD8074815
Probable space group: P 21/M
;
_chemical_formula_sum "Si O2"
_cell_formula_units_Z 14
_cell_length_a 8.872972
_cell_length_b 13.889648
_cell_length_c 7.155711
_cell_angle_alpha 90.000000
_cell_angle_beta 51.364297
_cell_angle_gamma 90.000000
_cell_volume 688.870089
_symmetry_space_group_name_H-M "P 21/M"
_symmetry_group_IT_number 11
_symmetry_cell_setting 'monoclinic'
loop_
_space_group_symop_operation_xyz
x,y,z
-x,1/2+y,-z
-x,-y,-z
x,1/2-y,z
loop_
_atom_site_type_symbol
_atom_site_label
_atom_site_fract_x
_atom_site_fract_y
_atom_site_fract_z
Si Si1 0.166334 0.250000 0.847247
Si Si2 0.687583 0.048614 0.766560
Si Si3 0.868273 0.750000 0.715198
Si Si4 0.482141 0.750000 0.188745
Si Si5 0.930492 0.907284 0.373122
O O1 0.396711 0.250000 0.709812
O O2 0.111329 0.346078 0.778554
O O3 0.050629 0.250000 0.134044
O O4 0.650022 0.156094 0.722088
O O5 0.853364 0.048167 0.800415
O O6 0.765348 0.988023 0.527491
O O7 0.500000 0.000000 0.000000
O O8 0.936568 0.844469 0.556936
O O9 0.633660 0.750000 0.899095
#
# Coordination Sequence:
#
# PCOD8074815 Si02
#       5
#     2   4   2   2   4
#     4   9  20  39  62  91 118 156 198 240 294 356
#     4  11  21  39  62  90 117 158 201 244 291 354
#     4   9  18  39  60  88 123 150 197 242 285 351
#     4  10  20  36  60  85 123 150 195 254 283 341
#     4  10  21  39  65  83 122 164 191 238 307 344
#
# _framework density 20.323136999999999
#
# number of rings (size 3 to 8) (size 9 to 14) (size 15 to 20)
#    0.857    1.143    2.857    1.714    0.000    1.143 
#    0.000   18.571    0.000    0.000    0.000    0.000 
#    0.000    0.000    0.000    0.000    0.000    0.000 
#
# Total GULP energy -173509.657527 kJ/mol
# GULP energy per Si atom -12393.546966 kJ/mol
# Density = 2.027688 g / cm^3
# Si number density = 20.323137 Si / 1000 Ang^3
#
#
#
# Elastic Constant Matrix: (Units=GPa)
#
#
# Indices 1 2 3 4 5 6 
#
# 1 98.4480 39.3126 51.9402 0.0000 -4.3663 0.0000
# 2 39.3126 131.6710 42.7959 0.0000 -1.4603 0.0000
# 3 51.9402 42.7959 92.1460 0.0000 -8.2066 0.0000
# 4 0.0000 0.0000 0.0000 14.6413 0.0000 -15.8293
# 5 -4.3663 -1.4603 -8.2066 0.0000 46.0550 0.0000
# 6 0.0000 0.0000 0.0000 -15.8293 0.0000 35.7003
#
#
#
# Elastic Compliance Matrix: (Units=1/GPa)
#
#
# Indices 1 2 3 4 5 6 
#
# 1 0.014902 -0.002025 -0.007457 0.000000 0.000020 0.000000
# 2 -0.002025 0.009230 -0.003187 0.000000 -0.000467 0.000000
# 3 -0.007457 -0.003187 0.016729 0.000000 0.002173 0.000000
# 4 0.000000 0.000000 0.000000 0.131188 0.000000 0.058168
# 5 0.000020 -0.000467 0.002173 0.000000 0.022087 0.000000
# 6 0.000000 0.000000 0.000000 0.058168 0.000000 0.053802
#
#
# Mechanical properties :
#
#
# Convention : Reuss Voigt Hill
#
# Bulk Modulus (GPa) = 64.42287 65.59583 65.00935
# Shear Modulus (GPa) = 17.95645 31.82706 24.89176
#
# Velocity S-wave (km/s) = 2.97568 3.96163 3.50351
# Velocity P-wave (km/s) = 6.60108 7.29880 6.95869
#
# Compressibility (1/GPa) = 0.01552244
#
# Stress axis : x y z
#
# Youngs Moduli (GPa) = 67.10674 108.34336 59.77486
#
# Poissons Ratio (x) = 0.21941 0.44576
# Poissons Ratio (y) = 0.13590 0.19049
# Poissons Ratio (z) = 0.50044 0.34527
#
# Static dielectric constant tensor:
#      x y z
#    x 3.487380 0.000000 -0.233280 
#    y 0.000000 3.855170 0.000000 
#    z -0.233280 0.000000 3.525390 
# 
# 
# High freq. dielectric constant tensor:
#      x y z
#    x 1.777220 0.000000 -0.024260 
#    y 0.000000 1.814820 0.000000 
#    z -0.024260 0.000000 1.779420 
# 
# From -- ./inp_files/1662.got.cif
#   From: 2010.06.25/outbox.cif.g09.slc.cpg/sg11_1_cif.got.tgz:1662.got - 2010.06.27 23:14:04.
