data_PCOD8074652
_publ_section_title
;
Structure prediction by ZEFSAII (Michael W. Deem and Ramdas Pophale) SiO2 
 PCOD8074652
Probable space group: P 21/M
;
_chemical_formula_sum "Si O2"
_cell_formula_units_Z 32
_cell_length_a 12.105794
_cell_length_b 8.874508
_cell_length_c 28.548907
_cell_angle_alpha 90.000000
_cell_angle_beta 34.455071
_cell_angle_gamma 90.000000
_cell_volume 1735.238396
_symmetry_space_group_name_H-M "P 21/M"
_symmetry_group_IT_number 11
_symmetry_cell_setting 'monoclinic'
loop_
_space_group_symop_operation_xyz
x,y,z
-x,1/2+y,-z
-x,-y,-z
x,1/2-y,z
loop_
_atom_site_type_symbol
_atom_site_label
_atom_site_fract_x
_atom_site_fract_y
_atom_site_fract_z
Si Si1 0.426304 0.074444 0.245949
Si Si2 0.838764 0.427195 0.523436
Si Si3 0.012763 0.572222 0.376987
Si Si4 0.565326 0.574334 0.286690
Si Si5 0.502923 0.922644 0.883138
Si Si6 0.050567 0.076886 0.269104
Si Si7 0.666121 0.573376 0.973162
Si Si8 0.921311 0.075197 0.211807
O O1 0.376601 0.250000 0.269609
O O2 0.534363 0.045906 0.158720
O O3 0.225732 0.982573 0.318501
O O4 0.568956 0.016982 0.236702
O O5 0.874868 0.250000 0.508765
O O6 0.626365 0.468305 0.617086
O O7 0.000000 0.500000 0.500000
O O8 0.852448 0.497230 0.466796
O O9 0.002388 0.750000 0.385926
O O10 0.963609 0.525324 0.340956
O O11 0.574460 0.750000 0.271854
O O12 0.750942 0.528022 0.251906
O O13 0.460141 0.750000 0.911026
O O14 0.724605 0.965588 0.819031
O O15 0.358449 0.025952 0.964031
O O16 0.040396 0.250000 0.289327
O O17 0.927853 0.048255 0.265283
O O18 0.645617 0.750000 0.974481
O O19 0.877786 0.520036 0.881843
O O20 0.500000 0.500000 0.000000
O O21 0.881014 0.250000 0.214453
#
# Coordination Sequence:
#
# PCOD8074652 Si02
#       8
#     4   4   4   4   4   4   4   4
#     4  10  20  36  58  81 114 154 188 228 285 342
#     4  11  22  37  58  85 115 148 188 237 287 339
#     4  11  21  33  55  88 117 144 188 238 282 334
#     4  11  24  39  58  86 116 146 191 239 283 340
#     4   9  18  34  56  85 114 144 186 235 285 333
#     4   9  18  36  57  80 114 152 189 231 282 340
#     4  11  21  35  57  86 115 148 191 237 280 334
#     4  10  22  40  59  81 115 156 193 227 285 350
#
# _framework density 18.441271
#
# number of rings (size 3 to 8) (size 9 to 14) (size 15 to 20)
#    0.000    1.750    2.500    3.375    0.000    5.500 
#    0.000    1.250    0.000    0.000    0.000    0.000 
#    0.000    0.000    0.000    0.000    0.000    0.000 
#
# Total GULP energy -396921.435576 kJ/mol
# GULP energy per Si atom -12403.794862 kJ/mol
# Density = 1.839930 g / cm^3
# Si number density = 18.441271 Si / 1000 Ang^3
#
#
#
# Elastic Constant Matrix: (Units=GPa)
#
#
# Indices 1 2 3 4 5 6 
#
# 1 109.0387 44.1126 57.4353 0.0000 6.3632 0.0000
# 2 44.1126 91.4333 56.6764 0.0000 4.6957 0.0000
# 3 57.4353 56.6764 107.8698 0.0000 7.6336 0.0000
# 4 0.0000 0.0000 0.0000 30.6601 0.0000 3.8554
# 5 6.3632 4.6957 7.6336 0.0000 28.1175 0.0000
# 6 0.0000 0.0000 0.0000 3.8554 0.0000 34.6800
#
#
#
# Elastic Compliance Matrix: (Units=1/GPa)
#
#
# Indices 1 2 3 4 5 6 
#
# 1 0.013308 -0.002996 -0.005438 0.000000 -0.001035 0.000000
# 2 -0.002996 0.016899 -0.007271 0.000000 -0.000170 0.000000
# 3 -0.005438 -0.007271 0.016123 0.000000 -0.001932 0.000000
# 4 0.000000 0.000000 0.000000 0.033078 0.000000 -0.003677
# 5 -0.001035 -0.000170 -0.001932 0.000000 0.036352 0.000000
# 6 0.000000 0.000000 0.000000 -0.003677 0.000000 0.029244
#
#
# Mechanical properties :
#
#
# Convention : Reuss Voigt Hill
#
# Bulk Modulus (GPa) = 67.03352 69.42115 68.22734
# Shear Modulus (GPa) = 27.56505 28.69935 28.13220
#
# Velocity S-wave (km/s) = 3.87039 3.94922 3.91001
# Velocity P-wave (km/s) = 7.51012 7.64992 7.58034
#
# Compressibility (1/GPa) = 0.01491791
#
# Stress axis : x y z
#
# Youngs Moduli (GPa) = 75.14084 59.17681 62.02211
#
# Poissons Ratio (x) = 0.17732 0.33730
# Poissons Ratio (y) = 0.22516 0.45098
# Poissons Ratio (z) = 0.40865 0.43029
#
# Static dielectric constant tensor:
#      x y z
#    x 3.410980 0.000000 0.309430 
#    y 0.000000 3.407360 0.000000 
#    z 0.309430 0.000000 3.533680 
# 
# 
# High freq. dielectric constant tensor:
#      x y z
#    x 1.712240 0.000000 0.024450 
#    y 0.000000 1.721380 0.000000 
#    z 0.024450 0.000000 1.704140 
# 
# From -- ./inp_files/42844.got.cif
#   From: 2010.06.25/outbox.cif.g09.slc.cpg/sg11_22_cif.got.tgz:42844.got - 2010.06.27 23:14:04.
