data_PCOD8074724
_publ_section_title
;
Structure prediction by ZEFSAII (Michael W. Deem and Ramdas Pophale) SiO2 
 PCOD8074724
Probable space group: P 21/M
;
_chemical_formula_sum "Si O2"
_cell_formula_units_Z 28
_cell_length_a 30.913673
_cell_length_b 8.854542
_cell_length_c 10.315133
_cell_angle_alpha 90.000000
_cell_angle_beta 32.598129
_cell_angle_gamma 90.000000
_cell_volume 1521.154773
_symmetry_space_group_name_H-M "P 21/M"
_symmetry_group_IT_number 11
_symmetry_cell_setting 'monoclinic'
loop_
_space_group_symop_operation_xyz
x,y,z
-x,1/2+y,-z
-x,-y,-z
x,1/2-y,z
loop_
_atom_site_type_symbol
_atom_site_label
_atom_site_fract_x
_atom_site_fract_y
_atom_site_fract_z
Si Si1 0.666804 0.075764 0.309698
Si Si2 0.083627 0.425050 0.426505
Si Si3 0.491007 0.424054 0.661399
Si Si4 0.257325 0.571215 0.613627
Si Si5 0.244415 0.425096 0.149252
Si Si6 0.666774 0.429093 0.841546
Si Si7 0.906624 0.072132 0.869384
O O1 0.691854 0.250000 0.222291
O O2 0.571393 0.055920 0.541494
O O3 0.692756 0.019266 0.386375
O O4 0.709207 0.971006 0.097463
O O5 0.081179 0.250000 0.393745
O O6 0.148958 0.455119 0.373412
O O7 0.109535 0.515014 0.234304
O O8 0.994755 0.478467 0.698716
O O9 0.500000 0.500000 0.500000
O O10 0.469565 0.250000 0.692377
O O11 0.420692 0.501201 0.919892
O O12 0.258565 0.750000 0.599529
O O13 0.297473 0.504440 0.382777
O O14 0.165042 0.510977 0.857619
O O15 0.262277 0.250000 0.132324
O O16 0.273366 0.525299 0.195041
O O17 0.658418 0.250000 0.861707
O O18 0.899947 0.250000 0.879398
#
# Coordination Sequence:
#
# PCOD8074724 Si02
#       7
#     4   4   4   4   4   4   4
#     4  10  20  36  59  82 105 139 183 224 266 325
#     4   9  18  30  50  83 112 137 176 226 273 319
#     4  11  22  36  57  84 112 140 179 226 274 325
#     4   9  19  36  57  81 108 144 185 224 267 323
#     4  11  21  34  53  81 113 143 181 226 274 324
#     4  11  23  38  56  78 109 147 187 226 269 323
#     4   9  16  31  55  79 108 143 178 220 270 322
#
# _framework density 18.407067999999999
#
# number of rings (size 3 to 8) (size 9 to 14) (size 15 to 20)
#    0.000    2.000    2.857    1.286    0.000    1.714 
#    0.000    3.571    0.000    0.000    0.000    0.000 
#    0.000    0.000    0.000    0.000    0.000    0.000 
#
# Total GULP energy -347156.644508 kJ/mol
# GULP energy per Si atom -12398.451590 kJ/mol
# Density = 1.836517 g / cm^3
# Si number density = 18.407068 Si / 1000 Ang^3
#
#
#
# Elastic Constant Matrix: (Units=GPa)
#
#
# Indices 1 2 3 4 5 6 
#
# 1 105.9822 25.3383 71.7224 0.0000 -5.7477 0.0000
# 2 25.3383 53.5929 38.2032 0.0000 -3.7382 0.0000
# 3 71.7224 38.2032 159.7056 0.0000 0.7435 0.0000
# 4 0.0000 0.0000 0.0000 22.3613 0.0000 -4.4522
# 5 -5.7477 -3.7382 0.7435 0.0000 32.9166 0.0000
# 6 0.0000 0.0000 0.0000 -4.4522 0.0000 15.3414
#
#
#
# Elastic Compliance Matrix: (Units=1/GPa)
#
#
# Indices 1 2 3 4 5 6 
#
# 1 0.014009 -0.002375 -0.005734 0.000000 0.002306 0.000000
# 2 -0.002375 0.023136 -0.004478 0.000000 0.002314 0.000000
# 3 -0.005734 -0.004478 0.009916 0.000000 -0.001734 0.000000
# 4 0.000000 0.000000 0.000000 0.047463 0.000000 0.013774
# 5 0.002306 0.002314 -0.001734 0.000000 0.031084 0.000000
# 6 0.000000 0.000000 0.000000 0.013774 0.000000 0.069180
#
#
# Mechanical properties :
#
#
# Convention : Reuss Voigt Hill
#
# Bulk Modulus (GPa) = 45.69168 65.53425 55.61296
# Shear Modulus (GPa) = 22.00146 26.39166 24.19656
#
# Velocity S-wave (km/s) = 3.46102 3.79063 3.62957
# Velocity P-wave (km/s) = 6.39127 7.40531 6.91690
#
# Compressibility (1/GPa) = 0.02188582
#
# Stress axis : x y z
#
# Youngs Moduli (GPa) = 71.38408 43.22278 100.84827
#
# Poissons Ratio (x) = 0.10266 0.57824
# Poissons Ratio (y) = 0.16954 0.45165
# Poissons Ratio (z) = 0.40930 0.19357
#
# Static dielectric constant tensor:
#      x y z
#    x 3.548740 0.000000 -0.250180 
#    y 0.000000 3.318580 0.000000 
#    z -0.250180 0.000000 3.768190 
# 
# 
# High freq. dielectric constant tensor:
#      x y z
#    x 1.712990 0.000000 -0.022550 
#    y 0.000000 1.704290 0.000000 
#    z -0.022550 0.000000 1.715440 
# 
# From -- ./inp_files/28254.got.cif
#   From: 2010.06.25/outbox.cif.g09.slc.cpg/sg11_15_cif.got.tgz:28254.got - 2010.06.27 23:14:04.
