data_PCOD8074577
_publ_section_title
;
Structure prediction by ZEFSAII (Michael W. Deem and Ramdas Pophale) SiO2 
 PCOD8074577
Probable space group: P 21/M
;
_chemical_formula_sum "Si O2"
_cell_formula_units_Z 28
_cell_length_a 9.162093
_cell_length_b 12.424478
_cell_length_c 14.676148
_cell_angle_alpha 90.000000
_cell_angle_beta 115.934650
_cell_angle_gamma 90.000000
_cell_volume 1502.402726
_symmetry_space_group_name_H-M "P 21/M"
_symmetry_group_IT_number 11
_symmetry_cell_setting 'monoclinic'
loop_
_space_group_symop_operation_xyz
x,y,z
-x,1/2+y,-z
-x,-y,-z
x,1/2-y,z
loop_
_atom_site_type_symbol
_atom_site_label
_atom_site_fract_x
_atom_site_fract_y
_atom_site_fract_z
Si Si1 0.907597 0.978894 0.068858
Si Si2 0.127468 0.623971 0.460296
Si Si3 0.831894 0.372679 0.729693
Si Si4 0.232724 0.627970 0.820059
Si Si5 0.571270 0.548581 0.930310
Si Si6 0.464863 0.626723 0.226032
Si Si7 0.795397 0.515725 0.358556
O O1 0.029851 0.925980 0.172047
O O2 0.831594 0.084324 0.099213
O O3 0.750961 0.902392 0.000746
O O4 0.000000 0.000000 0.000000
O O5 0.158435 0.750000 0.479562
O O6 0.177392 0.579291 0.374438
O O7 0.236778 0.565442 0.566404
O O8 0.939408 0.596278 0.424412
O O9 0.886793 0.250000 0.738000
O O10 0.653396 0.386904 0.720826
O O11 0.169490 0.750000 0.792059
O O12 0.430779 0.631211 0.860381
O O13 0.162114 0.552224 0.720881
O O14 0.603024 0.450641 0.870034
O O15 0.500000 0.500000 0.000000
O O16 0.466344 0.750000 0.191084
O O17 0.643037 0.592612 0.304074
#
# Coordination Sequence:
#
# PCOD8074577 Si02
#       7
#     4   4   4   4   4   4   4
#     4  11  20  36  57  81 114 146 189 233 276 324
#     4  10  20  36  59  85 109 141 182 228 281 329
#     4  10  21  36  56  83 112 145 184 226 276 331
#     4  10  21  37  55  79 112 150 185 226 280 332
#     4   9  20  34  52  79 109 146 184 230 270 320
#     4  10  20  36  57  81 111 147 184 224 275 333
#     4  10  20  36  59  83 110 143 181 232 272 330
#
# _framework density 18.636814000000001
#
# number of rings (size 3 to 8) (size 9 to 14) (size 15 to 20)
#    0.000    2.000    2.857    0.857    0.000    4.000 
#    0.000    0.000    0.000    0.000    0.000    0.000 
#    0.000    0.000    0.000    0.000    0.000    0.000 
#
# Total GULP energy -346959.034315 kJ/mol
# GULP energy per Si atom -12391.394083 kJ/mol
# Density = 1.859440 g / cm^3
# Si number density = 18.636814 Si / 1000 Ang^3
#
#
#
# Elastic Constant Matrix: (Units=GPa)
#
#
# Indices 1 2 3 4 5 6 
#
# 1 77.4005 16.1065 17.8800 0.0000 -15.5957 0.0000
# 2 16.1065 58.7982 13.4744 0.0000 -11.4753 0.0000
# 3 17.8800 13.4744 79.6807 0.0000 -25.4030 0.0000
# 4 0.0000 0.0000 0.0000 16.8770 0.0000 -6.0829
# 5 -15.5957 -11.4753 -25.4030 0.0000 31.7724 0.0000
# 6 0.0000 0.0000 0.0000 -6.0829 0.0000 20.4392
#
#
#
# Elastic Compliance Matrix: (Units=1/GPa)
#
#
# Indices 1 2 3 4 5 6 
#
# 1 0.014841 -0.002753 -0.001153 0.000000 0.005368 0.000000
# 2 -0.002753 0.018913 -0.001119 0.000000 0.004585 0.000000
# 3 -0.001153 -0.001119 0.017030 0.000000 0.012646 0.000000
# 4 0.000000 0.000000 0.000000 0.066372 0.000000 0.019753
# 5 0.005368 0.004585 0.012646 0.000000 0.045875 0.000000
# 6 0.000000 0.000000 0.000000 0.019753 0.000000 0.054804
#
#
# Mechanical properties :
#
#
# Convention : Reuss Voigt Hill
#
# Bulk Modulus (GPa) = 24.55031 34.53346 29.54189
# Shear Modulus (GPa) = 20.70714 25.04561 22.87638
#
# Velocity S-wave (km/s) = 3.33691 3.66987 3.50735
# Velocity P-wave (km/s) = 5.29606 6.04377 5.68223
#
# Compressibility (1/GPa) = 0.04073268
#
# Stress axis : x y z
#
# Youngs Moduli (GPa) = 67.38165 52.87447 58.72142
#
# Poissons Ratio (x) = 0.14558 0.06771
# Poissons Ratio (y) = 0.18553 0.06569
# Poissons Ratio (z) = 0.07770 0.05915
#
# Static dielectric constant tensor:
#      x y z
#    x 3.993020 0.000000 0.137130 
#    y 0.000000 3.318410 0.000000 
#    z 0.137130 0.000000 3.775230 
# 
# 
# High freq. dielectric constant tensor:
#      x y z
#    x 1.727100 0.000000 -0.002330 
#    y 0.000000 1.700940 0.000000 
#    z -0.002330 0.000000 1.736350 
# 
# From -- ./inp_files/21169.got.cif
#   From: 2010.06.25/outbox.cif.g09.slc.cpg/sg11_11_cif.got.tgz:21169.got - 2010.06.27 23:14:04.
