data_PCOD8074846
_publ_section_title
;
Structure prediction by ZEFSAII (Michael W. Deem and Ramdas Pophale) SiO2 
 PCOD8074846
Probable space group: P 21/M
;
_chemical_formula_sum "Si O2"
_cell_formula_units_Z 28
_cell_length_a 9.479940
_cell_length_b 21.152864
_cell_length_c 13.911903
_cell_angle_alpha 90.000000
_cell_angle_beta 149.781375
_cell_angle_gamma 90.000000
_cell_volume 1404.070730
_symmetry_space_group_name_H-M "P 21/M"
_symmetry_group_IT_number 11
_symmetry_cell_setting 'monoclinic'
loop_
_space_group_symop_operation_xyz
x,y,z
-x,1/2+y,-z
-x,-y,-z
x,1/2-y,z
loop_
_atom_site_type_symbol
_atom_site_label
_atom_site_fract_x
_atom_site_fract_y
_atom_site_fract_z
Si Si1 0.539442 0.066491 0.117232
Si Si2 0.126355 0.178220 0.602059
Si Si3 0.034091 0.997252 0.767234
Si Si4 0.225546 0.676674 0.006636
Si Si5 0.717100 0.429072 0.423064
Si Si6 0.896874 0.561412 0.878369
Si Si7 0.828637 0.180493 0.238923
O O1 0.688844 0.038426 0.301134
O O2 0.568416 0.141837 0.130103
O O3 0.715231 0.044575 0.128174
O O4 0.207376 0.054021 0.919565
O O5 0.051246 0.250000 0.588417
O O6 0.445977 0.162152 0.814490
O O7 0.092255 0.170022 0.466085
O O8 0.922764 0.131428 0.541898
O O9 0.823714 0.019269 0.561097
O O10 0.865093 0.959875 0.748695
O O11 0.179478 0.750000 0.015464
O O12 0.103803 0.622820 0.006977
O O13 0.079227 0.665667 0.816358
O O14 0.400930 0.410490 0.264995
O O15 0.000000 0.500000 0.000000
O O16 0.705330 0.250000 0.170396
#
# Coordination Sequence:
#
# PCOD8074846 Si02
#       7
#     4   4   4   4   4   4   4
#     4  10  20  36  60  88 113 155 204 251 294 355
#     4   9  20  38  64  93 118 152 210 261 299 359
#     4  11  22  38  58  82 123 158 205 241 299 362
#     4  10  21  41  65  86 117 164 206 250 306 370
#     4  11  23  37  60  89 122 160 194 252 313 357
#     4  12  25  42  58  91 134 165 200 253 314 370
#     4   9  17  33  58  88 113 144 198 254 299 350
#
# _framework density 19.942015999999999
#
# number of rings (size 3 to 8) (size 9 to 14) (size 15 to 20)
#    0.000    1.714    2.857    1.714    2.000    2.857 
#    2.571    0.000    0.000    0.857    0.000    0.000 
#    0.000    0.000    0.000    0.000    0.000    0.000 
#
# Total GULP energy -346900.619950 kJ/mol
# GULP energy per Si atom -12389.307855 kJ/mol
# Density = 1.989663 g / cm^3
# Si number density = 19.942016 Si / 1000 Ang^3
#
#
#
# Elastic Constant Matrix: (Units=GPa)
#
#
# Indices 1 2 3 4 5 6 
#
# 1 79.6059 39.4007 28.6396 0.0000 1.8071 0.0000
# 2 39.4007 99.9269 31.9265 0.0000 5.6562 0.0000
# 3 28.6396 31.9265 72.7082 0.0000 1.1129 0.0000
# 4 0.0000 0.0000 0.0000 29.1614 0.0000 3.3629
# 5 1.8071 5.6562 1.1129 0.0000 36.5256 0.0000
# 6 0.0000 0.0000 0.0000 3.3629 0.0000 30.8656
#
#
#
# Elastic Compliance Matrix: (Units=1/GPa)
#
#
# Indices 1 2 3 4 5 6 
#
# 1 0.016681 -0.005216 -0.004282 0.000000 0.000113 0.000000
# 2 -0.005216 0.013371 -0.003791 0.000000 -0.001697 0.000000
# 3 -0.004282 -0.003791 0.017101 0.000000 0.000278 0.000000
# 4 0.000000 0.000000 0.000000 0.034728 0.000000 -0.003784
# 5 0.000113 -0.001697 0.000278 0.000000 0.027627 0.000000
# 6 0.000000 0.000000 0.000000 -0.003784 0.000000 0.032811
#
#
# Mechanical properties :
#
#
# Convention : Reuss Voigt Hill
#
# Bulk Modulus (GPa) = 48.60127 50.24162 49.42145
# Shear Modulus (GPa) = 28.44865 29.46211 28.95538
#
# Velocity S-wave (km/s) = 3.78109 3.84785 3.81462
# Velocity P-wave (km/s) = 6.59442 6.70745 6.65117
#
# Compressibility (1/GPa) = 0.02057559
#
# Stress axis : x y z
#
# Youngs Moduli (GPa) = 59.94698 74.78848 58.47698
#
# Poissons Ratio (x) = 0.39007 0.25042
# Poissons Ratio (y) = 0.31266 0.22168
# Poissons Ratio (z) = 0.25671 0.28351
#
# Static dielectric constant tensor:
#      x y z
#    x 3.661500 0.000000 -0.223510 
#    y 0.000000 3.883680 0.000000 
#    z -0.223510 0.000000 3.636100 
# 
# 
# High freq. dielectric constant tensor:
#      x y z
#    x 1.763640 0.000000 -0.020050 
#    y 0.000000 1.782780 0.000000 
#    z -0.020050 0.000000 1.772860 
# 
# From -- ./inp_files/48336.got.cif
#   From: 2010.06.25/outbox.cif.g09.slc.cpg/sg11_25_cif.got.tgz:48336.got - 2010.06.27 23:14:04.
