data_PCOD8074970
_publ_section_title
;
Structure prediction by ZEFSAII (Michael W. Deem and Ramdas Pophale) SiO2 
 PCOD8074970
Probable space group: P 21/M
;
_chemical_formula_sum "Si O2"
_cell_formula_units_Z 28
_cell_length_a 14.854841
_cell_length_b 8.453585
_cell_length_c 21.640334
_cell_angle_alpha 90.000000
_cell_angle_beta 149.052528
_cell_angle_gamma 90.000000
_cell_volume 1397.490604
_symmetry_space_group_name_H-M "P 21/M"
_symmetry_group_IT_number 11
_symmetry_cell_setting 'monoclinic'
loop_
_space_group_symop_operation_xyz
x,y,z
-x,1/2+y,-z
-x,-y,-z
x,1/2-y,z
loop_
_atom_site_type_symbol
_atom_site_label
_atom_site_fract_x
_atom_site_fract_y
_atom_site_fract_z
Si Si1 0.051450 0.933899 0.812742
Si Si2 0.733527 0.934952 0.278124
Si Si3 0.045145 0.436564 0.381303
Si Si4 0.571558 0.934622 0.978358
Si Si5 0.333810 0.561356 0.632414
Si Si6 0.954946 0.064973 0.881551
Si Si7 0.272920 0.436170 0.150560
O O1 0.023191 0.750000 0.806916
O O2 0.976211 0.987791 0.702450
O O3 0.946054 0.024734 0.804066
O O4 0.255031 0.973404 0.937898
O O5 0.690296 0.750000 0.248659
O O6 0.570227 0.037133 0.158044
O O7 0.766240 0.989295 0.367428
O O8 0.903996 0.969828 0.338427
O O9 0.015367 0.250000 0.372067
O O10 0.237301 0.491146 0.515435
O O11 0.613611 0.750000 0.008899
O O12 0.500000 0.000000 0.000000
O O13 0.321294 0.750000 0.625480
O O14 0.533193 0.497235 0.748479
O O15 0.942038 0.250000 0.884273
O O16 0.789253 0.986818 0.817876
O O17 0.136059 0.998950 0.018557
O O18 0.282476 0.250000 0.152664
#
# Coordination Sequence:
#
# PCOD8074970 Si02
#       7
#     4   4   4   4   4   4   4
#     4  11  23  39  60  86 120 160 198 242 296 354
#     4  12  24  39  61  87 118 158 201 245 297 354
#     4  11  24  41  59  82 118 159 203 249 293 350
#     4  12  23  37  58  86 120 154 194 241 292 348
#     4  11  23  40  62  86 117 156 201 249 297 352
#     4  10  20  36  63  93 120 150 188 241 297 356
#     4   9  20  39  61  88 119 151 188 239 297 354
#
# _framework density 20.035913999999998
#
# number of rings (size 3 to 8) (size 9 to 14) (size 15 to 20)
#    0.000    1.143    1.429    5.571    0.000    4.571 
#    0.000    0.714    0.000    0.000    0.000    0.000 
#    0.000    0.000    0.000    0.000    0.000    0.000 
#
# Total GULP energy -347359.127573 kJ/mol
# GULP energy per Si atom -12405.683128 kJ/mol
# Density = 1.999031 g / cm^3
# Si number density = 20.035914 Si / 1000 Ang^3
#
#
#
# Elastic Constant Matrix: (Units=GPa)
#
#
# Indices 1 2 3 4 5 6 
#
# 1 117.0657 8.8888 40.3747 0.0000 -14.9502 0.0000
# 2 8.8888 27.1095 19.5428 0.0000 0.4203 0.0000
# 3 40.3747 19.5428 98.1568 0.0000 -8.7042 0.0000
# 4 0.0000 0.0000 0.0000 31.9191 0.0000 -0.2202
# 5 -14.9502 0.4203 -8.7042 0.0000 20.2535 0.0000
# 6 0.0000 0.0000 0.0000 -0.2202 0.0000 31.8091
#
#
#
# Elastic Compliance Matrix: (Units=1/GPa)
#
#
# Indices 1 2 3 4 5 6 
#
# 1 0.010680 -0.000979 -0.003636 0.000000 0.006342 0.000000
# 2 -0.000979 0.043605 -0.008757 0.000000 -0.005391 0.000000
# 3 -0.003636 -0.008757 0.013728 0.000000 0.003398 0.000000
# 4 0.000000 0.000000 0.000000 0.031331 0.000000 0.000217
# 5 0.006342 -0.005391 0.003398 0.000000 0.055627 0.000000
# 6 0.000000 0.000000 0.000000 0.000217 0.000000 0.031439
#
#
# Mechanical properties :
#
#
# Convention : Reuss Voigt Hill
#
# Bulk Modulus (GPa) = 24.23106 42.21608 33.22357
# Shear Modulus (GPa) = 22.03509 28.36473 25.19991
#
# Velocity S-wave (km/s) = 3.31989 3.76665 3.55031
# Velocity P-wave (km/s) = 5.17838 6.32715 5.78137
#
# Compressibility (1/GPa) = 0.04126935
#
# Stress axis : x y z
#
# Youngs Moduli (GPa) = 93.62955 22.93323 72.84343
#
# Poissons Ratio (x) = 0.02246 0.26485
# Poissons Ratio (y) = 0.09169 0.63788
# Poissons Ratio (z) = 0.34042 0.20082
#
# Static dielectric constant tensor:
#      x y z
#    x 3.687130 0.000000 -0.041060 
#    y 0.000000 4.355120 0.000000 
#    z -0.041060 0.000000 3.838770 
# 
# 
# High freq. dielectric constant tensor:
#      x y z
#    x 1.784200 0.000000 -0.007000 
#    y 0.000000 1.789250 0.000000 
#    z -0.007000 0.000000 1.777180 
# 
# From -- ./inp_files/37412.got.cif
#   From: 2010.06.25/outbox.cif.g09.slc.cpg/sg11_19_cif.got.tgz:37412.got - 2010.06.27 23:14:04.
