data_PCOD8074489
_publ_section_title
;
Structure prediction by ZEFSAII (Michael W. Deem and Ramdas Pophale) SiO2 
 PCOD8074489
Probable space group: P 21/M
;
_chemical_formula_sum "Si O2"
_cell_formula_units_Z 32
_cell_length_a 24.635892
_cell_length_b 8.593364
_cell_length_c 16.347407
_cell_angle_alpha 90.000000
_cell_angle_beta 27.474161
_cell_angle_gamma 90.000000
_cell_volume 1596.649287
_symmetry_space_group_name_H-M "P 21/M"
_symmetry_group_IT_number 11
_symmetry_cell_setting 'monoclinic'
loop_
_space_group_symop_operation_xyz
x,y,z
-x,1/2+y,-z
-x,-y,-z
x,1/2-y,z
loop_
_atom_site_type_symbol
_atom_site_label
_atom_site_fract_x
_atom_site_fract_y
_atom_site_fract_z
Si Si1 0.870864 0.434755 0.679909
Si Si2 0.318359 0.431027 0.182069
Si Si3 0.630023 0.064580 0.313196
Si Si4 0.309382 0.566193 0.946380
Si Si5 0.839248 0.433314 0.145398
Si Si6 0.497029 0.567348 0.824886
Si Si7 0.285760 0.570716 0.397521
Si Si8 0.077865 0.568889 0.791092
O O1 0.869263 0.250000 0.671960
O O2 0.801525 0.510428 0.697923
O O3 0.810919 0.485752 0.846628
O O4 0.000000 0.500000 0.500000
O O5 0.339104 0.250000 0.136544
O O6 0.307596 0.457720 0.292760
O O7 0.427640 0.529349 0.001375
O O8 0.623272 0.250000 0.321989
O O9 0.719441 0.001064 0.263743
O O10 0.500000 0.000000 0.500000
O O11 0.681437 0.000692 0.157827
O O12 0.313853 0.750000 0.938686
O O13 0.420962 0.506416 0.849701
O O14 0.830283 0.250000 0.154567
O O15 0.855557 0.495860 0.216374
O O16 0.954087 0.484427 0.940455
O O17 0.522447 0.750000 0.786358
O O18 0.618500 0.471877 0.661088
O O19 0.297930 0.750000 0.355005
O O20 0.157597 0.536511 0.605785
O O21 0.052913 0.750000 0.837469
#
# Coordination Sequence:
#
# PCOD8074489 Si02
#       8
#     4   4   4   4   4   4   4   4
#     4  10  20  37  59  83 115 152 190 233 281 340
#     4  11  22  37  55  79 110 145 188 232 282 337
#     4  10  21  37  58  85 115 148 188 234 285 337
#     4   8  18  36  55  79 112 148 184 227 280 337
#     4   9  19  37  58  80 112 147 184 231 283 338
#     4  10  20  36  56  78 110 148 186 227 279 342
#     4  11  22  35  54  81 113 145 183 232 282 336
#     4   9  20  37  56  80 110 147 188 232 283 336
#
# _framework density 20.041969999999999
#
# number of rings (size 3 to 8) (size 9 to 14) (size 15 to 20)
#    0.000    2.250    0.000    3.375    1.750    2.500 
#    0.000    4.375    0.000    0.000    0.000    0.000 
#    0.000    0.000    0.000    0.000    0.000    0.000 
#
# Total GULP energy -396761.961138 kJ/mol
# GULP energy per Si atom -12398.811286 kJ/mol
# Density = 1.999635 g / cm^3
# Si number density = 20.041970 Si / 1000 Ang^3
#
#
#
# Elastic Constant Matrix: (Units=GPa)
#
#
# Indices 1 2 3 4 5 6 
#
# 1 98.0827 14.4100 47.3517 0.0000 -10.6942 0.0000
# 2 14.4100 36.7548 13.6223 0.0000 -2.5670 0.0000
# 3 47.3517 13.6223 93.8166 0.0000 -15.0839 0.0000
# 4 0.0000 0.0000 0.0000 31.8227 0.0000 -6.4202
# 5 -10.6942 -2.5670 -15.0839 0.0000 34.9846 0.0000
# 6 0.0000 0.0000 0.0000 -6.4202 0.0000 26.3640
#
#
#
# Elastic Compliance Matrix: (Units=1/GPa)
#
#
# Indices 1 2 3 4 5 6 
#
# 1 0.013836 -0.002984 -0.006345 0.000000 0.001275 0.000000
# 2 -0.002984 0.029402 -0.002754 0.000000 0.000058 0.000000
# 3 -0.006345 -0.002754 0.014954 0.000000 0.004306 0.000000
# 4 0.000000 0.000000 0.000000 0.033048 0.000000 0.008048
# 5 0.001275 0.000058 0.004306 0.000000 0.030834 0.000000
# 6 0.000000 0.000000 0.000000 0.008048 0.000000 0.039890
#
#
# Mechanical properties :
#
#
# Convention : Reuss Voigt Hill
#
# Bulk Modulus (GPa) = 29.38931 42.15801 35.77366
# Shear Modulus (GPa) = 25.31999 28.85224 27.08612
#
# Velocity S-wave (km/s) = 3.55822 3.79831 3.68022
# Velocity P-wave (km/s) = 5.61934 6.34955 5.99557
#
# Compressibility (1/GPa) = 0.03402598
#
# Stress axis : x y z
#
# Youngs Moduli (GPa) = 72.27434 34.01145 66.87226
#
# Poissons Ratio (x) = 0.10148 0.42432
# Poissons Ratio (y) = 0.21565 0.18416
# Poissons Ratio (z) = 0.45860 0.09366
#
# Static dielectric constant tensor:
#      x y z
#    x 3.892380 0.000000 -0.021000 
#    y 0.000000 3.436300 0.000000 
#    z -0.021000 0.000000 3.700150 
# 
# 
# High freq. dielectric constant tensor:
#      x y z
#    x 1.782100 0.000000 -0.004750 
#    y 0.000000 1.767040 0.000000 
#    z -0.004750 0.000000 1.785440 
# 
# From -- ./inp_files/55643.got.cif
#   From: 2010.06.25/outbox.cif.g09.slc.cpg/sg11_28_cif.got.tgz:55643.got - 2010.06.27 23:14:04.
