data_PCOD8074009
_publ_section_title
;
Structure prediction by ZEFSAII (Michael W. Deem and Ramdas Pophale) SiO2 
 PCOD8074009
Probable space group: P 21/M
;
_chemical_formula_sum "Si O2"
_cell_formula_units_Z 32
_cell_length_a 21.840198
_cell_length_b 8.836357
_cell_length_c 27.956252
_cell_angle_alpha 90.000000
_cell_angle_beta 18.852010
_cell_angle_gamma 90.000000
_cell_volume 1743.328257
_symmetry_space_group_name_H-M "P 21/M"
_symmetry_group_IT_number 11
_symmetry_cell_setting 'monoclinic'
loop_
_space_group_symop_operation_xyz
x,y,z
-x,1/2+y,-z
-x,-y,-z
x,1/2-y,z
loop_
_atom_site_type_symbol
_atom_site_label
_atom_site_fract_x
_atom_site_fract_y
_atom_site_fract_z
Si Si1 0.008421 0.078056 0.196035
Si Si2 0.012194 0.070737 0.939094
Si Si3 0.702913 0.428864 0.842393
Si Si4 0.285375 0.426408 0.908015
Si Si5 0.285281 0.927535 0.416845
Si Si6 0.017221 0.074072 0.685292
Si Si7 0.297168 0.572626 0.657360
Si Si8 0.976864 0.570676 0.568595
O O1 0.004051 0.250000 0.217816
O O2 0.824298 0.042337 0.300438
O O3 0.012954 0.968326 0.237596
O O4 0.197023 0.047158 0.025711
O O5 0.029733 0.250000 0.929516
O O6 0.197990 0.005502 0.775845
O O7 0.000000 0.000000 0.000000
O O8 0.822639 0.026114 0.051034
O O9 0.686511 0.250000 0.848027
O O10 0.832480 0.475009 0.791817
O O11 0.788693 0.500906 0.730996
O O12 0.500000 0.500000 0.000000
O O13 0.265576 0.250000 0.908272
O O14 0.501219 0.483349 0.749831
O O15 0.279315 0.750000 0.427514
O O16 0.158847 0.978978 0.465299
O O17 0.204915 0.996141 0.525366
O O18 0.052248 0.250000 0.655253
O O19 0.500000 0.500000 0.500000
O O20 0.314911 0.750000 0.654992
O O21 0.955876 0.750000 0.580598
O O22 0.000000 0.500000 0.500000
#
# Coordination Sequence:
#
# PCOD8074009 Si02
#       8
#     4   4   4   4   4   4   4   4
#     4   9  19  35  55  78 107 141 175 213 262 316
#     4  11  22  37  57  81 109 143 180 222 269 318
#     4  10  21  37  55  78 107 141 180 225 271 318
#     4   9  19  37  57  79 106 137 177 223 265 315
#     4   9  19  36  57  78 105 141 178 215 264 320
#     4  10  21  35  53  79 109 138 175 220 264 311
#     4  10  21  38  58  82 110 142 180 222 266 317
#     4  10  20  35  55  81 110 143 180 220 266 319
#
# _framework density 18.355694
#
# number of rings (size 3 to 8) (size 9 to 14) (size 15 to 20)
#    0.000    2.250    0.000    3.375    0.000    7.000 
#    0.000    2.500    0.000    0.000    0.000    0.000 
#    0.000    0.000    0.000    0.000    0.000    0.000 
#
# Total GULP energy -396902.128258 kJ/mol
# GULP energy per Si atom -12403.191508 kJ/mol
# Density = 1.831392 g / cm^3
# Si number density = 18.355694 Si / 1000 Ang^3
#
#
#
# Elastic Constant Matrix: (Units=GPa)
#
#
# Indices 1 2 3 4 5 6 
#
# 1 103.8962 46.2159 71.1885 0.0000 21.5249 0.0000
# 2 46.2159 83.6053 58.9834 0.0000 4.3171 0.0000
# 3 71.1885 58.9834 179.2514 0.0000 -0.8329 0.0000
# 4 0.0000 0.0000 0.0000 32.8459 0.0000 3.5391
# 5 21.5249 4.3171 -0.8329 0.0000 23.9813 0.0000
# 6 0.0000 0.0000 0.0000 3.5391 0.0000 35.4709
#
#
#
# Elastic Compliance Matrix: (Units=1/GPa)
#
#
# Indices 1 2 3 4 5 6 
#
# 1 0.019906 -0.005850 -0.006060 0.000000 -0.017025 0.000000
# 2 -0.005850 0.017512 -0.003430 0.000000 0.001979 0.000000
# 3 -0.006060 -0.003430 0.009144 0.000000 0.006374 0.000000
# 4 0.000000 0.000000 0.000000 0.030776 0.000000 -0.003071
# 5 -0.017025 0.001979 0.006374 0.000000 0.056845 0.000000
# 6 0.000000 0.000000 0.000000 -0.003071 0.000000 0.028499
#
#
# Mechanical properties :
#
#
# Convention : Reuss Voigt Hill
#
# Bulk Modulus (GPa) = 62.96027 79.94762 71.45394
# Shear Modulus (GPa) = 25.16907 31.15061 28.15984
#
# Velocity S-wave (km/s) = 3.70697 4.12400 3.92103
# Velocity P-wave (km/s) = 7.25925 8.14406 7.71435
#
# Compressibility (1/GPa) = 0.01588303
#
# Stress axis : x y z
#
# Youngs Moduli (GPa) = 50.23492 57.10248 109.36394
#
# Poissons Ratio (x) = 0.33403 0.66274
# Poissons Ratio (y) = 0.29385 0.37514
# Poissons Ratio (z) = 0.30442 0.19587
#
# Static dielectric constant tensor:
#      x y z
#    x 3.379410 0.000000 -0.042610 
#    y 0.000000 3.384460 0.000000 
#    z -0.042610 0.000000 3.522830 
# 
# 
# High freq. dielectric constant tensor:
#      x y z
#    x 1.709070 0.000000 0.004360 
#    y 0.000000 1.719300 0.000000 
#    z 0.004360 0.000000 1.720490 
# 
# From -- ./inp_files/72112.got.cif
#   From: 2010.06.25/outbox.cif.g09.slc.cpg/sg11_37_cif.got.tgz:72112.got - 2010.06.27 23:14:04.
