data_PCOD8074109
_publ_section_title
;
Structure prediction by ZEFSAII (Michael W. Deem and Ramdas Pophale) SiO2 
 PCOD8074109
Probable space group: P 21/M
;
_chemical_formula_sum "Si O2"
_cell_formula_units_Z 28
_cell_length_a 16.002301
_cell_length_b 8.840209
_cell_length_c 20.289787
_cell_angle_alpha 90.000000
_cell_angle_beta 150.178153
_cell_angle_gamma 90.000000
_cell_volume 1427.398092
_symmetry_space_group_name_H-M "P 21/M"
_symmetry_group_IT_number 11
_symmetry_cell_setting 'monoclinic'
loop_
_space_group_symop_operation_xyz
x,y,z
-x,1/2+y,-z
-x,-y,-z
x,1/2-y,z
loop_
_atom_site_type_symbol
_atom_site_label
_atom_site_fract_x
_atom_site_fract_y
_atom_site_fract_z
Si Si1 0.505229 0.929773 0.185319
Si Si2 0.462546 0.072593 0.404771
Si Si3 0.023414 0.574376 0.690684
Si Si4 0.871130 0.070608 0.094661
Si Si5 0.321113 0.571964 0.571414
Si Si6 0.089736 0.071124 0.123123
Si Si7 0.373689 0.925761 0.861968
O O1 0.515624 0.750000 0.189079
O O2 0.574479 0.985964 0.301897
O O3 0.614458 0.997720 0.200997
O O4 0.315014 0.990345 0.048005
O O5 0.458424 0.250000 0.413152
O O6 0.602392 0.025110 0.447145
O O7 0.281796 0.015894 0.255400
O O8 0.500000 0.000000 0.500000
O O9 0.970838 0.750000 0.657942
O O10 0.871633 0.478292 0.556828
O O11 0.066376 0.508884 0.792338
O O12 0.182989 0.549610 0.753617
O O13 0.865367 0.250000 0.093356
O O14 0.998878 0.010761 0.126831
O O15 0.336253 0.750000 0.594194
O O16 0.074301 0.250000 0.107335
O O17 0.000000 0.000000 0.000000
O O18 0.419431 0.750000 0.888755
O O19 0.500000 0.000000 0.000000
#
# Coordination Sequence:
#
# PCOD8074109 Si02
#       7
#     4   4   4   4   4   4   4
#     4  11  22  39  62  88 120 160 199 243 297 356
#     4  10  22  39  60  85 119 158 200 245 295 353
#     4  10  21  40  63  86 114 153 198 241 291 357
#     4   9  18  35  59  85 111 147 197 240 283 347
#     4  11  24  40  57  88 124 156 199 250 300 351
#     4  10  20  35  56  82 114 150 190 240 289 342
#     4  11  22  39  64  92 121 153 194 244 297 355
#
# _framework density 19.616111
#
# number of rings (size 3 to 8) (size 9 to 14) (size 15 to 20)
#    0.000    1.714    1.429    3.000    0.000    4.571 
#    0.000    1.429    0.000    0.000    0.000    0.000 
#    0.000    0.000    0.000    0.000    0.000    0.000 
#
# Total GULP energy -347320.143545 kJ/mol
# GULP energy per Si atom -12404.290841 kJ/mol
# Density = 1.957146 g / cm^3
# Si number density = 19.616111 Si / 1000 Ang^3
#
#
#
# Elastic Constant Matrix: (Units=GPa)
#
#
# Indices 1 2 3 4 5 6 
#
# 1 101.6238 41.5737 29.5761 0.0000 2.8208 0.0000
# 2 41.5737 65.4496 36.6104 0.0000 3.3499 0.0000
# 3 29.5761 36.6104 117.6719 0.0000 2.9261 0.0000
# 4 0.0000 0.0000 0.0000 28.4747 0.0000 -5.4297
# 5 2.8208 3.3499 2.9261 0.0000 36.1156 0.0000
# 6 0.0000 0.0000 0.0000 -5.4297 0.0000 33.0910
#
#
#
# Elastic Compliance Matrix: (Units=1/GPa)
#
#
# Indices 1 2 3 4 5 6 
#
# 1 0.013370 -0.007996 -0.000867 0.000000 -0.000232 0.000000
# 2 -0.007996 0.023337 -0.005223 0.000000 -0.001117 0.000000
# 3 -0.000867 -0.005223 0.010348 0.000000 -0.000286 0.000000
# 4 0.000000 0.000000 0.000000 0.036253 0.000000 0.005949
# 5 -0.000232 -0.001117 -0.000286 0.000000 0.027834 0.000000
# 6 0.000000 0.000000 0.000000 0.005949 0.000000 0.031196
#
#
# Mechanical properties :
#
#
# Convention : Reuss Voigt Hill
#
# Bulk Modulus (GPa) = 52.95728 55.58507 54.27118
# Shear Modulus (GPa) = 28.27992 31.33528 29.80760
#
# Velocity S-wave (km/s) = 3.80105 4.00112 3.90237
# Velocity P-wave (km/s) = 6.80584 7.05289 6.93046
#
# Compressibility (1/GPa) = 0.01888315
#
# Stress axis : x y z
#
# Youngs Moduli (GPa) = 74.79419 42.85102 96.63454
#
# Poissons Ratio (x) = 0.34263 0.08378
# Poissons Ratio (y) = 0.59804 0.50473
# Poissons Ratio (z) = 0.06485 0.22382
#
# Static dielectric constant tensor:
#      x y z
#    x 4.180750 0.000000 -0.773560 
#    y 0.000000 3.421040 0.000000 
#    z -0.773560 0.000000 6.038450 
# 
# 
# High freq. dielectric constant tensor:
#      x y z
#    x 1.779960 0.000000 0.002480 
#    y 0.000000 1.750660 0.000000 
#    z 0.002480 0.000000 1.775650 
# 
# From -- ./inp_files/28300.got.cif
#   From: 2010.06.25/outbox.cif.g09.slc.cpg/sg11_15_cif.got.tgz:28300.got - 2010.06.27 23:14:04.
