data_PCOD8074054
_publ_section_title
;
Structure prediction by ZEFSAII (Michael W. Deem and Ramdas Pophale) SiO2 
 PCOD8074054
Probable space group: P 21/M
;
_chemical_formula_sum "Si O2"
_cell_formula_units_Z 24
_cell_length_a 24.618835
_cell_length_b 9.128498
_cell_length_c 11.860318
_cell_angle_alpha 90.000000
_cell_angle_beta 151.676895
_cell_angle_gamma 90.000000
_cell_volume 1264.583206
_symmetry_space_group_name_H-M "P 21/M"
_symmetry_group_IT_number 11
_symmetry_cell_setting 'monoclinic'
loop_
_space_group_symop_operation_xyz
x,y,z
-x,1/2+y,-z
-x,-y,-z
x,1/2-y,z
loop_
_atom_site_type_symbol
_atom_site_label
_atom_site_fract_x
_atom_site_fract_y
_atom_site_fract_z
Si Si1 0.730624 0.079157 0.367051
Si Si2 0.094136 0.079154 0.457801
Si Si3 0.262748 0.078098 0.965411
Si Si4 0.560049 0.421906 0.857485
Si Si5 0.164641 0.917932 0.995193
Si Si6 0.333974 0.582062 0.503395
O O1 0.757670 0.250000 0.417093
O O2 0.698040 0.022505 0.431433
O O3 0.845871 0.999979 0.537493
O O4 0.625488 0.039812 0.092833
O O5 0.098120 0.250000 0.438723
O O6 0.158195 0.039827 0.690964
O O7 0.964583 0.022476 0.231377
O O8 0.286273 0.250000 0.015436
O O9 0.377895 0.999987 0.133580
O O10 0.233716 0.017939 0.034993
O O11 0.557073 0.250000 0.828019
O O12 0.432393 0.482057 0.631275
O O13 0.165776 0.750000 0.954282
O O14 0.221794 0.931919 0.221754
O O15 0.377156 0.750000 0.588667
#
# Coordination Sequence:
#
# PCOD8074054 Si02
#       6
#     4   4   4   4   4   4
#     4   9  19  35  55  79 105 135 172 214 258 303
#     4   9  19  35  55  79 105 135 172 214 258 303
#     4  10  20  35  56  79 103 134 174 217 258 304
#     4  10  20  35  56  79 103 134 174 217 258 304
#     4  10  21  36  53  76 108 141 171 209 258 308
#     4  10  21  36  53  76 108 141 171 209 258 308
#
# _framework density 18.978584000000001
#
# number of rings (size 3 to 8) (size 9 to 14) (size 15 to 20)
#    0.000    2.333    0.000    2.000    0.000    4.667 
#    0.000    0.000    0.000    0.000    0.000    0.000 
#    0.000    0.000    0.000    0.000    0.000    0.000 
#
# Total GULP energy -297728.753733 kJ/mol
# GULP energy per Si atom -12405.364739 kJ/mol
# Density = 1.893539 g / cm^3
# Si number density = 18.978584 Si / 1000 Ang^3
#
#
#
# Elastic Constant Matrix: (Units=GPa)
#
#
# Indices 1 2 3 4 5 6 
#
# 1 95.8839 37.0261 35.1780 0.0000 17.3533 0.0000
# 2 37.0261 63.8979 22.6862 0.0000 7.3164 0.0000
# 3 35.1780 22.6862 51.5951 0.0000 5.0352 0.0000
# 4 0.0000 0.0000 0.0000 25.2007 0.0000 6.2003
# 5 17.3533 7.3164 5.0352 0.0000 19.4576 0.0000
# 6 0.0000 0.0000 0.0000 6.2003 0.0000 37.4245
#
#
#
# Elastic Compliance Matrix: (Units=1/GPa)
#
#
# Indices 1 2 3 4 5 6 
#
# 1 0.017971 -0.006092 -0.008447 0.000000 -0.011551 0.000000
# 2 -0.006092 0.021095 -0.005004 0.000000 -0.001204 0.000000
# 3 -0.008447 -0.005004 0.027107 0.000000 0.002401 0.000000
# 4 0.000000 0.000000 0.000000 0.041368 0.000000 -0.006854
# 5 -0.011551 -0.001204 0.002401 0.000000 0.061527 0.000000
# 6 0.000000 0.000000 0.000000 -0.006854 0.000000 0.027856
#
#
# Mechanical properties :
#
#
# Convention : Reuss Voigt Hill
#
# Bulk Modulus (GPa) = 36.91886 44.57306 40.74596
# Shear Modulus (GPa) = 20.40491 24.18235 22.29363
#
# Velocity S-wave (km/s) = 3.28251 3.57345 3.43107
# Velocity P-wave (km/s) = 5.81908 6.36891 6.10019
#
# Compressibility (1/GPa) = 0.02708643
#
# Stress axis : x y z
#
# Youngs Moduli (GPa) = 55.64394 47.40570 36.89076
#
# Poissons Ratio (x) = 0.28879 0.31162
# Poissons Ratio (y) = 0.33898 0.18461
# Poissons Ratio (z) = 0.47003 0.23722
#
# Static dielectric constant tensor:
#      x y z
#    x 3.529680 0.000000 0.048070 
#    y 0.000000 3.421550 0.000000 
#    z 0.048070 0.000000 3.433790 
# 
# 
# High freq. dielectric constant tensor:
#      x y z
#    x 1.742510 0.000000 0.004470 
#    y 0.000000 1.735440 0.000000 
#    z 0.004470 0.000000 1.733640 
# 
# From -- ./inp_files/33729.got.cif
#   From: 2010.06.25/outbox.cif.g09.slc.cpg/sg11_17_cif.got.tgz:33729.got - 2010.06.27 23:14:04.
