data_PCOD8074799
_publ_section_title
;
Structure prediction by ZEFSAII (Michael W. Deem and Ramdas Pophale) SiO2 
 PCOD8074799
Probable space group: P 21/M
;
_chemical_formula_sum "Si O2"
_cell_formula_units_Z 24
_cell_length_a 14.285082
_cell_length_b 13.340741
_cell_length_c 12.037833
_cell_angle_alpha 90.000000
_cell_angle_beta 29.739719
_cell_angle_gamma 90.000000
_cell_volume 1138.009359
_symmetry_space_group_name_H-M "P 21/M"
_symmetry_group_IT_number 11
_symmetry_cell_setting 'monoclinic'
loop_
_space_group_symop_operation_xyz
x,y,z
-x,1/2+y,-z
-x,-y,-z
x,1/2-y,z
loop_
_atom_site_type_symbol
_atom_site_label
_atom_site_fract_x
_atom_site_fract_y
_atom_site_fract_z
Si Si1 0.463374 0.560897 0.906508
Si Si2 0.188182 0.973841 0.371812
Si Si3 0.237710 0.862980 0.947900
Si Si4 0.604253 0.637079 0.148738
Si Si5 0.715474 0.134726 0.351547
Si Si6 0.005653 0.444861 0.211514
O O1 0.681736 0.569649 0.721840
O O2 0.417491 0.627198 0.845630
O O3 0.430216 0.441946 0.914417
O O4 0.320319 0.591978 0.153472
O O5 0.126808 0.915386 0.546723
O O6 0.000000 0.000000 0.500000
O O7 0.157854 0.750000 0.034996
O O8 0.313275 0.891271 0.748061
O O9 0.073032 0.939307 0.154266
O O10 0.565699 0.750000 0.145285
O O11 0.476214 0.609272 0.386691
O O12 0.817699 0.629450 0.972848
O O13 0.772193 0.250000 0.309594
O O14 0.886548 0.067883 0.222253
#
# Coordination Sequence:
#
# PCOD8074799 Si02
#       6
#     4   4   4   4   4   4
#     4  10  22  39  63  82 119 159 195 241 303 353
#     4  11  20  40  63  85 117 158 196 250 295 353
#     4  10  22  41  61  88 125 160 201 250 300 361
#     4  10  20  36  59  89 118 153 197 242 297 358
#     4  10  21  39  61  90 125 157 199 252 299 357
#     4  11  21  38  64  88 121 160 201 245 306 354
#
# _framework density 21.089456999999999
#
# number of rings (size 3 to 8) (size 9 to 14) (size 15 to 20)
#    0.000    1.667    5.000    1.000    0.000    2.667 
#    3.000    8.333    0.000    0.000    0.000    0.000 
#    0.000    0.000    0.000    0.000    0.000    0.000 
#
# Total GULP energy -297445.839408 kJ/mol
# GULP energy per Si atom -12393.576642 kJ/mol
# Density = 2.104146 g / cm^3
# Si number density = 21.089457 Si / 1000 Ang^3
#
#
#
# Elastic Constant Matrix: (Units=GPa)
#
#
# Indices 1 2 3 4 5 6 
#
# 1 145.1772 11.4268 54.2658 0.0000 -1.2545 0.0000
# 2 11.4268 77.8451 16.1728 0.0000 6.3946 0.0000
# 3 54.2658 16.1728 118.8772 0.0000 -6.0839 0.0000
# 4 0.0000 0.0000 0.0000 15.2623 0.0000 -1.3833
# 5 -1.2545 6.3946 -6.0839 0.0000 41.5987 0.0000
# 6 0.0000 0.0000 0.0000 -1.3833 0.0000 23.6368
#
#
#
# Elastic Compliance Matrix: (Units=1/GPa)
#
#
# Indices 1 2 3 4 5 6 
#
# 1 0.008322 -0.000423 -0.003753 0.000000 -0.000233 0.000000
# 2 -0.000423 0.013466 -0.001759 0.000000 -0.002340 0.000000
# 3 -0.003753 -0.001759 0.010451 0.000000 0.001686 0.000000
# 4 0.000000 0.000000 0.000000 0.065870 0.000000 0.003855
# 5 -0.000233 -0.002340 0.001686 0.000000 0.024638 0.000000
# 6 0.000000 0.000000 0.000000 0.003855 0.000000 0.042532
#
#
# Mechanical properties :
#
#
# Convention : Reuss Voigt Hill
#
# Bulk Modulus (GPa) = 49.09368 56.18116 52.63742
# Shear Modulus (GPa) = 27.18277 33.43516 30.30896
#
# Velocity S-wave (km/s) = 3.59406 3.98602 3.79510
# Velocity P-wave (km/s) = 6.36807 6.91967 6.64959
#
# Compressibility (1/GPa) = 0.02036922
#
# Stress axis : x y z
#
# Youngs Moduli (GPa) = 120.15753 74.26284 95.68467
#
# Poissons Ratio (x) = 0.03139 0.35915
# Poissons Ratio (y) = 0.05079 0.16829
# Poissons Ratio (z) = 0.45101 0.13061
#
# Static dielectric constant tensor:
#      x y z
#    x 4.027340 0.000000 0.053600 
#    y 0.000000 3.489460 0.000000 
#    z 0.053600 0.000000 4.022050 
# 
# 
# High freq. dielectric constant tensor:
#      x y z
#    x 1.844480 0.000000 0.004660 
#    y 0.000000 1.783290 0.000000 
#    z 0.004660 0.000000 1.833210 
# 
# From -- ./inp_files/39420.got.cif
#   From: 2010.06.25/outbox.cif.g09.slc.cpg/sg11_20_cif.got.tgz:39420.got - 2010.06.27 23:14:04.
