data_PCOD8074821
_publ_section_title
;
Structure prediction by ZEFSAII (Michael W. Deem and Ramdas Pophale) SiO2 
 PCOD8074821
Probable space group: P 21/M
;
_chemical_formula_sum "Si O2"
_cell_formula_units_Z 32
_cell_length_a 12.103828
_cell_length_b 9.035907
_cell_length_c 29.018281
_cell_angle_alpha 90.000000
_cell_angle_beta 148.842952
_cell_angle_gamma 90.000000
_cell_volume 1642.027952
_symmetry_space_group_name_H-M "P 21/M"
_symmetry_group_IT_number 11
_symmetry_cell_setting 'monoclinic'
loop_
_space_group_symop_operation_xyz
x,y,z
-x,1/2+y,-z
-x,-y,-z
x,1/2-y,z
loop_
_atom_site_type_symbol
_atom_site_label
_atom_site_fract_x
_atom_site_fract_y
_atom_site_fract_z
Si Si1 0.497457 0.579157 0.646745
Si Si2 0.301362 0.923059 0.135773
Si Si3 0.278000 0.574445 0.933105
Si Si4 0.678062 0.078444 0.315556
Si Si5 0.109903 0.925288 0.252874
Si Si6 0.099938 0.919090 0.443264
Si Si7 0.092580 0.921947 0.965389
Si Si8 0.717877 0.419422 0.588131
O O1 0.568804 0.750000 0.668069
O O2 0.397592 0.543517 0.660224
O O3 0.702905 0.475488 0.714711
O O4 0.325623 0.537460 0.546446
O O5 0.310337 0.750000 0.147847
O O6 0.533385 0.991106 0.227412
O O7 0.242783 0.961699 0.062204
O O8 0.129695 0.990710 0.109981
O O9 0.294889 0.750000 0.933157
O O10 0.214614 0.530800 0.962697
O O11 0.105873 0.509516 0.836568
O O12 0.500000 0.500000 0.000000
O O13 0.664535 0.250000 0.298600
O O14 0.920889 0.026488 0.398868
O O15 0.074430 0.750000 0.236455
O O16 0.169418 0.978737 0.325566
O O17 0.041843 0.750000 0.435296
O O18 0.116183 0.941547 0.394278
O O19 0.031619 0.750000 0.942904
O O20 0.500000 0.500000 0.500000
O O21 0.655013 0.250000 0.572370
#
# Coordination Sequence:
#
# PCOD8074821 Si02
#       8
#     4   4   4   4   4   4   4   4
#     4  10  21  38  59  82 114 154 194 236 285 342
#     4  10  20  36  60  86 112 147 188 234 286 345
#     4  11  24  42  62  85 118 156 194 242 293 347
#     4  11  23  36  53  83 119 151 189 236 286 342
#     4  11  23  38  61  92 119 150 194 242 291 348
#     4  10  21  38  58  80 111 153 194 235 286 339
#     4   9  20  39  61  84 112 147 189 236 287 340
#     4  10  21  38  61  86 115 150 193 242 286 338
#
# _framework density 19.488097
#
# number of rings (size 3 to 8) (size 9 to 14) (size 15 to 20)
#    0.000    1.750    1.250    2.625    0.000    8.000 
#    0.000    5.000    0.000    0.000    0.000    0.000 
#    0.000    0.000    0.000    0.000    0.000    0.000 
#
# Total GULP energy -396979.214778 kJ/mol
# GULP energy per Si atom -12405.600462 kJ/mol
# Density = 1.944374 g / cm^3
# Si number density = 19.488097 Si / 1000 Ang^3
#
#
#
# Elastic Constant Matrix: (Units=GPa)
#
#
# Indices 1 2 3 4 5 6 
#
# 1 94.7813 47.6437 62.8934 0.0000 -0.3308 0.0000
# 2 47.6437 72.7064 50.1226 0.0000 1.9179 0.0000
# 3 62.8934 50.1226 117.9208 0.0000 5.6436 0.0000
# 4 0.0000 0.0000 0.0000 39.5780 0.0000 4.7207
# 5 -0.3308 1.9179 5.6436 0.0000 30.0281 0.0000
# 6 0.0000 0.0000 0.0000 4.7207 0.0000 30.0526
#
#
#
# Elastic Compliance Matrix: (Units=1/GPa)
#
#
# Indices 1 2 3 4 5 6 
#
# 1 0.019085 -0.007745 -0.006983 0.000000 0.002017 0.000000
# 2 -0.007745 0.022601 -0.005452 0.000000 -0.000504 0.000000
# 3 -0.006983 -0.005452 0.014641 0.000000 -0.002480 0.000000
# 4 0.000000 0.000000 0.000000 0.025749 0.000000 -0.004045
# 5 0.002017 -0.000504 -0.002480 0.000000 0.033823 0.000000
# 6 0.000000 0.000000 0.000000 -0.004045 0.000000 0.033910
#
#
# Mechanical properties :
#
#
# Convention : Reuss Voigt Hill
#
# Bulk Modulus (GPa) = 62.63189 67.41420 65.02305
# Shear Modulus (GPa) = 25.57673 28.24834 26.91253
#
# Velocity S-wave (km/s) = 3.62668 3.81138 3.72018
# Velocity P-wave (km/s) = 7.05304 7.35095 7.20353
#
# Compressibility (1/GPa) = 0.01596631
#
# Stress axis : x y z
#
# Youngs Moduli (GPa) = 52.39777 44.24653 68.30238
#
# Poissons Ratio (x) = 0.34269 0.47698
# Poissons Ratio (y) = 0.40582 0.37235
# Poissons Ratio (z) = 0.36592 0.24121
#
# Static dielectric constant tensor:
#      x y z
#    x 3.634740 0.000000 -0.182650 
#    y 0.000000 3.562050 0.000000 
#    z -0.182650 0.000000 3.640230 
# 
# 
# High freq. dielectric constant tensor:
#      x y z
#    x 1.762360 0.000000 -0.007900 
#    y 0.000000 1.761180 0.000000 
#    z -0.007900 0.000000 1.766850 
# 
# From -- ./inp_files/73162.got.cif
#   From: 2010.06.25/outbox.cif.g09.slc.cpg/sg11_37_cif.got.tgz:73162.got - 2010.06.27 23:14:04.
