data_PCOD8074486
_publ_section_title
;
Structure prediction by ZEFSAII (Michael W. Deem and Ramdas Pophale) SiO2 
 PCOD8074486
Probable space group: P 21/M
;
_chemical_formula_sum "Si O2"
_cell_formula_units_Z 20
_cell_length_a 15.783802
_cell_length_b 9.012888
_cell_length_c 22.368835
_cell_angle_alpha 90.000000
_cell_angle_beta 19.221712
_cell_angle_gamma 90.000000
_cell_volume 1047.637653
_symmetry_space_group_name_H-M "P 21/M"
_symmetry_group_IT_number 11
_symmetry_cell_setting 'monoclinic'
loop_
_space_group_symop_operation_xyz
x,y,z
-x,1/2+y,-z
-x,-y,-z
x,1/2-y,z
loop_
_atom_site_type_symbol
_atom_site_label
_atom_site_fract_x
_atom_site_fract_y
_atom_site_fract_z
Si Si1 0.606457 0.575041 0.276397
Si Si2 0.726806 0.923800 0.971054
Si Si3 0.811808 0.573738 0.672362
Si Si4 0.009431 0.078401 0.082183
Si Si5 0.030422 0.925836 0.652836
O O1 0.596102 0.750000 0.290758
O O2 0.751237 0.510221 0.237815
O O3 0.318822 0.508252 0.464561
O O4 0.754304 0.527077 0.117479
O O5 0.654106 0.750000 0.016243
O O6 0.863210 0.982174 0.820148
O O7 0.921253 0.955399 0.895713
O O8 0.473741 0.018998 0.150718
O O9 0.827907 0.750000 0.655525
O O10 0.894421 0.518610 0.683130
O O11 0.000000 0.500000 0.500000
O O12 0.951118 0.250000 0.110303
O O13 0.046545 0.750000 0.643047
#
# Coordination Sequence:
#
# PCOD8074486 Si02
#       5
#     4   4   4   4   4
#     4   9  17  32  52  73 101 138 178 215 254 305
#     4  10  20  36  56  78 107 140 174 214 264 315
#     4  11  22  37  57  80 106 137 176 217 260 311
#     4   9  18  32  51  75 104 138 175 216 259 303
#     4   9  19  35  55  78 106 140 174 215 266 314
#
# _framework density 19.09057
#
# number of rings (size 3 to 8) (size 9 to 14) (size 15 to 20)
#    0.000    2.400    0.000    2.400    0.000    4.800 
#    0.000    8.000    0.000    0.000    0.000    0.000 
#    0.000    0.000    0.000    0.000    0.000    0.000 
#
# Total GULP energy -248047.354215 kJ/mol
# GULP energy per Si atom -12402.367711 kJ/mol
# Density = 1.904712 g / cm^3
# Si number density = 19.090570 Si / 1000 Ang^3
#
#
#
# Elastic Constant Matrix: (Units=GPa)
#
#
# Indices 1 2 3 4 5 6 
#
# 1 116.4303 29.6469 25.6925 0.0000 12.0914 0.0000
# 2 29.6469 38.4982 20.8511 0.0000 -0.2528 0.0000
# 3 25.6925 20.8511 69.8381 0.0000 3.9670 0.0000
# 4 0.0000 0.0000 0.0000 27.4228 0.0000 -4.3529
# 5 12.0914 -0.2528 3.9670 0.0000 34.6440 0.0000
# 6 0.0000 0.0000 0.0000 -4.3529 0.0000 27.9727
#
#
#
# Elastic Compliance Matrix: (Units=1/GPa)
#
#
# Indices 1 2 3 4 5 6 
#
# 1 0.011352 -0.007901 -0.001599 0.000000 -0.003837 0.000000
# 2 -0.007901 0.036543 -0.008229 0.000000 0.003967 0.000000
# 3 -0.001599 -0.008229 0.017449 0.000000 -0.001500 0.000000
# 4 0.000000 0.000000 0.000000 0.037390 0.000000 0.005818
# 5 -0.003837 0.003967 -0.001500 0.000000 0.030405 0.000000
# 6 0.000000 0.000000 0.000000 0.005818 0.000000 0.036655
#
#
# Mechanical properties :
#
#
# Convention : Reuss Voigt Hill
#
# Bulk Modulus (GPa) = 33.46126 41.90530 37.68328
# Shear Modulus (GPa) = 23.23277 27.91296 25.57287
#
# Velocity S-wave (km/s) = 3.49230 3.82793 3.66396
# Velocity P-wave (km/s) = 5.81612 6.44483 6.13853
#
# Compressibility (1/GPa) = 0.02988531
#
# Stress axis : x y z
#
# Youngs Moduli (GPa) = 88.08988 27.36531 57.30893
#
# Poissons Ratio (x) = 0.21621 0.09166
# Poissons Ratio (y) = 0.69600 0.47159
# Poissons Ratio (z) = 0.14089 0.22519
#
# Static dielectric constant tensor:
#      x y z
#    x 3.690590 0.000000 0.044420 
#    y 0.000000 3.237330 0.000000 
#    z 0.044420 0.000000 3.666190 
# 
# 
# High freq. dielectric constant tensor:
#      x y z
#    x 1.754800 0.000000 -0.003150 
#    y 0.000000 1.715490 0.000000 
#    z -0.003150 0.000000 1.747650 
# 
# From -- ./inp_files/15881.got.cif
#   From: 2010.06.25/outbox.cif.g09.slc.cpg/sg11_8_cif.got.tgz:15881.got - 2010.06.27 23:14:04.
