data_PCOD8074187
_publ_section_title
;
Structure prediction by ZEFSAII (Michael W. Deem and Ramdas Pophale) SiO2 
 PCOD8074187
Probable space group: P 21/M
;
_chemical_formula_sum "Si O2"
_cell_formula_units_Z 28
_cell_length_a 24.273799
_cell_length_b 9.157487
_cell_length_c 21.770186
_cell_angle_alpha 90.000000
_cell_angle_beta 161.837526
_cell_angle_gamma 90.000000
_cell_volume 1508.449066
_symmetry_space_group_name_H-M "P 21/M"
_symmetry_group_IT_number 11
_symmetry_cell_setting 'monoclinic'
loop_
_space_group_symop_operation_xyz
x,y,z
-x,1/2+y,-z
-x,-y,-z
x,1/2-y,z
loop_
_atom_site_type_symbol
_atom_site_label
_atom_site_fract_x
_atom_site_fract_y
_atom_site_fract_z
Si Si1 0.814489 0.576221 0.812240
Si Si2 0.522198 0.079662 0.959549
Si Si3 0.638889 0.080693 0.516704
Si Si4 0.097923 0.922148 0.312473
Si Si5 0.248158 0.419079 0.117921
Si Si6 0.175882 0.078469 0.521040
Si Si7 0.917881 0.420435 0.355160
O O1 0.833312 0.750000 0.826812
O O2 0.680618 0.518953 0.619213
O O3 0.743710 0.523482 0.803587
O O4 0.000000 0.500000 0.000000
O O5 0.506470 0.250000 0.957064
O O6 0.366446 0.029585 0.749044
O O7 0.710676 0.040319 0.128438
O O8 0.500000 0.000000 0.000000
O O9 0.669961 0.250000 0.567502
O O10 0.755397 0.035045 0.582231
O O11 0.434701 0.051277 0.282438
O O12 0.091225 0.750000 0.316801
O O13 0.148220 0.997283 0.428549
O O14 0.910896 0.988571 0.090444
O O15 0.201222 0.250000 0.072246
O O16 0.169274 0.250000 0.501852
O O17 0.020664 0.029005 0.403021
O O18 0.946928 0.250000 0.397231
O O19 0.000000 0.500000 0.500000
#
# Coordination Sequence:
#
# PCOD8074187 Si02
#       7
#     4   4   4   4   4   4   4
#     4  11  20  34  57  85 114 146 185 232 283 331
#     4  10  20  35  57  83 111 141 176 221 272 325
#     4  10  20  37  59  81 111 146 184 234 281 324
#     4  10  21  38  56  78 109 149 190 225 268 329
#     4   9  19  36  57  81 111 145 184 231 278 325
#     4  10  22  38  54  80 115 146 179 226 275 321
#     4  10  20  35  57  83 110 141 176 219 271 324
#
# _framework density 18.562111000000002
#
# number of rings (size 3 to 8) (size 9 to 14) (size 15 to 20)
#    0.000    2.000    2.857    0.857    0.000    2.857 
#    0.000    1.429    0.000    0.000    0.000    0.000 
#    0.000    0.000    0.000    0.000    0.000    0.000 
#
# Total GULP energy -347200.253826 kJ/mol
# GULP energy per Si atom -12400.009065 kJ/mol
# Density = 1.851986 g / cm^3
# Si number density = 18.562111 Si / 1000 Ang^3
#
#
#
# Elastic Constant Matrix: (Units=GPa)
#
#
# Indices 1 2 3 4 5 6 
#
# 1 124.3903 40.5416 104.1299 0.0000 -12.6440 0.0000
# 2 40.5416 41.5602 46.2058 0.0000 -7.1246 0.0000
# 3 104.1299 46.2058 173.8530 0.0000 4.1957 0.0000
# 4 0.0000 0.0000 0.0000 26.7691 0.0000 -9.5653
# 5 -12.6440 -7.1246 4.1957 0.0000 38.4720 0.0000
# 6 0.0000 0.0000 0.0000 -9.5653 0.0000 27.6983
#
#
#
# Elastic Compliance Matrix: (Units=1/GPa)
#
#
# Indices 1 2 3 4 5 6 
#
# 1 0.018984 -0.006633 -0.009754 0.000000 0.006075 0.000000
# 2 -0.006633 0.038667 -0.006441 0.000000 0.005683 0.000000
# 3 -0.009754 -0.006441 0.013448 0.000000 -0.005865 0.000000
# 4 0.000000 0.000000 0.000000 0.042615 0.000000 0.014717
# 5 0.006075 0.005683 -0.005865 0.000000 0.029682 0.000000
# 6 0.000000 0.000000 0.000000 0.014717 0.000000 0.041185
#
#
# Mechanical properties :
#
#
# Convention : Reuss Voigt Hill
#
# Bulk Modulus (GPa) = 39.30441 80.17313 59.73877
# Shear Modulus (GPa) = 20.94518 28.51630 24.73074
#
# Velocity S-wave (km/s) = 3.36279 3.92377 3.65406
# Velocity P-wave (km/s) = 6.02481 7.98834 7.07502
#
# Compressibility (1/GPa) = 0.02544244
#
# Stress axis : x y z
#
# Youngs Moduli (GPa) = 52.67600 25.86176 74.36138
#
# Poissons Ratio (x) = 0.17153 0.72534
# Poissons Ratio (y) = 0.34938 0.47898
# Poissons Ratio (z) = 0.51382 0.16658
#
# Static dielectric constant tensor:
#      x y z
#    x 3.642820 0.000000 0.368630 
#    y 0.000000 3.293230 0.000000 
#    z 0.368630 0.000000 4.590110 
# 
# 
# High freq. dielectric constant tensor:
#      x y z
#    x 1.721160 0.000000 0.010680 
#    y 0.000000 1.701120 0.000000 
#    z 0.010680 0.000000 1.736520 
# 
# From -- ./inp_files/66754.got.cif
#   From: 2010.06.25/outbox.cif.g09.slc.cpg/sg11_34_cif.got.tgz:66754.got - 2010.06.27 23:14:04.
