data_PCOD8074367
_publ_section_title
;
Structure prediction by ZEFSAII (Michael W. Deem and Ramdas Pophale) SiO2 
 PCOD8074367
Probable space group: P 21/M
;
_chemical_formula_sum "Si O2"
_cell_formula_units_Z 24
_cell_length_a 15.487153
_cell_length_b 18.033119
_cell_length_c 10.593197
_cell_angle_alpha 90.000000
_cell_angle_beta 155.708539
_cell_angle_gamma 90.000000
_cell_volume 1217.057515
_symmetry_space_group_name_H-M "P 21/M"
_symmetry_group_IT_number 11
_symmetry_cell_setting 'monoclinic'
loop_
_space_group_symop_operation_xyz
x,y,z
-x,1/2+y,-z
-x,-y,-z
x,1/2-y,z
loop_
_atom_site_type_symbol
_atom_site_label
_atom_site_fract_x
_atom_site_fract_y
_atom_site_fract_z
Si Si1 0.942828 0.577440 0.589533
Si Si2 0.388557 0.496842 0.718018
Si Si3 0.919315 0.420980 0.845128
Si Si4 0.749342 0.166324 0.850921
Si Si5 0.233174 0.447828 0.909963
Si Si6 0.280336 0.335143 0.192846
O O1 0.770128 0.573652 0.474705
O O2 0.838150 0.592488 0.314548
O O3 0.049800 0.495922 0.728308
O O4 0.111164 0.640845 0.843665
O O5 0.243359 0.567839 0.488179
O O6 0.500000 0.500000 0.000000
O O7 0.571585 0.494745 0.855830
O O8 0.791614 0.384482 0.787678
O O9 0.000000 0.500000 0.000000
O O10 0.109701 0.368490 0.059574
O O11 0.810939 0.250000 0.899222
O O12 0.504722 0.159891 0.561919
O O13 0.295945 0.381347 0.084818
O O14 0.223380 0.250000 0.084576
#
# Coordination Sequence:
#
# PCOD8074367 Si02
#       6
#     4   4   4   4   4   4
#     4  10  21  37  60  87 113 148 190 240 281 333
#     4  10  20  35  59  88 111 141 190 241 282 327
#     4  12  22  38  62  86 112 149 195 239 287 334
#     4  11  24  39  56  84 120 155 188 231 289 348
#     4  10  20  37  61  86 112 144 194 239 281 334
#     4  11  24  39  56  84 119 154 190 232 288 347
#
# _framework density 19.719692999999999
#
# number of rings (size 3 to 8) (size 9 to 14) (size 15 to 20)
#    0.000    1.333    5.000    0.500    2.333    2.000 
#    0.000    0.000    0.000    0.000    0.000    0.000 
#    0.000    0.000    0.000    0.000    0.000    0.000 
#
# Total GULP energy -297392.908893 kJ/mol
# GULP energy per Si atom -12391.371204 kJ/mol
# Density = 1.967481 g / cm^3
# Si number density = 19.719693 Si / 1000 Ang^3
#
#
#
# Elastic Constant Matrix: (Units=GPa)
#
#
# Indices 1 2 3 4 5 6 
#
# 1 66.9662 14.1247 25.2263 0.0000 11.2456 0.0000
# 2 14.1247 77.0603 29.6674 0.0000 -5.3449 0.0000
# 3 25.2263 29.6674 104.8063 0.0000 1.1321 0.0000
# 4 0.0000 0.0000 0.0000 30.6815 0.0000 4.6822
# 5 11.2456 -5.3449 1.1321 0.0000 27.9446 0.0000
# 6 0.0000 0.0000 0.0000 4.6822 0.0000 27.1695
#
#
#
# Elastic Compliance Matrix: (Units=1/GPa)
#
#
# Indices 1 2 3 4 5 6 
#
# 1 0.018074 -0.002466 -0.003570 0.000000 -0.007600 0.000000
# 2 -0.002466 0.015148 -0.003738 0.000000 0.004041 0.000000
# 3 -0.003570 -0.003738 0.011456 0.000000 0.000258 0.000000
# 4 0.000000 0.000000 0.000000 0.033473 0.000000 -0.005769
# 5 -0.007600 0.004041 0.000258 0.000000 0.039606 0.000000
# 6 0.000000 0.000000 0.000000 -0.005769 0.000000 0.037800
#
#
# Mechanical properties :
#
#
# Convention : Reuss Voigt Hill
#
# Bulk Modulus (GPa) = 39.79234 42.98551 41.38892
# Shear Modulus (GPa) = 27.25048 29.14677 28.19863
#
# Velocity S-wave (km/s) = 3.72141 3.84872 3.78560
# Velocity P-wave (km/s) = 6.21997 6.44948 6.33576
#
# Compressibility (1/GPa) = 0.02513047
#
# Stress axis : x y z
#
# Youngs Moduli (GPa) = 55.32737 66.01434 87.28931
#
# Poissons Ratio (x) = 0.16276 0.31165
# Poissons Ratio (y) = 0.13641 0.32631
# Poissons Ratio (z) = 0.19754 0.24678
#
# Static dielectric constant tensor:
#      x y z
#    x 3.659420 0.000000 0.228610 
#    y 0.000000 3.339720 0.000000 
#    z 0.228610 0.000000 4.195380 
# 
# 
# High freq. dielectric constant tensor:
#      x y z
#    x 1.772210 0.000000 0.010130 
#    y 0.000000 1.733970 0.000000 
#    z 0.010130 0.000000 1.794260 
# 
# From -- ./inp_files/41922.got.cif
#   From: 2010.06.25/outbox.cif.g09.slc.cpg/sg11_21_cif.got.tgz:41922.got - 2010.06.27 23:14:04.
