data_PCOD8074197
_publ_section_title
;
Structure prediction by ZEFSAII (Michael W. Deem and Ramdas Pophale) SiO2 
 PCOD8074197
Probable space group: P 21/M
;
_chemical_formula_sum "Si O2"
_cell_formula_units_Z 28
_cell_length_a 30.475812
_cell_length_b 8.869642
_cell_length_c 7.952072
_cell_angle_alpha 90.000000
_cell_angle_beta 140.575644
_cell_angle_gamma 90.000000
_cell_volume 1365.072488
_symmetry_space_group_name_H-M "P 21/M"
_symmetry_group_IT_number 11
_symmetry_cell_setting 'monoclinic'
loop_
_space_group_symop_operation_xyz
x,y,z
-x,1/2+y,-z
-x,-y,-z
x,1/2-y,z
loop_
_atom_site_type_symbol
_atom_site_label
_atom_site_fract_x
_atom_site_fract_y
_atom_site_fract_z
Si Si1 0.354672 0.921221 0.251217
Si Si2 0.656397 0.427320 0.158779
Si Si3 0.217610 0.425235 0.334515
Si Si4 0.212795 0.922507 0.984218
Si Si5 0.077726 0.574175 0.413449
Si Si6 0.073069 0.424615 0.045346
Si Si7 0.425131 0.071275 0.773246
O O1 0.378148 0.750000 0.359565
O O2 0.390538 0.028707 0.492827
O O3 0.374935 0.965043 0.118994
O O4 0.271294 0.933252 0.014562
O O5 0.653199 0.250000 0.185381
O O6 0.736056 0.482896 0.395438
O O7 0.615901 0.513352 0.185393
O O8 0.232576 0.250000 0.405212
O O9 0.136232 0.464521 0.110036
O O10 0.240602 0.475887 0.218126
O O11 0.203222 0.750000 0.017334
O O12 0.140226 0.995839 0.706944
O O13 0.091607 0.750000 0.451319
O O14 0.083317 0.519583 0.241385
O O15 0.001187 0.534453 0.260605
O O16 0.073301 0.250000 0.097934
O O17 0.430040 0.250000 0.798303
O O18 0.500000 0.000000 0.000000
#
# Coordination Sequence:
#
# PCOD8074197 Si02
#       7
#     4   4   4   4   4   4   4
#     4  10  22  41  66  95 127 166 211 260 310 366
#     4  11  23  42  68  96 128 167 211 258 308 368
#     4  11  22  35  54  84 120 160 203 256 315 368
#     4  10  20  35  57  83 115 156 204 257 307 365
#     4   9  18  34  54  77 107 151 203 253 310 370
#     4   9  19  34  51  76 113 151 197 256 311 369
#     4  12  26  45  70  99 133 169 204 251 305 365
#
# _framework density 20.511731999999999
#
# number of rings (size 3 to 8) (size 9 to 14) (size 15 to 20)
#    0.000    1.714    1.429    3.000    0.000    5.143 
#    0.000    0.000    0.000    0.000    0.000    0.000 
#    0.000    0.000    0.000    0.000    0.000    0.000 
#
# Total GULP energy -347105.190806 kJ/mol
# GULP energy per Si atom -12396.613957 kJ/mol
# Density = 2.046505 g / cm^3
# Si number density = 20.511732 Si / 1000 Ang^3
#
#
#
# Elastic Constant Matrix: (Units=GPa)
#
#
# Indices 1 2 3 4 5 6 
#
# 1 95.0928 47.4260 54.9383 0.0000 -5.8423 0.0000
# 2 47.4260 93.7450 53.9821 0.0000 -2.5791 0.0000
# 3 54.9383 53.9821 130.2005 0.0000 2.1561 0.0000
# 4 0.0000 0.0000 0.0000 32.9375 0.0000 1.6660
# 5 -5.8423 -2.5791 2.1561 0.0000 32.0353 0.0000
# 6 0.0000 0.0000 0.0000 1.6660 0.0000 21.9186
#
#
#
# Elastic Compliance Matrix: (Units=1/GPa)
#
#
# Indices 1 2 3 4 5 6 
#
# 1 0.016018 -0.005396 -0.004568 0.000000 0.002794 0.000000
# 2 -0.005396 0.015905 -0.004327 0.000000 0.000588 0.000000
# 3 -0.004568 -0.004327 0.011434 0.000000 -0.001951 0.000000
# 4 0.000000 0.000000 0.000000 0.030478 0.000000 -0.002317
# 5 0.002794 0.000588 -0.001951 0.000000 0.031904 0.000000
# 6 0.000000 0.000000 0.000000 -0.002317 0.000000 0.045800
#
#
# Mechanical properties :
#
#
# Convention : Reuss Voigt Hill
#
# Bulk Modulus (GPa) = 67.68240 70.19235 68.93737
# Shear Modulus (GPa) = 27.02035 28.22440 27.62237
#
# Velocity S-wave (km/s) = 3.63342 3.71349 3.67367
# Velocity P-wave (km/s) = 7.11835 7.25821 7.18862
#
# Compressibility (1/GPa) = 0.01477489
#
# Stress axis : x y z
#
# Youngs Moduli (GPa) = 62.42980 62.87246 87.45729
#
# Poissons Ratio (x) = 0.33929 0.39948
# Poissons Ratio (y) = 0.33690 0.37844
# Poissons Ratio (z) = 0.28516 0.27206
#
# Static dielectric constant tensor:
#      x y z
#    x 3.738470 0.000000 0.201750 
#    y 0.000000 3.542500 0.000000 
#    z 0.201750 0.000000 4.019030 
# 
# 
# High freq. dielectric constant tensor:
#      x y z
#    x 1.798320 0.000000 0.009640 
#    y 0.000000 1.796890 0.000000 
#    z 0.009640 0.000000 1.809530 
# 
# From -- ./inp_files/29081.got.cif
#   From: 2010.06.25/outbox.cif.g09.slc.cpg/sg11_15_cif.got.tgz:29081.got - 2010.06.27 23:14:04.
