data_PCOD8074514
_publ_section_title
;
Structure prediction by ZEFSAII (Michael W. Deem and Ramdas Pophale) SiO2 
 PCOD8074514
Probable space group: P 21/M
;
_chemical_formula_sum "Si O2"
_cell_formula_units_Z 28
_cell_length_a 9.258860
_cell_length_b 9.088524
_cell_length_c 24.382834
_cell_angle_alpha 90.000000
_cell_angle_beta 46.313899
_cell_angle_gamma 90.000000
_cell_volume 1483.727931
_symmetry_space_group_name_H-M "P 21/M"
_symmetry_group_IT_number 11
_symmetry_cell_setting 'monoclinic'
loop_
_space_group_symop_operation_xyz
x,y,z
-x,1/2+y,-z
-x,-y,-z
x,1/2-y,z
loop_
_atom_site_type_symbol
_atom_site_label
_atom_site_fract_x
_atom_site_fract_y
_atom_site_fract_z
Si Si1 0.329033 0.073928 0.579997
Si Si2 0.726383 0.077657 0.290333
Si Si3 0.799088 0.415668 0.066807
Si Si4 0.898574 0.090217 0.676303
Si Si5 0.109104 0.911540 0.194712
Si Si6 0.525031 0.584501 0.937763
Si Si7 0.496149 0.579761 0.762365
O O1 0.356254 0.250000 0.576930
O O2 0.121267 0.033570 0.601804
O O3 0.500000 0.000000 0.500000
O O4 0.347031 0.004786 0.636085
O O5 0.757469 0.250000 0.294594
O O6 0.568501 0.052451 0.283045
O O7 0.932906 0.007419 0.213800
O O8 0.857414 0.250000 0.068697
O O9 0.679351 0.417640 0.041691
O O10 0.664797 0.487220 0.151543
O O11 0.000000 0.500000 0.000000
O O12 0.850773 0.250000 0.662216
O O13 0.935240 0.112456 0.730695
O O14 0.718938 0.982883 0.709113
O O15 0.124847 0.750000 0.161637
O O16 0.312397 0.000693 0.140197
O O17 0.596401 0.750000 0.930955
O O18 0.500000 0.500000 0.000000
O O19 0.515016 0.750000 0.772503
#
# Coordination Sequence:
#
# PCOD8074514 Si02
#       7
#     4   4   4   4   4   4   4
#     4  10  21  39  62  91 121 151 190 233 280 341
#     4  10  21  36  58  87 117 152 189 234 284 335
#     4  10  23  40  56  80 112 152 195 241 294 347
#     4   9  19  35  58  85 112 145 185 230 279 334
#     4  10  20  36  56  81 109 144 191 238 283 339
#     4  11  23  38  56  79 109 145 190 241 294 347
#     4  10  21  38  58  83 115 150 195 238 283 345
#
# _framework density 18.871385
#
# number of rings (size 3 to 8) (size 9 to 14) (size 15 to 20)
#    0.000    2.000    1.429    2.571    2.000    5.714 
#    0.000    0.714    0.000    0.000    0.000    0.000 
#    0.000    0.000    0.000    0.000    0.000    0.000 
#
# Total GULP energy -347021.474401 kJ/mol
# GULP energy per Si atom -12393.624086 kJ/mol
# Density = 1.882843 g / cm^3
# Si number density = 18.871385 Si / 1000 Ang^3
#
#
#
# Elastic Constant Matrix: (Units=GPa)
#
#
# Indices 1 2 3 4 5 6 
#
# 1 92.2874 54.6755 48.4790 0.0000 -14.7067 0.0000
# 2 54.6755 126.3675 60.5750 0.0000 -15.3411 0.0000
# 3 48.4790 60.5750 119.9528 0.0000 -25.4435 0.0000
# 4 0.0000 0.0000 0.0000 34.7897 0.0000 -4.6799
# 5 -14.7067 -15.3411 -25.4435 0.0000 31.8234 0.0000
# 6 0.0000 0.0000 0.0000 -4.6799 0.0000 31.4386
#
#
#
# Elastic Compliance Matrix: (Units=1/GPa)
#
#
# Indices 1 2 3 4 5 6 
#
# 1 0.015956 -0.004973 -0.003470 0.000000 0.002202 0.000000
# 2 -0.004973 0.012016 -0.003995 0.000000 0.000301 0.000000
# 3 -0.003470 -0.003995 0.013256 0.000000 0.007069 0.000000
# 4 0.000000 0.000000 0.000000 0.029331 0.000000 0.004366
# 5 0.002202 0.000301 0.007069 0.000000 0.038238 0.000000
# 6 0.000000 0.000000 0.000000 0.004366 0.000000 0.032458
#
#
# Mechanical properties :
#
#
# Convention : Reuss Voigt Hill
#
# Bulk Modulus (GPa) = 61.15240 74.00742 67.57991
# Shear Modulus (GPa) = 29.14080 31.26891 30.20485
#
# Velocity S-wave (km/s) = 3.93387 4.07498 4.00504
# Velocity P-wave (km/s) = 7.28759 7.83853 7.56807
#
# Compressibility (1/GPa) = 0.01635259
#
# Stress axis : x y z
#
# Youngs Moduli (GPa) = 62.67384 83.22006 75.43919
#
# Poissons Ratio (x) = 0.41383 0.26179
# Poissons Ratio (y) = 0.31166 0.30135
# Poissons Ratio (z) = 0.21749 0.33243
#
# Static dielectric constant tensor:
#      x y z
#    x 3.268730 0.000000 0.056200 
#    y 0.000000 3.722820 0.000000 
#    z 0.056200 0.000000 2.899720 
# 
# 
# High freq. dielectric constant tensor:
#      x y z
#    x 1.725330 0.000000 -0.012610 
#    y 0.000000 1.741960 0.000000 
#    z -0.012610 0.000000 1.730730 
# 
# From -- ./inp_files/28444.got.cif
#   From: 2010.06.25/outbox.cif.g09.slc.cpg/sg11_15_cif.got.tgz:28444.got - 2010.06.27 23:14:04.
