data_PCOD8074274
_publ_section_title
;
Structure prediction by ZEFSAII (Michael W. Deem and Ramdas Pophale) SiO2 
 PCOD8074274
Probable space group: P 21/M
;
_chemical_formula_sum "Si O2"
_cell_formula_units_Z 20
_cell_length_a 7.760213
_cell_length_b 12.914968
_cell_length_c 9.534215
_cell_angle_alpha 90.000000
_cell_angle_beta 95.085151
_cell_angle_gamma 90.000000
_cell_volume 951.785736
_symmetry_space_group_name_H-M "P 21/M"
_symmetry_group_IT_number 11
_symmetry_cell_setting 'monoclinic'
loop_
_space_group_symop_operation_xyz
x,y,z
-x,1/2+y,-z
-x,-y,-z
x,1/2-y,z
loop_
_atom_site_type_symbol
_atom_site_label
_atom_site_fract_x
_atom_site_fract_y
_atom_site_fract_z
Si Si1 0.308075 0.631313 0.116942
Si Si2 0.832537 0.872146 0.407763
Si Si3 0.311848 0.129572 0.896109
Si Si4 0.148957 0.993513 0.338586
Si Si5 0.028750 0.369917 0.090538
O O1 0.310858 0.750000 0.167976
O O2 0.488737 0.604527 0.051456
O O3 0.294227 0.561556 0.255037
O O4 0.153072 0.611949 0.998472
O O5 0.817950 0.750000 0.435520
O O6 0.725834 0.909101 0.264001
O O7 0.759358 0.935726 0.536298
O O8 0.032892 0.903704 0.400295
O O9 0.267883 0.250000 0.895597
O O10 0.181814 0.081478 0.002588
O O11 0.027775 0.067824 0.235050
O O12 0.060559 0.250000 0.127295
#
# Coordination Sequence:
#
# PCOD8074274 Si02
#       5
#     4   4   4   4   4
#     4  10  20  35  58  84 111 144 182 223 270 324
#     4  10  21  38  56  79 112 146 182 227 273 325
#     4   9  19  36  58  79 110 149 179 218 275 323
#     4  11  21  34  58  85 107 145 187 222 274 322
#     4  10  20  37  57  82 114 143 179 227 270 321
#
# _framework density 21.013134000000001
#
# number of rings (size 3 to 8) (size 9 to 14) (size 15 to 20)
#    0.000    2.000    2.000    1.800    0.000    1.600 
#    0.000    0.000    0.000    0.000    0.000    0.000 
#    0.000    0.000    0.000    0.000    0.000    0.000 
#
# Total GULP energy -247966.055359 kJ/mol
# GULP energy per Si atom -12398.302768 kJ/mol
# Density = 2.096531 g / cm^3
# Si number density = 21.013134 Si / 1000 Ang^3
#
#
#
# Elastic Constant Matrix: (Units=GPa)
#
#
# Indices 1 2 3 4 5 6 
#
# 1 101.7200 11.4249 25.7385 0.0000 32.1751 0.0000
# 2 11.4249 83.1511 27.0848 0.0000 -13.5029 0.0000
# 3 25.7385 27.0848 98.4758 0.0000 -5.3259 0.0000
# 4 0.0000 0.0000 0.0000 35.9780 0.0000 -8.7834
# 5 32.1751 -13.5029 -5.3259 0.0000 -49.4854 0.0000
# 6 0.0000 0.0000 0.0000 -8.7834 0.0000 0.0707
#
#
#
# Elastic Compliance Matrix: (Units=1/GPa)
#
#
# Indices 1 2 3 4 5 6 
#
# 1 0.008514 0.000409 -0.002033 0.000000 0.005643 0.000000
# 2 0.000409 0.012740 -0.003763 0.000000 -0.002806 0.000000
# 3 -0.002033 -0.003763 0.011637 0.000000 -0.001547 0.000000
# 4 0.000000 0.000000 0.000000 -0.000947 0.000000 -0.117731
# 5 0.005643 -0.002806 -0.001547 0.000000 -0.015607 0.000000
# 6 0.000000 0.000000 0.000000 -0.117731 0.000000 -0.482243
#
#
# Mechanical properties :
#
#
# Convention : Reuss Voigt Hill
#
# Bulk Modulus (GPa) = 45.21089 45.76037 45.48563
# Shear Modulus (GPa) = -11.16671 11.91924 0.37627
#
# Velocity S-wave (km/s) = -2.30775 2.38424 0.42362
# Velocity P-wave (km/s) = 3.80280 5.42252 4.68322
#
# Compressibility (1/GPa) = 0.02211856
#
# Stress axis : x y z
#
# Youngs Moduli (GPa) = 117.44934 78.49220 85.93132
#
# Poissons Ratio (x) = -0.03207 0.17466
# Poissons Ratio (y) = -0.04799 0.32332
# Poissons Ratio (z) = 0.23872 0.29533
#
# Static dielectric constant tensor:
#      x y z
#    x 3.599020 0.000000 -0.056170 
#    y 0.000000 3.998690 0.000000 
#    z -0.056170 0.000000 3.787380 
# 
# 
# High freq. dielectric constant tensor:
#      x y z
#    x 1.800340 0.000000 -0.004320 
#    y 0.000000 1.843710 0.000000 
#    z -0.004320 0.000000 1.814170 
# 
# From -- ./inp_files/12228.got.cif
#   From: 2010.06.25/outbox.cif.g09.slc.cpg/sg11_7_cif.got.tgz:12228.got - 2010.06.27 23:14:04.
