data_PCOD8074989
_publ_section_title
;
Structure prediction by ZEFSAII (Michael W. Deem and Ramdas Pophale) SiO2 
 PCOD8074989
Probable space group: P 21/M
;
_chemical_formula_sum "Si O2"
_cell_formula_units_Z 28
_cell_length_a 7.975125
_cell_length_b 25.515837
_cell_length_c 8.891763
_cell_angle_alpha 90.000000
_cell_angle_beta 49.366176
_cell_angle_gamma 90.000000
_cell_volume 1373.132062
_symmetry_space_group_name_H-M "P 21/M"
_symmetry_group_IT_number 11
_symmetry_cell_setting 'monoclinic'
loop_
_space_group_symop_operation_xyz
x,y,z
-x,1/2+y,-z
-x,-y,-z
x,1/2-y,z
loop_
_atom_site_type_symbol
_atom_site_label
_atom_site_fract_x
_atom_site_fract_y
_atom_site_fract_z
Si Si1 0.313371 0.582385 0.918575
Si Si2 0.911201 0.140317 0.699938
Si Si3 0.745563 0.190383 0.509586
Si Si4 0.760287 0.688562 0.245718
Si Si5 0.790301 0.951412 0.568546
Si Si6 0.073447 0.489763 0.203702
Si Si7 0.998259 0.124457 0.134074
O O1 0.554684 0.575317 0.711818
O O2 0.207691 0.618094 0.853777
O O3 0.193328 0.526418 0.011550
O O4 0.289546 0.615265 0.086065
O O5 0.100850 0.167495 0.692261
O O6 0.026336 0.094399 0.536370
O O7 0.783394 0.180326 0.665326
O O8 0.804150 0.250000 0.441454
O O9 0.501708 0.178280 0.586943
O O10 0.926640 0.155098 0.323048
O O11 0.812200 0.750000 0.195388
O O12 0.817440 0.657642 0.060113
O O13 0.802224 0.988826 0.707880
O O14 0.830707 0.986276 0.391583
O O15 0.084275 0.432672 0.127562
#
# Coordination Sequence:
#
# PCOD8074989 Si02
#       7
#     4   4   4   4   4   4   4
#     4  10  22  36  59  85 116 157 190 233 291 345
#     4  10  21  39  61  87 117 152 194 238 290 349
#     4  11  23  39  62  87 113 153 196 240 297 346
#     4  10  23  41  60  86 118 150 193 247 293 342
#     4  10  20  37  56  86 119 150 193 237 282 344
#     4  10  21  35  56  85 120 151 192 237 283 344
#     4  11  22  39  58  85 117 150 196 242 286 345
#
# _framework density 20.391338000000001
#
# number of rings (size 3 to 8) (size 9 to 14) (size 15 to 20)
#    0.000    1.714    1.429    2.571    2.000    1.714 
#    0.000    0.000    0.000    6.857    0.000    0.000 
#    0.000    0.000    0.000    0.000    0.000    0.000 
#
# Total GULP energy -347019.503249 kJ/mol
# GULP energy per Si atom -12393.553687 kJ/mol
# Density = 2.034493 g / cm^3
# Si number density = 20.391338 Si / 1000 Ang^3
#
#
#
# Elastic Constant Matrix: (Units=GPa)
#
#
# Indices 1 2 3 4 5 6 
#
# 1 56.5924 14.2038 8.6318 0.0000 7.2527 0.0000
# 2 14.2038 94.4991 22.0612 0.0000 7.7078 0.0000
# 3 8.6318 22.0612 56.3564 0.0000 6.7628 0.0000
# 4 0.0000 0.0000 0.0000 28.4685 0.0000 1.3669
# 5 7.2527 7.7078 6.7628 0.0000 22.1631 0.0000
# 6 0.0000 0.0000 0.0000 1.3669 0.0000 30.1475
#
#
#
# Elastic Compliance Matrix: (Units=1/GPa)
#
#
# Indices 1 2 3 4 5 6 
#
# 1 0.019074 -0.002107 -0.001490 0.000000 -0.005054 0.000000
# 2 -0.002107 0.012044 -0.004123 0.000000 -0.002241 0.000000
# 3 -0.001490 -0.004123 0.020092 0.000000 -0.004209 0.000000
# 4 0.000000 0.000000 0.000000 0.035203 0.000000 -0.001596
# 5 -0.005054 -0.002241 -0.004209 0.000000 0.048838 0.000000
# 6 0.000000 0.000000 0.000000 -0.001596 0.000000 0.033243
#
#
# Mechanical properties :
#
#
# Convention : Reuss Voigt Hill
#
# Bulk Modulus (GPa) = 27.95676 33.02682 30.49179
# Shear Modulus (GPa) = 25.52883 26.99256 26.26069
#
# Velocity S-wave (km/s) = 3.54212 3.64225 3.59254
# Velocity P-wave (km/s) = 5.51985 5.82406 5.67399
#
# Compressibility (1/GPa) = 0.03576952
#
# Stress axis : x y z
#
# Youngs Moduli (GPa) = 52.42727 83.02789 49.77197
#
# Poissons Ratio (x) = 0.17492 0.07417
# Poissons Ratio (y) = 0.11045 0.20522
# Poissons Ratio (z) = 0.07813 0.34234
#
# Static dielectric constant tensor:
#      x y z
#    x 3.493840 0.000000 0.154840 
#    y 0.000000 3.838460 0.000000 
#    z 0.154840 0.000000 3.969710 
# 
# 
# High freq. dielectric constant tensor:
#      x y z
#    x 1.780670 0.000000 0.010900 
#    y 0.000000 1.808490 0.000000 
#    z 0.010900 0.000000 1.803150 
# 
# From -- ./inp_files/3472.got.cif
#   From: 2010.06.25/outbox.cif.g09.slc.cpg/sg11_2_cif.got.tgz:3472.got - 2010.06.27 23:14:04.
