data_PCOD8074929
_publ_section_title
;
Structure prediction by ZEFSAII (Michael W. Deem and Ramdas Pophale) SiO2 
 PCOD8074929
Probable space group: P 21/M
;
_chemical_formula_sum "Si O2"
_cell_formula_units_Z 32
_cell_length_a 6.923048
_cell_length_b 13.910346
_cell_length_c 16.556848
_cell_angle_alpha 90.000000
_cell_angle_beta 79.942930
_cell_angle_gamma 90.000000
_cell_volume 1569.957507
_symmetry_space_group_name_H-M "P 21/M"
_symmetry_group_IT_number 11
_symmetry_cell_setting 'monoclinic'
loop_
_space_group_symop_operation_xyz
x,y,z
-x,1/2+y,-z
-x,-y,-z
x,1/2-y,z
loop_
_atom_site_type_symbol
_atom_site_label
_atom_site_fract_x
_atom_site_fract_y
_atom_site_fract_z
Si Si1 0.581502 0.502256 0.119219
Si Si2 0.633332 0.472891 0.414518
Si Si3 0.852043 0.854154 0.433216
Si Si4 0.970192 0.862951 0.600801
Si Si5 0.171885 0.645894 0.286727
Si Si6 0.683289 0.137718 0.968727
Si Si7 0.076769 0.359608 0.848911
Si Si8 0.370477 0.458836 0.287061
O O1 0.440940 0.582922 0.090840
O O2 0.468058 0.435421 0.193716
O O3 0.759887 0.560749 0.145543
O O4 0.657751 0.421214 0.052856
O O5 0.500000 0.500000 0.500000
O O6 0.730099 0.574852 0.384973
O O7 0.805994 0.397504 0.419502
O O8 0.512048 0.428500 0.349658
O O9 0.748160 0.750000 0.439711
O O10 0.867642 0.892340 0.523900
O O11 0.069061 0.847279 0.381251
O O12 0.970471 0.750000 0.614280
O O13 0.843289 0.910350 0.682952
O O14 0.258076 0.750000 0.255098
O O15 0.017887 0.612121 0.230026
O O16 0.351502 0.574157 0.284654
O O17 0.614844 0.250000 0.981964
O O18 0.911936 0.133854 0.930210
O O19 0.161020 0.250000 0.840245
#
# Coordination Sequence:
#
# PCOD8074929 Si02
#       8
#     4   4   4   4   4   4   4   4
#     4  11  23  37  66  96 121 165 211 255 311 378
#     4  12  23  38  66  92 122 165 216 260 309 366
#     4  10  20  38  61  87 122 161 207 260 313 366
#     4  11  25  44  61  84 127 174 214 259 310 362
#     4  10  20  36  61  91 124 159 200 259 319 366
#     4  10  22  42  63  91 129 160 202 260 319 378
#     4  10  20  38  63  92 128 162 200 253 319 380
#     4  12  24  39  65  91 128 164 210 259 308 375
#
# _framework density 20.382717
#
# number of rings (size 3 to 8) (size 9 to 14) (size 15 to 20)
#    0.000    1.250    3.750    2.625    0.000    2.500 
#    0.000    0.000    0.000    0.000    0.000    0.000 
#    0.000    0.000    0.000    0.000    0.000    0.000 
#
# Total GULP energy -396617.656060 kJ/mol
# GULP energy per Si atom -12394.301752 kJ/mol
# Density = 2.033633 g / cm^3
# Si number density = 20.382717 Si / 1000 Ang^3
#
#
#
# Elastic Constant Matrix: (Units=GPa)
#
#
# Indices 1 2 3 4 5 6 
#
# 1 73.9149 34.1609 25.9223 0.0000 -9.2800 0.0000
# 2 34.1609 94.5788 33.7207 0.0000 -0.0859 0.0000
# 3 25.9223 33.7207 106.1819 0.0000 -17.3722 0.0000
# 4 0.0000 0.0000 0.0000 27.2584 0.0000 0.4885
# 5 -9.2800 -0.0859 -17.3722 0.0000 28.8093 0.0000
# 6 0.0000 0.0000 0.0000 0.4885 0.0000 22.1282
#
#
#
# Elastic Compliance Matrix: (Units=1/GPa)
#
#
# Indices 1 2 3 4 5 6 
#
# 1 0.017298 -0.005642 -0.001689 0.000000 0.004537 0.000000
# 2 -0.005642 0.013927 -0.003701 0.000000 -0.004008 0.000000
# 3 -0.001689 -0.003701 0.012109 0.000000 0.006747 0.000000
# 4 0.000000 0.000000 0.000000 0.036700 0.000000 -0.000810
# 5 0.004537 -0.004008 0.006747 0.000000 0.040229 0.000000
# 6 0.000000 0.000000 0.000000 -0.000810 0.000000 0.045209
#
#
# Mechanical properties :
#
#
# Convention : Reuss Voigt Hill
#
# Bulk Modulus (GPa) = 47.01310 51.36482 49.18896
# Shear Modulus (GPa) = 25.69013 27.69730 26.69371
#
# Velocity S-wave (km/s) = 3.55405 3.69027 3.62280
# Velocity P-wave (km/s) = 6.32115 6.58881 6.45636
#
# Compressibility (1/GPa) = 0.02127067
#
# Stress axis : x y z
#
# Youngs Moduli (GPa) = 57.80871 71.80368 82.58023
#
# Poissons Ratio (x) = 0.40509 0.13949
# Poissons Ratio (y) = 0.32614 0.30565
# Poissons Ratio (z) = 0.09765 0.26576
#
# Static dielectric constant tensor:
#      x y z
#    x 3.705250 0.000000 -0.173640 
#    y 0.000000 3.862220 0.000000 
#    z -0.173640 0.000000 3.813170 
# 
# 
# High freq. dielectric constant tensor:
#      x y z
#    x 1.789600 0.000000 -0.013690 
#    y 0.000000 1.796820 0.000000 
#    z -0.013690 0.000000 1.799200 
# 
# From -- ./inp_files/57073.got.cif
#   From: 2010.06.25/outbox.cif.g09.slc.cpg/sg11_29_cif.got.tgz:57073.got - 2010.06.27 23:14:04.
