data_PCOD8074507
_publ_section_title
;
Structure prediction by ZEFSAII (Michael W. Deem and Ramdas Pophale) SiO2 
 PCOD8074507
Probable space group: P 21/M
;
_chemical_formula_sum "Si O2"
_cell_formula_units_Z 28
_cell_length_a 20.236025
_cell_length_b 9.227380
_cell_length_c 23.067249
_cell_angle_alpha 90.000000
_cell_angle_beta 19.451436
_cell_angle_gamma 90.000000
_cell_volume 1434.345463
_symmetry_space_group_name_H-M "P 21/M"
_symmetry_group_IT_number 11
_symmetry_cell_setting 'monoclinic'
loop_
_space_group_symop_operation_xyz
x,y,z
-x,1/2+y,-z
-x,-y,-z
x,1/2-y,z
loop_
_atom_site_type_symbol
_atom_site_label
_atom_site_fract_x
_atom_site_fract_y
_atom_site_fract_z
Si Si1 0.553774 0.421533 0.108658
Si Si2 0.853062 0.911611 0.081458
Si Si3 0.549503 0.411610 0.515977
Si Si4 0.933524 0.421532 0.728908
Si Si5 0.257381 0.414474 0.549425
Si Si6 0.663038 0.085526 0.143768
Si Si7 0.106525 0.076987 0.464491
O O1 0.541220 0.250000 0.124956
O O2 0.633291 0.481608 0.104323
O O3 0.333988 0.479457 0.276506
O O4 0.707373 0.468889 0.930875
O O5 0.938478 0.750000 0.000760
O O6 0.642045 0.903691 0.285985
O O7 0.828708 0.990913 0.039775
O O8 0.000000 0.000000 0.000000
O O9 0.500000 0.500000 0.500000
O O10 0.620765 0.250000 0.439997
O O11 0.723259 0.490914 0.408259
O O12 0.957309 0.250000 0.708867
O O13 0.079554 0.481609 0.658061
O O14 0.997496 0.479457 0.612999
O O15 0.210561 0.250000 0.607387
O O16 0.453752 0.419598 0.348749
O O17 0.743285 0.250000 0.074663
O O18 0.092951 0.250000 0.469016
O O19 0.000000 0.000000 0.500000
#
# Coordination Sequence:
#
# PCOD8074507 Si02
#       7
#     4   4   4   4   4   4   4
#     4   9  17  31  54  81 106 137 180 222 263 319
#     4  10  21  35  51  74 105 142 181 222 271 324
#     4  10  21  35  51  74 105 142 181 222 271 324
#     4   9  17  31  54  81 106 137 180 222 263 319
#     4   9  16  30  52  74  98 133 176 222 271 321
#     4   9  16  30  52  74  98 133 176 222 271 321
#     4  10  20  36  56  80 110 144 178 218 268 320
#
# _framework density 19.521100000000001
#
# number of rings (size 3 to 8) (size 9 to 14) (size 15 to 20)
#    0.000    2.571    1.429    0.857    0.000    3.429 
#    0.000    4.286    0.000    1.714    0.000    0.000 
#    0.000    0.000    0.000    0.000    0.000    0.000 
#
# Total GULP energy -347128.949983 kJ/mol
# GULP energy per Si atom -12397.462499 kJ/mol
# Density = 1.947667 g / cm^3
# Si number density = 19.521100 Si / 1000 Ang^3
#
#
#
# Elastic Constant Matrix: (Units=GPa)
#
#
# Indices 1 2 3 4 5 6 
#
# 1 188.2954 62.5928 70.0991 0.0000 -13.3279 0.0000
# 2 62.5928 86.6038 28.6727 0.0000 -6.9119 0.0000
# 3 70.0991 28.6727 93.7770 0.0000 -5.9325 0.0000
# 4 0.0000 0.0000 0.0000 13.4057 0.0000 -4.5424
# 5 -13.3279 -6.9119 -5.9325 0.0000 27.9023 0.0000
# 6 0.0000 0.0000 0.0000 -4.5424 0.0000 35.6968
#
#
#
# Elastic Compliance Matrix: (Units=1/GPa)
#
#
# Indices 1 2 3 4 5 6 
#
# 1 0.008872 -0.004559 -0.005110 0.000000 0.002022 0.000000
# 2 -0.004559 0.015348 -0.001198 0.000000 0.001370 0.000000
# 3 -0.005110 -0.001198 0.014877 0.000000 0.000425 0.000000
# 4 0.000000 0.000000 0.000000 0.077957 0.000000 0.009920
# 5 0.002022 0.001370 0.000425 0.000000 0.037235 0.000000
# 6 0.000000 0.000000 0.000000 0.009920 0.000000 0.029276
#
#
# Mechanical properties :
#
#
# Convention : Reuss Voigt Hill
#
# Bulk Modulus (GPa) = 57.59670 76.82281 67.20976
# Shear Modulus (GPa) = 23.68717 29.22173 26.45445
#
# Velocity S-wave (km/s) = 3.48719 3.87322 3.68526
# Velocity P-wave (km/s) = 6.76630 7.70984 7.25343
#
# Compressibility (1/GPa) = 0.01736211
#
# Stress axis : x y z
#
# Youngs Moduli (GPa) = 112.71832 65.15606 67.22005
#
# Poissons Ratio (x) = 0.29704 0.34348
# Poissons Ratio (y) = 0.51387 0.08054
# Poissons Ratio (z) = 0.57597 0.07807
#
# Static dielectric constant tensor:
#      x y z
#    x 3.322270 0.000000 0.057070 
#    y 0.000000 3.042640 0.000000 
#    z 0.057070 0.000000 3.602280 
# 
# 
# High freq. dielectric constant tensor:
#      x y z
#    x 1.765920 0.000000 -0.001330 
#    y 0.000000 1.722480 0.000000 
#    z -0.001330 0.000000 1.759360 
# 
# From -- ./inp_files/66730.got.cif
#   From: 2010.06.25/outbox.cif.g09.slc.cpg/sg11_34_cif.got.tgz:66730.got - 2010.06.27 23:14:04.
