data_PCOD8074380
_publ_section_title
;
Structure prediction by ZEFSAII (Michael W. Deem and Ramdas Pophale) SiO2 
 PCOD8074380
Probable space group: P 21/M
;
_chemical_formula_sum "Si O2"
_cell_formula_units_Z 32
_cell_length_a 14.145145
_cell_length_b 8.831446
_cell_length_c 22.990160
_cell_angle_alpha 90.000000
_cell_angle_beta 143.385646
_cell_angle_gamma 90.000000
_cell_volume 1712.922718
_symmetry_space_group_name_H-M "P 21/M"
_symmetry_group_IT_number 11
_symmetry_cell_setting 'monoclinic'
loop_
_space_group_symop_operation_xyz
x,y,z
-x,1/2+y,-z
-x,-y,-z
x,1/2-y,z
loop_
_atom_site_type_symbol
_atom_site_label
_atom_site_fract_x
_atom_site_fract_y
_atom_site_fract_z
Si Si1 0.451182 0.575398 0.138071
Si Si2 0.910242 0.077097 0.195110
Si Si3 0.903655 0.926847 0.900612
Si Si4 0.420794 0.578081 0.251022
Si Si5 0.404468 0.576772 0.900240
Si Si6 0.755347 0.425425 0.626463
Si Si7 0.476663 0.076416 0.572680
Si Si8 0.856516 0.927443 0.054120
O O1 0.439625 0.750000 0.114601
O O2 0.514915 0.554967 0.236210
O O3 0.562951 0.495048 0.146639
O O4 0.276057 0.503765 0.051639
O O5 0.921560 0.250000 0.178443
O O6 0.786099 0.065169 0.186929
O O7 0.827291 0.970091 0.106318
O O8 0.084467 0.021542 0.297763
O O9 0.935585 0.750000 0.915114
O O10 0.719015 0.957724 0.814549
O O11 0.970680 0.004500 0.875241
O O12 0.000000 0.000000 0.000000
O O13 0.352944 0.750000 0.219767
O O14 0.531389 0.549894 0.361781
O O15 0.461588 0.750000 0.926721
O O16 0.500000 0.500000 0.000000
O O17 0.802732 0.250000 0.648056
O O18 0.653048 0.466520 0.519162
O O19 0.651486 0.462674 0.632952
O O20 0.435474 0.250000 0.536285
O O21 0.852900 0.750000 0.041788
#
# Coordination Sequence:
#
# PCOD8074380 Si02
#       8
#     4   4   4   4   4   4   4   4
#     4  11  22  36  55  79 111 148 190 234 280 336
#     4  11  23  38  58  83 112 147 188 236 288 342
#     4  12  23  34  50  74 109 150 189 229 273 329
#     4  10  21  37  57  80 111 152 193 232 280 340
#     4  11  23  38  58  81 111 149 192 240 290 341
#     4  10  20  35  59  89 117 147 185 233 285 338
#     4   9  19  37  59  84 116 151 186 227 280 341
#     4  12  23  35  53  77 110 149 188 231 280 335
#
# _framework density 18.681519000000002
#
# number of rings (size 3 to 8) (size 9 to 14) (size 15 to 20)
#    0.000    1.250    2.500    4.500    0.000    4.000 
#    0.000    0.000    0.000    0.750    0.000    0.000 
#    0.000    0.000    0.000    0.000    0.000    0.000 
#
# Total GULP energy -396776.180342 kJ/mol
# GULP energy per Si atom -12399.255636 kJ/mol
# Density = 1.863900 g / cm^3
# Si number density = 18.681519 Si / 1000 Ang^3
#
#
#
# Elastic Constant Matrix: (Units=GPa)
#
#
# Indices 1 2 3 4 5 6 
#
# 1 116.2781 51.0215 39.8321 0.0000 -13.9057 0.0000
# 2 51.0215 122.0144 27.8775 0.0000 -1.9443 0.0000
# 3 39.8321 27.8775 68.4353 0.0000 -8.5681 0.0000
# 4 0.0000 0.0000 0.0000 28.1074 0.0000 1.5746
# 5 -13.9057 -1.9443 -8.5681 0.0000 29.9381 0.0000
# 6 0.0000 0.0000 0.0000 1.5746 0.0000 30.8623
#
#
#
# Elastic Compliance Matrix: (Units=1/GPa)
#
#
# Indices 1 2 3 4 5 6 
#
# 1 0.012644 -0.004034 -0.005200 0.000000 0.004123 0.000000
# 2 -0.004034 0.010330 -0.002086 0.000000 -0.001800 0.000000
# 3 -0.005200 -0.002086 0.018845 0.000000 0.002842 0.000000
# 4 0.000000 0.000000 0.000000 0.035680 0.000000 -0.001820
# 5 0.004123 -0.001800 0.002842 0.000000 0.036014 0.000000
# 6 0.000000 0.000000 0.000000 -0.001820 0.000000 0.032495
#
#
# Mechanical properties :
#
#
# Convention : Reuss Voigt Hill
#
# Bulk Modulus (GPa) = 52.13704 60.46554 56.30129
# Shear Modulus (GPa) = 28.56486 30.31467 29.43976
#
# Velocity S-wave (km/s) = 3.91454 4.03266 3.97404
# Velocity P-wave (km/s) = 6.95704 7.35662 7.15962
#
# Compressibility (1/GPa) = 0.01918022
#
# Stress axis : x y z
#
# Youngs Moduli (GPa) = 79.08646 96.80283 53.06557
#
# Poissons Ratio (x) = 0.39046 0.27596
# Poissons Ratio (y) = 0.31900 0.11068
# Poissons Ratio (z) = 0.41127 0.20190
#
# Static dielectric constant tensor:
#      x y z
#    x 3.629010 0.000000 -0.064360 
#    y 0.000000 3.537050 0.000000 
#    z -0.064360 0.000000 3.192990 
# 
# 
# High freq. dielectric constant tensor:
#      x y z
#    x 1.725590 0.000000 -0.010350 
#    y 0.000000 1.740000 0.000000 
#    z -0.010350 0.000000 1.695790 
# 
# From -- ./inp_files/69144.got.cif
#   From: 2010.06.25/outbox.cif.g09.slc.cpg/sg11_35_cif.got.tgz:69144.got - 2010.06.27 23:14:04.
