data_PCOD8074985
_publ_section_title
;
Structure prediction by ZEFSAII (Michael W. Deem and Ramdas Pophale) SiO2 
 PCOD8074985
Probable space group: P 21/M
;
_chemical_formula_sum "Si O2"
_cell_formula_units_Z 32
_cell_length_a 8.054077
_cell_length_b 12.932947
_cell_length_c 15.353714
_cell_angle_alpha 90.000000
_cell_angle_beta 81.938407
_cell_angle_gamma 90.000000
_cell_volume 1583.483810
_symmetry_space_group_name_H-M "P 21/M"
_symmetry_group_IT_number 11
_symmetry_cell_setting 'monoclinic'
loop_
_space_group_symop_operation_xyz
x,y,z
-x,1/2+y,-z
-x,-y,-z
x,1/2-y,z
loop_
_atom_site_type_symbol
_atom_site_label
_atom_site_fract_x
_atom_site_fract_y
_atom_site_fract_z
Si Si1 0.337589 0.469318 0.393866
Si Si2 0.045754 0.367765 0.327226
Si Si3 0.302934 0.546919 0.581530
Si Si4 0.672204 0.370402 0.125479
Si Si5 0.757429 0.367471 0.924865
Si Si6 0.014452 0.994056 0.825594
Si Si7 0.753550 0.866946 0.291945
Si Si8 0.460208 0.950375 0.212611
O O1 0.178422 0.393419 0.394165
O O2 0.298933 0.545627 0.477418
O O3 0.516026 0.409287 0.397431
O O4 0.344230 0.538197 0.306188
O O5 0.062106 0.250000 0.302461
O O6 0.852834 0.388514 0.370006
O O7 0.095178 0.426446 0.234058
O O8 0.294990 0.429345 0.617362
O O9 0.660599 0.250000 0.155226
O O10 0.846836 0.418961 0.144357
O O11 0.519800 0.434804 0.178378
O O12 0.659954 0.381437 0.022460
O O13 0.828075 0.250000 0.913000
O O14 0.630516 0.388330 0.856198
O O15 0.904381 0.453568 0.909630
O O16 0.078190 0.088698 0.762047
O O17 0.780569 0.750000 0.318865
O O18 0.615711 0.878234 0.226572
#
# Coordination Sequence:
#
# PCOD8074985 Si02
#       8
#     4   4   4   4   4   4   4   4
#     4  10  20  39  60  83 118 156 192 242 295 346
#     4  11  22  37  60  87 120 158 197 240 292 351
#     4   9  21  38  60  84 121 155 191 243 295 346
#     4  10  22  38  58  82 114 153 194 239 298 357
#     4  11  21  36  58  85 113 149 193 242 298 356
#     4  10  20  37  56  81 117 150 190 241 288 347
#     4   9  18  34  57  82 109 149 190 233 291 349
#     4  10  20  37  58  82 115 147 190 247 292 349
#
# _framework density 20.208606
#
# number of rings (size 3 to 8) (size 9 to 14) (size 15 to 20)
#    0.000    2.000    1.250    3.000    0.000    1.500 
#    0.000    5.625    0.000    5.250    0.000    0.000 
#    0.000    0.000    0.000    0.000    0.000    0.000 
#
# Total GULP energy -396661.666270 kJ/mol
# GULP energy per Si atom -12395.677071 kJ/mol
# Density = 2.016261 g / cm^3
# Si number density = 20.208606 Si / 1000 Ang^3
#
#
#
# Elastic Constant Matrix: (Units=GPa)
#
#
# Indices 1 2 3 4 5 6 
#
# 1 61.3496 18.0188 8.4794 0.0000 11.7376 0.0000
# 2 18.0188 101.9065 27.8847 0.0000 1.0514 0.0000
# 3 8.4794 27.8847 108.1274 0.0000 6.9729 0.0000
# 4 0.0000 0.0000 0.0000 18.9523 0.0000 1.8666
# 5 11.7376 1.0514 6.9729 0.0000 29.2461 0.0000
# 6 0.0000 0.0000 0.0000 1.8666 0.0000 20.9012
#
#
#
# Elastic Compliance Matrix: (Units=1/GPa)
#
#
# Indices 1 2 3 4 5 6 
#
# 1 0.018660 -0.003177 -0.000171 0.000000 -0.007334 0.000000
# 2 -0.003177 0.011101 -0.002712 0.000000 0.001522 0.000000
# 3 -0.000171 -0.002712 0.010106 0.000000 -0.002243 0.000000
# 4 0.000000 0.000000 0.000000 0.053232 0.000000 -0.004754
# 5 -0.007334 0.001522 -0.002243 0.000000 0.037616 0.000000
# 6 0.000000 0.000000 0.000000 -0.004754 0.000000 0.048269
#
#
# Mechanical properties :
#
#
# Convention : Reuss Voigt Hill
#
# Bulk Modulus (GPa) = 36.03993 42.23881 39.13937
# Shear Modulus (GPa) = 24.95602 28.28663 26.62132
#
# Velocity S-wave (km/s) = 3.51796 3.74536 3.63344
# Velocity P-wave (km/s) = 5.86294 6.29685 6.08376
#
# Compressibility (1/GPa) = 0.02774700
#
# Stress axis : x y z
#
# Youngs Moduli (GPa) = 53.59082 90.08209 98.95317
#
# Poissons Ratio (x) = 0.28618 0.01693
# Poissons Ratio (y) = 0.17025 0.26835
# Poissons Ratio (z) = 0.00917 0.24429
#
# Static dielectric constant tensor:
#      x y z
#    x 3.770230 0.000000 0.059610 
#    y 0.000000 3.474470 0.000000 
#    z 0.059610 0.000000 3.745300 
# 
# 
# High freq. dielectric constant tensor:
#      x y z
#    x 1.790850 0.000000 0.005690 
#    y 0.000000 1.769360 0.000000 
#    z 0.005690 0.000000 1.797450 
# 
# From -- ./inp_files/47192.got.cif
#   From: 2010.06.25/outbox.cif.g09.slc.cpg/sg11_24_cif.got.tgz:47192.got - 2010.06.27 23:14:04.
