data_PCOD8074805
_publ_section_title
;
Structure prediction by ZEFSAII (Michael W. Deem and Ramdas Pophale) SiO2 
 PCOD8074805
Probable space group: P 21/M
;
_chemical_formula_sum "Si O2"
_cell_formula_units_Z 32
_cell_length_a 21.766594
_cell_length_b 18.291623
_cell_length_c 9.821280
_cell_angle_alpha 90.000000
_cell_angle_beta 153.997258
_cell_angle_gamma 90.000000
_cell_volume 1714.333784
_symmetry_space_group_name_H-M "P 21/M"
_symmetry_group_IT_number 11
_symmetry_cell_setting 'monoclinic'
loop_
_space_group_symop_operation_xyz
x,y,z
-x,1/2+y,-z
-x,-y,-z
x,1/2-y,z
loop_
_atom_site_type_symbol
_atom_site_label
_atom_site_fract_x
_atom_site_fract_y
_atom_site_fract_z
Si Si1 0.795531 0.335031 0.067595
Si Si2 0.491252 0.334914 0.378336
Si Si3 0.697778 0.666265 0.755407
Si Si4 0.138252 0.836506 0.097075
Si Si5 0.986985 0.164864 0.686177
Si Si6 0.362853 0.424697 0.621326
Si Si7 0.047594 0.082352 0.074481
Si Si8 0.422697 0.592491 0.718805
O O1 0.829892 0.250000 0.137959
O O2 0.872185 0.368069 0.352678
O O3 0.630418 0.351288 0.744519
O O4 0.857482 0.366514 0.049452
O O5 0.487997 0.250000 0.328090
O O6 0.360164 0.357121 0.211651
O O7 0.488796 0.382776 0.236902
O O8 0.657628 0.750000 0.646472
O O9 0.623435 0.619832 0.490408
O O10 0.863457 0.654007 0.087926
O O11 0.126715 0.750000 0.081028
O O12 0.282006 0.860238 0.458050
O O13 0.002111 0.871137 0.895041
O O14 0.962137 0.250000 0.675123
O O15 0.974162 0.116127 0.795027
O O16 0.214275 0.411156 0.397812
O O17 0.380609 0.508647 0.617575
O O18 0.483131 0.395659 0.960664
O O19 0.000000 0.000000 0.000000
#
# Coordination Sequence:
#
# PCOD8074805 Si02
#       8
#     4   4   4   4   4   4   4   4
#     4   8  16  32  53  79 107 134 175 226 269 316
#     4   9  18  34  56  81 108 140 180 228 273 320
#     4   9  19  34  53  77 107 139 176 224 274 325
#     4  10  20  36  60  84 109 145 185 229 277 324
#     4   9  18  34  55  78 106 140 179 224 273 325
#     4  10  22  37  55  78 113 150 184 224 278 326
#     4  11  21  37  55  78 114 150 184 231 273 328
#     4  10  20  37  56  79 112 149 185 225 272 332
#
# _framework density 18.666142000000001
#
# number of rings (size 3 to 8) (size 9 to 14) (size 15 to 20)
#    0.000    2.500    1.250    1.500    0.000    4.000 
#    0.000    3.125    0.000    0.000    0.000    0.000 
#    0.000    0.000    0.000    0.000    0.000    0.000 
#
# Total GULP energy -396808.565832 kJ/mol
# GULP energy per Si atom -12400.267682 kJ/mol
# Density = 1.862366 g / cm^3
# Si number density = 18.666142 Si / 1000 Ang^3
#
#
#
# Elastic Constant Matrix: (Units=GPa)
#
#
# Indices 1 2 3 4 5 6 
#
# 1 81.2249 28.7021 0.4479 0.0000 4.4692 0.0000
# 2 28.7021 68.7704 21.0126 0.0000 -5.6511 0.0000
# 3 0.4479 21.0126 51.4997 0.0000 -14.5403 0.0000
# 4 0.0000 0.0000 0.0000 20.8791 0.0000 3.6401
# 5 4.4692 -5.6511 -14.5403 0.0000 21.4483 0.0000
# 6 0.0000 0.0000 0.0000 3.6401 0.0000 28.4181
#
#
#
# Elastic Compliance Matrix: (Units=1/GPa)
#
#
# Indices 1 2 3 4 5 6 
#
# 1 0.015024 -0.007100 0.001675 0.000000 -0.003866 0.000000
# 2 -0.007100 0.019968 -0.007646 0.000000 0.001557 0.000000
# 3 0.001675 -0.007646 0.027029 0.000000 0.015960 0.000000
# 4 0.000000 0.000000 0.000000 0.048989 0.000000 -0.006275
# 5 -0.003866 0.001557 0.015960 0.000000 0.058659 0.000000
# 6 0.000000 0.000000 0.000000 -0.006275 0.000000 0.035993
#
#
# Mechanical properties :
#
#
# Convention : Reuss Voigt Hill
#
# Bulk Modulus (GPa) = 27.87153 33.53558 30.70355
# Shear Modulus (GPa) = 20.51169 24.23792 22.37480
#
# Velocity S-wave (km/s) = 3.31852 3.60737 3.46596
# Velocity P-wave (km/s) = 5.44495 5.94608 5.70102
#
# Compressibility (1/GPa) = 0.03587891
#
# Stress axis : x y z
#
# Youngs Moduli (GPa) = 66.56123 50.07902 36.99755
#
# Poissons Ratio (x) = 0.35555 -0.06196
# Poissons Ratio (y) = 0.47256 0.28288
# Poissons Ratio (z) = -0.11147 0.38290
#
# Static dielectric constant tensor:
#      x y z
#    x 3.645620 0.000000 0.023960 
#    y 0.000000 3.339070 0.000000 
#    z 0.023960 0.000000 3.461270 
# 
# 
# High freq. dielectric constant tensor:
#      x y z
#    x 1.732230 0.000000 0.002360 
#    y 0.000000 1.713550 0.000000 
#    z 0.002360 0.000000 1.719140 
# 
# From -- ./inp_files/27120.got.cif
#   From: 2010.06.25/outbox.cif.g09.slc.cpg/sg11_14_cif.got.tgz:27120.got - 2010.06.27 23:14:04.
