data_PCOD8074132
_publ_section_title
;
Structure prediction by ZEFSAII (Michael W. Deem and Ramdas Pophale) SiO2 
 PCOD8074132
Probable space group: P 21/M
;
_chemical_formula_sum "Si O2"
_cell_formula_units_Z 24
_cell_length_a 8.905902
_cell_length_b 8.850157
_cell_length_c 15.319429
_cell_angle_alpha 90.000000
_cell_angle_beta 86.717552
_cell_angle_gamma 90.000000
_cell_volume 1205.475472
_symmetry_space_group_name_H-M "P 21/M"
_symmetry_group_IT_number 11
_symmetry_cell_setting 'monoclinic'
loop_
_space_group_symop_operation_xyz
x,y,z
-x,1/2+y,-z
-x,-y,-z
x,1/2-y,z
loop_
_atom_site_type_symbol
_atom_site_label
_atom_site_fract_x
_atom_site_fract_y
_atom_site_fract_z
Si Si1 0.836824 0.929422 0.514907
Si Si2 0.208767 0.578124 0.163246
Si Si3 0.841782 0.073640 0.024737
Si Si4 0.316275 0.929802 0.642972
Si Si5 0.643880 0.572806 0.683915
Si Si6 0.142079 0.426618 0.803967
O O1 0.848167 0.750000 0.505078
O O2 0.770154 0.979756 0.610710
O O3 0.724349 0.993941 0.446843
O O4 0.000000 0.000000 0.500000
O O5 0.236986 0.750000 0.189509
O O6 0.313631 0.477526 0.220461
O O7 0.034206 0.537873 0.182535
O O8 0.256862 0.550839 0.060226
O O9 0.862733 0.250000 0.044757
O O10 0.772618 0.990137 0.111982
O O11 0.000000 0.000000 0.000000
O O12 0.308621 0.750000 0.633516
O O13 0.480864 0.991808 0.663277
O O14 0.197695 0.982633 0.718776
O O15 0.630713 0.750000 0.684404
O O16 0.177218 0.250000 0.793081
#
# Coordination Sequence:
#
# PCOD8074132 Si02
#       6
#     4   4   4   4   4   4
#     4  11  23  40  61  86 112 143 183 228 274 327
#     4   9  19  34  55  82 111 142 183 229 274 324
#     4   9  17  31  52  81 113 146 185 233 280 326
#     4  11  23  39  57  81 112 147 184 227 276 330
#     4  10  23  39  56  80 112 147 184 224 274 330
#     4  10  20  35  56  84 112 145 188 233 279 331
#
# _framework density 19.909155999999999
#
# number of rings (size 3 to 8) (size 9 to 14) (size 15 to 20)
#    0.000    2.000    0.000    4.500    0.000    9.333 
#    0.000    0.833    0.000    0.000    0.000    0.000 
#    0.000    0.000    0.000    0.000    0.000    0.000 
#
# Total GULP energy -297578.831834 kJ/mol
# GULP energy per Si atom -12399.117993 kJ/mol
# Density = 1.986384 g / cm^3
# Si number density = 19.909156 Si / 1000 Ang^3
#
#
#
# Elastic Constant Matrix: (Units=GPa)
#
#
# Indices 1 2 3 4 5 6 
#
# 1 60.5480 17.7406 13.0250 0.0000 22.4232 0.0000
# 2 17.7406 60.4169 31.3972 0.0000 4.8546 0.0000
# 3 13.0250 31.3972 94.5903 0.0000 28.8892 0.0000
# 4 0.0000 0.0000 0.0000 39.8405 0.0000 5.9960
# 5 22.4232 4.8546 28.8892 0.0000 24.4174 0.0000
# 6 0.0000 0.0000 0.0000 5.9960 0.0000 27.1272
#
#
#
# Elastic Compliance Matrix: (Units=1/GPa)
#
#
# Indices 1 2 3 4 5 6 
#
# 1 0.033911 -0.013281 0.013221 0.000000 -0.044143 0.000000
# 2 -0.013281 0.025795 -0.013923 0.000000 0.023541 0.000000
# 3 0.013221 -0.013923 0.025422 0.000000 -0.039450 0.000000
# 4 0.000000 0.000000 0.000000 0.025964 0.000000 -0.005739
# 5 -0.044143 0.023541 -0.039450 0.000000 0.123487 0.000000
# 6 0.000000 0.000000 0.000000 -0.005739 0.000000 0.038132
#
#
# Mechanical properties :
#
#
# Convention : Reuss Voigt Hill
#
# Bulk Modulus (GPa) = 17.49446 37.76453 27.62950
# Shear Modulus (GPa) = 15.63812 28.50317 22.07065
#
# Velocity S-wave (km/s) = 2.80567 3.78784 3.33313
# Velocity P-wave (km/s) = 4.39340 6.17575 5.35919
#
# Compressibility (1/GPa) = 0.05716094
#
# Stress axis : x y z
#
# Youngs Moduli (GPa) = 29.48905 38.76650 39.33663
#
# Poissons Ratio (x) = 0.51486 -0.52006
# Poissons Ratio (y) = 0.39164 0.54769
# Poissons Ratio (z) = -0.38987 0.53975
#
# Static dielectric constant tensor:
#      x y z
#    x 3.454640 0.000000 0.026280 
#    y 0.000000 3.869870 0.000000 
#    z 0.026280 0.000000 4.125270 
# 
# 
# High freq. dielectric constant tensor:
#      x y z
#    x 1.752880 0.000000 0.005930 
#    y 0.000000 1.781870 0.000000 
#    z 0.005930 0.000000 1.797410 
# 
# From -- ./inp_files/20578.got.cif
#   From: 2010.06.25/outbox.cif.g09.slc.cpg/sg11_11_cif.got.tgz:20578.got - 2010.06.27 23:14:04.
