data_PCOD8074041
_publ_section_title
;
Structure prediction by ZEFSAII (Michael W. Deem and Ramdas Pophale) SiO2 
 PCOD8074041
Probable space group: P 21/M
;
_chemical_formula_sum "Si O2"
_cell_formula_units_Z 32
_cell_length_a 15.029556
_cell_length_b 18.383017
_cell_length_c 11.934198
_cell_angle_alpha 90.000000
_cell_angle_beta 29.140011
_cell_angle_gamma 90.000000
_cell_volume 1605.596748
_symmetry_space_group_name_H-M "P 21/M"
_symmetry_group_IT_number 11
_symmetry_cell_setting 'monoclinic'
loop_
_space_group_symop_operation_xyz
x,y,z
-x,1/2+y,-z
-x,-y,-z
x,1/2-y,z
loop_
_atom_site_type_symbol
_atom_site_label
_atom_site_fract_x
_atom_site_fract_y
_atom_site_fract_z
Si Si1 0.972361 0.665276 0.000103
Si Si2 0.189080 0.044303 0.169871
Si Si3 0.651479 0.101962 0.439949
Si Si4 0.462300 0.469187 0.304870
Si Si5 0.827515 0.545233 0.556590
Si Si6 0.015376 0.168973 0.762138
Si Si7 0.707254 0.667425 0.095127
Si Si8 0.600460 0.167006 0.254227
O O1 0.028964 0.750000 0.944649
O O2 0.141008 0.622863 0.756297
O O3 0.938638 0.636931 0.164113
O O4 0.790776 0.651480 0.127140
O O5 0.242910 0.055547 0.239885
O O6 0.185056 0.122827 0.116809
O O7 0.988090 0.013019 0.376398
O O8 0.330908 0.992346 0.949844
O O9 0.507138 0.148109 0.672054
O O10 0.618359 0.122173 0.348420
O O11 0.616840 0.016457 0.503586
O O12 0.339433 0.485589 0.332099
O O13 0.463390 0.382319 0.330333
O O14 0.893085 0.621588 0.434602
O O15 0.096392 0.250000 0.661889
O O16 0.798214 0.170976 0.979913
O O17 0.736878 0.750000 0.028632
O O18 0.522865 0.250000 0.355863
#
# Coordination Sequence:
#
# PCOD8074041 Si02
#       8
#     4   4   4   4   4   4   4   4
#     4   9  18  34  55  83 117 148 182 228 282 339
#     4  10  23  41  56  81 114 147 191 240 283 330
#     4  10  20  35  55  83 118 149 181 225 283 337
#     4  11  22  37  59  86 109 148 194 235 276 341
#     4  11  22  39  61  79 111 153 189 239 287 325
#     4   9  19  36  58  84 115 149 187 232 281 336
#     4  10  20  35  58  83 110 148 188 229 279 339
#     4  10  20  37  57  83 121 153 180 228 285 338
#
# _framework density 19.930285000000001
#
# number of rings (size 3 to 8) (size 9 to 14) (size 15 to 20)
#    0.000    2.000    1.250    3.375    1.750    1.000 
#    0.000    1.875    0.000    0.000    0.000    0.000 
#    0.000    0.000    0.000    0.000    0.000    0.000 
#
# Total GULP energy -396806.241377 kJ/mol
# GULP energy per Si atom -12400.195043 kJ/mol
# Density = 1.988492 g / cm^3
# Si number density = 19.930285 Si / 1000 Ang^3
#
#
#
# Elastic Constant Matrix: (Units=GPa)
#
#
# Indices 1 2 3 4 5 6 
#
# 1 71.1508 35.1376 -2.2682 0.0000 -1.5746 0.0000
# 2 35.1376 109.8791 19.2900 0.0000 6.0884 0.0000
# 3 -2.2682 19.2900 36.9813 0.0000 3.9515 0.0000
# 4 0.0000 0.0000 0.0000 19.3775 0.0000 1.3775
# 5 -1.5746 6.0884 3.9515 0.0000 28.5076 0.0000
# 6 0.0000 0.0000 0.0000 1.3775 0.0000 27.2507
#
#
#
# Elastic Compliance Matrix: (Units=1/GPa)
#
#
# Indices 1 2 3 4 5 6 
#
# 1 0.017387 -0.006397 0.004217 0.000000 0.001742 0.000000
# 2 -0.006397 0.012430 -0.006653 0.000000 -0.002086 0.000000
# 3 0.004217 -0.006653 0.031053 0.000000 -0.002650 0.000000
# 4 0.000000 0.000000 0.000000 0.051792 0.000000 -0.002618
# 5 0.001742 -0.002086 -0.002650 0.000000 0.035987 0.000000
# 6 0.000000 0.000000 0.000000 -0.002618 0.000000 0.036829
#
#
# Mechanical properties :
#
#
# Convention : Reuss Voigt Hill
#
# Bulk Modulus (GPa) = 23.14624 35.81445 29.48035
# Shear Modulus (GPa) = 22.98371 26.08396 24.53383
#
# Velocity S-wave (km/s) = 3.39957 3.62160 3.51234
# Velocity P-wave (km/s) = 5.20079 5.95793 5.59219
#
# Compressibility (1/GPa) = 0.04320355
#
# Stress axis : x y z
#
# Youngs Moduli (GPa) = 57.51525 80.44992 32.20311
#
# Poissons Ratio (x) = 0.51462 -0.13580
# Poissons Ratio (y) = 0.36792 0.21425
# Poissons Ratio (z) = -0.24254 0.53525
#
# Static dielectric constant tensor:
#      x y z
#    x 3.606690 0.000000 -0.093400 
#    y 0.000000 3.634980 0.000000 
#    z -0.093400 0.000000 3.605100 
# 
# 
# High freq. dielectric constant tensor:
#      x y z
#    x 1.764470 0.000000 -0.012980 
#    y 0.000000 1.776620 0.000000 
#    z -0.012980 0.000000 1.777760 
# 
# From -- ./inp_files/39944.got.cif
#   From: 2010.06.25/outbox.cif.g09.slc.cpg/sg11_20_cif.got.tgz:39944.got - 2010.06.27 23:14:04.
