data_PCOD8074392
_publ_section_title
;
Structure prediction by ZEFSAII (Michael W. Deem and Ramdas Pophale) SiO2 
 PCOD8074392
Probable space group: P 21/M
;
_chemical_formula_sum "Si O2"
_cell_formula_units_Z 28
_cell_length_a 15.097442
_cell_length_b 8.859523
_cell_length_c 11.504406
_cell_angle_alpha 90.000000
_cell_angle_beta 63.082916
_cell_angle_gamma 90.000000
_cell_volume 1372.076904
_symmetry_space_group_name_H-M "P 21/M"
_symmetry_group_IT_number 11
_symmetry_cell_setting 'monoclinic'
loop_
_space_group_symop_operation_xyz
x,y,z
-x,1/2+y,-z
-x,-y,-z
x,1/2-y,z
loop_
_atom_site_type_symbol
_atom_site_label
_atom_site_fract_x
_atom_site_fract_y
_atom_site_fract_z
Si Si1 0.342606 0.922347 0.838042
Si Si2 0.050589 0.924034 0.793341
Si Si3 0.396120 0.920689 0.549007
Si Si4 0.854476 0.576003 0.043568
Si Si5 0.516542 0.425535 0.866976
Si Si6 0.288267 0.925599 0.386705
Si Si7 0.084938 0.071749 0.527314
O O1 0.340648 0.750000 0.883410
O O2 0.334016 0.932273 0.704050
O O3 0.248574 0.011394 0.946517
O O4 0.444812 0.998465 0.815761
O O5 0.077764 0.750000 0.753233
O O6 0.116479 0.980527 0.860954
O O7 0.074484 0.020501 0.666229
O O8 0.934783 0.943562 0.893757
O O9 0.421239 0.750000 0.499356
O O10 0.330206 0.989889 0.484429
O O11 0.500000 0.000000 0.500000
O O12 0.843041 0.750000 0.086675
O O13 0.490788 0.250000 0.889113
O O14 0.630097 0.452552 0.761647
O O15 0.500000 0.500000 0.000000
O O16 0.259370 0.750000 0.414233
O O17 0.190667 0.019912 0.412467
O O18 0.076063 0.250000 0.524786
O O19 0.000000 0.000000 0.500000
#
# Coordination Sequence:
#
# PCOD8074392 Si02
#       7
#     4   4   4   4   4   4   4
#     4  11  22  36  59  91 125 162 202 249 304 363
#     4  10  21  40  63  90 125 160 202 256 309 366
#     4  10  20  35  59  90 123 157 196 245 300 357
#     4  10  21  37  62  93 124 162 204 250 306 365
#     4  11  24  42  63  86 120 163 205 251 301 362
#     4  10  22  42  65  91 124 162 201 253 313 365
#     4  12  26  43  66  92 121 162 209 259 312 371
#
# _framework density 20.407021
#
# number of rings (size 3 to 8) (size 9 to 14) (size 15 to 20)
#    0.000    1.429    1.429    3.857    0.000    6.286 
#    0.000    0.000    0.000    0.000    0.000    0.000 
#    0.000    0.000    0.000    0.000    0.000    0.000 
#
# Total GULP energy -347337.315122 kJ/mol
# GULP energy per Si atom -12404.904111 kJ/mol
# Density = 2.036057 g / cm^3
# Si number density = 20.407021 Si / 1000 Ang^3
#
#
#
# Elastic Constant Matrix: (Units=GPa)
#
#
# Indices 1 2 3 4 5 6 
#
# 1 113.5684 57.3869 37.8065 0.0000 -20.9345 0.0000
# 2 57.3869 137.2589 48.9934 0.0000 -16.4918 0.0000
# 3 37.8065 48.9934 93.5418 0.0000 -5.6363 0.0000
# 4 0.0000 0.0000 0.0000 33.6918 0.0000 -1.4342
# 5 -20.9345 -16.4918 -5.6363 0.0000 35.3018 0.0000
# 6 0.0000 0.0000 0.0000 -1.4342 0.0000 40.2775
#
#
#
# Elastic Compliance Matrix: (Units=1/GPa)
#
#
# Indices 1 2 3 4 5 6 
#
# 1 0.012552 -0.003583 -0.002877 0.000000 0.005311 0.000000
# 2 -0.003583 0.010425 -0.003884 0.000000 0.002125 0.000000
# 3 -0.002877 -0.003884 0.013808 0.000000 -0.001316 0.000000
# 4 0.000000 0.000000 0.000000 0.029726 0.000000 0.001058
# 5 0.005311 0.002125 -0.001316 0.000000 0.032259 0.000000
# 6 0.000000 0.000000 0.000000 0.001058 0.000000 0.024865
#
#
# Mechanical properties :
#
#
# Convention : Reuss Voigt Hill
#
# Bulk Modulus (GPa) = 62.11914 70.30473 66.21194
# Shear Modulus (GPa) = 33.40234 35.19971 34.30103
#
# Velocity S-wave (km/s) = 4.05014 4.15768 4.10426
# Velocity P-wave (km/s) = 7.23724 7.58778 7.41458
#
# Compressibility (1/GPa) = 0.01609810
#
# Stress axis : x y z
#
# Youngs Moduli (GPa) = 79.66612 95.91977 72.42146
#
# Poissons Ratio (x) = 0.34370 0.20832
# Poissons Ratio (y) = 0.28546 0.28129
# Poissons Ratio (z) = 0.22916 0.37256
#
# Static dielectric constant tensor:
#      x y z
#    x 3.723430 0.000000 -0.094360 
#    y 0.000000 3.699030 0.000000 
#    z -0.094360 0.000000 3.763720 
# 
# 
# High freq. dielectric constant tensor:
#      x y z
#    x 1.801510 0.000000 -0.012170 
#    y 0.000000 1.803880 0.000000 
#    z -0.012170 0.000000 1.799910 
# 
# From -- ./inp_files/37928.got.cif
#   From: 2010.06.25/outbox.cif.g09.slc.cpg/sg11_19_cif.got.tgz:37928.got - 2010.06.27 23:14:04.
