data_PCOD8074264
_publ_section_title
;
Structure prediction by ZEFSAII (Michael W. Deem and Ramdas Pophale) SiO2 
 PCOD8074264
Probable space group: P 21/M
;
_chemical_formula_sum "Si O2"
_cell_formula_units_Z 28
_cell_length_a 11.886033
_cell_length_b 12.856904
_cell_length_c 9.415170
_cell_angle_alpha 90.000000
_cell_angle_beta 110.906004
_cell_angle_gamma 90.000000
_cell_volume 1344.082915
_symmetry_space_group_name_H-M "P 21/M"
_symmetry_group_IT_number 11
_symmetry_cell_setting 'monoclinic'
loop_
_space_group_symop_operation_xyz
x,y,z
-x,1/2+y,-z
-x,-y,-z
x,1/2-y,z
loop_
_atom_site_type_symbol
_atom_site_label
_atom_site_fract_x
_atom_site_fract_y
_atom_site_fract_z
Si Si1 0.297982 0.955760 0.157625
Si Si2 0.246269 0.369657 0.347526
Si Si3 0.249597 0.871191 0.842407
Si Si4 0.004486 0.044068 0.344012
Si Si5 0.878266 0.133551 0.723258
Si Si6 0.327491 0.627149 0.576380
Si Si7 0.506526 0.628042 0.423322
O O1 0.198418 0.871002 0.166200
O O2 0.434247 0.927507 0.264215
O O3 0.257046 0.066708 0.204267
O O4 0.292401 0.949536 0.985101
O O5 0.265975 0.250000 0.313369
O O6 0.119974 0.382612 0.370180
O O7 0.352688 0.404054 0.506726
O O8 0.272811 0.750000 0.890826
O O9 0.327889 0.907087 0.740591
O O10 0.109741 0.885743 0.743089
O O11 0.008711 0.945174 0.235840
O O12 0.000000 0.000000 0.500000
O O13 0.924382 0.250000 0.716403
O O14 0.788705 0.084368 0.562050
O O15 0.311644 0.750000 0.559094
O O16 0.449712 0.592641 0.550820
O O17 0.489885 0.750000 0.392088
#
# Coordination Sequence:
#
# PCOD8074264 Si02
#       7
#     4   4   4   4   4   4   4
#     4  10  20  35  57  90 115 150 198 244 285 342
#     4  10  22  38  60  86 118 158 197 240 295 349
#     4  11  21  35  57  88 120 152 194 244 295 342
#     4  11  22  36  57  82 114 150 194 235 287 357
#     4   9  17  32  53  78 108 146 192 238 278 334
#     4   8  15  29  53  80 109 149 192 233 277 330
#     4   9  17  35  62  88 116 152 199 244 285 343
#
# _framework density 20.832049000000001
#
# number of rings (size 3 to 8) (size 9 to 14) (size 15 to 20)
#    0.000    2.286    1.429    3.000    0.000    2.857 
#    0.000    2.857    0.000    0.000    0.000    0.000 
#    0.000    0.000    0.000    0.000    0.000    0.000 
#
# Total GULP energy -347060.842197 kJ/mol
# GULP energy per Si atom -12395.030078 kJ/mol
# Density = 2.078463 g / cm^3
# Si number density = 20.832049 Si / 1000 Ang^3
#
#
#
# Elastic Constant Matrix: (Units=GPa)
#
#
# Indices 1 2 3 4 5 6 
#
# 1 94.2587 11.6537 39.5762 0.0000 5.2195 0.0000
# 2 11.6537 46.0076 2.9750 0.0000 9.2067 0.0000
# 3 39.5762 2.9750 112.5345 0.0000 -9.9149 0.0000
# 4 0.0000 0.0000 0.0000 25.0562 0.0000 4.8435
# 5 5.2195 9.2067 -9.9149 0.0000 22.0691 0.0000
# 6 0.0000 0.0000 0.0000 4.8435 0.0000 22.1174
#
#
#
# Elastic Compliance Matrix: (Units=1/GPa)
#
#
# Indices 1 2 3 4 5 6 
#
# 1 0.013213 -0.002129 -0.004985 0.000000 -0.004477 0.000000
# 2 -0.002129 0.024324 -0.000775 0.000000 -0.009992 0.000000
# 3 -0.004985 -0.000775 0.011237 0.000000 0.006551 0.000000
# 4 0.000000 0.000000 0.000000 0.041674 0.000000 -0.009126
# 5 -0.004477 -0.009992 0.006551 0.000000 0.053482 0.000000
# 6 0.000000 0.000000 0.000000 -0.009126 0.000000 0.047212
#
#
# Mechanical properties :
#
#
# Convention : Reuss Voigt Hill
#
# Bulk Modulus (GPa) = 30.30529 40.13453 35.21991
# Shear Modulus (GPa) = 22.94426 27.08826 25.01626
#
# Velocity S-wave (km/s) = 3.32232 3.60990 3.46909
# Velocity P-wave (km/s) = 5.41259 6.05663 5.74364
#
# Compressibility (1/GPa) = 0.03299754
#
# Stress axis : x y z
#
# Youngs Moduli (GPa) = 75.68192 41.11099 88.99250
#
# Poissons Ratio (x) = 0.08751 0.44362
# Poissons Ratio (y) = 0.16111 0.06895
# Poissons Ratio (z) = 0.37727 0.03185
#
# Static dielectric constant tensor:
#      x y z
#    x 3.814380 0.000000 -0.103480 
#    y 0.000000 3.848740 0.000000 
#    z -0.103480 0.000000 3.513200 
# 
# 
# High freq. dielectric constant tensor:
#      x y z
#    x 1.809750 0.000000 -0.003250 
#    y 0.000000 1.829920 0.000000 
#    z -0.003250 0.000000 1.780300 
# 
# From -- ./inp_files/17785.got.cif
#   From: 2010.06.25/outbox.cif.g09.slc.cpg/sg11_9_cif.got.tgz:17785.got - 2010.06.27 23:14:04.
