data_PCOD8074594
_publ_section_title
;
Structure prediction by ZEFSAII (Michael W. Deem and Ramdas Pophale) SiO2 
 PCOD8074594
Probable space group: P 21/M
;
_chemical_formula_sum "Si O2"
_cell_formula_units_Z 28
_cell_length_a 21.519369
_cell_length_b 10.200999
_cell_length_c 16.870292
_cell_angle_alpha 90.000000
_cell_angle_beta 22.662134
_cell_angle_gamma 90.000000
_cell_volume 1426.887182
_symmetry_space_group_name_H-M "P 21/M"
_symmetry_group_IT_number 11
_symmetry_cell_setting 'monoclinic'
loop_
_space_group_symop_operation_xyz
x,y,z
-x,1/2+y,-z
-x,-y,-z
x,1/2-y,z
loop_
_atom_site_type_symbol
_atom_site_label
_atom_site_fract_x
_atom_site_fract_y
_atom_site_fract_z
Si Si1 0.279608 0.895908 0.109518
Si Si2 0.200452 0.900939 0.671126
Si Si3 0.018861 0.401794 0.638067
Si Si4 0.358824 0.602289 0.653228
Si Si5 0.321898 0.544079 0.230875
Si Si6 0.553597 0.107128 0.755699
Si Si7 0.961043 0.097896 0.882354
O O1 0.320460 0.750000 0.028490
O O2 0.422443 0.994639 0.920641
O O3 0.118197 0.956476 0.260213
O O4 0.253816 0.879383 0.234714
O O5 0.140409 0.750000 0.732867
O O6 0.272971 0.926518 0.671555
O O7 0.336547 0.934904 0.446694
O O8 0.055277 0.003487 0.831905
O O9 0.991367 0.250000 0.676598
O O10 0.993525 0.458917 0.756059
O O11 0.197362 0.426416 0.394404
O O12 0.500000 0.500000 0.500000
O O13 0.430187 0.750000 0.570073
O O14 0.228806 0.586159 0.876438
O O15 0.335523 0.625666 0.296021
O O16 0.500000 0.500000 0.000000
O O17 0.473137 0.250000 0.834317
O O18 0.017732 0.250000 0.826015
#
# Coordination Sequence:
#
# PCOD8074594 Si02
#       7
#     4   4   4   4   4   4   4
#     4  10  22  37  58  86 116 152 198 245 292 347
#     4  10  21  39  60  87 121 155 193 241 292 348
#     4  10  21  38  59  86 120 153 194 247 296 343
#     4  10  23  40  62  91 125 156 194 240 290 349
#     4  10  20  36  57  82 113 151 195 238 294 345
#     4  10  21  37  57  84 118 155 194 239 293 351
#     4  10  21  39  62  89 117 155 200 243 288 346
#
# _framework density 19.623134
#
# number of rings (size 3 to 8) (size 9 to 14) (size 15 to 20)
#    0.000    2.000    1.429    1.286    2.000    6.286 
#    0.000    2.143    0.000    0.000    0.000    0.000 
#    0.000    0.000    0.000    0.000    0.000    0.000 
#
# Total GULP energy -347023.636568 kJ/mol
# GULP energy per Si atom -12393.701306 kJ/mol
# Density = 1.957847 g / cm^3
# Si number density = 19.623134 Si / 1000 Ang^3
#
#
#
# Elastic Constant Matrix: (Units=GPa)
#
#
# Indices 1 2 3 4 5 6 
#
# 1 91.8430 34.9625 48.6476 0.0000 -5.8549 0.0000
# 2 34.9625 100.9382 55.1024 0.0000 -14.3757 0.0000
# 3 48.6476 55.1024 105.8614 0.0000 -3.7439 0.0000
# 4 0.0000 0.0000 0.0000 37.6351 0.0000 -4.1939
# 5 -5.8549 -14.3757 -3.7439 0.0000 32.2786 0.0000
# 6 0.0000 0.0000 0.0000 -4.1939 0.0000 27.1265
#
#
#
# Elastic Compliance Matrix: (Units=1/GPa)
#
#
# Indices 1 2 3 4 5 6 
#
# 1 0.014707 -0.001753 -0.005803 0.000000 0.001214 0.000000
# 2 -0.001753 0.015034 -0.006822 0.000000 0.005586 0.000000
# 3 -0.005803 -0.006822 0.015583 0.000000 -0.002283 0.000000
# 4 0.000000 0.000000 0.000000 0.027037 0.000000 0.004180
# 5 0.001214 0.005586 -0.002283 0.000000 0.033424 0.000000
# 6 0.000000 0.000000 0.000000 0.004180 0.000000 0.037511
#
#
# Mechanical properties :
#
#
# Convention : Reuss Voigt Hill
#
# Bulk Modulus (GPa) = 60.35954 64.00751 62.18352
# Shear Modulus (GPa) = 28.15727 30.07003 29.11365
#
# Velocity S-wave (km/s) = 3.79212 3.91880 3.85598
# Velocity P-wave (km/s) = 7.07105 7.29145 7.18209
#
# Compressibility (1/GPa) = 0.01656739
#
# Stress axis : x y z
#
# Youngs Moduli (GPa) = 67.99682 66.51461 64.17182
#
# Poissons Ratio (x) = 0.11663 0.37237
# Poissons Ratio (y) = 0.11923 0.43779
# Poissons Ratio (z) = 0.39456 0.45378
#
# Static dielectric constant tensor:
#      x y z
#    x 4.181470 0.000000 0.080040 
#    y 0.000000 3.459820 0.000000 
#    z 0.080040 0.000000 3.426620 
# 
# 
# High freq. dielectric constant tensor:
#      x y z
#    x 1.779510 0.000000 0.009700 
#    y 0.000000 1.757070 0.000000 
#    z 0.009700 0.000000 1.756520 
# 
# From -- ./inp_files/61495.got.cif
#   From: 2010.06.25/outbox.cif.g09.slc.cpg/sg11_31_cif.got.tgz:61495.got - 2010.06.27 23:14:04.
