data_PCOD8074244
_publ_section_title
;
Structure prediction by ZEFSAII (Michael W. Deem and Ramdas Pophale) SiO2 
 PCOD8074244
Probable space group: P 21/M
;
_chemical_formula_sum "Si O2"
_cell_formula_units_Z 32
_cell_length_a 8.837211
_cell_length_b 24.362104
_cell_length_c 14.783474
_cell_angle_alpha 90.000000
_cell_angle_beta 149.967370
_cell_angle_gamma 90.000000
_cell_volume 1592.959125
_symmetry_space_group_name_H-M "P 21/M"
_symmetry_group_IT_number 11
_symmetry_cell_setting 'monoclinic'
loop_
_space_group_symop_operation_xyz
x,y,z
-x,1/2+y,-z
-x,-y,-z
x,1/2-y,z
loop_
_atom_site_type_symbol
_atom_site_label
_atom_site_fract_x
_atom_site_fract_y
_atom_site_fract_z
Si Si1 0.614321 0.887649 0.799020
Si Si2 0.203724 0.185964 0.498734
Si Si3 0.843214 0.991584 0.321124
Si Si4 0.135353 0.109927 0.788236
Si Si5 0.732660 0.394567 0.195597
Si Si6 0.874395 0.187000 0.516767
Si Si7 0.778865 0.385645 0.789789
Si Si8 0.652031 0.492792 0.809212
O O1 0.457501 0.882334 0.814153
O O2 0.455845 0.842090 0.654655
O O3 0.539573 0.947372 0.715331
O O4 0.973304 0.877186 0.001274
O O5 0.193393 0.250000 0.466896
O O6 0.549639 0.165420 0.671623
O O7 0.994752 0.151488 0.320351
O O8 0.077275 0.175381 0.533628
O O9 0.966986 0.939923 0.329913
O O10 0.884491 0.045145 0.279714
O O11 0.491444 0.981960 0.165548
O O12 0.000000 0.000000 0.500000
O O13 0.063395 0.166582 0.700595
O O14 0.943169 0.107137 0.779835
O O15 0.496758 0.107893 0.990713
O O16 0.801959 0.250000 0.492530
O O17 0.585322 0.441712 0.708014
O O18 0.000000 0.500000 0.000000
#
# Coordination Sequence:
#
# PCOD8074244 Si02
#       8
#     4   4   4   4   4   4   4   4
#     4   8  17  35  57  80 108 146 185 224 274 335
#     4  10  21  39  60  80 107 147 193 235 278 332
#     4  11  20  36  60  82 114 152 186 221 270 340
#     4  11  22  36  57  85 117 148 182 229 280 333
#     4   9  19  35  56  84 112 144 184 227 278 330
#     4  10  21  38  58  78 104 147 197 231 268 332
#     4  10  20  35  57  86 115 141 180 233 289 331
#     4   9  17  32  55  81 111 143 177 220 272 333
#
# _framework density 20.088398999999999
#
# number of rings (size 3 to 8) (size 9 to 14) (size 15 to 20)
#    0.000    2.250    0.000    4.875    0.000    1.500 
#    0.000   13.125    0.000    0.000    0.000    0.000 
#    0.000    0.000    0.000    0.000    0.000    0.000 
#
# Total GULP energy -396566.887964 kJ/mol
# GULP energy per Si atom -12392.715249 kJ/mol
# Density = 2.004268 g / cm^3
# Si number density = 20.088399 Si / 1000 Ang^3
#
#
#
# Elastic Constant Matrix: (Units=GPa)
#
#
# Indices 1 2 3 4 5 6 
#
# 1 54.3081 41.2433 23.4587 0.0000 6.2493 0.0000
# 2 41.2433 142.0197 54.2200 0.0000 1.5260 0.0000
# 3 23.4587 54.2200 109.0932 0.0000 -0.9548 0.0000
# 4 0.0000 0.0000 0.0000 29.9299 0.0000 5.5186
# 5 6.2493 1.5260 -0.9548 0.0000 30.3426 0.0000
# 6 0.0000 0.0000 0.0000 5.5186 0.0000 27.4696
#
#
#
# Elastic Compliance Matrix: (Units=1/GPa)
#
#
# Indices 1 2 3 4 5 6 
#
# 1 0.024695 -0.006265 -0.002239 0.000000 -0.004842 0.000000
# 2 -0.006265 0.010289 -0.003761 0.000000 0.000654 0.000000
# 3 -0.002239 -0.003761 0.011526 0.000000 0.001013 0.000000
# 4 0.000000 0.000000 0.000000 0.034697 0.000000 -0.006970
# 5 -0.004842 0.000654 0.001013 0.000000 0.033953 0.000000
# 6 0.000000 0.000000 0.000000 -0.006970 0.000000 0.037804
#
#
# Mechanical properties :
#
#
# Convention : Reuss Voigt Hill
#
# Bulk Modulus (GPa) = 45.49360 60.36276 52.92818
# Shear Modulus (GPa) = 27.05307 29.98169 28.51738
#
# Velocity S-wave (km/s) = 3.67372 3.86746 3.77184
# Velocity P-wave (km/s) = 6.37894 7.07509 6.73601
#
# Compressibility (1/GPa) = 0.02198111
#
# Stress axis : x y z
#
# Youngs Moduli (GPa) = 40.49326 97.18660 86.75973
#
# Poissons Ratio (x) = 0.60886 0.19426
# Poissons Ratio (y) = 0.25368 0.32631
# Poissons Ratio (z) = 0.09067 0.36553
#
# Static dielectric constant tensor:
#      x y z
#    x 2.813770 0.000000 0.402390 
#    y 0.000000 3.868810 0.000000 
#    z 0.402390 0.000000 3.922980 
# 
# 
# High freq. dielectric constant tensor:
#      x y z
#    x 1.754510 0.000000 0.017030 
#    y 0.000000 1.785930 0.000000 
#    z 0.017030 0.000000 1.789140 
# 
# From -- ./inp_files/48489.got.cif
#   From: 2010.06.25/outbox.cif.g09.slc.cpg/sg11_25_cif.got.tgz:48489.got - 2010.06.27 23:14:04.
