data_PCOD8074920
_publ_section_title
;
Structure prediction by ZEFSAII (Michael W. Deem and Ramdas Pophale) SiO2 
 PCOD8074920
Probable space group: P 21/M
;
_chemical_formula_sum "Si O2"
_cell_formula_units_Z 20
_cell_length_a 10.799638
_cell_length_b 8.709994
_cell_length_c 12.659470
_cell_angle_alpha 90.000000
_cell_angle_beta 53.718335
_cell_angle_gamma 90.000000
_cell_volume 959.933237
_symmetry_space_group_name_H-M "P 21/M"
_symmetry_group_IT_number 11
_symmetry_cell_setting 'monoclinic'
loop_
_space_group_symop_operation_xyz
x,y,z
-x,1/2+y,-z
-x,-y,-z
x,1/2-y,z
loop_
_atom_site_type_symbol
_atom_site_label
_atom_site_fract_x
_atom_site_fract_y
_atom_site_fract_z
Si Si1 0.673740 0.933059 0.413301
Si Si2 0.632222 0.420461 0.042073
Si Si3 0.149564 0.925485 0.873005
Si Si4 0.154959 0.074661 0.463127
Si Si5 0.328138 0.920419 0.202439
O O1 0.657598 0.750000 0.421893
O O2 0.766169 0.993115 0.470583
O O3 0.500000 0.000000 0.500000
O O4 0.779279 0.984749 0.262221
O O5 0.556186 0.250000 0.074654
O O6 0.725118 0.435251 0.100716
O O7 0.510628 0.557876 0.101745
O O8 0.739662 0.439552 0.882536
O O9 0.114404 0.750000 0.857706
O O10 0.000000 0.000000 0.000000
O O11 0.118021 0.250000 0.503096
O O12 0.271752 0.052437 0.308385
O O13 0.000000 0.000000 0.500000
O O14 0.290707 0.750000 0.265983
#
# Coordination Sequence:
#
# PCOD8074920 Si02
#       5
#     4   4   4   4   4
#     4  11  25  45  68  95 130 171 218 269 321 384
#     4   9  20  38  59  86 122 159 197 248 304 362
#     4  11  24  41  63  92 128 167 211 262 317 376
#     4  11  25  42  62  90 126 164 207 261 316 372
#     4  10  20  36  61  90 120 156 200 248 303 369
#
# _framework density 20.834781
#
# number of rings (size 3 to 8) (size 9 to 14) (size 15 to 20)
#    0.000    1.600    0.000    3.600    2.800   10.400 
#    0.000    0.000    0.000    0.000    0.000    0.000 
#    0.000    0.000    0.000    0.000    0.000    0.000 
#
# Total GULP energy -247816.263950 kJ/mol
# GULP energy per Si atom -12390.813198 kJ/mol
# Density = 2.078736 g / cm^3
# Si number density = 20.834781 Si / 1000 Ang^3
#
#
#
# Elastic Constant Matrix: (Units=GPa)
#
#
# Indices 1 2 3 4 5 6 
#
# 1 121.0720 43.9109 62.4965 0.0000 15.6898 0.0000
# 2 43.9109 77.0603 40.5862 0.0000 4.7803 0.0000
# 3 62.4965 40.5862 153.0357 0.0000 9.5650 0.0000
# 4 0.0000 0.0000 0.0000 39.6120 0.0000 -3.0583
# 5 15.6898 4.7803 9.5650 0.0000 36.7060 0.0000
# 6 0.0000 0.0000 0.0000 -3.0583 0.0000 30.9133
#
#
#
# Elastic Compliance Matrix: (Units=1/GPa)
#
#
# Indices 1 2 3 4 5 6 
#
# 1 0.012345 -0.004964 -0.003492 0.000000 -0.003720 0.000000
# 2 -0.004964 0.017112 -0.002546 0.000000 0.000557 0.000000
# 3 -0.003492 -0.002546 0.008663 0.000000 -0.000433 0.000000
# 4 0.000000 0.000000 0.000000 0.025439 0.000000 0.002517
# 5 -0.003720 0.000557 -0.000433 0.000000 0.028874 0.000000
# 6 0.000000 0.000000 0.000000 0.002517 0.000000 0.032598
#
#
# Mechanical properties :
#
#
# Convention : Reuss Voigt Hill
#
# Bulk Modulus (GPa) = 62.05413 71.68389 66.86901
# Shear Modulus (GPa) = 32.80704 35.05789 33.93247
#
# Velocity S-wave (km/s) = 3.97246 4.10648 4.04003
# Velocity P-wave (km/s) = 7.13367 7.54750 7.34350
#
# Compressibility (1/GPa) = 0.01611496
#
# Stress axis : x y z
#
# Youngs Moduli (GPa) = 81.00573 58.43907 115.43621
#
# Poissons Ratio (x) = 0.29011 0.40313
# Poissons Ratio (y) = 0.40214 0.29386
# Poissons Ratio (z) = 0.28289 0.14877
#
# Static dielectric constant tensor:
#      x y z
#    x 3.723000 0.000000 0.586100 
#    y 0.000000 3.773550 0.000000 
#    z 0.586100 0.000000 4.900530 
# 
# 
# High freq. dielectric constant tensor:
#      x y z
#    x 1.816460 0.000000 0.015480 
#    y 0.000000 1.821160 0.000000 
#    z 0.015480 0.000000 1.829790 
# 
# From -- ./inp_files/33663.got.cif
#   From: 2010.06.25/outbox.cif.g09.slc.cpg/sg11_17_cif.got.tgz:33663.got - 2010.06.27 23:14:04.
