data_PCOD8074206
_publ_section_title
;
Structure prediction by ZEFSAII (Michael W. Deem and Ramdas Pophale) SiO2 
 PCOD8074206
Probable space group: P 21/M
;
_chemical_formula_sum "Si O2"
_cell_formula_units_Z 32
_cell_length_a 14.142463
_cell_length_b 8.805295
_cell_length_c 14.867817
_cell_angle_alpha 90.000000
_cell_angle_beta 106.451061
_cell_angle_gamma 90.000000
_cell_volume 1775.672388
_symmetry_space_group_name_H-M "P 21/M"
_symmetry_group_IT_number 11
_symmetry_cell_setting 'monoclinic'
loop_
_space_group_symop_operation_xyz
x,y,z
-x,1/2+y,-z
-x,-y,-z
x,1/2-y,z
loop_
_atom_site_type_symbol
_atom_site_label
_atom_site_fract_x
_atom_site_fract_y
_atom_site_fract_z
Si Si1 0.126565 0.429562 0.611748
Si Si2 0.201575 0.080420 0.944647
Si Si3 0.094678 0.928589 0.414947
Si Si4 0.018200 0.578209 0.098592
Si Si5 0.710757 0.928991 0.207473
Si Si6 0.824304 0.571830 0.737632
Si Si7 0.502732 0.428431 0.900832
Si Si8 0.687880 0.570333 0.856608
O O1 0.132168 0.250000 0.600397
O O2 0.138025 0.504638 0.517941
O O3 0.218777 0.494483 0.694838
O O4 0.020852 0.475327 0.627953
O O5 0.244950 0.250000 0.961883
O O6 0.258257 0.994721 0.879539
O O7 0.088581 0.083471 0.884826
O O8 0.227104 0.011771 0.050008
O O9 0.105101 0.750000 0.420152
O O10 0.164800 0.987622 0.353966
O O11 0.061133 0.750000 0.101768
O O12 0.083371 0.470003 0.176322
O O13 0.000000 0.500000 0.000000
O O14 0.731568 0.750000 0.210272
O O15 0.595051 0.965785 0.184819
O O16 0.824933 0.750000 0.719690
O O17 0.725339 0.522663 0.766492
O O18 0.515400 0.250000 0.918501
O O19 0.587571 0.490688 0.858885
O O20 0.500000 0.500000 0.000000
O O21 0.672273 0.750000 0.853877
#
# Coordination Sequence:
#
# PCOD8074206 Si02
#       8
#     4   4   4   4   4   4   4   4
#     4   9  18  35  58  82 108 142 177 213 267 331
#     4   9  16  30  49  70 102 141 175 210 258 317
#     4  10  20  35  57  84 111 139 175 223 270 320
#     4  11  20  31  48  72 104 142 180 218 260 314
#     4   9  17  31  54  77 101 137 177 215 264 323
#     4  11  22  36  53  75 106 148 186 221 269 326
#     4  11  21  34  54  79 107 142 184 229 271 317
#     4  10  20  36  53  71 103 145 183 220 266 318
#
# _framework density 18.021342000000001
#
# number of rings (size 3 to 8) (size 9 to 14) (size 15 to 20)
#    0.000    2.000    2.500    2.250    0.000    3.500 
#    0.000    1.250    0.000    0.750    0.000    0.000 
#    0.000    0.000    0.000    0.000    0.000    0.000 
#
# Total GULP energy -396493.607155 kJ/mol
# GULP energy per Si atom -12390.425224 kJ/mol
# Density = 1.798033 g / cm^3
# Si number density = 18.021342 Si / 1000 Ang^3
#
#
#
# Elastic Constant Matrix: (Units=GPa)
#
#
# Indices 1 2 3 4 5 6 
#
# 1 113.8507 31.3699 65.3496 0.0000 -11.1135 0.0000
# 2 31.3699 32.0246 30.3679 0.0000 -4.3496 0.0000
# 3 65.3496 30.3679 121.8668 0.0000 -11.9261 0.0000
# 4 0.0000 0.0000 0.0000 25.7152 0.0000 -2.1613
# 5 -11.1135 -4.3496 -11.9261 0.0000 32.4617 0.0000
# 6 0.0000 0.0000 0.0000 -2.1613 0.0000 26.6305
#
#
#
# Elastic Compliance Matrix: (Units=1/GPa)
#
#
# Indices 1 2 3 4 5 6 
#
# 1 0.014488 -0.008835 -0.005392 0.000000 0.001795 0.000000
# 2 -0.008835 0.046377 -0.006749 0.000000 0.000710 0.000000
# 3 -0.005392 -0.006749 0.012976 0.000000 0.002017 0.000000
# 4 0.000000 0.000000 0.000000 0.039155 0.000000 0.003178
# 5 0.001795 0.000710 0.002017 0.000000 0.032256 0.000000
# 6 0.000000 0.000000 0.000000 0.003178 0.000000 0.037809
#
#
# Mechanical properties :
#
#
# Convention : Reuss Voigt Hill
#
# Bulk Modulus (GPa) = 31.35906 57.99077 44.67492
# Shear Modulus (GPa) = 21.21855 26.33847 23.77851
#
# Velocity S-wave (km/s) = 3.43507 3.82712 3.63638
# Velocity P-wave (km/s) = 5.75949 7.19569 6.51727
#
# Compressibility (1/GPa) = 0.03188871
#
# Stress axis : x y z
#
# Youngs Moduli (GPa) = 69.02340 21.56232 77.06438
#
# Poissons Ratio (x) = 0.19051 0.41550
# Poissons Ratio (y) = 0.60983 0.52015
# Poissons Ratio (z) = 0.37215 0.14553
#
# Static dielectric constant tensor:
#      x y z
#    x 3.511210 0.000000 -0.025230 
#    y 0.000000 3.197010 0.000000 
#    z -0.025230 0.000000 3.363730 
# 
# 
# High freq. dielectric constant tensor:
#      x y z
#    x 1.693810 0.000000 -0.010100 
#    y 0.000000 1.681330 0.000000 
#    z -0.010100 0.000000 1.688300 
# 
# From -- ./inp_files/51399.got.cif
#   From: 2010.06.25/outbox.cif.g09.slc.cpg/sg11_26_cif.got.tgz:51399.got - 2010.06.27 23:14:04.
