data_PCOD8074110
_publ_section_title
;
Structure prediction by ZEFSAII (Michael W. Deem and Ramdas Pophale) SiO2 
 PCOD8074110
Probable space group: P 21/M
;
_chemical_formula_sum "Si O2"
_cell_formula_units_Z 32
_cell_length_a 30.882701
_cell_length_b 8.561023
_cell_length_c 11.863091
_cell_angle_alpha 90.000000
_cell_angle_beta 30.223753
_cell_angle_gamma 90.000000
_cell_volume 1578.822145
_symmetry_space_group_name_H-M "P 21/M"
_symmetry_group_IT_number 11
_symmetry_cell_setting 'monoclinic'
loop_
_space_group_symop_operation_xyz
x,y,z
-x,1/2+y,-z
-x,-y,-z
x,1/2-y,z
loop_
_atom_site_type_symbol
_atom_site_label
_atom_site_fract_x
_atom_site_fract_y
_atom_site_fract_z
Si Si1 0.723069 0.933883 0.143895
Si Si2 0.774809 0.067988 0.794967
Si Si3 0.900880 0.568025 0.114192
Si Si4 0.404483 0.433441 0.209886
Si Si5 0.468364 0.067478 0.455350
Si Si6 0.251975 0.567224 0.680832
Si Si7 0.371432 0.933453 0.050352
Si Si8 0.077703 0.431165 0.676807
O O1 0.727552 0.750000 0.155883
O O2 0.625516 0.999156 0.361409
O O3 0.769891 0.022439 0.141160
O O4 0.769775 0.973523 0.922322
O O5 0.764137 0.250000 0.845307
O O6 0.866970 0.034147 0.533404
O O7 0.699802 0.010476 0.879078
O O8 0.921128 0.750000 0.054764
O O9 0.811793 0.524877 0.257330
O O10 0.894008 0.522151 0.260788
O O11 0.977698 0.471612 0.882868
O O12 0.407258 0.250000 0.225806
O O13 0.348736 0.512665 0.434008
O O14 0.500000 0.500000 0.000000
O O15 0.358982 0.471138 0.193176
O O16 0.462908 0.250000 0.484609
O O17 0.534138 0.023523 0.208238
O O18 0.500000 0.000000 0.500000
O O19 0.240630 0.750000 0.686846
O O20 0.361972 0.750000 0.097233
O O21 0.093710 0.250000 0.615312
#
# Coordination Sequence:
#
# PCOD8074110 Si02
#       8
#     4   4   4   4   4   4   4   4
#     4  11  23  39  60  86 120 162 206 252 300 357
#     4  11  22  37  59  88 122 159 200 248 301 355
#     4  10  21  40  66  95 124 157 198 244 298 360
#     4  12  25  41  61  87 120 159 203 251 302 356
#     4  10  20  35  56  82 114 154 198 246 294 347
#     4  12  25  42  64  89 121 162 204 247 300 361
#     4  10  21  37  58  86 120 157 200 250 302 358
#     4  10  21  38  63  94 126 157 195 245 301 359
#
# _framework density 20.268274999999999
#
# number of rings (size 3 to 8) (size 9 to 14) (size 15 to 20)
#    0.000    1.250    1.250    5.250    0.000    6.500 
#    0.000    0.625    0.000    0.000    0.000    0.000 
#    0.000    0.000    0.000    0.000    0.000    0.000 
#
# Total GULP energy -397019.465131 kJ/mol
# GULP energy per Si atom -12406.858285 kJ/mol
# Density = 2.022214 g / cm^3
# Si number density = 20.268275 Si / 1000 Ang^3
#
#
#
# Elastic Constant Matrix: (Units=GPa)
#
#
# Indices 1 2 3 4 5 6 
#
# 1 89.3181 20.8940 30.6187 0.0000 7.2680 0.0000
# 2 20.8940 52.9525 13.6929 0.0000 7.5566 0.0000
# 3 30.6187 13.6929 102.1937 0.0000 3.4557 0.0000
# 4 0.0000 0.0000 0.0000 32.7554 0.0000 1.3634
# 5 7.2680 7.5566 3.4557 0.0000 30.8383 0.0000
# 6 0.0000 0.0000 0.0000 1.3634 0.0000 35.7424
#
#
#
# Elastic Compliance Matrix: (Units=1/GPa)
#
#
# Indices 1 2 3 4 5 6 
#
# 1 0.013492 -0.004186 -0.003422 0.000000 -0.001771 0.000000
# 2 -0.004186 0.021509 -0.001489 0.000000 -0.004117 0.000000
# 3 -0.003422 -0.001489 0.011012 0.000000 -0.000063 0.000000
# 4 0.000000 0.000000 0.000000 0.030578 0.000000 -0.001166
# 5 -0.001771 -0.004117 -0.000063 0.000000 0.033860 0.000000
# 6 0.000000 0.000000 0.000000 -0.001166 0.000000 0.028022
#
#
# Mechanical properties :
#
#
# Convention : Reuss Voigt Hill
#
# Bulk Modulus (GPa) = 35.94470 41.65285 38.79877
# Shear Modulus (GPa) = 30.13124 31.81781 30.97452
#
# Velocity S-wave (km/s) = 3.85985 3.96641 3.91350
# Velocity P-wave (km/s) = 6.13495 6.44763 6.29323
#
# Compressibility (1/GPa) = 0.02782051
#
# Stress axis : x y z
#
# Youngs Moduli (GPa) = 74.11638 46.49189 90.80926
#
# Poissons Ratio (x) = 0.19463 0.31072
# Poissons Ratio (y) = 0.31027 0.13517
# Poissons Ratio (z) = 0.25360 0.06920
#
# Static dielectric constant tensor:
#      x y z
#    x 3.655640 0.000000 -0.007890 
#    y 0.000000 3.716310 0.000000 
#    z -0.007890 0.000000 3.730110 
# 
# 
# High freq. dielectric constant tensor:
#      x y z
#    x 1.789920 0.000000 0.004490 
#    y 0.000000 1.794850 0.000000 
#    z 0.004490 0.000000 1.793880 
# 
# From -- ./inp_files/45157.got.cif
#   From: 2010.06.25/outbox.cif.g09.slc.cpg/sg11_23_cif.got.tgz:45157.got - 2010.06.27 23:14:04.
