data_PCOD8074150
_publ_section_title
;
Structure prediction by ZEFSAII (Michael W. Deem and Ramdas Pophale) SiO2 
 PCOD8074150
Probable space group: P 21/M
;
_chemical_formula_sum "Si O2"
_cell_formula_units_Z 32
_cell_length_a 9.202149
_cell_length_b 19.507186
_cell_length_c 15.077768
_cell_angle_alpha 90.000000
_cell_angle_beta 140.689517
_cell_angle_gamma 90.000000
_cell_volume 1714.679475
_symmetry_space_group_name_H-M "P 21/M"
_symmetry_group_IT_number 11
_symmetry_cell_setting 'monoclinic'
loop_
_space_group_symop_operation_xyz
x,y,z
-x,1/2+y,-z
-x,-y,-z
x,1/2-y,z
loop_
_atom_site_type_symbol
_atom_site_label
_atom_site_fract_x
_atom_site_fract_y
_atom_site_fract_z
Si Si1 0.360508 0.050390 0.170484
Si Si2 0.570695 0.832389 0.081722
Si Si3 0.709740 0.428856 0.174008
Si Si4 0.767220 0.440886 0.474799
Si Si5 0.948853 0.564033 0.223223
Si Si6 0.092529 0.407996 0.487188
Si Si7 0.496134 0.171144 0.746253
Si Si8 0.889550 0.082367 0.893362
O O1 0.515259 0.058098 0.155834
O O2 0.501115 0.074999 0.324752
O O3 0.272274 0.972336 0.133191
O O4 0.131691 0.096831 0.056752
O O5 0.565004 0.750000 0.062178
O O6 0.814637 0.863691 0.165935
O O7 0.536555 0.852630 0.167905
O O8 0.369589 0.870754 0.932328
O O9 0.769633 0.502063 0.156902
O O10 0.942998 0.399596 0.327677
O O11 0.803432 0.516645 0.453596
O O12 0.830069 0.435097 0.607376
O O13 0.935068 0.391034 0.498624
O O14 0.059397 0.553997 0.180065
O O15 0.306666 0.357669 0.589255
O O16 0.466222 0.250000 0.725201
O O17 0.747895 0.152465 0.828331
#
# Coordination Sequence:
#
# PCOD8074150 Si02
#       8
#     4   4   4   4   4   4   4   4
#     4  10  20  35  56  85 118 144 181 235 289 331
#     4  11  23  38  57  82 114 149 196 240 281 341
#     4  10  21  37  62  88 112 148 189 250 287 326
#     4   9  17  33  59  84 114 135 180 242 280 323
#     4  11  21  35  61  88 114 147 193 243 283 334
#     4   9  17  34  59  85 106 143 183 232 283 329
#     4  11  23  40  58  77 115 157 191 226 282 359
#     4  11  23  34  54  87 118 150 186 228 287 347
#
# _framework density 18.662378
#
# number of rings (size 3 to 8) (size 9 to 14) (size 15 to 20)
#    0.000    1.750    3.750    1.875    3.500    1.500 
#    0.000    0.000    0.000    0.750    0.000    0.000 
#    0.000    0.000    0.000    0.000    0.000    0.000 
#
# Total GULP energy -396665.221906 kJ/mol
# GULP energy per Si atom -12395.788185 kJ/mol
# Density = 1.861990 g / cm^3
# Si number density = 18.662378 Si / 1000 Ang^3
#
#
#
# Elastic Constant Matrix: (Units=GPa)
#
#
# Indices 1 2 3 4 5 6 
#
# 1 67.0654 36.1899 40.7654 0.0000 10.3650 0.0000
# 2 36.1899 60.0569 44.3592 0.0000 -4.8973 0.0000
# 3 40.7654 44.3592 147.7445 0.0000 15.7960 0.0000
# 4 0.0000 0.0000 0.0000 22.5446 0.0000 -1.0623
# 5 10.3650 -4.8973 15.7960 0.0000 23.3947 0.0000
# 6 0.0000 0.0000 0.0000 -1.0623 0.0000 19.0269
#
#
#
# Elastic Compliance Matrix: (Units=1/GPa)
#
#
# Indices 1 2 3 4 5 6 
#
# 1 0.026690 -0.016733 -0.000756 0.000000 -0.014817 0.000000
# 2 -0.016733 0.034044 -0.007716 0.000000 0.019750 0.000000
# 3 -0.000756 -0.007716 0.010164 0.000000 -0.008143 0.000000
# 4 0.000000 0.000000 0.000000 0.044474 0.000000 0.002483
# 5 -0.014817 0.019750 -0.008143 0.000000 0.058942 0.000000
# 6 0.000000 0.000000 0.000000 0.002483 0.000000 0.052696
#
#
# Mechanical properties :
#
#
# Convention : Reuss Voigt Hill
#
# Bulk Modulus (GPa) = 48.80938 57.49953 53.15445
# Shear Modulus (GPa) = 17.59024 23.23006 20.41015
#
# Velocity S-wave (km/s) = 3.07343 3.53193 3.31063
# Velocity P-wave (km/s) = 6.22939 6.89275 6.56945
#
# Compressibility (1/GPa) = 0.02048787
#
# Stress axis : x y z
#
# Youngs Moduli (GPa) = 37.46746 29.37404 98.38286
#
# Poissons Ratio (x) = 0.49151 0.07439
# Poissons Ratio (y) = 0.62694 0.75912
# Poissons Ratio (z) = 0.02833 0.22665
#
# Static dielectric constant tensor:
#      x y z
#    x 3.489550 0.000000 0.017840 
#    y 0.000000 3.113960 0.000000 
#    z 0.017840 0.000000 3.852550 
# 
# 
# High freq. dielectric constant tensor:
#      x y z
#    x 1.711920 0.000000 0.003070 
#    y 0.000000 1.687820 0.000000 
#    z 0.003070 0.000000 1.749410 
# 
# From -- ./inp_files/48272.got.cif
#   From: 2010.06.25/outbox.cif.g09.slc.cpg/sg11_25_cif.got.tgz:48272.got - 2010.06.27 23:14:04.
