data_PCOD8074609
_publ_section_title
;
Structure prediction by ZEFSAII (Michael W. Deem and Ramdas Pophale) SiO2 
 PCOD8074609
Probable space group: P 21/M
;
_chemical_formula_sum "Si O2"
_cell_formula_units_Z 20
_cell_length_a 9.355299
_cell_length_b 14.810742
_cell_length_c 10.642255
_cell_angle_alpha 90.000000
_cell_angle_beta 39.299738
_cell_angle_gamma 90.000000
_cell_volume 933.965142
_symmetry_space_group_name_H-M "P 21/M"
_symmetry_group_IT_number 11
_symmetry_cell_setting 'monoclinic'
loop_
_space_group_symop_operation_xyz
x,y,z
-x,1/2+y,-z
-x,-y,-z
x,1/2-y,z
loop_
_atom_site_type_symbol
_atom_site_label
_atom_site_fract_x
_atom_site_fract_y
_atom_site_fract_z
Si Si1 0.270708 0.038794 0.537277
Si Si2 0.276414 0.910472 0.898318
Si Si3 0.639605 0.151434 0.632863
Si Si4 0.819177 0.903514 0.122061
Si Si5 0.157197 0.852741 0.240388
O O1 0.488834 0.091078 0.333816
O O2 0.271728 0.055831 0.684005
O O3 0.057078 0.081718 0.613014
O O4 0.270785 0.930704 0.513280
O O5 0.174473 0.012251 0.979548
O O6 0.312698 0.870102 0.012112
O O7 0.067487 0.857538 0.969272
O O8 0.747231 0.250000 0.524273
O O9 0.368917 0.164856 0.801319
O O10 0.690432 0.126587 0.742540
O O11 0.069940 0.750000 0.298883
#
# Coordination Sequence:
#
# PCOD8074609 Si02
#       5
#     4   4   4   4   4
#     4  10  20  38  62  84 112 150 190 232 281 337
#     4   9  18  35  57  78 107 143 181 226 279 331
#     4  10  20  36  57  83 116 150 186 235 286 331
#     4   9  19  35  57  85 110 139 186 235 278 334
#     4  10  22  37  55  83 116 150 192 234 276 334
#
# _framework density 21.414076000000001
#
# number of rings (size 3 to 8) (size 9 to 14) (size 15 to 20)
#    0.000    2.400    0.000    3.000    0.000    7.200 
#    0.000    7.000    0.000   43.200    0.000    0.000 
#    0.000    0.000    0.000    0.000    0.000    0.000 
#
# Total GULP energy -247792.490592 kJ/mol
# GULP energy per Si atom -12389.624530 kJ/mol
# Density = 2.136534 g / cm^3
# Si number density = 21.414076 Si / 1000 Ang^3
#
#
#
# Elastic Constant Matrix: (Units=GPa)
#
#
# Indices 1 2 3 4 5 6 
#
# 1 137.6514 51.5620 45.8847 0.0000 8.7299 0.0000
# 2 51.5620 97.1976 31.6303 0.0000 0.8216 0.0000
# 3 45.8847 31.6303 76.6176 0.0000 -17.9058 0.0000
# 4 0.0000 0.0000 0.0000 20.2503 0.0000 -3.4121
# 5 8.7299 0.8216 -17.9058 0.0000 27.9935 0.0000
# 6 0.0000 0.0000 0.0000 -3.4121 0.0000 10.5851
#
#
#
# Elastic Compliance Matrix: (Units=1/GPa)
#
#
# Indices 1 2 3 4 5 6 
#
# 1 0.011625 -0.003704 -0.007354 0.000000 -0.008220 0.000000
# 2 -0.003704 0.013480 -0.003726 0.000000 -0.001624 0.000000
# 3 -0.007354 -0.003726 0.022993 0.000000 0.017110 0.000000
# 4 0.000000 0.000000 0.000000 0.052218 0.000000 0.016832
# 5 -0.008220 -0.001624 0.017110 0.000000 0.049278 0.000000
# 6 0.000000 0.000000 0.000000 0.016832 0.000000 0.099898
#
#
# Mechanical properties :
#
#
# Convention : Reuss Voigt Hill
#
# Bulk Modulus (GPa) = 53.96867 63.29119 58.62993
# Shear Modulus (GPa) = 17.52935 23.92508 20.72722
#
# Velocity S-wave (km/s) = 2.86421 3.34617 3.11452
# Velocity P-wave (km/s) = 6.01626 6.67452 6.35392
#
# Compressibility (1/GPa) = 0.01852927
#
# Stress axis : x y z
#
# Youngs Moduli (GPa) = 86.02163 74.18618 43.49206
#
# Poissons Ratio (x) = 0.27481 0.31983
# Poissons Ratio (y) = 0.31865 0.16204
# Poissons Ratio (z) = 0.63259 0.27641
#
# Static dielectric constant tensor:
#      x y z
#    x 4.200170 0.000000 -0.120160 
#    y 0.000000 3.738380 0.000000 
#    z -0.120160 0.000000 3.685090 
# 
# 
# High freq. dielectric constant tensor:
#      x y z
#    x 1.859250 0.000000 -0.002830 
#    y 0.000000 1.825800 0.000000 
#    z -0.002830 0.000000 1.818860 
# 
# From -- ./inp_files/13403.got.cif
#   From: 2010.06.25/outbox.cif.g09.slc.cpg/sg11_7_cif.got.tgz:13403.got - 2010.06.27 23:14:04.
