data_PCOD8074710
_publ_section_title
;
Structure prediction by ZEFSAII (Michael W. Deem and Ramdas Pophale) SiO2 
 PCOD8074710
Probable space group: P 21/M
;
_chemical_formula_sum "Si O2"
_cell_formula_units_Z 24
_cell_length_a 10.171921
_cell_length_b 8.731043
_cell_length_c 14.762813
_cell_angle_alpha 90.000000
_cell_angle_beta 80.430926
_cell_angle_gamma 90.000000
_cell_volume 1292.864400
_symmetry_space_group_name_H-M "P 21/M"
_symmetry_group_IT_number 11
_symmetry_cell_setting 'monoclinic'
loop_
_space_group_symop_operation_xyz
x,y,z
-x,1/2+y,-z
-x,-y,-z
x,1/2-y,z
loop_
_atom_site_type_symbol
_atom_site_label
_atom_site_fract_x
_atom_site_fract_y
_atom_site_fract_z
Si Si1 0.454419 0.071269 0.726285
Si Si2 0.883717 0.932489 0.073911
Si Si3 0.603834 0.929381 0.557117
Si Si4 0.171616 0.931404 0.731206
Si Si5 0.589569 0.573376 0.065912
Si Si6 0.108358 0.069908 0.553081
O O1 0.431620 0.250000 0.708846
O O2 0.479039 0.040845 0.829470
O O3 0.581864 0.007027 0.657948
O O4 0.324220 0.983948 0.705722
O O5 0.890912 0.750000 0.075643
O O6 0.741410 0.989656 0.049910
O O7 0.900047 0.994715 0.173610
O O8 0.000000 0.000000 0.000000
O O9 0.579227 0.750000 0.567863
O O10 0.750427 0.969705 0.507450
O O11 0.500000 0.000000 0.500000
O O12 0.163175 0.750000 0.739561
O O13 0.093207 0.988976 0.651927
O O14 0.594987 0.750000 0.042719
O O15 0.500000 0.500000 0.000000
O O16 0.086987 0.250000 0.567669
O O17 0.000000 0.000000 0.500000
#
# Coordination Sequence:
#
# PCOD8074710 Si02
#       6
#     4   4   4   4   4   4
#     4  10  20  36  58  86 117 150 194 240 284 342
#     4  10  21  39  61  87 116 151 194 241 287 345
#     4  11  22  36  60  88 115 150 193 239 285 343
#     4  11  21  36  61  87 114 153 195 238 291 347
#     4   9  20  37  58  84 116 150 186 234 287 337
#     4  11  24  41  59  84 119 156 194 239 291 346
#
# _framework density 18.563431999999999
#
# number of rings (size 3 to 8) (size 9 to 14) (size 15 to 20)
#    0.000    1.667    1.667    4.500    0.000    6.000 
#    3.000    0.000    0.000    0.000    0.000    0.000 
#    0.000    0.000    0.000    0.000    0.000    0.000 
#
# Total GULP energy -297659.277698 kJ/mol
# GULP energy per Si atom -12402.469904 kJ/mol
# Density = 1.852118 g / cm^3
# Si number density = 18.563432 Si / 1000 Ang^3
#
#
#
# Elastic Constant Matrix: (Units=GPa)
#
#
# Indices 1 2 3 4 5 6 
#
# 1 108.0142 60.3518 83.1248 0.0000 6.4784 0.0000
# 2 60.3518 109.1740 69.1105 0.0000 -1.2034 0.0000
# 3 83.1248 69.1105 158.5815 0.0000 -1.2559 0.0000
# 4 0.0000 0.0000 0.0000 40.3161 0.0000 0.7177
# 5 6.4784 -1.2034 -1.2559 0.0000 37.1854 0.0000
# 6 0.0000 0.0000 0.0000 0.7177 0.0000 32.2667
#
#
#
# Elastic Compliance Matrix: (Units=1/GPa)
#
#
# Indices 1 2 3 4 5 6 
#
# 1 0.017975 -0.005515 -0.007047 0.000000 -0.003548 0.000000
# 2 -0.005515 0.014343 -0.003350 0.000000 0.001312 0.000000
# 3 -0.007047 -0.003350 0.011471 0.000000 0.001507 0.000000
# 4 0.000000 0.000000 0.000000 0.024814 0.000000 -0.000552
# 5 -0.003548 0.001312 0.001507 0.000000 0.027604 0.000000
# 6 0.000000 0.000000 0.000000 -0.000552 0.000000 0.031004
#
#
# Mechanical properties :
#
#
# Convention : Reuss Voigt Hill
#
# Bulk Modulus (GPa) = 83.56324 88.99376 86.27850
# Shear Modulus (GPa) = 30.67032 32.83248 31.75140
#
# Velocity S-wave (km/s) = 4.06912 4.21011 4.14022
# Velocity P-wave (km/s) = 8.19693 8.46628 8.33269
#
# Compressibility (1/GPa) = 0.01196699
#
# Stress axis : x y z
#
# Youngs Moduli (GPa) = 55.63135 69.71892 87.17291
#
# Poissons Ratio (x) = 0.38451 0.61430
# Poissons Ratio (y) = 0.30681 0.29199
# Poissons Ratio (z) = 0.39203 0.23353
#
# Static dielectric constant tensor:
#      x y z
#    x 2.588940 0.000000 0.601630 
#    y 0.000000 3.508540 0.000000 
#    z 0.601630 0.000000 3.285560 
# 
# 
# High freq. dielectric constant tensor:
#      x y z
#    x 1.703230 0.000000 -0.003100 
#    y 0.000000 1.734820 0.000000 
#    z -0.003100 0.000000 1.735520 
# 
# From -- ./inp_files/20372.got.cif
#   From: 2010.06.25/outbox.cif.g09.slc.cpg/sg11_11_cif.got.tgz:20372.got - 2010.06.27 23:14:04.
