data_PCOD8074768
_publ_section_title
;
Structure prediction by ZEFSAII (Michael W. Deem and Ramdas Pophale) SiO2 
 PCOD8074768
Probable space group: P 21/M
;
_chemical_formula_sum "Si O2"
_cell_formula_units_Z 28
_cell_length_a 10.229342
_cell_length_b 8.989241
_cell_length_c 27.526174
_cell_angle_alpha 90.000000
_cell_angle_beta 34.440538
_cell_angle_gamma 90.000000
_cell_volume 1431.489206
_symmetry_space_group_name_H-M "P 21/M"
_symmetry_group_IT_number 11
_symmetry_cell_setting 'monoclinic'
loop_
_space_group_symop_operation_xyz
x,y,z
-x,1/2+y,-z
-x,-y,-z
x,1/2-y,z
loop_
_atom_site_type_symbol
_atom_site_label
_atom_site_fract_x
_atom_site_fract_y
_atom_site_fract_z
Si Si1 0.783930 0.074400 0.699313
Si Si2 0.384788 0.574674 0.664293
Si Si3 0.107784 0.075297 0.513511
Si Si4 0.084855 0.422662 0.022569
Si Si5 0.067595 0.079652 0.249096
Si Si6 0.505712 0.079248 0.049634
Si Si7 0.635351 0.421917 0.220605
O O1 0.763823 0.250000 0.705844
O O2 0.975688 0.019202 0.601872
O O3 0.857877 0.020669 0.729179
O O4 0.534397 0.009268 0.763048
O O5 0.350771 0.750000 0.679438
O O6 0.622791 0.530354 0.564620
O O7 0.382884 0.509543 0.719647
O O8 0.172909 0.512019 0.697547
O O9 0.080793 0.250000 0.514551
O O10 0.000000 0.000000 0.500000
O O11 0.132642 0.250000 0.997202
O O12 0.896211 0.442927 0.122590
O O13 0.320111 0.498869 0.967271
O O14 0.000000 0.500000 0.000000
O O15 0.040666 0.250000 0.274984
O O16 0.251044 0.068592 0.149714
O O17 0.582412 0.250000 0.019424
O O18 0.500000 0.000000 0.000000
O O19 0.560010 0.250000 0.242573
#
# Coordination Sequence:
#
# PCOD8074768 Si02
#       7
#     4   4   4   4   4   4   4
#     4  11  23  36  55  88 123 150 185 240 294 338
#     4   9  18  36  61  83 107 145 193 237 273 330
#     4  10  20  36  59  86 116 148 188 235 286 340
#     4  11  23  38  58  86 117 152 198 245 294 352
#     4  10  22  40  60  83 113 155 199 231 277 351
#     4  11  23  40  62  87 117 155 199 245 296 352
#     4  10  20  37  61  83 107 150 198 235 281 348
#
# _framework density 19.560051000000001
#
# number of rings (size 3 to 8) (size 9 to 14) (size 15 to 20)
#    0.000    1.714    1.429    3.000    0.000    9.143 
#    0.000    1.429    0.000    0.000    0.000    0.000 
#    0.000    0.000    0.000    0.000    0.000    0.000 
#
# Total GULP energy -347318.376281 kJ/mol
# GULP energy per Si atom -12404.227724 kJ/mol
# Density = 1.951553 g / cm^3
# Si number density = 19.560051 Si / 1000 Ang^3
#
#
#
# Elastic Constant Matrix: (Units=GPa)
#
#
# Indices 1 2 3 4 5 6 
#
# 1 120.1864 34.0837 16.8869 0.0000 -14.8304 0.0000
# 2 34.0837 75.4977 28.5794 0.0000 -4.0889 0.0000
# 3 16.8869 28.5794 74.2287 0.0000 -10.2058 0.0000
# 4 0.0000 0.0000 0.0000 26.2746 0.0000 2.7719
# 5 -14.8304 -4.0889 -10.2058 0.0000 40.6855 0.0000
# 6 0.0000 0.0000 0.0000 2.7719 0.0000 21.6211
#
#
#
# Elastic Compliance Matrix: (Units=1/GPa)
#
#
# Indices 1 2 3 4 5 6 
#
# 1 0.009939 -0.004243 -0.000195 0.000000 0.003148 0.000000
# 2 -0.004243 0.017317 -0.005878 0.000000 -0.001281 0.000000
# 3 -0.000195 -0.005878 0.016249 0.000000 0.003414 0.000000
# 4 0.000000 0.000000 0.000000 0.038581 0.000000 -0.004946
# 5 0.003148 -0.001281 0.003414 0.000000 0.026454 0.000000
# 6 0.000000 0.000000 0.000000 -0.004946 0.000000 0.046885
#
#
# Mechanical properties :
#
#
# Convention : Reuss Voigt Hill
#
# Bulk Modulus (GPa) = 43.71920 47.66811 45.69365
# Shear Modulus (GPa) = 27.22102 30.40709 28.81405
#
# Velocity S-wave (km/s) = 3.73455 3.94706 3.84227
# Velocity P-wave (km/s) = 6.40278 6.72275 6.56472
#
# Compressibility (1/GPa) = 0.02287325
#
# Stress axis : x y z
#
# Youngs Moduli (GPa) = 100.60902 57.74767 61.54311
#
# Poissons Ratio (x) = 0.24502 0.01199
# Poissons Ratio (y) = 0.42688 0.36175
# Poissons Ratio (z) = 0.01960 0.33944
#
# Static dielectric constant tensor:
#      x y z
#    x 3.804600 0.000000 -0.310640 
#    y 0.000000 3.566350 0.000000 
#    z -0.310640 0.000000 4.288390 
# 
# 
# High freq. dielectric constant tensor:
#      x y z
#    x 1.770220 0.000000 -0.002730 
#    y 0.000000 1.748480 0.000000 
#    z -0.002730 0.000000 1.776300 
# 
# From -- ./inp_files/70788.got.cif
#   From: 2010.06.25/outbox.cif.g09.slc.cpg/sg11_36_cif.got.tgz:70788.got - 2010.06.27 23:14:04.
