data_PCOD8074225
_publ_section_title
;
Structure prediction by ZEFSAII (Michael W. Deem and Ramdas Pophale) SiO2 
 PCOD8074225
Probable space group: P 21/M
;
_chemical_formula_sum "Si O2"
_cell_formula_units_Z 32
_cell_length_a 11.740098
_cell_length_b 9.107768
_cell_length_c 28.307754
_cell_angle_alpha 90.000000
_cell_angle_beta 147.808245
_cell_angle_gamma 90.000000
_cell_volume 1612.561260
_symmetry_space_group_name_H-M "P 21/M"
_symmetry_group_IT_number 11
_symmetry_cell_setting 'monoclinic'
loop_
_space_group_symop_operation_xyz
x,y,z
-x,1/2+y,-z
-x,-y,-z
x,1/2-y,z
loop_
_atom_site_type_symbol
_atom_site_label
_atom_site_fract_x
_atom_site_fract_y
_atom_site_fract_z
Si Si1 0.694481 0.423526 0.381604
Si Si2 0.052467 0.075256 0.765981
Si Si3 0.742868 0.913845 0.809669
Si Si4 0.733526 0.925635 0.581588
Si Si5 0.493705 0.577529 0.910139
Si Si6 0.786426 0.587572 0.929737
Si Si7 0.908827 0.578475 0.540525
Si Si8 0.891137 0.920301 0.107552
O O1 0.696800 0.250000 0.388512
O O2 0.458832 0.484107 0.287853
O O3 0.745019 0.494742 0.449469
O O4 0.854435 0.467603 0.394627
O O5 0.030840 0.250000 0.750988
O O6 0.035608 0.028377 0.814947
O O7 0.286158 0.022286 0.833479
O O8 0.868959 0.991812 0.672510
O O9 0.788966 0.750000 0.807295
O O10 0.671151 0.910748 0.838856
O O11 0.957992 0.004891 0.878066
O O12 0.710145 0.750000 0.579329
O O13 0.861937 0.965572 0.578412
O O14 0.500000 0.000000 0.500000
O O15 0.430587 0.750000 0.885715
O O16 0.624448 0.521378 0.910697
O O17 0.642007 0.542962 0.008277
O O18 0.848118 0.750000 0.968746
O O19 0.000000 0.500000 0.000000
O O20 0.869659 0.750000 0.519884
O O21 0.927745 0.750000 0.114251
#
# Coordination Sequence:
#
# PCOD8074225 Si02
#       8
#     4   4   4   4   4   4   4   4
#     4   9  19  36  59  87 117 148 189 239 291 351
#     4  11  25  42  62  90 120 155 203 252 298 353
#     4  10  21  34  56  88 118 153 195 242 292 351
#     4  11  25  44  66  89 120 159 198 246 300 356
#     4  10  21  39  63  88 119 161 201 245 301 355
#     4  10  20  35  57  84 119 156 195 238 290 351
#     4   9  20  39  62  85 114 151 190 237 295 350
#     4  10  22  40  60  85 121 160 202 250 297 352
#
# _framework density 19.844206
#
# number of rings (size 3 to 8) (size 9 to 14) (size 15 to 20)
#    0.000    2.000    1.250    1.125    3.500    3.500 
#    0.000    0.000    0.000    0.000    0.000    0.000 
#    0.000    0.000    0.000    0.000    0.000    0.000 
#
# Total GULP energy -396657.521437 kJ/mol
# GULP energy per Si atom -12395.547545 kJ/mol
# Density = 1.979904 g / cm^3
# Si number density = 19.844206 Si / 1000 Ang^3
#
#
#
# Elastic Constant Matrix: (Units=GPa)
#
#
# Indices 1 2 3 4 5 6 
#
# 1 100.6313 35.0258 37.9859 0.0000 -6.7821 0.0000
# 2 35.0258 51.2251 40.2196 0.0000 1.3998 0.0000
# 3 37.9859 40.2196 128.4715 0.0000 0.5539 0.0000
# 4 0.0000 0.0000 0.0000 33.2121 0.0000 4.4138
# 5 -6.7821 1.3998 0.5539 0.0000 27.6508 0.0000
# 6 0.0000 0.0000 0.0000 4.4138 0.0000 28.1895
#
#
#
# Elastic Compliance Matrix: (Units=1/GPa)
#
#
# Indices 1 2 3 4 5 6 
#
# 1 0.013622 -0.008277 -0.001453 0.000000 0.003789 0.000000
# 2 -0.008277 0.030950 -0.007227 0.000000 -0.003452 0.000000
# 3 -0.001453 -0.007227 0.010477 0.000000 -0.000200 0.000000
# 4 0.000000 0.000000 0.000000 0.030749 0.000000 -0.004815
# 5 0.003789 -0.003452 -0.000200 0.000000 0.037273 0.000000
# 6 0.000000 0.000000 0.000000 -0.004815 0.000000 0.036228
#
#
# Mechanical properties :
#
#
# Convention : Reuss Voigt Hill
#
# Bulk Modulus (GPa) = 47.31525 56.31006 51.81266
# Shear Modulus (GPa) = 24.96776 28.95027 26.95902
#
# Velocity S-wave (km/s) = 3.55094 3.82367 3.68983
# Velocity P-wave (km/s) = 6.38023 6.92327 6.65729
#
# Compressibility (1/GPa) = 0.02113483
#
# Stress axis : x y z
#
# Youngs Moduli (GPa) = 73.41088 32.31026 95.44939
#
# Poissons Ratio (x) = 0.26743 0.13867
# Poissons Ratio (y) = 0.60763 0.68982
# Poissons Ratio (z) = 0.10665 0.23351
#
# Static dielectric constant tensor:
#      x y z
#    x 4.034360 0.000000 -0.253540 
#    y 0.000000 3.501540 0.000000 
#    z -0.253540 0.000000 3.832170 
# 
# 
# High freq. dielectric constant tensor:
#      x y z
#    x 1.781410 0.000000 -0.005050 
#    y 0.000000 1.765990 0.000000 
#    z -0.005050 0.000000 1.781140 
# 
# From -- ./inp_files/73075.got.cif
#   From: 2010.06.25/outbox.cif.g09.slc.cpg/sg11_37_cif.got.tgz:73075.got - 2010.06.27 23:14:04.
