data_PCOD8074284
_publ_section_title
;
Structure prediction by ZEFSAII (Michael W. Deem and Ramdas Pophale) SiO2 
 PCOD8074284
Probable space group: P 21/M
;
_chemical_formula_sum "Si O2"
_cell_formula_units_Z 28
_cell_length_a 24.412331
_cell_length_b 9.108729
_cell_length_c 21.977470
_cell_angle_alpha 90.000000
_cell_angle_beta 162.429359
_cell_angle_gamma 90.000000
_cell_volume 1475.302638
_symmetry_space_group_name_H-M "P 21/M"
_symmetry_group_IT_number 11
_symmetry_cell_setting 'monoclinic'
loop_
_space_group_symop_operation_xyz
x,y,z
-x,1/2+y,-z
-x,-y,-z
x,1/2-y,z
loop_
_atom_site_type_symbol
_atom_site_label
_atom_site_fract_x
_atom_site_fract_y
_atom_site_fract_z
Si Si1 0.580159 0.919851 0.642701
Si Si2 0.983086 0.580381 0.045479
Si Si3 0.774228 0.576771 0.133031
Si Si4 0.161435 0.421858 0.535569
Si Si5 0.669716 0.077348 0.512031
Si Si6 0.563017 0.923989 0.277237
Si Si7 0.815604 0.582395 0.308194
O O1 0.542093 0.750000 0.590758
O O2 0.484262 0.970270 0.603061
O O3 0.500000 0.000000 0.500000
O O4 0.791981 0.955755 0.874694
O O5 0.005254 0.750000 0.053213
O O6 0.136881 0.531190 0.255401
O O7 0.000000 0.500000 0.000000
O O8 0.777126 0.750000 0.121923
O O9 0.704378 0.542573 0.128878
O O10 0.975199 0.513281 0.333781
O O11 0.632521 0.498576 0.938629
O O12 0.113239 0.250000 0.477740
O O13 0.298364 0.474544 0.628578
O O14 0.267817 0.451643 0.713181
O O15 0.659647 0.250000 0.485292
O O16 0.646075 0.979696 0.427800
O O17 0.537466 0.750000 0.251143
O O18 0.870204 0.750000 0.361615
O O19 0.000000 0.500000 0.500000
#
# Coordination Sequence:
#
# PCOD8074284 Si02
#       7
#     4   4   4   4   4   4   4
#     4  10  20  35  58  86 113 142 176 218 270 324
#     4  10  20  35  58  85 111 139 174 218 270 323
#     4  10  20  35  58  85 113 148 191 238 290 345
#     4   9  19  37  58  81 114 151 191 239 289 339
#     4  10  22  39  55  79 115 149 187 232 275 327
#     4  11  24  39  56  81 114 154 195 237 284 338
#     4   8  15  30  53  81 110 143 185 235 288 340
#
# _framework density 18.979157000000001
#
# number of rings (size 3 to 8) (size 9 to 14) (size 15 to 20)
#    0.000    2.286    1.429    0.857    0.000    4.571 
#    0.000    1.429    0.000    0.000    0.000    0.000 
#    0.000    0.000    0.000    0.000    0.000    0.000 
#
# Total GULP energy -347022.915146 kJ/mol
# GULP energy per Si atom -12393.675541 kJ/mol
# Density = 1.893596 g / cm^3
# Si number density = 18.979157 Si / 1000 Ang^3
#
#
#
# Elastic Constant Matrix: (Units=GPa)
#
#
# Indices 1 2 3 4 5 6 
#
# 1 101.4404 29.8675 31.2044 0.0000 -0.7890 0.0000
# 2 29.8675 52.3984 31.0401 0.0000 -2.7503 0.0000
# 3 31.2044 31.0401 99.0725 0.0000 -2.2142 0.0000
# 4 0.0000 0.0000 0.0000 25.8540 0.0000 -5.1705
# 5 -0.7890 -2.7503 -2.2142 0.0000 31.7861 0.0000
# 6 0.0000 0.0000 0.0000 -5.1705 0.0000 30.6910
#
#
#
# Elastic Compliance Matrix: (Units=1/GPa)
#
#
# Indices 1 2 3 4 5 6 
#
# 1 0.012176 -0.005749 -0.002041 0.000000 -0.000337 0.000000
# 2 -0.005749 0.026222 -0.006367 0.000000 0.001683 0.000000
# 3 -0.002041 -0.006367 0.012738 0.000000 0.000286 0.000000
# 4 0.000000 0.000000 0.000000 0.040027 0.000000 0.006743
# 5 -0.000337 0.001683 0.000286 0.000000 0.031617 0.000000
# 6 0.000000 0.000000 0.000000 0.006743 0.000000 0.033719
#
#
# Mechanical properties :
#
#
# Convention : Reuss Voigt Hill
#
# Bulk Modulus (GPa) = 43.81989 48.57061 46.19525
# Shear Modulus (GPa) = 25.98475 28.38618 27.18547
#
# Velocity S-wave (km/s) = 3.70418 3.87156 3.78879
# Velocity P-wave (km/s) = 6.43686 6.75518 6.59794
#
# Compressibility (1/GPa) = 0.02282069
#
# Stress axis : x y z
#
# Youngs Moduli (GPa) = 82.12875 38.13658 78.50630
#
# Poissons Ratio (x) = 0.21924 0.16026
# Poissons Ratio (y) = 0.47214 0.49986
# Poissons Ratio (z) = 0.16766 0.24282
#
# Static dielectric constant tensor:
#      x y z
#    x 3.825110 0.000000 -0.002440 
#    y 0.000000 3.405600 0.000000 
#    z -0.002440 0.000000 3.607580 
# 
# 
# High freq. dielectric constant tensor:
#      x y z
#    x 1.742360 0.000000 -0.005160 
#    y 0.000000 1.736990 0.000000 
#    z -0.005160 0.000000 1.734830 
# 
# From -- ./inp_files/66696.got.cif
#   From: 2010.06.25/outbox.cif.g09.slc.cpg/sg11_34_cif.got.tgz:66696.got - 2010.06.27 23:14:04.
