data_PCOD8074030
_publ_section_title
;
Structure prediction by ZEFSAII (Michael W. Deem and Ramdas Pophale) SiO2 
 PCOD8074030
Probable space group: P 21/M
;
_chemical_formula_sum "Si O2"
_cell_formula_units_Z 32
_cell_length_a 14.854116
_cell_length_b 9.287060
_cell_length_c 22.415184
_cell_angle_alpha 90.000000
_cell_angle_beta 32.500415
_cell_angle_gamma 90.000000
_cell_volume 1661.455954
_symmetry_space_group_name_H-M "P 21/M"
_symmetry_group_IT_number 11
_symmetry_cell_setting 'monoclinic'
loop_
_space_group_symop_operation_xyz
x,y,z
-x,1/2+y,-z
-x,-y,-z
x,1/2-y,z
loop_
_atom_site_type_symbol
_atom_site_label
_atom_site_fract_x
_atom_site_fract_y
_atom_site_fract_z
Si Si1 0.164396 0.417436 0.257937
Si Si2 0.472309 0.584958 0.138443
Si Si3 0.619965 0.588229 0.473076
Si Si4 0.621744 0.081240 0.294543
Si Si5 0.475248 0.583263 0.273734
Si Si6 0.120809 0.419106 0.763040
Si Si7 0.905121 0.082468 0.501313
Si Si8 0.179973 0.418761 0.114061
O O1 0.207042 0.250000 0.233926
O O2 0.314949 0.491664 0.208190
O O3 0.150469 0.472981 0.198060
O O4 0.990873 0.450470 0.389425
O O5 0.419819 0.750000 0.159181
O O6 0.519574 0.554290 0.180382
O O7 0.629955 0.544701 0.009407
O O8 0.500000 0.500000 0.500000
O O9 0.574183 0.750000 0.482590
O O10 0.565928 0.557810 0.571643
O O11 0.808556 0.556525 0.344734
O O12 0.668775 0.250000 0.263776
O O13 0.607661 0.011425 0.237187
O O14 0.764068 0.998899 0.252582
O O15 0.498678 0.750000 0.278002
O O16 0.286636 0.531508 0.393601
O O17 0.108154 0.250000 0.786287
O O18 0.938772 0.491801 0.864261
O O19 0.915324 0.250000 0.511930
O O20 0.000000 0.000000 0.500000
O O21 0.139982 0.250000 0.128652
#
# Coordination Sequence:
#
# PCOD8074030 Si02
#       8
#     4   4   4   4   4   4   4   4
#     4  10  21  36  57  85 114 144 182 230 281 331
#     4  10  21  39  59  79 109 149 188 229 275 328
#     4   8  16  30  48  73 104 137 172 212 263 319
#     4  10  20  35  56  82 112 147 185 227 275 329
#     4  10  21  36  55  81 113 149 187 225 273 330
#     4  10  20  36  56  81 112 146 185 229 276 327
#     4  10  20  35  55  82 115 148 182 226 278 329
#     4  10  22  38  57  82 111 145 187 232 278 325
#
# _framework density 19.260214000000001
#
# number of rings (size 3 to 8) (size 9 to 14) (size 15 to 20)
#    0.000    2.250    1.250    1.125    1.750    3.000 
#    0.000    0.625    0.000    0.000    0.000    0.000 
#    0.000    0.000    0.000    0.000    0.000    0.000 
#
# Total GULP energy -396622.826791 kJ/mol
# GULP energy per Si atom -12394.463337 kJ/mol
# Density = 1.921638 g / cm^3
# Si number density = 19.260214 Si / 1000 Ang^3
#
#
#
# Elastic Constant Matrix: (Units=GPa)
#
#
# Indices 1 2 3 4 5 6 
#
# 1 78.4826 32.5977 17.6759 0.0000 6.8273 0.0000
# 2 32.5977 58.9344 16.5263 0.0000 -0.9441 0.0000
# 3 17.6759 16.5263 64.8855 0.0000 13.7821 0.0000
# 4 0.0000 0.0000 0.0000 23.0223 0.0000 -3.1082
# 5 6.8273 -0.9441 13.7821 0.0000 24.9516 0.0000
# 6 0.0000 0.0000 0.0000 -3.1082 0.0000 34.4794
#
#
#
# Elastic Compliance Matrix: (Units=1/GPa)
#
#
# Indices 1 2 3 4 5 6 
#
# 1 0.017266 -0.009212 -0.001450 0.000000 -0.004272 0.000000
# 2 -0.009212 0.023494 -0.004757 0.000000 0.006037 0.000000
# 3 -0.001450 -0.004757 0.019228 0.000000 -0.010404 0.000000
# 4 0.000000 0.000000 0.000000 0.043971 0.000000 0.003964
# 5 -0.004272 0.006037 -0.010404 0.000000 0.047222 0.000000
# 6 0.000000 0.000000 0.000000 0.003964 0.000000 0.029360
#
#
# Mechanical properties :
#
#
# Convention : Reuss Voigt Hill
#
# Bulk Modulus (GPa) = 34.30413 37.32249 35.81331
# Shear Modulus (GPa) = 22.61469 25.52418 24.06943
#
# Velocity S-wave (km/s) = 3.43033 3.64432 3.53894
# Velocity P-wave (km/s) = 5.79129 6.09329 5.94421
#
# Compressibility (1/GPa) = 0.02915101
#
# Stress axis : x y z
#
# Youngs Moduli (GPa) = 57.91709 42.56414 52.00717
#
# Poissons Ratio (x) = 0.39210 0.07540
# Poissons Ratio (y) = 0.53354 0.24738
# Poissons Ratio (z) = 0.08397 0.20246
#
# Static dielectric constant tensor:
#      x y z
#    x 3.297120 0.000000 0.161010 
#    y 0.000000 3.464450 0.000000 
#    z 0.161010 0.000000 3.553750 
# 
# 
# High freq. dielectric constant tensor:
#      x y z
#    x 1.739540 0.000000 0.007120 
#    y 0.000000 1.749920 0.000000 
#    z 0.007120 0.000000 1.746820 
# 
# From -- ./inp_files/51742.got.cif
#   From: 2010.06.25/outbox.cif.g09.slc.cpg/sg11_26_cif.got.tgz:51742.got - 2010.06.27 23:14:04.
