data_PCOD8074739
_publ_section_title
;
Structure prediction by ZEFSAII (Michael W. Deem and Ramdas Pophale) SiO2 
 PCOD8074739
Probable space group: P 21/M
;
_chemical_formula_sum "Si O2"
_cell_formula_units_Z 24
_cell_length_a 12.234006
_cell_length_b 8.972215
_cell_length_c 11.524530
_cell_angle_alpha 90.000000
_cell_angle_beta 110.347804
_cell_angle_gamma 90.000000
_cell_volume 1186.065811
_symmetry_space_group_name_H-M "P 21/M"
_symmetry_group_IT_number 11
_symmetry_cell_setting 'monoclinic'
loop_
_space_group_symop_operation_xyz
x,y,z
-x,1/2+y,-z
-x,-y,-z
x,1/2-y,z
loop_
_atom_site_type_symbol
_atom_site_label
_atom_site_fract_x
_atom_site_fract_y
_atom_site_fract_z
Si Si1 0.783695 0.073859 0.118272
Si Si2 0.026800 0.918146 0.207370
Si Si3 0.244051 0.927001 0.150296
Si Si4 0.690179 0.922335 0.305090
Si Si5 0.889436 0.082248 0.509187
Si Si6 0.535171 0.077567 0.631942
O O1 0.776684 0.250000 0.131017
O O2 0.702113 0.997449 0.183699
O O3 0.737031 0.021491 0.975351
O O4 0.917752 0.026041 0.183337
O O5 0.982940 0.750000 0.163399
O O6 0.114736 0.980683 0.141201
O O7 0.105785 0.916670 0.351072
O O8 0.248825 0.750000 0.160574
O O9 0.345787 0.992321 0.270709
O O10 0.724824 0.750000 0.305916
O O11 0.559948 0.944991 0.302505
O O12 0.773746 0.997114 0.429794
O O13 0.885649 0.250000 0.457667
O O14 0.000000 0.000000 0.500000
O O15 0.551211 0.250000 0.607387
O O16 0.500000 0.000000 0.500000
#
# Coordination Sequence:
#
# PCOD8074739 Si02
#       6
#     4   4   4   4   4   4
#     4  11  22  36  58  85 116 154 196 240 289 347
#     4  10  20  36  59  84 116 152 189 239 296 348
#     4   9  20  39  60  84 114 153 195 238 293 348
#     4  11  23  38  58  86 120 155 193 240 292 345
#     4  11  21  34  57  86 117 152 190 236 289 344
#     4  10  22  42  65  87 115 150 193 243 292 348
#
# _framework density 20.234964000000002
#
# number of rings (size 3 to 8) (size 9 to 14) (size 15 to 20)
#    0.000    1.667    1.667    3.000    0.000    4.000 
#    0.000    3.333    0.000    0.000    0.000    0.000 
#    0.000    0.000    0.000    0.000    0.000    0.000 
#
# Total GULP energy -297629.189544 kJ/mol
# GULP energy per Si atom -12401.216231 kJ/mol
# Density = 2.018891 g / cm^3
# Si number density = 20.234964 Si / 1000 Ang^3
#
#
#
# Elastic Constant Matrix: (Units=GPa)
#
#
# Indices 1 2 3 4 5 6 
#
# 1 81.8265 36.5735 35.4935 0.0000 -9.2703 0.0000
# 2 36.5735 93.0250 33.6512 0.0000 -10.2506 0.0000
# 3 35.4935 33.6512 119.2734 0.0000 -11.7465 0.0000
# 4 0.0000 0.0000 0.0000 27.7908 0.0000 -0.6496
# 5 -9.2703 -10.2506 -11.7465 0.0000 33.4037 0.0000
# 6 0.0000 0.0000 0.0000 -0.6496 0.0000 23.9670
#
#
#
# Elastic Compliance Matrix: (Units=1/GPa)
#
#
# Indices 1 2 3 4 5 6 
#
# 1 0.016021 -0.004944 -0.003195 0.000000 0.001806 0.000000
# 2 -0.004944 0.013715 -0.002195 0.000000 0.002065 0.000000
# 3 -0.003195 -0.002195 0.010152 0.000000 0.002010 0.000000
# 4 0.000000 0.000000 0.000000 0.036006 0.000000 0.000976
# 5 0.001806 0.002065 0.002010 0.000000 0.031778 0.000000
# 6 0.000000 0.000000 0.000000 0.000976 0.000000 0.041750
#
#
# Mechanical properties :
#
#
# Convention : Reuss Voigt Hill
#
# Bulk Modulus (GPa) = 52.02772 56.17348 54.10060
# Shear Modulus (GPa) = 28.32896 29.59274 28.96085
#
# Velocity S-wave (km/s) = 3.74572 3.82836 3.78726
# Velocity P-wave (km/s) = 6.66894 6.88205 6.77633
#
# Compressibility (1/GPa) = 0.01922052
#
# Stress axis : x y z
#
# Youngs Moduli (GPa) = 62.41716 72.91202 98.50255
#
# Poissons Ratio (x) = 0.36049 0.31470
# Poissons Ratio (y) = 0.30860 0.21620
# Poissons Ratio (z) = 0.19941 0.16003
#
# Static dielectric constant tensor:
#      x y z
#    x 3.673520 0.000000 -0.143690 
#    y 0.000000 3.354300 0.000000 
#    z -0.143690 0.000000 3.879240 
# 
# 
# High freq. dielectric constant tensor:
#      x y z
#    x 1.794490 0.000000 -0.009080 
#    y 0.000000 1.776520 0.000000 
#    z -0.009080 0.000000 1.801190 
# 
# From -- ./inp_files/33928.got.cif
#   From: 2010.06.25/outbox.cif.g09.slc.cpg/sg11_17_cif.got.tgz:33928.got - 2010.06.27 23:14:04.
