data_PCOD8074982
_publ_section_title
;
Structure prediction by ZEFSAII (Michael W. Deem and Ramdas Pophale) SiO2 
 PCOD8074982
Probable space group: P 21/M
;
_chemical_formula_sum "Si O2"
_cell_formula_units_Z 28
_cell_length_a 9.413533
_cell_length_b 18.892591
_cell_length_c 15.693788
_cell_angle_alpha 90.000000
_cell_angle_beta 31.119448
_cell_angle_gamma 90.000000
_cell_volume 1442.495872
_symmetry_space_group_name_H-M "P 21/M"
_symmetry_group_IT_number 11
_symmetry_cell_setting 'monoclinic'
loop_
_space_group_symop_operation_xyz
x,y,z
-x,1/2+y,-z
-x,-y,-z
x,1/2-y,z
loop_
_atom_site_type_symbol
_atom_site_label
_atom_site_fract_x
_atom_site_fract_y
_atom_site_fract_z
Si Si1 0.520761 0.329520 0.812266
Si Si2 0.455156 0.983620 0.758275
Si Si3 0.738203 0.941578 0.782796
Si Si4 0.834603 0.665716 0.248346
Si Si5 0.968082 0.603944 0.000066
Si Si6 0.691662 0.392461 0.546570
Si Si7 0.250180 0.909697 0.147041
O O1 0.596337 0.250000 0.797136
O O2 0.185289 0.336879 0.978864
O O3 0.658216 0.349983 0.651858
O O4 0.646942 0.379726 0.817284
O O5 0.669728 0.962014 0.720849
O O6 0.226446 0.035578 0.915415
O O7 0.617160 0.023979 0.599692
O O8 0.281783 0.915243 0.811869
O O9 0.998839 0.888560 0.647215
O O10 0.817043 0.008051 0.802291
O O11 0.483797 0.900071 0.955076
O O12 0.869006 0.750000 0.229042
O O13 0.974261 0.629965 0.094327
O O14 0.512909 0.643568 0.416845
O O15 0.980699 0.632872 0.256142
#
# Coordination Sequence:
#
# PCOD8074982 Si02
#       7
#     4   4   4   4   4   4   4
#     4  10  20  37  58  81 109 150 191 224 272 334
#     4   9  16  30  56  83 109 135 182 235 275 318
#     4  11  21  36  57  88 118 138 185 236 288 334
#     4  10  20  37  55  78 112 153 191 220 271 345
#     4   9  16  31  55  83 105 145 184 231 272 320
#     4  10  21  36  61  82 108 150 183 235 281 328
#     4  11  22  35  59  85 115 147 181 233 283 329
#
# _framework density 19.410799999999998
#
# number of rings (size 3 to 8) (size 9 to 14) (size 15 to 20)
#    0.000    2.286    4.286    2.571    0.000    0.571 
#    0.000    2.857    0.000    0.000    0.000    0.000 
#    0.000    0.000    0.000    0.000    0.000    0.000 
#
# Total GULP energy -347020.085759 kJ/mol
# GULP energy per Si atom -12393.574491 kJ/mol
# Density = 1.936662 g / cm^3
# Si number density = 19.410800 Si / 1000 Ang^3
#
#
#
# Elastic Constant Matrix: (Units=GPa)
#
#
# Indices 1 2 3 4 5 6 
#
# 1 84.6179 15.2063 18.2848 0.0000 -22.9708 0.0000
# 2 15.2063 66.4687 24.2906 0.0000 -10.2534 0.0000
# 3 18.2848 24.2906 68.4621 0.0000 -14.8856 0.0000
# 4 0.0000 0.0000 0.0000 13.8838 0.0000 -5.9020
# 5 -22.9708 -10.2534 -14.8856 0.0000 20.0184 0.0000
# 6 0.0000 0.0000 0.0000 -5.9020 0.0000 20.4832
#
#
#
# Elastic Compliance Matrix: (Units=1/GPa)
#
#
# Indices 1 2 3 4 5 6 
#
# 1 0.017222 -0.000944 -0.000087 0.000000 0.019214 0.000000
# 2 -0.000944 0.017789 -0.005146 0.000000 0.004202 0.000000
# 3 -0.000087 -0.005146 0.018920 0.000000 0.011333 0.000000
# 4 0.000000 0.000000 0.000000 0.082080 0.000000 0.023651
# 5 0.019214 0.004202 0.011333 0.000000 0.082581 0.000000
# 6 0.000000 0.000000 0.000000 0.023651 0.000000 0.055635
#
#
# Mechanical properties :
#
#
# Convention : Reuss Voigt Hill
#
# Bulk Modulus (GPa) = 24.05187 37.23468 30.64327
# Shear Modulus (GPa) = 16.64218 21.66155 19.15187
#
# Velocity S-wave (km/s) = 2.93126 3.34421 3.14452
# Velocity P-wave (km/s) = 4.88613 5.84258 5.38563
#
# Compressibility (1/GPa) = 0.04157681
#
# Stress axis : x y z
#
# Youngs Moduli (GPa) = 58.06445 56.21320 52.85469
#
# Poissons Ratio (x) = 0.05308 0.00460
# Poissons Ratio (y) = 0.05483 0.27199
# Poissons Ratio (z) = 0.00505 0.28927
#
# Static dielectric constant tensor:
#      x y z
#    x 3.492680 0.000000 -0.315060 
#    y 0.000000 3.555460 0.000000 
#    z -0.315060 0.000000 3.427120 
# 
# 
# High freq. dielectric constant tensor:
#      x y z
#    x 1.754350 0.000000 -0.028910 
#    y 0.000000 1.740180 0.000000 
#    z -0.028910 0.000000 1.727750 
# 
# From -- ./inp_files/58384.got.cif
#   From: 2010.06.25/outbox.cif.g09.slc.cpg/sg11_30_cif.got.tgz:58384.got - 2010.06.27 23:14:04.
