data_PCOD8074373
_publ_section_title
;
Structure prediction by ZEFSAII (Michael W. Deem and Ramdas Pophale) SiO2 
 PCOD8074373
Probable space group: P 21/M
;
_chemical_formula_sum "Si O2"
_cell_formula_units_Z 28
_cell_length_a 25.067681
_cell_length_b 8.925205
_cell_length_c 9.397612
_cell_angle_alpha 90.000000
_cell_angle_beta 139.191460
_cell_angle_gamma 90.000000
_cell_volume 1374.097901
_symmetry_space_group_name_H-M "P 21/M"
_symmetry_group_IT_number 11
_symmetry_cell_setting 'monoclinic'
loop_
_space_group_symop_operation_xyz
x,y,z
-x,1/2+y,-z
-x,-y,-z
x,1/2-y,z
loop_
_atom_site_type_symbol
_atom_site_label
_atom_site_fract_x
_atom_site_fract_y
_atom_site_fract_z
Si Si1 0.827957 0.582858 0.432947
Si Si2 0.914523 0.426355 0.369805
Si Si3 0.076834 0.084015 0.098168
Si Si4 0.350815 0.427280 0.540203
Si Si5 0.184289 0.070955 0.064585
Si Si6 0.646349 0.926916 0.129254
Si Si7 0.504494 0.072046 0.664251
O O1 0.840786 0.750000 0.394867
O O2 0.889542 0.467774 0.480347
O O3 0.848923 0.582891 0.641529
O O4 0.733568 0.536204 0.234280
O O5 0.923126 0.250000 0.368387
O O6 0.000000 0.500000 0.500000
O O7 0.837467 0.491128 0.126606
O O8 0.046002 0.250000 0.004157
O O9 0.112186 0.015954 0.024315
O O10 0.000000 0.000000 0.000000
O O11 0.344772 0.250000 0.535345
O O12 0.270312 0.489375 0.298036
O O13 0.357984 0.487540 0.716671
O O14 0.427490 0.481618 0.602456
O O15 0.185638 0.250000 0.049040
O O16 0.627459 0.750000 0.085279
O O17 0.583890 0.017420 0.906918
O O18 0.506155 0.250000 0.650711
O O19 0.500000 0.000000 0.500000
#
# Coordination Sequence:
#
# PCOD8074373 Si02
#       7
#     4   4   4   4   4   4   4
#     4  10  21  39  63  89 119 157 200 247 304 364
#     4  12  26  42  59  86 122 163 207 253 303 359
#     4  10  20  35  59  88 117 150 194 246 295 355
#     4   9  19  39  66  91 119 159 204 245 300 365
#     4  10  20  39  64  89 117 157 204 249 299 359
#     4  10  20  40  67  92 120 159 202 247 302 365
#     4  11  24  40  61  93 128 163 202 248 299 357
#
# _framework density 20.377003999999999
#
# number of rings (size 3 to 8) (size 9 to 14) (size 15 to 20)
#    0.000    1.714    1.429    3.000    2.000    4.000 
#    0.000    2.143    0.000    0.000    0.000    0.000 
#    0.000    0.000    0.000    0.000    0.000    0.000 
#
# Total GULP energy -347200.806375 kJ/mol
# GULP energy per Si atom -12400.028799 kJ/mol
# Density = 2.033063 g / cm^3
# Si number density = 20.377004 Si / 1000 Ang^3
#
#
#
# Elastic Constant Matrix: (Units=GPa)
#
#
# Indices 1 2 3 4 5 6 
#
# 1 108.9947 39.8631 24.9190 0.0000 5.5365 0.0000
# 2 39.8631 72.9205 29.5001 0.0000 6.1736 0.0000
# 3 24.9190 29.5001 98.7720 0.0000 4.9508 0.0000
# 4 0.0000 0.0000 0.0000 31.8357 0.0000 0.4794
# 5 5.5365 6.1736 4.9508 0.0000 37.6714 0.0000
# 6 0.0000 0.0000 0.0000 0.4794 0.0000 31.5236
#
#
#
# Elastic Compliance Matrix: (Units=1/GPa)
#
#
# Indices 1 2 3 4 5 6 
#
# 1 0.011599 -0.005822 -0.001158 0.000000 -0.000598 0.000000
# 2 -0.005822 0.018665 -0.004022 0.000000 -0.001675 0.000000
# 3 -0.001158 -0.004022 0.011653 0.000000 -0.000702 0.000000
# 4 0.000000 0.000000 0.000000 0.031418 0.000000 -0.000478
# 5 -0.000598 -0.001675 -0.000702 0.000000 0.027000 0.000000
# 6 0.000000 0.000000 0.000000 -0.000478 0.000000 0.031730
#
#
# Mechanical properties :
#
#
# Convention : Reuss Voigt Hill
#
# Bulk Modulus (GPa) = 50.21525 52.13907 51.17716
# Shear Modulus (GPa) = 31.11281 32.63314 31.87298
#
# Velocity S-wave (km/s) = 3.91174 4.00618 3.95924
# Velocity P-wave (km/s) = 6.71557 6.85872 6.78752
#
# Compressibility (1/GPa) = 0.01991427
#
# Stress axis : x y z
#
# Youngs Moduli (GPa) = 86.21399 53.57617 85.81654
#
# Poissons Ratio (x) = 0.31191 0.09933
# Poissons Ratio (y) = 0.50193 0.34515
# Poissons Ratio (z) = 0.09979 0.21548
#
# Static dielectric constant tensor:
#      x y z
#    x 3.906080 0.000000 -0.000790 
#    y 0.000000 3.429690 0.000000 
#    z -0.000790 0.000000 3.945560 
# 
# 
# High freq. dielectric constant tensor:
#      x y z
#    x 1.809310 0.000000 -0.000400 
#    y 0.000000 1.767730 0.000000 
#    z -0.000400 0.000000 1.811650 
# 
# From -- ./inp_files/28559.got.cif
#   From: 2010.06.25/outbox.cif.g09.slc.cpg/sg11_15_cif.got.tgz:28559.got - 2010.06.27 23:14:04.
