data_PCOD8074096
_publ_section_title
;
Structure prediction by ZEFSAII (Michael W. Deem and Ramdas Pophale) SiO2 
 PCOD8074096
Probable space group: P 21/M
;
_chemical_formula_sum "Si O2"
_cell_formula_units_Z 32
_cell_length_a 26.592799
_cell_length_b 9.233451
_cell_length_c 20.791974
_cell_angle_alpha 90.000000
_cell_angle_beta 19.651969
_cell_angle_gamma 90.000000
_cell_volume 1716.952647
_symmetry_space_group_name_H-M "P 21/M"
_symmetry_group_IT_number 11
_symmetry_cell_setting 'monoclinic'
loop_
_space_group_symop_operation_xyz
x,y,z
-x,1/2+y,-z
-x,-y,-z
x,1/2-y,z
loop_
_atom_site_type_symbol
_atom_site_label
_atom_site_fract_x
_atom_site_fract_y
_atom_site_fract_z
Si Si1 0.526109 0.916332 0.062710
Si Si2 0.997957 0.915568 0.304859
Si Si3 0.152038 0.081731 0.650241
Si Si4 0.286408 0.081093 0.923389
Si Si5 0.644117 0.917316 0.302181
Si Si6 0.458079 0.582843 0.285903
Si Si7 0.045288 0.080886 0.009849
Si Si8 0.722618 0.918792 0.712118
O O1 0.487077 0.750000 0.096564
O O2 0.550744 0.946193 0.108506
O O3 0.385075 0.005413 0.208841
O O4 0.675707 0.959254 0.841979
O O5 0.049108 0.750000 0.248534
O O6 0.898158 0.941597 0.362092
O O7 0.894321 0.963344 0.490495
O O8 0.146209 0.009576 0.127157
O O9 0.147415 0.250000 0.676370
O O10 0.318298 0.022822 0.459482
O O11 0.040812 0.989349 0.827462
O O12 0.252194 0.250000 0.963324
O O13 0.306710 0.020674 0.826667
O O14 0.435104 0.043992 0.783674
O O15 0.600191 0.750000 0.347963
O O16 0.777805 0.939733 0.191819
O O17 0.500000 0.000000 0.500000
O O18 0.404557 0.750000 0.353517
O O19 0.003336 0.250000 0.055364
O O20 0.000000 0.000000 0.000000
O O21 0.704924 0.750000 0.719170
#
# Coordination Sequence:
#
# PCOD8074096 Si02
#       8
#     4   4   4   4   4   4   4   4
#     4   9  17  30  51  79 111 145 184 230 281 331
#     4  10  20  35  56  82 110 147 189 231 279 326
#     4  11  22  37  59  86 114 147 188 234 279 327
#     4  10  22  40  58  79 111 148 187 226 273 333
#     4  10  23  41  60  82 110 147 185 224 273 332
#     4  10  21  36  56  84 114 149 188 233 283 330
#     4  11  24  42  62  88 117 147 185 231 280 331
#     4   9  17  31  51  78 111 145 184 231 280 331
#
# _framework density 18.637672999999999
#
# number of rings (size 3 to 8) (size 9 to 14) (size 15 to 20)
#    0.000    2.000    2.500    0.750    1.750    3.000 
#    0.000    0.625    0.000    0.000    0.000    0.000 
#    0.000    0.000    0.000    0.000    0.000    0.000 
#
# Total GULP energy -396798.815212 kJ/mol
# GULP energy per Si atom -12399.962975 kJ/mol
# Density = 1.859525 g / cm^3
# Si number density = 18.637673 Si / 1000 Ang^3
#
#
#
# Elastic Constant Matrix: (Units=GPa)
#
#
# Indices 1 2 3 4 5 6 
#
# 1 61.0293 29.8682 24.9935 0.0000 -0.6461 0.0000
# 2 29.8682 75.3111 55.1540 0.0000 -2.3011 0.0000
# 3 24.9935 55.1540 127.5175 0.0000 5.6245 0.0000
# 4 0.0000 0.0000 0.0000 37.9004 0.0000 -1.7918
# 5 -0.6461 -2.3011 5.6245 0.0000 24.9273 0.0000
# 6 0.0000 0.0000 0.0000 -1.7918 0.0000 24.0398
#
#
#
# Elastic Compliance Matrix: (Units=1/GPa)
#
#
# Indices 1 2 3 4 5 6 
#
# 1 0.020378 -0.007548 -0.000729 0.000000 -0.000004 0.000000
# 2 -0.007548 0.022579 -0.008454 0.000000 0.003796 0.000000
# 3 -0.000729 -0.008454 0.011794 0.000000 -0.003460 0.000000
# 4 0.000000 0.000000 0.000000 0.026478 0.000000 0.001974
# 5 -0.000004 0.003796 -0.003460 0.000000 0.041248 0.000000
# 6 0.000000 0.000000 0.000000 0.001974 0.000000 0.041745
#
#
# Mechanical properties :
#
#
# Convention : Reuss Voigt Hill
#
# Bulk Modulus (GPa) = 46.97273 53.76549 50.36911
# Shear Modulus (GPa) = 24.41633 27.62963 26.02298
#
# Velocity S-wave (km/s) = 3.62339 3.85445 3.74071
# Velocity P-wave (km/s) = 6.53935 6.97993 6.76323
#
# Compressibility (1/GPa) = 0.02128895
#
# Stress axis : x y z
#
# Youngs Moduli (GPa) = 49.07193 44.28902 84.78785
#
# Poissons Ratio (x) = 0.33429 0.06184
# Poissons Ratio (y) = 0.37039 0.71679
# Poissons Ratio (z) = 0.03579 0.37442
#
# Static dielectric constant tensor:
#      x y z
#    x 3.510470 0.000000 0.304400 
#    y 0.000000 3.453270 0.000000 
#    z 0.304400 0.000000 3.607760 
# 
# 
# High freq. dielectric constant tensor:
#      x y z
#    x 1.714830 0.000000 0.014600 
#    y 0.000000 1.723280 0.000000 
#    z 0.014600 0.000000 1.731360 
# 
# From -- ./inp_files/66981.got.cif
#   From: 2010.06.25/outbox.cif.g09.slc.cpg/sg11_34_cif.got.tgz:66981.got - 2010.06.27 23:14:04.
