data_PCOD8074826
_publ_section_title
;
Structure prediction by ZEFSAII (Michael W. Deem and Ramdas Pophale) SiO2 
 PCOD8074826
Probable space group: P 21/M
;
_chemical_formula_sum "Si O2"
_cell_formula_units_Z 24
_cell_length_a 14.526006
_cell_length_b 8.769761
_cell_length_c 10.292294
_cell_angle_alpha 90.000000
_cell_angle_beta 99.908399
_cell_angle_gamma 90.000000
_cell_volume 1291.574539
_symmetry_space_group_name_H-M "P 21/M"
_symmetry_group_IT_number 11
_symmetry_cell_setting 'monoclinic'
loop_
_space_group_symop_operation_xyz
x,y,z
-x,1/2+y,-z
-x,-y,-z
x,1/2-y,z
loop_
_atom_site_type_symbol
_atom_site_label
_atom_site_fract_x
_atom_site_fract_y
_atom_site_fract_z
Si Si1 0.940020 0.071907 0.098893
Si Si2 0.453576 0.570446 0.614023
Si Si3 0.544229 0.074004 0.884579
Si Si4 0.271453 0.922808 0.938039
Si Si5 0.276703 0.427288 0.674472
Si Si6 0.063322 0.430205 0.626529
O O1 0.961294 0.250000 0.112830
O O2 0.832121 0.036622 0.037952
O O3 0.967965 0.997457 0.242789
O O4 0.000000 0.000000 0.000000
O O5 0.500000 0.500000 0.500000
O O6 0.457024 0.750000 0.604308
O O7 0.512594 0.517460 0.751797
O O8 0.345685 0.517725 0.595677
O O9 0.513219 0.250000 0.864400
O O10 0.656887 0.059308 0.924889
O O11 0.500000 0.000000 0.000000
O O12 0.274169 0.750000 0.883505
O O13 0.302915 0.033847 0.829475
O O14 0.292462 0.250000 0.654392
O O15 0.170154 0.476575 0.620761
O O16 0.050716 0.250000 0.628528
O O17 0.000000 0.500000 0.500000
#
# Coordination Sequence:
#
# PCOD8074826 Si02
#       6
#     4   4   4   4   4   4
#     4  10  20  37  59  85 117 153 189 235 289 340
#     4  12  25  41  59  83 117 156 193 237 292 342
#     4  11  21  36  60  89 116 149 192 236 280 336
#     4   9  19  35  58  85 114 149 191 231 281 341
#     4  10  20  36  60  86 114 148 192 238 285 341
#     4  10  21  38  61  88 115 150 193 237 285 342
#
# _framework density 18.581972
#
# number of rings (size 3 to 8) (size 9 to 14) (size 15 to 20)
#    0.000    1.667    1.667    3.500    0.000    3.333 
#    3.000    0.000    0.000    0.000    0.000    0.000 
#    0.000    0.000    0.000    0.000    0.000    0.000 
#
# Total GULP energy -297660.262582 kJ/mol
# GULP energy per Si atom -12402.510941 kJ/mol
# Density = 1.853968 g / cm^3
# Si number density = 18.581972 Si / 1000 Ang^3
#
#
#
# Elastic Constant Matrix: (Units=GPa)
#
#
# Indices 1 2 3 4 5 6 
#
# 1 122.4823 60.8560 82.4485 0.0000 -12.0272 0.0000
# 2 60.8560 129.6809 65.5303 0.0000 -11.4012 0.0000
# 3 82.4485 65.5303 138.6511 0.0000 -7.7783 0.0000
# 4 0.0000 0.0000 0.0000 37.1227 0.0000 -2.2650
# 5 -12.0272 -11.4012 -7.7783 0.0000 34.8875 0.0000
# 6 0.0000 0.0000 0.0000 -2.2650 0.0000 32.4877
#
#
#
# Elastic Compliance Matrix: (Units=1/GPa)
#
#
# Indices 1 2 3 4 5 6 
#
# 1 0.014783 -0.003084 -0.007194 0.000000 0.002485 0.000000
# 2 -0.003084 0.010955 -0.003243 0.000000 0.001794 0.000000
# 3 -0.007194 -0.003243 0.012987 0.000000 -0.000644 0.000000
# 4 0.000000 0.000000 0.000000 0.027053 0.000000 0.001886
# 5 0.002485 0.001794 -0.000644 0.000000 0.029963 0.000000
# 6 0.000000 0.000000 0.000000 0.001886 0.000000 0.030912
#
#
# Mechanical properties :
#
#
# Convention : Reuss Voigt Hill
#
# Bulk Modulus (GPa) = 85.59277 89.83154 87.71215
# Shear Modulus (GPa) = 31.72810 33.03154 32.37982
#
# Velocity S-wave (km/s) = 4.13663 4.22075 4.17890
# Velocity P-wave (km/s) = 8.30529 8.49713 8.40176
#
# Compressibility (1/GPa) = 0.01168323
#
# Stress axis : x y z
#
# Youngs Moduli (GPa) = 67.64462 91.28309 77.00062
#
# Poissons Ratio (x) = 0.28149 0.55394
# Poissons Ratio (y) = 0.20859 0.24973
# Poissons Ratio (z) = 0.48663 0.29606
#
# Static dielectric constant tensor:
#      x y z
#    x 3.788200 0.000000 0.220150 
#    y 0.000000 3.401560 0.000000 
#    z 0.220150 0.000000 3.384520 
# 
# 
# High freq. dielectric constant tensor:
#      x y z
#    x 1.731810 0.000000 0.007600 
#    y 0.000000 1.738260 0.000000 
#    z 0.007600 0.000000 1.705170 
# 
# From -- ./inp_files/20620.got.cif
#   From: 2010.06.25/outbox.cif.g09.slc.cpg/sg11_11_cif.got.tgz:20620.got - 2010.06.27 23:14:04.
