data_PCOD8074416
_publ_section_title
;
Structure prediction by ZEFSAII (Michael W. Deem and Ramdas Pophale) SiO2 
 PCOD8074416
Probable space group: P 21/M
;
_chemical_formula_sum "Si O2"
_cell_formula_units_Z 32
_cell_length_a 11.974389
_cell_length_b 8.776415
_cell_length_c 31.140730
_cell_angle_alpha 90.000000
_cell_angle_beta 149.791264
_cell_angle_gamma 90.000000
_cell_volume 1646.638491
_symmetry_space_group_name_H-M "P 21/M"
_symmetry_group_IT_number 11
_symmetry_cell_setting 'monoclinic'
loop_
_space_group_symop_operation_xyz
x,y,z
-x,1/2+y,-z
-x,-y,-z
x,1/2-y,z
loop_
_atom_site_type_symbol
_atom_site_label
_atom_site_fract_x
_atom_site_fract_y
_atom_site_fract_z
Si Si1 0.456043 0.430912 0.031430
Si Si2 0.327007 0.929899 0.759150
Si Si3 0.041989 0.570955 0.129470
Si Si4 0.206667 0.569381 0.093448
Si Si5 0.838101 0.930601 0.214374
Si Si6 0.121776 0.571525 0.600760
Si Si7 0.687239 0.071485 0.426305
Si Si8 0.776103 0.430528 0.720848
O O1 0.485859 0.250000 0.040141
O O2 0.619563 0.502753 0.120018
O O3 0.500000 0.500000 0.000000
O O4 0.209088 0.482089 0.962791
O O5 0.336885 0.750000 0.768346
O O6 0.253283 0.977441 0.686944
O O7 0.567643 0.998869 0.849682
O O8 0.149960 0.000718 0.733698
O O9 0.041908 0.750000 0.136051
O O10 0.190110 0.522327 0.138112
O O11 0.139977 0.498520 0.205836
O O12 0.206826 0.750000 0.087287
O O13 0.000000 0.500000 0.000000
O O14 0.820140 0.750000 0.210068
O O15 0.055749 0.983285 0.260616
O O16 0.069179 0.750000 0.582256
O O17 0.269239 0.522846 0.608708
O O18 0.889218 0.483306 0.523116
O O19 0.660267 0.250000 0.422073
O O20 0.465531 0.993953 0.370244
O O21 0.763556 0.250000 0.718927
#
# Coordination Sequence:
#
# PCOD8074416 Si02
#       8
#     4   4   4   4   4   4   4   4
#     4  11  20  35  56  81 114 152 195 240 287 337
#     4  11  23  40  60  83 116 154 194 237 286 346
#     4   9  19  35  55  79 109 147 189 233 283 338
#     4  11  22  37  58  83 115 153 193 237 286 340
#     4  11  23  39  58  82 113 153 199 241 287 343
#     4   9  20  39  61  86 117 152 184 225 285 346
#     4  10  20  35  60  92 118 141 182 235 284 341
#     4  10  20  37  57  80 113 148 185 233 289 342
#
# _framework density 19.433530999999999
#
# number of rings (size 3 to 8) (size 9 to 14) (size 15 to 20)
#    0.000    1.750    1.250    3.375    0.000    3.500 
#    0.000    3.125    0.000    0.000    0.000    0.000 
#    0.000    0.000    0.000    0.000    0.000    0.000 
#
# Total GULP energy -396895.344918 kJ/mol
# GULP energy per Si atom -12402.979529 kJ/mol
# Density = 1.938930 g / cm^3
# Si number density = 19.433531 Si / 1000 Ang^3
#
#
#
# Elastic Constant Matrix: (Units=GPa)
#
#
# Indices 1 2 3 4 5 6 
#
# 1 113.2583 43.6059 52.2588 0.0000 12.7187 0.0000
# 2 43.6059 59.3938 32.4410 0.0000 0.6796 0.0000
# 3 52.2588 32.4410 102.9675 0.0000 11.3252 0.0000
# 4 0.0000 0.0000 0.0000 32.0964 0.0000 -0.0072
# 5 12.7187 0.6796 11.3252 0.0000 33.0680 0.0000
# 6 0.0000 0.0000 0.0000 -0.0072 0.0000 30.2533
#
#
#
# Elastic Compliance Matrix: (Units=1/GPa)
#
#
# Indices 1 2 3 4 5 6 
#
# 1 0.014402 -0.008178 -0.004304 0.000000 -0.003897 0.000000
# 2 -0.008178 0.025089 -0.004202 0.000000 0.004069 0.000000
# 3 -0.004304 -0.004202 0.013538 0.000000 -0.002895 0.000000
# 4 0.000000 0.000000 0.000000 0.031156 0.000000 0.000007
# 5 -0.003897 0.004069 -0.002895 0.000000 0.032647 0.000000
# 6 0.000000 0.000000 0.000000 0.000007 0.000000 0.033054
#
#
# Mechanical properties :
#
#
# Convention : Reuss Voigt Hill
#
# Bulk Modulus (GPa) = 50.85941 59.13679 54.99810
# Shear Modulus (GPa) = 26.34242 28.90448 27.62345
#
# Velocity S-wave (km/s) = 3.68572 3.86080 3.77428
# Velocity P-wave (km/s) = 6.65887 7.09723 6.88154
#
# Compressibility (1/GPa) = 0.01966204
#
# Stress axis : x y z
#
# Youngs Moduli (GPa) = 69.43716 39.85777 73.86409
#
# Poissons Ratio (x) = 0.32595 0.31791
# Poissons Ratio (y) = 0.56785 0.31035
# Poissons Ratio (z) = 0.29886 0.16747
#
# Static dielectric constant tensor:
#      x y z
#    x 3.971020 0.000000 -0.219630 
#    y 0.000000 3.449760 0.000000 
#    z -0.219630 0.000000 3.621940 
# 
# 
# High freq. dielectric constant tensor:
#      x y z
#    x 1.764300 0.000000 0.002520 
#    y 0.000000 1.751250 0.000000 
#    z 0.002520 0.000000 1.753020 
# 
# From -- ./inp_files/45294.got.cif
#   From: 2010.06.25/outbox.cif.g09.slc.cpg/sg11_23_cif.got.tgz:45294.got - 2010.06.27 23:14:04.
