data_PCOD8074152
_publ_section_title
;
Structure prediction by ZEFSAII (Michael W. Deem and Ramdas Pophale) SiO2 
 PCOD8074152
Probable space group: P 21/M
;
_chemical_formula_sum "Si O2"
_cell_formula_units_Z 32
_cell_length_a 19.893955
_cell_length_b 13.658773
_cell_length_c 13.441111
_cell_angle_alpha 90.000000
_cell_angle_beta 154.311050
_cell_angle_gamma 90.000000
_cell_volume 1583.223971
_symmetry_space_group_name_H-M "P 21/M"
_symmetry_group_IT_number 11
_symmetry_cell_setting 'monoclinic'
loop_
_space_group_symop_operation_xyz
x,y,z
-x,1/2+y,-z
-x,-y,-z
x,1/2-y,z
loop_
_atom_site_type_symbol
_atom_site_label
_atom_site_fract_x
_atom_site_fract_y
_atom_site_fract_z
Si Si1 0.203827 0.137586 0.146829
Si Si2 0.170629 0.138473 0.514382
Si Si3 0.504063 0.138070 0.876039
Si Si4 0.888333 0.633317 0.343245
Si Si5 0.640182 0.638703 0.854364
Si Si6 0.177951 0.865621 0.605547
Si Si7 0.893134 0.036142 0.694899
Si Si8 0.615451 0.986719 0.458976
O O1 0.182724 0.250000 0.153638
O O2 0.247639 0.132462 0.090301
O O3 0.334974 0.086777 0.387790
O O4 0.045299 0.077941 0.950519
O O5 0.114859 0.250000 0.426661
O O6 0.355731 0.128304 0.749991
O O7 0.127622 0.094407 0.565073
O O8 0.083034 0.075398 0.312851
O O9 0.529154 0.250000 0.876551
O O10 0.485193 0.075174 0.752297
O O11 0.653945 0.098211 0.134258
O O12 0.892675 0.750000 0.351418
O O13 0.046225 0.591422 0.504430
O O14 0.739285 0.600203 0.080522
O O15 0.583100 0.750000 0.794503
O O16 0.490657 0.571901 0.637135
O O17 0.164795 0.750000 0.587611
O O18 0.157074 0.898576 0.465005
O O19 0.761129 0.038926 0.602088
#
# Coordination Sequence:
#
# PCOD8074152 Si02
#       8
#     4   4   4   4   4   4   4   4
#     4  11  23  45  66  83 113 156 199 245 292 347
#     4   9  20  36  55  83 124 161 193 234 290 349
#     4   9  20  37  57  85 120 159 196 238 291 349
#     4   9  18  35  56  83 118 160 196 231 285 346
#     4  10  22  39  61  88 119 153 198 242 289 346
#     4  10  20  35  56  85 120 152 196 244 289 347
#     4  11  23  37  61  90 118 150 200 238 298 345
#     4  11  24  39  61  88 120 151 200 241 296 345
#
# _framework density 20.211922000000001
#
# number of rings (size 3 to 8) (size 9 to 14) (size 15 to 20)
#    0.000    2.000    1.250    1.500    3.500    4.000 
#    0.000    0.625    0.000    0.750    0.000    0.000 
#    0.000    0.000    0.000    0.000    0.000    0.000 
#
# Total GULP energy -396895.083332 kJ/mol
# GULP energy per Si atom -12402.971354 kJ/mol
# Density = 2.016592 g / cm^3
# Si number density = 20.211922 Si / 1000 Ang^3
#
#
#
# Elastic Constant Matrix: (Units=GPa)
#
#
# Indices 1 2 3 4 5 6 
#
# 1 54.9975 22.9113 6.4798 0.0000 10.9261 0.0000
# 2 22.9113 75.6650 49.2864 0.0000 18.8543 0.0000
# 3 6.4798 49.2864 78.3066 0.0000 6.8252 0.0000
# 4 0.0000 0.0000 0.0000 37.8480 0.0000 -2.7292
# 5 10.9261 18.8543 6.8252 0.0000 21.8762 0.0000
# 6 0.0000 0.0000 0.0000 -2.7292 0.0000 26.0690
#
#
#
# Elastic Compliance Matrix: (Units=1/GPa)
#
#
# Indices 1 2 3 4 5 6 
#
# 1 0.022007 -0.007452 0.003359 0.000000 -0.005617 0.000000
# 2 -0.007452 0.031355 -0.017565 0.000000 -0.017821 0.000000
# 3 0.003359 -0.017565 0.023000 0.000000 0.006285 0.000000
# 4 0.000000 0.000000 0.000000 0.026622 0.000000 0.002787
# 5 -0.005617 -0.017821 0.006285 0.000000 0.061916 0.000000
# 6 0.000000 0.000000 0.000000 0.002787 0.000000 0.038652
#
#
# Mechanical properties :
#
#
# Convention : Reuss Voigt Hill
#
# Bulk Modulus (GPa) = 30.26101 40.70267 35.48184
# Shear Modulus (GPa) = 19.38867 25.84476 22.61671
#
# Velocity S-wave (km/s) = 3.10057 3.57976 3.34874
# Velocity P-wave (km/s) = 5.27469 6.10474 5.70483
#
# Compressibility (1/GPa) = 0.03304582
#
# Stress axis : x y z
#
# Youngs Moduli (GPa) = 45.43974 31.89323 43.47851
#
# Poissons Ratio (x) = 0.23767 -0.14604
# Poissons Ratio (y) = 0.33862 0.76369
# Poissons Ratio (z) = -0.15262 0.56020
#
# Static dielectric constant tensor:
#      x y z
#    x 3.677600 0.000000 0.050260 
#    y 0.000000 3.774060 0.000000 
#    z 0.050260 0.000000 3.609030 
# 
# 
# High freq. dielectric constant tensor:
#      x y z
#    x 1.790330 0.000000 0.001480 
#    y 0.000000 1.800050 0.000000 
#    z 0.001480 0.000000 1.779610 
# 
# From -- ./inp_files/18077.got.cif
#   From: 2010.06.25/outbox.cif.g09.slc.cpg/sg11_10_cif.got.tgz:18077.got - 2010.06.27 23:14:04.
