data_PCOD8074779
_publ_section_title
;
Structure prediction by ZEFSAII (Michael W. Deem and Ramdas Pophale) SiO2 
 PCOD8074779
Probable space group: P 21/M
;
_chemical_formula_sum "Si O2"
_cell_formula_units_Z 28
_cell_length_a 27.244757
_cell_length_b 8.667955
_cell_length_c 9.764419
_cell_angle_alpha 90.000000
_cell_angle_beta 38.247278
_cell_angle_gamma 90.000000
_cell_volume 1427.500865
_symmetry_space_group_name_H-M "P 21/M"
_symmetry_group_IT_number 11
_symmetry_cell_setting 'monoclinic'
loop_
_space_group_symop_operation_xyz
x,y,z
-x,1/2+y,-z
-x,-y,-z
x,1/2-y,z
loop_
_atom_site_type_symbol
_atom_site_label
_atom_site_fract_x
_atom_site_fract_y
_atom_site_fract_z
Si Si1 0.975999 0.068383 0.908500
Si Si2 0.483154 0.931353 0.183426
Si Si3 0.275567 0.067172 0.983207
Si Si4 0.563811 0.432068 0.258306
Si Si5 0.854831 0.930915 0.522188
Si Si6 0.302445 0.931046 0.637981
Si Si7 0.817962 0.567470 0.298514
O O1 0.960434 0.250000 0.952364
O O2 0.052728 0.030718 0.644707
O O3 0.894961 0.984501 0.039323
O O4 0.000000 0.000000 0.000000
O O5 0.497066 0.750000 0.150841
O O6 0.394903 0.973589 0.426018
O O7 0.546901 0.008658 0.143363
O O8 0.500000 0.000000 0.000000
O O9 0.286188 0.250000 0.968443
O O10 0.349987 0.984761 0.886929
O O11 0.264314 0.017198 0.851210
O O12 0.199462 0.006670 0.235665
O O13 0.500000 0.500000 0.500000
O O14 0.558471 0.250000 0.276385
O O15 0.843948 0.750000 0.532539
O O16 0.827515 0.996577 0.433212
O O17 0.289728 0.750000 0.683027
O O18 0.260043 0.989844 0.593573
O O19 0.809164 0.750000 0.310371
#
# Coordination Sequence:
#
# PCOD8074779 Si02
#       7
#     4   4   4   4   4   4   4
#     4   9  16  32  56  84 117 151 189 237 287 344
#     4  11  25  43  63  88 120 154 196 246 297 351
#     4  11  22  39  62  87 116 155 196 241 292 349
#     4  12  24  41  63  88 117 156 200 242 293 350
#     4   8  18  35  58  88 116 146 190 238 286 341
#     4  11  24  41  58  84 119 155 193 240 293 349
#     4  10  20  36  59  87 117 153 193 240 293 347
#
# _framework density 19.614699000000002
#
# number of rings (size 3 to 8) (size 9 to 14) (size 15 to 20)
#    0.000    1.714    1.429    4.286    2.000    1.714 
#    0.000    8.571    0.000    0.000    0.000    0.000 
#    0.000    0.000    0.000    0.000    0.000    0.000 
#
# Total GULP energy -347163.645324 kJ/mol
# GULP energy per Si atom -12398.701619 kJ/mol
# Density = 1.957006 g / cm^3
# Si number density = 19.614699 Si / 1000 Ang^3
#
#
#
# Elastic Constant Matrix: (Units=GPa)
#
#
# Indices 1 2 3 4 5 6 
#
# 1 52.7515 22.4989 7.4732 0.0000 9.2816 0.0000
# 2 22.4989 79.2841 36.9607 0.0000 -0.5539 0.0000
# 3 7.4732 36.9607 110.7872 0.0000 9.4492 0.0000
# 4 0.0000 0.0000 0.0000 28.1203 0.0000 -2.2112
# 5 9.2816 -0.5539 9.4492 0.0000 30.4647 0.0000
# 6 0.0000 0.0000 0.0000 -2.2112 0.0000 36.4911
#
#
#
# Elastic Compliance Matrix: (Units=1/GPa)
#
#
# Indices 1 2 3 4 5 6 
#
# 1 0.023234 -0.007368 0.001547 0.000000 -0.007692 0.000000
# 2 -0.007368 0.017376 -0.005668 0.000000 0.004319 0.000000
# 3 0.001547 -0.005668 0.011157 0.000000 -0.004035 0.000000
# 4 0.000000 0.000000 0.000000 0.035732 0.000000 0.002165
# 5 -0.007692 0.004319 -0.004035 0.000000 0.036499 0.000000
# 6 0.000000 0.000000 0.000000 0.002165 0.000000 0.027535
#
#
# Mechanical properties :
#
#
# Convention : Reuss Voigt Hill
#
# Bulk Modulus (GPa) = 34.73644 41.85428 38.29536
# Shear Modulus (GPa) = 27.15799 30.74122 28.94960
#
# Velocity S-wave (km/s) = 3.72502 3.96315 3.84593
# Velocity P-wave (km/s) = 6.02071 6.50589 6.26800
#
# Compressibility (1/GPa) = 0.02878822
#
# Stress axis : x y z
#
# Youngs Moduli (GPa) = 43.04106 57.54921 89.62814
#
# Poissons Ratio (x) = 0.42403 -0.13865
# Poissons Ratio (y) = 0.31713 0.50805
# Poissons Ratio (z) = -0.06658 0.32622
#
# Static dielectric constant tensor:
#      x y z
#    x 3.716210 0.000000 -0.237380 
#    y 0.000000 3.398690 0.000000 
#    z -0.237380 0.000000 4.077740 
# 
# 
# High freq. dielectric constant tensor:
#      x y z
#    x 1.758470 0.000000 -0.012380 
#    y 0.000000 1.766770 0.000000 
#    z -0.012380 0.000000 1.769260 
# 
# From -- ./inp_files/28396.got.cif
#   From: 2010.06.25/outbox.cif.g09.slc.cpg/sg11_15_cif.got.tgz:28396.got - 2010.06.27 23:14:04.
