data_PCOD8074287
_publ_section_title
;
Structure prediction by ZEFSAII (Michael W. Deem and Ramdas Pophale) SiO2 
 PCOD8074287
Probable space group: P 21/M
;
_chemical_formula_sum "Si O2"
_cell_formula_units_Z 32
_cell_length_a 27.984558
_cell_length_b 8.721106
_cell_length_c 21.615241
_cell_angle_alpha 90.000000
_cell_angle_beta 161.227308
_cell_angle_gamma 90.000000
_cell_volume 1697.679363
_symmetry_space_group_name_H-M "P 21/M"
_symmetry_group_IT_number 11
_symmetry_cell_setting 'monoclinic'
loop_
_space_group_symop_operation_xyz
x,y,z
-x,1/2+y,-z
-x,-y,-z
x,1/2-y,z
loop_
_atom_site_type_symbol
_atom_site_label
_atom_site_fract_x
_atom_site_fract_y
_atom_site_fract_z
Si Si1 0.090548 0.925617 0.789194
Si Si2 0.137667 0.930510 0.283908
Si Si3 0.333534 0.569000 0.411830
Si Si4 0.643807 0.073256 0.798425
Si Si5 0.655986 0.429251 0.208755
Si Si6 0.199396 0.431444 0.126431
Si Si7 0.952579 0.069605 0.506391
Si Si8 0.170987 0.570197 0.461080
O O1 0.056203 0.750000 0.731216
O O2 0.256007 0.947421 0.017768
O O3 0.074018 0.023041 0.706341
O O4 0.977566 0.981469 0.703145
O O5 0.139120 0.750000 0.279373
O O6 0.234380 0.998300 0.346515
O O7 0.210689 0.978170 0.439484
O O8 0.969300 0.989998 0.072065
O O9 0.310733 0.750000 0.373207
O O10 0.503129 0.535035 0.636253
O O11 0.291903 0.474970 0.300115
O O12 0.596087 0.250000 0.731338
O O13 0.732802 0.021159 0.847560
O O14 0.640248 0.250000 0.180910
O O15 0.789380 0.490150 0.328065
O O16 0.694904 0.472096 0.327791
O O17 0.500000 0.500000 0.000000
O O18 0.208471 0.250000 0.125548
O O19 0.950997 0.250000 0.497998
O O20 0.000000 0.000000 0.500000
O O21 0.133718 0.750000 0.420305
#
# Coordination Sequence:
#
# PCOD8074287 Si02
#       8
#     4   4   4   4   4   4   4   4
#     4  10  20  35  58  85 113 145 187 234 276 327
#     4   9  19  36  59  83 109 142 186 232 277 333
#     4  11  23  38  55  81 116 149 183 231 284 336
#     4  11  23  39  57  82 114 147 187 233 279 331
#     4   9  19  34  56  83 115 147 182 226 270 324
#     4  11  21  37  62  84 106 143 187 232 282 338
#     4  10  21  38  60  86 116 150 188 231 276 328
#     4   9  17  35  59  82 109 144 189 231 270 324
#
# _framework density 18.849260000000001
#
# number of rings (size 3 to 8) (size 9 to 14) (size 15 to 20)
#    0.000    2.000    1.250    3.375    0.000    4.000 
#    2.250    3.125    0.000    0.000    0.000    0.000 
#    0.000    0.000    0.000    0.000    0.000    0.000 
#
# Total GULP energy -396803.248161 kJ/mol
# GULP energy per Si atom -12400.101505 kJ/mol
# Density = 1.880636 g / cm^3
# Si number density = 18.849260 Si / 1000 Ang^3
#
#
#
# Elastic Constant Matrix: (Units=GPa)
#
#
# Indices 1 2 3 4 5 6 
#
# 1 110.6107 23.7811 44.5711 0.0000 -4.2279 0.0000
# 2 23.7811 40.0715 24.4839 0.0000 -5.1399 0.0000
# 3 44.5711 24.4839 116.1176 0.0000 -4.8572 0.0000
# 4 0.0000 0.0000 0.0000 23.0749 0.0000 -2.4651
# 5 -4.2279 -5.1399 -4.8572 0.0000 27.1419 0.0000
# 6 0.0000 0.0000 0.0000 -2.4651 0.0000 25.3463
#
#
#
# Elastic Compliance Matrix: (Units=1/GPa)
#
#
# Indices 1 2 3 4 5 6 
#
# 1 0.011421 -0.004672 -0.003387 0.000000 0.000288 0.000000
# 2 -0.004672 0.031082 -0.004579 0.000000 0.004339 0.000000
# 3 -0.003387 -0.004579 0.010901 0.000000 0.000556 0.000000
# 4 0.000000 0.000000 0.000000 0.043792 0.000000 0.004259
# 5 0.000288 0.004339 0.000556 0.000000 0.037810 0.000000
# 6 0.000000 0.000000 0.000000 0.004259 0.000000 0.039868
#
#
# Mechanical properties :
#
#
# Convention : Reuss Voigt Hill
#
# Bulk Modulus (GPa) = 35.55069 50.27466 42.91268
# Shear Modulus (GPa) = 23.86356 26.71019 25.28688
#
# Velocity S-wave (km/s) = 3.56198 3.76845 3.66667
# Velocity P-wave (km/s) = 5.98485 6.75757 6.38291
#
# Compressibility (1/GPa) = 0.02812885
#
# Stress axis : x y z
#
# Youngs Moduli (GPa) = 87.55941 32.17267 91.73693
#
# Poissons Ratio (x) = 0.15030 0.31069
# Poissons Ratio (y) = 0.40904 0.42008
# Poissons Ratio (z) = 0.29654 0.14732
#
# Static dielectric constant tensor:
#      x y z
#    x 3.707880 0.000000 -0.025040 
#    y 0.000000 3.383830 0.000000 
#    z -0.025040 0.000000 3.645480 
# 
# 
# High freq. dielectric constant tensor:
#      x y z
#    x 1.734020 0.000000 -0.011090 
#    y 0.000000 1.727670 0.000000 
#    z -0.011090 0.000000 1.733780 
# 
# From -- ./inp_files/67163.got.cif
#   From: 2010.06.25/outbox.cif.g09.slc.cpg/sg11_34_cif.got.tgz:67163.got - 2010.06.27 23:14:04.
