data_PCOD8074362
_publ_section_title
;
Structure prediction by ZEFSAII (Michael W. Deem and Ramdas Pophale) SiO2 
 PCOD8074362
Probable space group: P 21/M
;
_chemical_formula_sum "Si O2"
_cell_formula_units_Z 28
_cell_length_a 11.697000
_cell_length_b 8.967468
_cell_length_c 15.144043
_cell_angle_alpha 90.000000
_cell_angle_beta 64.189455
_cell_angle_gamma 90.000000
_cell_volume 1430.025613
_symmetry_space_group_name_H-M "P 21/M"
_symmetry_group_IT_number 11
_symmetry_cell_setting 'monoclinic'
loop_
_space_group_symop_operation_xyz
x,y,z
-x,1/2+y,-z
-x,-y,-z
x,1/2-y,z
loop_
_atom_site_type_symbol
_atom_site_label
_atom_site_fract_x
_atom_site_fract_y
_atom_site_fract_z
Si Si1 0.868739 0.924755 0.022066
Si Si2 0.186067 0.577554 0.471253
Si Si3 0.026281 0.923035 0.354007
Si Si4 0.438852 0.927201 0.105442
Si Si5 0.181224 0.425023 0.162902
Si Si6 0.472424 0.574702 0.416715
Si Si7 0.380149 0.073012 0.800425
O O1 0.886921 0.750000 0.027146
O O2 0.759986 0.985845 0.125582
O O3 0.828369 0.965377 0.936593
O O4 0.000000 0.000000 0.000000
O O5 0.164132 0.750000 0.503501
O O6 0.135119 0.545483 0.390108
O O7 0.333350 0.532480 0.426935
O O8 0.110555 0.475967 0.565908
O O9 0.017649 0.750000 0.331922
O O10 0.056599 0.017836 0.256049
O O11 0.441123 0.750000 0.094933
O O12 0.517758 0.983522 0.162992
O O13 0.296761 0.984142 0.166380
O O14 0.500000 0.000000 0.000000
O O15 0.200661 0.250000 0.170816
O O16 0.500000 0.500000 0.500000
O O17 0.484395 0.750000 0.425542
O O18 0.576883 0.515967 0.310735
O O19 0.379535 0.250000 0.802650
#
# Coordination Sequence:
#
# PCOD8074362 Si02
#       7
#     4   4   4   4   4   4   4
#     4  10  22  40  58  79 111 151 193 233 281 340
#     4   9  19  37  57  82 116 150 186 237 298 346
#     4  10  20  35  59  87 113 149 192 234 286 350
#     4  11  20  35  60  88 117 149 191 237 289 351
#     4  11  22  37  56  85 121 153 187 235 291 343
#     4  10  21  38  60  82 110 150 194 239 287 339
#     4   9  19  39  61  81 113 153 187 231 292 346
#
# _framework density 19.580067
#
# number of rings (size 3 to 8) (size 9 to 14) (size 15 to 20)
#    0.000    2.000    1.429    2.143    0.000    5.714 
#    0.000    6.429    0.000    0.000    0.000    0.000 
#    0.000    0.000    0.000    0.000    0.000    0.000 
#
# Total GULP energy -347240.412791 kJ/mol
# GULP energy per Si atom -12401.443314 kJ/mol
# Density = 1.953550 g / cm^3
# Si number density = 19.580067 Si / 1000 Ang^3
#
#
#
# Elastic Constant Matrix: (Units=GPa)
#
#
# Indices 1 2 3 4 5 6 
#
# 1 115.7990 37.9512 65.4585 0.0000 -14.8914 0.0000
# 2 37.9512 57.0607 49.8638 0.0000 -1.1646 0.0000
# 3 65.4585 49.8638 173.8106 0.0000 -10.1106 0.0000
# 4 0.0000 0.0000 0.0000 34.0222 0.0000 -2.0475
# 5 -14.8914 -1.1646 -10.1106 0.0000 27.0102 0.0000
# 6 0.0000 0.0000 0.0000 -2.0475 0.0000 33.6872
#
#
#
# Elastic Compliance Matrix: (Units=1/GPa)
#
#
# Indices 1 2 3 4 5 6 
#
# 1 0.012952 -0.006044 -0.002805 0.000000 0.005830 0.000000
# 2 -0.006044 0.026272 -0.005509 0.000000 -0.004262 0.000000
# 3 -0.002805 -0.005509 0.008471 0.000000 0.001387 0.000000
# 4 0.000000 0.000000 0.000000 0.029500 0.000000 0.001793
# 5 0.005830 -0.004262 0.001387 0.000000 0.040573 0.000000
# 6 0.000000 0.000000 0.000000 0.001793 0.000000 0.029794
#
#
# Mechanical properties :
#
#
# Convention : Reuss Voigt Hill
#
# Bulk Modulus (GPa) = 52.68878 72.57969 62.63424
# Shear Modulus (GPa) = 27.38179 31.83706 29.60942
#
# Velocity S-wave (km/s) = 3.74365 4.03674 3.89295
# Velocity P-wave (km/s) = 6.75680 7.67304 7.22945
#
# Compressibility (1/GPa) = 0.01897937
#
# Stress axis : x y z
#
# Youngs Moduli (GPa) = 77.21014 38.06307 118.05502
#
# Poissons Ratio (x) = 0.23007 0.33109
# Poissons Ratio (y) = 0.46669 0.65032
# Poissons Ratio (z) = 0.21654 0.20968
#
# Static dielectric constant tensor:
#      x y z
#    x 3.624160 0.000000 -0.145340 
#    y 0.000000 3.442140 0.000000 
#    z -0.145340 0.000000 3.810130 
# 
# 
# High freq. dielectric constant tensor:
#      x y z
#    x 1.757450 0.000000 -0.009610 
#    y 0.000000 1.747520 0.000000 
#    z -0.009610 0.000000 1.778880 
# 
# From -- ./inp_files/37508.got.cif
#   From: 2010.06.25/outbox.cif.g09.slc.cpg/sg11_19_cif.got.tgz:37508.got - 2010.06.27 23:14:04.
