data_PCOD8074556
_publ_section_title
;
Structure prediction by ZEFSAII (Michael W. Deem and Ramdas Pophale) SiO2 
 PCOD8074556
Probable space group: P 21/M
;
_chemical_formula_sum "Si O2"
_cell_formula_units_Z 32
_cell_length_a 15.124329
_cell_length_b 22.883487
_cell_length_c 9.090766
_cell_angle_alpha 90.000000
_cell_angle_beta 147.112645
_cell_angle_gamma 90.000000
_cell_volume 1708.401476
_symmetry_space_group_name_H-M "P 21/M"
_symmetry_group_IT_number 11
_symmetry_cell_setting 'monoclinic'
loop_
_space_group_symop_operation_xyz
x,y,z
-x,1/2+y,-z
-x,-y,-z
x,1/2-y,z
loop_
_atom_site_type_symbol
_atom_site_label
_atom_site_fract_x
_atom_site_fract_y
_atom_site_fract_z
Si Si1 0.745887 0.362027 0.527186
Si Si2 0.385806 0.683409 0.366415
Si Si3 0.352502 0.543606 0.824100
Si Si4 0.212013 0.599753 0.892946
Si Si5 0.065910 0.083503 0.060685
Si Si6 0.977241 0.987691 0.724810
Si Si7 0.240450 0.316239 0.162651
Si Si8 0.950489 0.314800 0.555119
O O1 0.645683 0.324356 0.503998
O O2 0.631348 0.407809 0.280964
O O3 0.832250 0.319765 0.530763
O O4 0.878242 0.397496 0.806326
O O5 0.342499 0.750000 0.260172
O O6 0.574530 0.670096 0.612357
O O7 0.286499 0.638200 0.127768
O O8 0.358113 0.574105 0.993890
O O9 0.174127 0.513589 0.577110
O O10 0.500000 0.500000 0.000000
O O11 0.091217 0.639482 0.628522
O O12 0.101462 0.547434 0.797514
O O13 0.109127 0.052712 0.273412
O O14 0.183636 0.139145 0.209655
O O15 0.084772 0.039005 0.949785
O O16 0.215241 0.250000 0.185562
O O17 0.134756 0.326495 0.867134
O O18 0.932028 0.250000 0.463417
#
# Coordination Sequence:
#
# PCOD8074556 Si02
#       8
#     4   4   4   4   4   4   4   4
#     4   9  18  36  57  80 106 147 188 221 277 341
#     4  11  22  36  57  88 117 141 187 246 286 329
#     4  10  23  37  55  81 116 150 186 228 283 348
#     4  11  22  37  56  85 113 148 188 234 287 330
#     4   9  18  36  57  80 106 143 188 228 270 332
#     4  10  20  36  57  79 112 146 187 230 279 333
#     4   9  20  36  57  81 111 148 185 228 282 333
#     4   9  18  36  58  77 106 149 189 225 275 340
#
# _framework density 18.730958999999999
#
# number of rings (size 3 to 8) (size 9 to 14) (size 15 to 20)
#    0.000    2.250    1.250    1.875    1.750    2.500 
#    0.000    1.250    0.000    0.000    0.000    0.000 
#    0.000    0.000    0.000    0.000    0.000    0.000 
#
# Total GULP energy -396719.788934 kJ/mol
# GULP energy per Si atom -12397.493404 kJ/mol
# Density = 1.868833 g / cm^3
# Si number density = 18.730959 Si / 1000 Ang^3
#
#
#
# Elastic Constant Matrix: (Units=GPa)
#
#
# Indices 1 2 3 4 5 6 
#
# 1 81.7899 38.1904 30.6096 0.0000 -4.8370 0.0000
# 2 38.1904 84.6444 20.1074 0.0000 -0.3531 0.0000
# 3 30.6096 20.1074 50.2863 0.0000 -2.6923 0.0000
# 4 0.0000 0.0000 0.0000 29.0825 0.0000 0.9646
# 5 -4.8370 -0.3531 -2.6923 0.0000 16.8744 0.0000
# 6 0.0000 0.0000 0.0000 0.9646 0.0000 36.2513
#
#
#
# Elastic Compliance Matrix: (Units=1/GPa)
#
#
# Indices 1 2 3 4 5 6 
#
# 1 0.018637 -0.006350 -0.008600 0.000000 0.003837 0.000000
# 2 -0.006350 0.015223 -0.002322 0.000000 -0.001872 0.000000
# 3 -0.008600 -0.002322 0.026138 0.000000 0.001657 0.000000
# 4 0.000000 0.000000 0.000000 0.034415 0.000000 -0.000916
# 5 0.003837 -0.001872 0.001657 0.000000 0.060586 0.000000
# 6 0.000000 0.000000 0.000000 -0.000916 0.000000 0.027610
#
#
# Mechanical properties :
#
#
# Convention : Reuss Voigt Hill
#
# Bulk Modulus (GPa) = 39.28604 43.83727 41.56165
# Shear Modulus (GPa) = 22.15948 24.96253 23.56100
#
# Velocity S-wave (km/s) = 3.44327 3.65456 3.55049
# Velocity P-wave (km/s) = 6.06857 6.42357 6.24859
#
# Compressibility (1/GPa) = 0.02545434
#
# Stress axis : x y z
#
# Youngs Moduli (GPa) = 53.65745 65.69069 38.25827
#
# Poissons Ratio (x) = 0.41712 0.32902
# Poissons Ratio (y) = 0.34071 0.08884
# Poissons Ratio (z) = 0.46145 0.15254
#
# Static dielectric constant tensor:
#      x y z
#    x 3.281320 0.000000 -0.096600 
#    y 0.000000 3.655210 0.000000 
#    z -0.096600 0.000000 3.316290 
# 
# 
# High freq. dielectric constant tensor:
#      x y z
#    x 1.717010 0.000000 -0.006020 
#    y 0.000000 1.745320 0.000000 
#    z -0.006020 0.000000 1.711280 
# 
# From -- ./inp_files/23343.got.cif
#   From: 2010.06.25/outbox.cif.g09.slc.cpg/sg11_12_cif.got.tgz:23343.got - 2010.06.27 23:14:04.
