data_PCOD8074565
_publ_section_title
;
Structure prediction by ZEFSAII (Michael W. Deem and Ramdas Pophale) SiO2 
 PCOD8074565
Probable space group: P 21/M
;
_chemical_formula_sum "Si O2"
_cell_formula_units_Z 32
_cell_length_a 23.106659
_cell_length_b 8.747404
_cell_length_c 14.402387
_cell_angle_alpha 90.000000
_cell_angle_beta 144.059568
_cell_angle_gamma 90.000000
_cell_volume 1708.627379
_symmetry_space_group_name_H-M "P 21/M"
_symmetry_group_IT_number 11
_symmetry_cell_setting 'monoclinic'
loop_
_space_group_symop_operation_xyz
x,y,z
-x,1/2+y,-z
-x,-y,-z
x,1/2-y,z
loop_
_atom_site_type_symbol
_atom_site_label
_atom_site_fract_x
_atom_site_fract_y
_atom_site_fract_z
Si Si1 0.493843 0.928632 0.092558
Si Si2 0.626793 0.927220 0.754972
Si Si3 0.994308 0.569817 0.389579
Si Si4 0.297408 0.071069 0.858696
Si Si5 0.597514 0.073806 0.526454
Si Si6 0.798311 0.429445 0.098660
Si Si7 0.332937 0.924023 0.581030
Si Si8 0.801407 0.074493 0.433150
O O1 0.472090 0.750000 0.056490
O O2 0.592077 0.956519 0.277488
O O3 0.500000 0.000000 0.000000
O O4 0.404690 0.013160 0.029710
O O5 0.649023 0.750000 0.798574
O O6 0.516160 0.970125 0.645659
O O7 0.637960 0.968692 0.661232
O O8 0.708457 0.018564 0.917814
O O9 0.984426 0.750000 0.388120
O O10 0.903116 0.505793 0.210040
O O11 0.000000 0.500000 0.500000
O O12 0.088127 0.522922 0.447932
O O13 0.288383 0.250000 0.865224
O O14 0.217984 0.980765 0.816459
O O15 0.276366 0.029485 0.724422
O O16 0.601042 0.250000 0.563428
O O17 0.669833 0.043880 0.532820
O O18 0.809384 0.250000 0.105487
O O19 0.370222 0.750000 0.646054
O O20 0.226310 0.947401 0.493141
O O21 0.785216 0.250000 0.382487
#
# Coordination Sequence:
#
# PCOD8074565 Si02
#       8
#     4   4   4   4   4   4   4   4
#     4  12  23  34  49  74 110 150 190 229 273 329
#     4  10  20  36  59  87 117 148 186 232 282 340
#     4  11  22  37  57  82 113 149 193 239 289 343
#     4  12  23  35  53  77 109 148 188 232 280 337
#     4   9  19  36  59  86 116 149 184 227 283 343
#     4  12  24  38  58  83 113 148 189 239 291 343
#     4  10  20  36  57  80 111 150 191 232 280 338
#     4  10  21  36  55  78 109 148 189 232 279 334
#
# _framework density 18.728484000000002
#
# number of rings (size 3 to 8) (size 9 to 14) (size 15 to 20)
#    0.000    1.250    2.500    4.875    0.000    2.500 
#    0.000    0.000    0.000    0.750    0.000    0.000 
#    0.000    0.000    0.000    0.000    0.000    0.000 
#
# Total GULP energy -396780.098062 kJ/mol
# GULP energy per Si atom -12399.378064 kJ/mol
# Density = 1.868586 g / cm^3
# Si number density = 18.728484 Si / 1000 Ang^3
#
#
#
# Elastic Constant Matrix: (Units=GPa)
#
#
# Indices 1 2 3 4 5 6 
#
# 1 132.0872 33.4998 38.9154 0.0000 11.2565 0.0000
# 2 33.4998 85.1169 29.9560 0.0000 7.5263 0.0000
# 3 38.9154 29.9560 68.0420 0.0000 9.6222 0.0000
# 4 0.0000 0.0000 0.0000 31.8914 0.0000 -1.5720
# 5 11.2565 7.5263 9.6222 0.0000 27.1292 0.0000
# 6 0.0000 0.0000 0.0000 -1.5720 0.0000 24.2463
#
#
#
# Elastic Compliance Matrix: (Units=1/GPa)
#
#
# Indices 1 2 3 4 5 6 
#
# 1 0.009512 -0.002079 -0.004262 0.000000 -0.001858 0.000000
# 2 -0.002079 0.014439 -0.004972 0.000000 -0.001379 0.000000
# 3 -0.004262 -0.004972 0.019875 0.000000 -0.003901 0.000000
# 4 0.000000 0.000000 0.000000 0.031457 0.000000 0.002040
# 5 -0.001858 -0.001379 -0.003901 0.000000 0.039398 0.000000
# 6 0.000000 0.000000 0.000000 0.002040 0.000000 0.041376
#
#
# Mechanical properties :
#
#
# Convention : Reuss Voigt Hill
#
# Bulk Modulus (GPa) = 47.17327 54.44318 50.80822
# Shear Modulus (GPa) = 26.91770 28.84503 27.88136
#
# Velocity S-wave (km/s) = 3.79523 3.92876 3.86257
# Velocity P-wave (km/s) = 6.66691 7.05074 6.86151
#
# Compressibility (1/GPa) = 0.02119845
#
# Stress axis : x y z
#
# Youngs Moduli (GPa) = 105.12830 69.25712 50.31368
#
# Poissons Ratio (x) = 0.14402 0.21444
# Poissons Ratio (y) = 0.21861 0.25018
# Poissons Ratio (z) = 0.44806 0.34438
#
# Static dielectric constant tensor:
#      x y z
#    x 3.652990 0.000000 0.201950 
#    y 0.000000 3.475690 0.000000 
#    z 0.201950 0.000000 3.317530 
# 
# 
# High freq. dielectric constant tensor:
#      x y z
#    x 1.729190 0.000000 0.010970 
#    y 0.000000 1.734840 0.000000 
#    z 0.010970 0.000000 1.699220 
# 
# From -- ./inp_files/55712.got.cif
#   From: 2010.06.25/outbox.cif.g09.slc.cpg/sg11_28_cif.got.tgz:55712.got - 2010.06.27 23:14:04.
