data_PCOD8074266
_publ_section_title
;
Structure prediction by ZEFSAII (Michael W. Deem and Ramdas Pophale) SiO2 
 PCOD8074266
Probable space group: P 21/M
;
_chemical_formula_sum "Si O2"
_cell_formula_units_Z 20
_cell_length_a 6.342145
_cell_length_b 13.839955
_cell_length_c 11.402012
_cell_angle_alpha 90.000000
_cell_angle_beta 88.548018
_cell_angle_gamma 90.000000
_cell_volume 1000.490271
_symmetry_space_group_name_H-M "P 21/M"
_symmetry_group_IT_number 11
_symmetry_cell_setting 'monoclinic'
loop_
_space_group_symop_operation_xyz
x,y,z
-x,1/2+y,-z
-x,-y,-z
x,1/2-y,z
loop_
_atom_site_type_symbol
_atom_site_label
_atom_site_fract_x
_atom_site_fract_y
_atom_site_fract_z
Si Si1 0.890335 0.859166 0.453389
Si Si2 0.734669 0.639104 0.704634
Si Si3 0.761987 0.141407 0.728161
Si Si4 0.001204 0.494529 0.138273
Si Si5 0.617585 0.506916 0.298928
O O1 0.805524 0.750000 0.422660
O O2 0.898109 0.870669 0.593787
O O3 0.745707 0.945519 0.404652
O O4 0.129683 0.869990 0.402174
O O5 0.688144 0.750000 0.737490
O O6 0.837489 0.587111 0.815733
O O7 0.515825 0.588889 0.665894
O O8 0.716907 0.250000 0.763965
O O9 0.542323 0.087997 0.742736
O O10 0.928282 0.099753 0.818792
O O11 0.767103 0.474960 0.189679
O O12 0.000000 0.500000 0.000000
#
# Coordination Sequence:
#
# PCOD8074266 Si02
#       5
#     4   4   4   4   4
#     4   9  18  34  56  85 117 142 168 212 271 327
#     4  10  22  37  55  82 112 142 179 221 267 321
#     4   9  19  35  57  84 110 139 177 220 268 324
#     4  10  23  40  54  74 108 146 184 227 271 313
#     4  10  20  35  58  81 107 142 181 220 267 321
#
# _framework density 19.990197999999999
#
# number of rings (size 3 to 8) (size 9 to 14) (size 15 to 20)
#    0.000    2.400    0.000    1.200    0.000   14.400 
#    0.000    6.000    0.000    0.000    0.000    0.000 
#    0.000    0.000    0.000    0.000    0.000    0.000 
#
# Total GULP energy -247918.776659 kJ/mol
# GULP energy per Si atom -12395.938833 kJ/mol
# Density = 1.994470 g / cm^3
# Si number density = 19.990198 Si / 1000 Ang^3
#
#
#
# Elastic Constant Matrix: (Units=GPa)
#
#
# Indices 1 2 3 4 5 6 
#
# 1 68.4848 32.9033 10.2579 0.0000 -6.5689 0.0000
# 2 32.9033 145.0029 26.9322 0.0000 2.5705 0.0000
# 3 10.2579 26.9322 104.0400 0.0000 3.5329 0.0000
# 4 0.0000 0.0000 0.0000 20.1297 0.0000 0.2466
# 5 -6.5689 2.5705 3.5329 0.0000 21.5103 0.0000
# 6 0.0000 0.0000 0.0000 0.2466 0.0000 23.7374
#
#
#
# Elastic Compliance Matrix: (Units=1/GPa)
#
#
# Indices 1 2 3 4 5 6 
#
# 1 0.017134 -0.003825 -0.000897 0.000000 0.005837 0.000000
# 2 -0.003825 0.008105 -0.001658 0.000000 -0.001864 0.000000
# 3 -0.000897 -0.001658 0.010189 0.000000 -0.001749 0.000000
# 4 0.000000 0.000000 0.000000 0.049684 0.000000 -0.000516
# 5 0.005837 -0.001864 -0.001749 0.000000 0.048782 0.000000
# 6 0.000000 0.000000 0.000000 -0.000516 0.000000 0.042133
#
#
# Mechanical properties :
#
#
# Convention : Reuss Voigt Hill
#
# Bulk Modulus (GPa) = 44.11532 50.85717 47.48625
# Shear Modulus (GPa) = 25.46575 29.57111 27.51843
#
# Velocity S-wave (km/s) = 3.57306 3.85031 3.71428
# Velocity P-wave (km/s) = 6.25610 6.72777 6.49621
#
# Compressibility (1/GPa) = 0.02266786
#
# Stress axis : x y z
#
# Youngs Moduli (GPa) = 58.36485 123.37708 98.14785
#
# Poissons Ratio (x) = 0.47187 0.08808
# Poissons Ratio (y) = 0.22322 0.16270
# Poissons Ratio (z) = 0.05238 0.20453
#
# Static dielectric constant tensor:
#      x y z
#    x 3.635690 0.000000 -0.207000 
#    y 0.000000 3.922340 0.000000 
#    z -0.207000 0.000000 3.335280 
# 
# 
# High freq. dielectric constant tensor:
#      x y z
#    x 1.777580 0.000000 -0.013980 
#    y 0.000000 1.793990 0.000000 
#    z -0.013980 0.000000 1.752690 
# 
# From -- ./inp_files/4121.got.cif
#   From: 2010.06.25/outbox.cif.g09.slc.cpg/sg11_3_cif.got.tgz:4121.got - 2010.06.27 23:14:04.
