data_PCOD8074919
_publ_section_title
;
Structure prediction by ZEFSAII (Michael W. Deem and Ramdas Pophale) SiO2 
 PCOD8074919
Probable space group: P 21/M
;
_chemical_formula_sum "Si O2"
_cell_formula_units_Z 20
_cell_length_a 16.811060
_cell_length_b 8.865938
_cell_length_c 16.918734
_cell_angle_alpha 90.000000
_cell_angle_beta 24.795223
_cell_angle_gamma 90.000000
_cell_volume 1057.527412
_symmetry_space_group_name_H-M "P 21/M"
_symmetry_group_IT_number 11
_symmetry_cell_setting 'monoclinic'
loop_
_space_group_symop_operation_xyz
x,y,z
-x,1/2+y,-z
-x,-y,-z
x,1/2-y,z
loop_
_atom_site_type_symbol
_atom_site_label
_atom_site_fract_x
_atom_site_fract_y
_atom_site_fract_z
Si Si1 0.834335 0.078642 0.361281
Si Si2 0.114170 0.422891 0.967129
Si Si3 0.075413 0.925841 0.542504
Si Si4 0.489417 0.926811 0.595168
Si Si5 0.302948 0.072529 0.204267
O O1 0.755062 0.250000 0.431743
O O2 0.907559 0.031979 0.381221
O O3 0.672823 0.963233 0.481233
O O4 0.009044 0.062797 0.144710
O O5 0.148990 0.250000 0.911613
O O6 0.311295 0.507267 0.802660
O O7 0.000000 0.500000 0.000000
O O8 0.108220 0.750000 0.496721
O O9 0.864185 0.974027 0.705927
O O10 0.239639 0.014694 0.347653
O O11 0.466091 0.750000 0.605102
O O12 0.500000 0.000000 0.500000
O O13 0.333348 0.250000 0.180119
O O14 0.500000 0.000000 0.000000
#
# Coordination Sequence:
#
# PCOD8074919 Si02
#       5
#     4   4   4   4   4
#     4  10  22  40  61  84 114 153 198 245 293 348
#     4  11  22  37  59  84 113 152 197 244 294 348
#     4   9  20  39  60  85 117 154 195 239 288 346
#     4  12  24  38  58  83 114 152 196 246 298 352
#     4  10  20  36  61  90 120 155 191 234 289 350
#
# _framework density 18.912037999999999
#
# number of rings (size 3 to 8) (size 9 to 14) (size 15 to 20)
#    0.000    1.600    2.000    3.000    0.000    4.000 
#    0.000    4.000    0.000    0.000    0.000    0.000 
#    0.000    0.000    0.000    0.000    0.000    0.000 
#
# Total GULP energy -248082.356431 kJ/mol
# GULP energy per Si atom -12404.117822 kJ/mol
# Density = 1.886899 g / cm^3
# Si number density = 18.912038 Si / 1000 Ang^3
#
#
#
# Elastic Constant Matrix: (Units=GPa)
#
#
# Indices 1 2 3 4 5 6 
#
# 1 129.8982 50.9737 58.2470 0.0000 15.7758 0.0000
# 2 50.9737 126.3782 70.0265 0.0000 1.8864 0.0000
# 3 58.2470 70.0265 143.1648 0.0000 -0.3892 0.0000
# 4 0.0000 0.0000 0.0000 38.2508 0.0000 -2.8421
# 5 15.7758 1.8864 -0.3892 0.0000 27.1722 0.0000
# 6 0.0000 0.0000 0.0000 -2.8421 0.0000 29.1336
#
#
#
# Elastic Compliance Matrix: (Units=1/GPa)
#
#
# Indices 1 2 3 4 5 6 
#
# 1 0.010877 -0.002515 -0.003212 0.000000 -0.006186 0.000000
# 2 -0.002515 0.011455 -0.004578 0.000000 0.000599 0.000000
# 3 -0.003212 -0.004578 0.010537 0.000000 0.002334 0.000000
# 4 0.000000 0.000000 0.000000 0.026334 0.000000 0.002569
# 5 -0.006186 0.000599 0.002334 0.000000 0.040386 0.000000
# 6 0.000000 0.000000 0.000000 0.002569 0.000000 0.034575
#
#
# Mechanical properties :
#
#
# Convention : Reuss Voigt Hill
#
# Bulk Modulus (GPa) = 81.57219 84.21506 82.89362
# Shear Modulus (GPa) = 31.47411 33.59094 32.53252
#
# Velocity S-wave (km/s) = 4.08393 4.21903 4.15203
# Velocity P-wave (km/s) = 8.09099 8.26802 8.17998
#
# Compressibility (1/GPa) = 0.01225908
#
# Stress axis : x y z
#
# Youngs Moduli (GPa) = 91.93877 87.29835 94.90022
#
# Poissons Ratio (x) = 0.21956 0.30481
# Poissons Ratio (y) = 0.23123 0.43447
# Poissons Ratio (z) = 0.29530 0.39966
#
# Static dielectric constant tensor:
#      x y z
#    x 3.423090 0.000000 0.050350 
#    y 0.000000 3.587800 0.000000 
#    z 0.050350 0.000000 3.564560 
# 
# 
# High freq. dielectric constant tensor:
#      x y z
#    x 1.731680 0.000000 0.000810 
#    y 0.000000 1.742960 0.000000 
#    z 0.000810 0.000000 1.745070 
# 
# From -- ./inp_files/56646.got.cif
#   From: 2010.06.25/outbox.cif.g09.slc.cpg/sg11_29_cif.got.tgz:56646.got - 2010.06.27 23:14:04.
