data_PCOD8074022
_publ_section_title
;
Structure prediction by ZEFSAII (Michael W. Deem and Ramdas Pophale) SiO2 
 PCOD8074022
Probable space group: P 21/M
;
_chemical_formula_sum "Si O2"
_cell_formula_units_Z 32
_cell_length_a 24.638738
_cell_length_b 8.884165
_cell_length_c 24.601699
_cell_angle_alpha 90.000000
_cell_angle_beta 18.050477
_cell_angle_gamma 90.000000
_cell_volume 1668.623393
_symmetry_space_group_name_H-M "P 21/M"
_symmetry_group_IT_number 11
_symmetry_cell_setting 'monoclinic'
loop_
_space_group_symop_operation_xyz
x,y,z
-x,1/2+y,-z
-x,-y,-z
x,1/2-y,z
loop_
_atom_site_type_symbol
_atom_site_label
_atom_site_fract_x
_atom_site_fract_y
_atom_site_fract_z
Si Si1 0.122505 0.071771 0.132249
Si Si2 0.115105 0.923697 0.435973
Si Si3 0.535031 0.928088 0.130558
Si Si4 0.472467 0.426423 0.084129
Si Si5 0.331677 0.926915 0.725535
Si Si6 0.277479 0.426820 0.665084
Si Si7 0.065831 0.572254 0.070457
Si Si8 0.851710 0.421731 0.476570
O O1 0.106167 0.250000 0.145841
O O2 0.973777 0.001907 0.314243
O O3 0.094911 0.005960 0.099622
O O4 0.316301 0.026300 0.967987
O O5 0.157292 0.750000 0.379545
O O6 0.040646 0.930246 0.568438
O O7 0.278896 0.031497 0.285461
O O8 0.000000 0.000000 0.500000
O O9 0.524491 0.750000 0.129921
O O10 0.345970 0.990605 0.332106
O O11 0.590942 0.004331 0.019690
O O12 0.504859 0.250000 0.048785
O O13 0.500000 0.500000 0.000000
O O14 0.313508 0.750000 0.735652
O O15 0.535238 0.975233 0.539022
O O16 0.249139 0.999490 0.750584
O O17 0.220861 0.982483 0.882805
O O18 0.268037 0.250000 0.683132
O O19 0.122285 0.481082 0.773384
O O20 0.071286 0.750000 0.073510
O O21 0.825263 0.250000 0.484961
#
# Coordination Sequence:
#
# PCOD8074022 Si02
#       8
#     4   4   4   4   4   4   4   4
#     4  10  21  36  56  78 102 142 185 222 269 322
#     4  10  20  35  55  82 111 141 177 222 278 337
#     4   9  19  37  57  76 104 138 176 224 275 325
#     4  11  22  36  55  81 110 141 177 222 278 338
#     4   9  18  33  53  77 107 141 175 216 267 313
#     4   9  18  33  53  77 106 140 176 215 265 316
#     4  10  21  35  50  75 109 140 174 220 267 314
#     4   8  17  35  54  74 103 136 172 218 268 318
#
# _framework density 19.177485000000001
#
# number of rings (size 3 to 8) (size 9 to 14) (size 15 to 20)
#    0.000    2.500    0.000    2.625    1.750    2.500 
#    0.000    3.125    0.000    0.000    0.000    0.000 
#    0.000    0.000    0.000    0.000    0.000    0.000 
#
# Total GULP energy -396564.889371 kJ/mol
# GULP energy per Si atom -12392.652793 kJ/mol
# Density = 1.913384 g / cm^3
# Si number density = 19.177485 Si / 1000 Ang^3
#
#
#
# Elastic Constant Matrix: (Units=GPa)
#
#
# Indices 1 2 3 4 5 6 
#
# 1 181.6811 43.8668 93.3554 0.0000 -0.1866 0.0000
# 2 43.8668 44.6387 30.7940 0.0000 -0.9356 0.0000
# 3 93.3554 30.7940 124.5935 0.0000 3.9373 0.0000
# 4 0.0000 0.0000 0.0000 16.4750 0.0000 1.9880
# 5 -0.1866 -0.9356 3.9373 0.0000 30.3274 0.0000
# 6 0.0000 0.0000 0.0000 1.9880 0.0000 37.2698
#
#
#
# Elastic Compliance Matrix: (Units=1/GPa)
#
#
# Indices 1 2 3 4 5 6 
#
# 1 0.010009 -0.005585 -0.006141 0.000000 0.000686 0.000000
# 2 -0.005585 0.030212 -0.003324 0.000000 0.001329 0.000000
# 3 -0.006141 -0.003324 0.013509 0.000000 -0.001894 0.000000
# 4 0.000000 0.000000 0.000000 0.061091 0.000000 -0.003259
# 5 0.000686 0.001329 -0.001894 0.000000 0.033265 0.000000
# 6 0.000000 0.000000 0.000000 -0.003259 0.000000 0.027005
#
#
# Mechanical properties :
#
#
# Convention : Reuss Voigt Hill
#
# Bulk Modulus (GPa) = 42.32060 76.32726 59.32393
# Shear Modulus (GPa) = 23.46687 29.00757 26.23722
#
# Velocity S-wave (km/s) = 3.50189 3.89342 3.70283
# Velocity P-wave (km/s) = 6.20216 7.75232 7.02016
#
# Compressibility (1/GPa) = 0.02362915
#
# Stress axis : x y z
#
# Youngs Moduli (GPa) = 99.91332 33.09977 74.02709
#
# Poissons Ratio (x) = 0.18487 0.45457
# Poissons Ratio (y) = 0.55803 0.24608
# Poissons Ratio (z) = 0.61353 0.11003
#
# Static dielectric constant tensor:
#      x y z
#    x 3.998050 0.000000 0.471700 
#    y 0.000000 3.163940 0.000000 
#    z 0.471700 0.000000 5.493400 
# 
# 
# High freq. dielectric constant tensor:
#      x y z
#    x 1.748580 0.000000 -0.000220 
#    y 0.000000 1.724310 0.000000 
#    z -0.000220 0.000000 1.750520 
# 
# From -- ./inp_files/69969.got.cif
#   From: 2010.06.25/outbox.cif.g09.slc.cpg/sg11_35_cif.got.tgz:69969.got - 2010.06.27 23:14:04.
