data_PCOD8074836
_publ_section_title
;
Structure prediction by ZEFSAII (Michael W. Deem and Ramdas Pophale) SiO2 
 PCOD8074836
Probable space group: P 21/M
;
_chemical_formula_sum "Si O2"
_cell_formula_units_Z 20
_cell_length_a 11.346461
_cell_length_b 13.670584
_cell_length_c 9.270853
_cell_angle_alpha 90.000000
_cell_angle_beta 142.152078
_cell_angle_gamma 90.000000
_cell_volume 882.327250
_symmetry_space_group_name_H-M "P 21/M"
_symmetry_group_IT_number 11
_symmetry_cell_setting 'monoclinic'
loop_
_space_group_symop_operation_xyz
x,y,z
-x,1/2+y,-z
-x,-y,-z
x,1/2-y,z
loop_
_atom_site_type_symbol
_atom_site_label
_atom_site_fract_x
_atom_site_fract_y
_atom_site_fract_z
Si Si1 0.872519 0.358047 0.819815
Si Si2 0.897951 0.367154 0.527588
Si Si3 0.460231 0.570565 0.329414
Si Si4 0.122127 0.135932 0.309116
Si Si5 0.186500 0.522017 0.816321
O O1 0.937288 0.250000 0.838599
O O2 0.831784 0.407001 0.624123
O O3 0.688475 0.351803 0.747011
O O4 0.050874 0.405137 0.082312
O O5 0.894019 0.250000 0.503735
O O6 0.754679 0.419911 0.274087
O O7 0.115010 0.410587 0.716161
O O8 0.500000 0.500000 0.500000
O O9 0.650654 0.622357 0.456352
O O10 0.361932 0.517830 0.097273
O O11 0.070245 0.250000 0.271962
O O12 0.003293 0.080745 0.316003
#
# Coordination Sequence:
#
# PCOD8074836 Si02
#       5
#     4   4   4   4   4
#     4   9  19  36  57  82 113 149 191 236 282 336
#     4  10  20  38  61  82 114 156 191 234 290 340
#     4  11  21  35  58  86 116 150 190 238 286 337
#     4  10  20  36  60  87 116 152 193 238 288 340
#     4  10  22  39  59  85 116 151 193 237 284 342
#
# _framework density 22.667327
#
# number of rings (size 3 to 8) (size 9 to 14) (size 15 to 20)
#    0.000    2.000    0.000    3.600    0.000    5.600 
#    0.000   12.000    0.000    8.400    0.000    0.000 
#    0.000    0.000    0.000    0.000    0.000    0.000 
#
# Total GULP energy -247781.482697 kJ/mol
# GULP energy per Si atom -12389.074135 kJ/mol
# Density = 2.261573 g / cm^3
# Si number density = 22.667327 Si / 1000 Ang^3
#
#
#
# Elastic Constant Matrix: (Units=GPa)
#
#
# Indices 1 2 3 4 5 6 
#
# 1 58.7826 -16.2601 31.9988 0.0000 0.4915 0.0000
# 2 -16.2601 38.4933 7.5089 0.0000 0.1336 0.0000
# 3 31.9988 7.5089 161.9971 0.0000 -15.7356 0.0000
# 4 0.0000 0.0000 0.0000 25.2944 0.0000 -3.7578
# 5 0.4915 0.1336 -15.7356 0.0000 45.2520 0.0000
# 6 0.0000 0.0000 0.0000 -3.7578 0.0000 23.9814
#
#
#
# Elastic Compliance Matrix: (Units=1/GPa)
#
#
# Indices 1 2 3 4 5 6 
#
# 1 0.022809 0.010657 -0.005202 0.000000 -0.002088 0.000000
# 2 0.010657 0.031206 -0.003697 0.000000 -0.001493 0.000000
# 3 -0.005202 -0.003697 0.007636 0.000000 0.002723 0.000000
# 4 0.000000 0.000000 0.000000 0.040477 0.000000 0.006343
# 5 -0.002088 -0.001493 0.002723 0.000000 0.023072 0.000000
# 6 0.000000 0.000000 0.000000 0.006343 0.000000 0.042693
#
#
# Mechanical properties :
#
#
# Convention : Reuss Voigt Hill
#
# Bulk Modulus (GPa) = 15.34496 33.97425 24.65960
# Shear Modulus (GPa) = 26.86727 34.64060 30.75394
#
# Velocity S-wave (km/s) = 3.44653 3.91348 3.68741
# Velocity P-wave (km/s) = 4.75631 5.95325 5.38812
#
# Compressibility (1/GPa) = 0.06516800
#
# Stress axis : x y z
#
# Youngs Moduli (GPa) = 43.84236 32.04470 130.95261
#
# Poissons Ratio (x) = -0.34150 0.68124
# Poissons Ratio (y) = -0.46722 0.48407
# Poissons Ratio (z) = 0.22808 0.11846
#
# Static dielectric constant tensor:
#      x y z
#    x 4.232890 0.000000 -0.245410 
#    y 0.000000 3.992770 0.000000 
#    z -0.245410 0.000000 4.369040 
# 
# 
# High freq. dielectric constant tensor:
#      x y z
#    x 1.877500 0.000000 -0.029960 
#    y 0.000000 1.895500 0.000000 
#    z -0.029960 0.000000 1.901280 
# 
# From -- ./inp_files/18448.got.cif
#   From: 2010.06.25/outbox.cif.g09.slc.cpg/sg11_10_cif.got.tgz:18448.got - 2010.06.27 23:14:04.
