data_PCOD8074237
_publ_section_title
;
Structure prediction by ZEFSAII (Michael W. Deem and Ramdas Pophale) SiO2 
 PCOD8074237
Probable space group: P 21/M
;
_chemical_formula_sum "Si O2"
_cell_formula_units_Z 28
_cell_length_a 21.020838
_cell_length_b 8.718970
_cell_length_c 15.585672
_cell_angle_alpha 90.000000
_cell_angle_beta 28.802501
_cell_angle_gamma 90.000000
_cell_volume 1376.259272
_symmetry_space_group_name_H-M "P 21/M"
_symmetry_group_IT_number 11
_symmetry_cell_setting 'monoclinic'
loop_
_space_group_symop_operation_xyz
x,y,z
-x,1/2+y,-z
-x,-y,-z
x,1/2-y,z
loop_
_atom_site_type_symbol
_atom_site_label
_atom_site_fract_x
_atom_site_fract_y
_atom_site_fract_z
Si Si1 0.601970 0.068734 0.946833
Si Si2 0.578569 0.071500 0.713376
Si Si3 0.310194 0.923482 0.741495
Si Si4 0.546465 0.923505 0.577401
Si Si5 0.851173 0.567465 0.431770
Si Si6 0.987076 0.073383 0.921994
Si Si7 0.101597 0.931779 0.447901
O O1 0.590580 0.250000 0.959347
O O2 0.751259 0.015935 0.752999
O O3 0.500000 0.000000 0.000000
O O4 0.557478 0.002317 0.091543
O O5 0.585634 0.250000 0.726791
O O6 0.582874 0.044083 0.607153
O O7 0.701526 0.990769 0.614601
O O8 0.331657 0.750000 0.681386
O O9 0.394995 0.947463 0.727628
O O10 0.355818 0.044969 0.616848
O O11 0.158777 0.954073 0.943283
O O12 0.571480 0.750000 0.580319
O O13 0.858185 0.750000 0.427954
O O14 0.929797 0.498859 0.420336
O O15 0.914451 0.506187 0.267077
O O16 0.019723 0.250000 0.896932
O O17 0.000000 0.000000 0.000000
O O18 0.086788 0.750000 0.467493
O O19 0.000000 0.000000 0.500000
#
# Coordination Sequence:
#
# PCOD8074237 Si02
#       7
#     4   4   4   4   4   4   4
#     4  11  23  41  66  93 123 159 204 255 308 367
#     4  12  24  38  60  90 122 158 204 252 309 372
#     4   9  19  37  57  79 115 155 196 247 304 364
#     4  10  20  35  57  85 116 153 198 249 305 364
#     4  11  23  40  63  90 123 162 209 262 315 373
#     4  10  22  38  58  86 118 158 201 248 304 365
#     4  11  25  44  67  96 130 169 211 259 320 382
#
# _framework density 20.345002999999998
#
# number of rings (size 3 to 8) (size 9 to 14) (size 15 to 20)
#    0.000    1.429    1.429    3.857    0.000    7.429 
#    0.000    2.857    0.000    0.000    0.000    0.000 
#    0.000    0.000    0.000    0.000    0.000    0.000 
#
# Total GULP energy -347262.870197 kJ/mol
# GULP energy per Si atom -12402.245364 kJ/mol
# Density = 2.029870 g / cm^3
# Si number density = 20.345003 Si / 1000 Ang^3
#
#
#
# Elastic Constant Matrix: (Units=GPa)
#
#
# Indices 1 2 3 4 5 6 
#
# 1 126.9469 46.1751 51.2672 0.0000 2.8402 0.0000
# 2 46.1751 84.7371 45.8464 0.0000 -0.3435 0.0000
# 3 51.2672 45.8464 111.4742 0.0000 -1.2879 0.0000
# 4 0.0000 0.0000 0.0000 29.5397 0.0000 4.7913
# 5 2.8402 -0.3435 -1.2879 0.0000 31.7867 0.0000
# 6 0.0000 0.0000 0.0000 4.7913 0.0000 36.3838
#
#
#
# Elastic Compliance Matrix: (Units=1/GPa)
#
#
# Indices 1 2 3 4 5 6 
#
# 1 0.010700 -0.004072 -0.003259 0.000000 -0.001132 0.000000
# 2 -0.004072 0.016728 -0.005003 0.000000 0.000342 0.000000
# 3 -0.003259 -0.005003 0.012536 0.000000 0.000745 0.000000
# 4 0.000000 0.000000 0.000000 0.034592 0.000000 -0.004555
# 5 -0.001132 0.000342 0.000745 0.000000 0.031595 0.000000
# 6 0.000000 0.000000 0.000000 -0.004555 0.000000 0.028085
#
#
# Mechanical properties :
#
#
# Convention : Reuss Voigt Hill
#
# Bulk Modulus (GPa) = 65.37941 67.74840 66.56391
# Shear Modulus (GPa) = 30.48722 31.53334 31.01028
#
# Velocity S-wave (km/s) = 3.87526 3.94119 3.90836
# Velocity P-wave (km/s) = 7.22694 7.35409 7.29079
#
# Compressibility (1/GPa) = 0.01529533
#
# Stress axis : x y z
#
# Youngs Moduli (GPa) = 93.45795 59.77842 79.76980
#
# Poissons Ratio (x) = 0.24340 0.26000
# Poissons Ratio (y) = 0.38054 0.39912
# Poissons Ratio (z) = 0.30462 0.29910
#
# Static dielectric constant tensor:
#      x y z
#    x 3.725250 0.000000 -0.011870 
#    y 0.000000 3.701590 0.000000 
#    z -0.011870 0.000000 3.956280 
# 
# 
# High freq. dielectric constant tensor:
#      x y z
#    x 1.799450 0.000000 0.000360 
#    y 0.000000 1.797840 0.000000 
#    z 0.000360 0.000000 1.796690 
# 
# From -- ./inp_files/54511.got.cif
#   From: 2010.06.25/outbox.cif.g09.slc.cpg/sg11_28_cif.got.tgz:54511.got - 2010.06.27 23:14:04.
