data_PCOD8074436
_publ_section_title
;
Structure prediction by ZEFSAII (Michael W. Deem and Ramdas Pophale) SiO2 
 PCOD8074436
Probable space group: P 21/M
;
_chemical_formula_sum "Si O2"
_cell_formula_units_Z 24
_cell_length_a 9.940369
_cell_length_b 15.177670
_cell_length_c 17.528872
_cell_angle_alpha 90.000000
_cell_angle_beta 154.011087
_cell_angle_gamma 90.000000
_cell_volume 1158.860600
_symmetry_space_group_name_H-M "P 21/M"
_symmetry_group_IT_number 11
_symmetry_cell_setting 'monoclinic'
loop_
_space_group_symop_operation_xyz
x,y,z
-x,1/2+y,-z
-x,-y,-z
x,1/2-y,z
loop_
_atom_site_type_symbol
_atom_site_label
_atom_site_fract_x
_atom_site_fract_y
_atom_site_fract_z
Si Si1 0.500047 0.750000 0.160625
Si Si2 0.718379 0.401319 0.696516
Si Si3 0.245381 0.427032 0.776727
Si Si4 0.632493 0.750000 0.400284
Si Si5 0.614215 0.585800 0.982340
Si Si6 0.818747 0.250000 0.213542
Si Si7 0.567420 0.090280 0.447166
Si Si8 0.153942 0.250000 0.221332
O O1 0.593965 0.835265 0.160023
O O2 0.662440 0.750000 0.324635
O O3 0.133031 0.750000 0.982662
O O4 0.532194 0.338944 0.657757
O O5 0.628468 0.502487 0.661403
O O6 0.637891 0.376032 0.568681
O O7 0.074348 0.385578 0.902214
O O8 0.437371 0.510837 0.841624
O O9 0.891692 0.423619 0.568284
O O10 0.247749 0.450764 0.867715
O O11 0.974654 0.750000 0.606272
O O12 0.390666 0.664718 0.888849
O O13 0.026379 0.250000 0.243269
O O14 0.360975 0.166204 0.305377
#
# Coordination Sequence:
#
# PCOD8074436 Si02
#       8
#     2   4   4   2   4   2   4   2
#     4  12  25  41  59  89 130 163 195 244 307 370
#     4  10  20  37  60  93 122 157 199 251 307 343
#     4  10  20  37  60  93 122 157 199 251 307 343
#     4  12  25  41  59  89 130 163 195 244 307 370
#     4  10  20  35  65  92 119 150 208 261 289 349
#     4  12  21  37  61  91 118 158 207 246 294 349
#     4  10  20  35  65  92 119 150 208 261 289 349
#     4  12  21  37  61  91 118 158 207 246 294 349
#
# _framework density 20.709997999999999
#
# number of rings (size 3 to 8) (size 9 to 14) (size 15 to 20)
#    0.000    1.333    3.333    3.000    4.667    2.667 
#    0.000   10.000    0.000    0.000    0.000    0.000 
#    0.000    0.000    0.000    0.000    0.000    0.000 
#
# Total GULP energy -297532.885575 kJ/mol
# GULP energy per Si atom -12397.203566 kJ/mol
# Density = 2.066286 g / cm^3
# Si number density = 20.709998 Si / 1000 Ang^3
#
#
#
# Elastic Constant Matrix: (Units=GPa)
#
#
# Indices 1 2 3 4 5 6 
#
# 1 32.2420 12.9641 23.2884 0.0000 2.6890 0.0000
# 2 12.9641 97.9441 20.0072 0.0000 11.2145 0.0000
# 3 23.2884 20.0072 122.1110 0.0000 25.0254 0.0000
# 4 0.0000 0.0000 0.0000 36.1098 0.0000 8.9904
# 5 2.6890 11.2145 25.0254 0.0000 33.0780 0.0000
# 6 0.0000 0.0000 0.0000 8.9904 0.0000 14.2965
#
#
#
# Elastic Compliance Matrix: (Units=1/GPa)
#
#
# Indices 1 2 3 4 5 6 
#
# 1 0.037543 -0.003913 -0.007297 0.000000 0.003795 0.000000
# 2 -0.003913 0.011177 -0.000442 0.000000 -0.003137 0.000000
# 3 -0.007297 -0.000442 0.011244 0.000000 -0.007764 0.000000
# 4 0.000000 0.000000 0.000000 0.032834 0.000000 -0.020648
# 5 0.003795 -0.003137 -0.007764 0.000000 0.036860 0.000000
# 6 0.000000 0.000000 0.000000 -0.020648 0.000000 0.082932
#
#
# Mechanical properties :
#
#
# Convention : Reuss Voigt Hill
#
# Bulk Modulus (GPa) = 27.27733 40.53518 33.90625
# Shear Modulus (GPa) = 20.15195 29.76601 24.95898
#
# Velocity S-wave (km/s) = 3.12277 3.79526 3.47532
# Velocity P-wave (km/s) = 5.11878 6.23061 5.70186
#
# Compressibility (1/GPa) = 0.03666048
#
# Stress axis : x y z
#
# Youngs Moduli (GPa) = 26.63635 89.46661 88.93285
#
# Poissons Ratio (x) = 0.35011 0.64890
# Poissons Ratio (y) = 0.10424 0.03932
# Poissons Ratio (z) = 0.19435 0.03956
#
# Static dielectric constant tensor:
#      x y z
#    x 3.284620 0.000000 0.314160 
#    y 0.000000 3.752730 0.000000 
#    z 0.314160 0.000000 4.035580 
# 
# 
# High freq. dielectric constant tensor:
#      x y z
#    x 1.754800 0.000000 0.033830 
#    y 0.000000 1.825830 0.000000 
#    z 0.033830 0.000000 1.824700 
# 
# From -- ./inp_files/58085.got.cif
#   From: 2010.06.25/outbox.cif.g09.slc.cpg/sg11_30_cif.got.tgz:58085.got - 2010.06.27 23:14:04.
