data_PCOD8074183
_publ_section_title
;
Structure prediction by ZEFSAII (Michael W. Deem and Ramdas Pophale) SiO2 
 PCOD8074183
Probable space group: P 21/M
;
_chemical_formula_sum "Si O2"
_cell_formula_units_Z 32
_cell_length_a 24.642304
_cell_length_b 9.033220
_cell_length_c 14.396342
_cell_angle_alpha 90.000000
_cell_angle_beta 148.750342
_cell_angle_gamma 90.000000
_cell_volume 1662.452948
_symmetry_space_group_name_H-M "P 21/M"
_symmetry_group_IT_number 11
_symmetry_cell_setting 'monoclinic'
loop_
_space_group_symop_operation_xyz
x,y,z
-x,1/2+y,-z
-x,-y,-z
x,1/2-y,z
loop_
_atom_site_type_symbol
_atom_site_label
_atom_site_fract_x
_atom_site_fract_y
_atom_site_fract_z
Si Si1 0.432744 0.924390 0.980526
Si Si2 0.021734 0.577416 0.313314
Si Si3 0.291406 0.077766 0.313863
Si Si4 0.590804 0.922368 0.688901
Si Si5 0.938365 0.925745 0.992444
Si Si6 0.216681 0.424319 0.693877
Si Si7 0.905470 0.919070 0.316343
Si Si8 0.500508 0.076084 0.716747
O O1 0.429159 0.750000 0.958627
O O2 0.486490 0.964842 0.156974
O O3 0.500000 0.000000 0.000000
O O4 0.316352 0.987039 0.804592
O O5 0.054402 0.750000 0.366070
O O6 0.117162 0.477509 0.488499
O O7 0.994568 0.527730 0.169937
O O8 0.914737 0.551788 0.218990
O O9 0.287763 0.250000 0.330372
O O10 0.306109 0.052539 0.223830
O O11 0.388010 0.012828 0.516262
O O12 0.180164 0.009163 0.181153
O O13 0.567337 0.750000 0.667616
O O14 0.500000 0.000000 0.500000
O O15 0.594734 0.997752 0.796345
O O16 0.938443 0.750000 0.980690
O O17 0.000000 0.000000 0.000000
O O18 0.234341 0.250000 0.702841
O O19 0.199641 0.462955 0.779929
O O20 0.924880 0.750000 0.367736
O O21 0.000000 0.000000 0.500000
O O22 0.509853 0.250000 0.711986
#
# Coordination Sequence:
#
# PCOD8074183 Si02
#       8
#     4   4   4   4   4   4   4   4
#     4  11  24  40  56  77 108 145 187 231 272 321
#     4   9  18  34  55  79 109 143 177 219 271 323
#     4   8  16  33  55  77 104 139 174 210 261 319
#     4   9  16  29  53  82 110 140 175 216 264 322
#     4  10  21  36  53  75 104 140 183 225 263 310
#     4  10  20  35  57  83 109 139 176 220 272 328
#     4   8  15  29  51  78 106 135 171 214 263 323
#     4   9  19  36  56  79 108 141 175 217 271 324
#
# _framework density 19.248664000000002
#
# number of rings (size 3 to 8) (size 9 to 14) (size 15 to 20)
#    0.000    2.750    0.000    1.875    0.000    4.000 
#    0.000    6.875    0.000    0.000    0.000    0.000 
#    0.000    0.000    0.000    0.000    0.000    0.000 
#
# Total GULP energy -396422.626257 kJ/mol
# GULP energy per Si atom -12388.207071 kJ/mol
# Density = 1.920485 g / cm^3
# Si number density = 19.248664 Si / 1000 Ang^3
#
#
#
# Elastic Constant Matrix: (Units=GPa)
#
#
# Indices 1 2 3 4 5 6 
#
# 1 132.1846 21.1857 38.6283 0.0000 -13.8671 0.0000
# 2 21.1857 32.7709 9.8827 0.0000 -13.0164 0.0000
# 3 38.6283 9.8827 71.0863 0.0000 -5.9051 0.0000
# 4 0.0000 0.0000 0.0000 16.5090 0.0000 -0.3405
# 5 -13.8671 -13.0164 -5.9051 0.0000 27.1896 0.0000
# 6 0.0000 0.0000 0.0000 -0.3405 0.0000 35.2226
#
#
#
# Elastic Compliance Matrix: (Units=1/GPa)
#
#
# Indices 1 2 3 4 5 6 
#
# 1 0.009775 -0.004143 -0.004569 0.000000 0.002010 0.000000
# 2 -0.004143 0.040476 -0.001977 0.000000 0.016834 0.000000
# 3 -0.004569 -0.001977 0.016857 0.000000 0.000384 0.000000
# 4 0.000000 0.000000 0.000000 0.060585 0.000000 0.000586
# 5 0.002010 0.016834 0.000384 0.000000 0.045946 0.000000
# 6 0.000000 0.000000 0.000000 0.000586 0.000000 0.028396
#
#
# Mechanical properties :
#
#
# Convention : Reuss Voigt Hill
#
# Bulk Modulus (GPa) = 21.86771 41.71500 31.79136
# Shear Modulus (GPa) = 20.95042 26.87393 23.91217
#
# Velocity S-wave (km/s) = 3.30268 3.74056 3.52842
# Velocity P-wave (km/s) = 5.09205 6.35408 5.75775
#
# Compressibility (1/GPa) = 0.04572952
#
# Stress axis : x y z
#
# Youngs Moduli (GPa) = 102.29906 24.70576 59.32279
#
# Poissons Ratio (x) = 0.10237 0.27104
# Poissons Ratio (y) = 0.42387 0.11729
# Poissons Ratio (z) = 0.46739 0.04885
#
# Static dielectric constant tensor:
#      x y z
#    x 4.046670 0.000000 0.065140 
#    y 0.000000 3.588420 0.000000 
#    z 0.065140 0.000000 3.449300 
# 
# 
# High freq. dielectric constant tensor:
#      x y z
#    x 1.763040 0.000000 0.002090 
#    y 0.000000 1.736170 0.000000 
#    z 0.002090 0.000000 1.731700 
# 
# From -- ./inp_files/55750.got.cif
#   From: 2010.06.25/outbox.cif.g09.slc.cpg/sg11_28_cif.got.tgz:55750.got - 2010.06.27 23:14:04.
