data_PCOD8074511
_publ_section_title
;
Structure prediction by ZEFSAII (Michael W. Deem and Ramdas Pophale) SiO2 
 PCOD8074511
Probable space group: P 21/M
;
_chemical_formula_sum "Si O2"
_cell_formula_units_Z 32
_cell_length_a 13.589313
_cell_length_b 9.223815
_cell_length_c 32.085051
_cell_angle_alpha 90.000000
_cell_angle_beta 24.106305
_cell_angle_gamma 90.000000
_cell_volume 1642.590930
_symmetry_space_group_name_H-M "P 21/M"
_symmetry_group_IT_number 11
_symmetry_cell_setting 'monoclinic'
loop_
_space_group_symop_operation_xyz
x,y,z
-x,1/2+y,-z
-x,-y,-z
x,1/2-y,z
loop_
_atom_site_type_symbol
_atom_site_label
_atom_site_fract_x
_atom_site_fract_y
_atom_site_fract_z
Si Si1 0.566820 0.919526 0.576228
Si Si2 0.884603 0.079657 0.082684
Si Si3 0.823266 0.921477 0.950757
Si Si4 0.223920 0.909877 0.428889
Si Si5 0.988377 0.080169 0.211648
Si Si6 0.725348 0.076841 0.827531
Si Si7 0.974519 0.081124 0.647889
Si Si8 0.578117 0.409177 0.735992
O O1 0.606308 0.750000 0.570917
O O2 0.292028 0.951901 0.670248
O O3 0.749818 0.969858 0.468267
O O4 0.624304 0.006751 0.595435
O O5 0.917649 0.250000 0.065512
O O6 0.005957 0.020629 0.078278
O O7 0.606670 0.038791 0.186853
O O8 0.000000 0.000000 0.000000
O O9 0.824822 0.750000 0.950383
O O10 0.933612 0.976035 0.864311
O O11 0.551378 0.977767 0.063876
O O12 0.145869 0.750000 0.475525
O O13 0.392021 0.890176 0.324334
O O14 0.000000 0.000000 0.500000
O O15 0.045495 0.250000 0.194772
O O16 0.141474 0.988057 0.184485
O O17 0.737674 0.250000 0.824931
O O18 0.855516 0.012429 0.735523
O O19 0.975497 0.250000 0.655831
O O20 0.820397 0.041675 0.666337
O O21 0.494027 0.250000 0.786367
#
# Coordination Sequence:
#
# PCOD8074511 Si02
#       8
#     4   4   4   4   4   4   4   4
#     4  10  20  37  57  79 112 152 188 227 282 343
#     4  11  22  37  58  85 116 150 189 229 277 337
#     4   9  19  37  58  79 106 146 184 221 277 345
#     4  11  21  34  56  84 114 149 189 232 276 328
#     4  10  21  37  58  82 109 140 181 235 290 333
#     4  10  20  36  59  79 102 141 188 230 278 342
#     4   9  18  35  56  77 107 152 190 221 276 346
#     4  10  20  36  56  80 113 152 191 227 274 337
#
# _framework density 19.481418000000001
#
# number of rings (size 3 to 8) (size 9 to 14) (size 15 to 20)
#    0.000    2.000    1.250    2.625    0.000    5.000 
#    0.000    5.000    0.000    0.000    0.000    0.000 
#    0.000    0.000    0.000    0.000    0.000    0.000 
#
# Total GULP energy -396656.761270 kJ/mol
# GULP energy per Si atom -12395.523790 kJ/mol
# Density = 1.943708 g / cm^3
# Si number density = 19.481418 Si / 1000 Ang^3
#
#
#
# Elastic Constant Matrix: (Units=GPa)
#
#
# Indices 1 2 3 4 5 6 
#
# 1 88.0143 19.6924 46.4200 0.0000 9.1134 0.0000
# 2 19.6924 51.4908 23.9168 0.0000 -4.7633 0.0000
# 3 46.4200 23.9168 143.8930 0.0000 5.3870 0.0000
# 4 0.0000 0.0000 0.0000 22.6457 0.0000 -3.2911
# 5 9.1134 -4.7633 5.3870 0.0000 34.4846 0.0000
# 6 0.0000 0.0000 0.0000 -3.2911 0.0000 33.7242
#
#
#
# Elastic Compliance Matrix: (Units=1/GPa)
#
#
# Indices 1 2 3 4 5 6 
#
# 1 0.014768 -0.004183 -0.003924 0.000000 -0.003868 0.000000
# 2 -0.004183 0.022653 -0.002589 0.000000 0.004639 0.000000
# 3 -0.003924 -0.002589 0.008671 0.000000 -0.000675 0.000000
# 4 0.000000 0.000000 0.000000 0.044794 0.000000 0.004371
# 5 -0.003868 0.004639 -0.000675 0.000000 0.030767 0.000000
# 6 0.000000 0.000000 0.000000 0.004371 0.000000 0.030079
#
#
# Mechanical properties :
#
#
# Convention : Reuss Voigt Hill
#
# Bulk Modulus (GPa) = 40.48790 51.49514 45.99152
# Shear Modulus (GPa) = 27.56999 31.06215 29.31607
#
# Velocity S-wave (km/s) = 3.76599 3.99739 3.88341
# Velocity P-wave (km/s) = 6.30382 6.91345 6.61566
#
# Compressibility (1/GPa) = 0.02469873
#
# Stress axis : x y z
#
# Youngs Moduli (GPa) = 67.71518 44.14512 115.32473
#
# Poissons Ratio (x) = 0.18466 0.45254
# Poissons Ratio (y) = 0.28325 0.29862
# Poissons Ratio (z) = 0.26572 0.11431
#
# Static dielectric constant tensor:
#      x y z
#    x 3.758890 0.000000 0.062050 
#    y 0.000000 3.441060 0.000000 
#    z 0.062050 0.000000 3.825230 
# 
# 
# High freq. dielectric constant tensor:
#      x y z
#    x 1.759260 0.000000 0.003470 
#    y 0.000000 1.731470 0.000000 
#    z 0.003470 0.000000 1.773040 
# 
# From -- ./inp_files/73037.got.cif
#   From: 2010.06.25/outbox.cif.g09.slc.cpg/sg11_37_cif.got.tgz:73037.got - 2010.06.27 23:14:04.
