data_PCOD8074073
_publ_section_title
;
Structure prediction by ZEFSAII (Michael W. Deem and Ramdas Pophale) SiO2 
 PCOD8074073
Probable space group: P 21/M
;
_chemical_formula_sum "Si O2"
_cell_formula_units_Z 24
_cell_length_a 9.545014
_cell_length_b 8.797072
_cell_length_c 21.477172
_cell_angle_alpha 90.000000
_cell_angle_beta 45.601581
_cell_angle_gamma 90.000000
_cell_volume 1288.514094
_symmetry_space_group_name_H-M "P 21/M"
_symmetry_group_IT_number 11
_symmetry_cell_setting 'monoclinic'
loop_
_space_group_symop_operation_xyz
x,y,z
-x,1/2+y,-z
-x,-y,-z
x,1/2-y,z
loop_
_atom_site_type_symbol
_atom_site_label
_atom_site_fract_x
_atom_site_fract_y
_atom_site_fract_z
Si Si1 0.190668 0.570783 0.472617
Si Si2 0.924307 0.571130 0.229727
Si Si3 0.551098 0.425447 0.290348
Si Si4 0.659584 0.926660 0.906464
Si Si5 0.932970 0.573837 0.369035
Si Si6 0.666680 0.577810 0.763607
O O1 0.178615 0.750000 0.469755
O O2 0.387878 0.512656 0.380140
O O3 0.198812 0.523899 0.542748
O O4 0.000000 0.500000 0.500000
O O5 0.930937 0.750000 0.217005
O O6 0.761935 0.497542 0.236439
O O7 0.873397 0.530913 0.317198
O O8 0.132028 0.503298 0.145266
O O9 0.549715 0.250000 0.310960
O O10 0.511489 0.444666 0.228932
O O11 0.677823 0.750000 0.916203
O O12 0.591238 0.956217 0.856625
O O13 0.500000 0.000000 0.000000
O O14 0.899075 0.750000 0.393887
O O15 0.161239 0.536634 0.309152
O O16 0.750443 0.750000 0.733440
#
# Coordination Sequence:
#
# PCOD8074073 Si02
#       6
#     4   4   4   4   4   4
#     4  12  23  35  54  81 113 150 194 239 278 325
#     4  10  22  39  58  84 116 149 186 232 284 337
#     4  11  22  37  57  83 114 151 189 233 284 332
#     4  10  20  38  63  89 113 143 183 229 280 340
#     4  10  20  35  56  80 109 149 194 235 278 329
#     4   9  19  35  57  82 111 146 186 230 279 335
#
# _framework density 18.626104000000002
#
# number of rings (size 3 to 8) (size 9 to 14) (size 15 to 20)
#    0.000    1.667    1.667    3.500    0.000    4.000 
#    0.000    0.833    0.000    0.000    0.000    0.000 
#    0.000    0.000    0.000    0.000    0.000    0.000 
#
# Total GULP energy -297682.574330 kJ/mol
# GULP energy per Si atom -12403.440597 kJ/mol
# Density = 1.858371 g / cm^3
# Si number density = 18.626104 Si / 1000 Ang^3
#
#
#
# Elastic Constant Matrix: (Units=GPa)
#
#
# Indices 1 2 3 4 5 6 
#
# 1 125.8277 56.5726 56.3252 0.0000 -6.0153 0.0000
# 2 56.5726 123.9474 58.0755 0.0000 -4.6267 0.0000
# 3 56.3252 58.0755 121.9473 0.0000 0.2249 0.0000
# 4 0.0000 0.0000 0.0000 34.1213 0.0000 -3.7200
# 5 -6.0153 -4.6267 0.2249 0.0000 19.7278 0.0000
# 6 0.0000 0.0000 0.0000 -3.7200 0.0000 31.5997
#
#
#
# Elastic Compliance Matrix: (Units=1/GPa)
#
#
# Indices 1 2 3 4 5 6 
#
# 1 0.011172 -0.003320 -0.003584 0.000000 0.002669 0.000000
# 2 -0.003320 0.011496 -0.003944 0.000000 0.001729 0.000000
# 3 -0.003584 -0.003944 0.011738 0.000000 -0.002152 0.000000
# 4 0.000000 0.000000 0.000000 0.029688 0.000000 0.003495
# 5 0.002669 0.001729 -0.002152 0.000000 0.051934 0.000000
# 6 0.000000 0.000000 0.000000 0.003495 0.000000 0.032057
#
#
# Mechanical properties :
#
#
# Convention : Reuss Voigt Hill
#
# Bulk Modulus (GPa) = 78.68465 79.29655 78.99060
# Shear Modulus (GPa) = 28.73251 30.47302 29.60277
#
# Velocity S-wave (km/s) = 3.93185 4.04918 3.99095
# Velocity P-wave (km/s) = 7.93401 8.03283 7.98358
#
# Compressibility (1/GPa) = 0.01270896
#
# Stress axis : x y z
#
# Youngs Moduli (GPa) = 89.50893 86.98591 85.19339
#
# Poissons Ratio (x) = 0.28883 0.30532
# Poissons Ratio (y) = 0.29720 0.33604
# Poissons Ratio (z) = 0.32078 0.34311
#
# Static dielectric constant tensor:
#      x y z
#    x 3.533060 0.000000 0.198680 
#    y 0.000000 3.596680 0.000000 
#    z 0.198680 0.000000 3.371500 
# 
# 
# High freq. dielectric constant tensor:
#      x y z
#    x 1.719650 0.000000 0.011880 
#    y 0.000000 1.740090 0.000000 
#    z 0.011880 0.000000 1.710930 
# 
# From -- ./inp_files/20332.got.cif
#   From: 2010.06.25/outbox.cif.g09.slc.cpg/sg11_11_cif.got.tgz:20332.got - 2010.06.27 23:14:04.
