data_PCOD8074451
_publ_section_title
;
Structure prediction by ZEFSAII (Michael W. Deem and Ramdas Pophale) SiO2 
 PCOD8074451
Probable space group: P 21/M
;
_chemical_formula_sum "Si O2"
_cell_formula_units_Z 32
_cell_length_a 16.808322
_cell_length_b 9.584628
_cell_length_c 16.654832
_cell_angle_alpha 90.000000
_cell_angle_beta 42.567054
_cell_angle_gamma 90.000000
_cell_volume 1815.002557
_symmetry_space_group_name_H-M "P 21/M"
_symmetry_group_IT_number 11
_symmetry_cell_setting 'monoclinic'
loop_
_space_group_symop_operation_xyz
x,y,z
-x,1/2+y,-z
-x,-y,-z
x,1/2-y,z
loop_
_atom_site_type_symbol
_atom_site_label
_atom_site_fract_x
_atom_site_fract_y
_atom_site_fract_z
Si Si1 0.881808 0.414659 0.075452
Si Si2 0.324903 0.909421 0.651022
Si Si3 0.748758 0.415797 0.015753
Si Si4 0.277970 0.088416 0.275425
Si Si5 0.512989 0.915805 0.774217
Si Si6 0.567558 0.588991 0.559326
Si Si7 0.838641 0.087147 0.779143
Si Si8 0.946283 0.593911 0.473483
O O1 0.909212 0.250000 0.051902
O O2 0.792949 0.450366 0.213849
O O3 0.824138 0.468096 0.035280
O O4 0.000000 0.500000 0.000000
O O5 0.319916 0.750000 0.626192
O O6 0.435318 0.934810 0.626851
O O7 0.336693 0.004064 0.563185
O O8 0.742868 0.250000 0.022116
O O9 0.808345 0.470605 0.889605
O O10 0.617038 0.478918 0.117059
O O11 0.279410 0.250000 0.246608
O O12 0.406036 0.038608 0.210553
O O13 0.194389 0.070997 0.417801
O O14 0.236817 0.995094 0.231494
O O15 0.505195 0.750000 0.774652
O O16 0.569278 0.968948 0.648897
O O17 0.604701 0.750000 0.526262
O O18 0.804841 0.250000 0.796558
O O19 0.980801 0.062820 0.662757
O O20 0.976288 0.750000 0.477577
O O21 0.000000 0.500000 0.500000
#
# Coordination Sequence:
#
# PCOD8074451 Si02
#       8
#     4   4   4   4   4   4   4   4
#     4  10  20  36  55  74 100 133 168 205 249 300
#     4   9  17  31  51  72  98 128 160 201 252 299
#     4   9  17  32  52  71  95 131 166 198 242 295
#     4   9  17  29  47  71  98 126 158 201 246 283
#     4   9  16  29  49  72  99 131 165 200 241 291
#     4   9  16  29  51  75  96 125 166 203 239 294
#     4   9  17  30  49  70  94 127 166 199 233 285
#     4   8  14  26  43  63  87 116 151 192 235 275
#
# _framework density 17.63083
#
# number of rings (size 3 to 8) (size 9 to 14) (size 15 to 20)
#    0.000    3.000    1.250    0.000    0.000    1.000 
#    2.250    1.250    0.000    1.500    0.000    0.000 
#    0.000    0.000    0.000    0.000    0.000    0.000 
#
# Total GULP energy -396474.017029 kJ/mol
# GULP energy per Si atom -12389.813032 kJ/mol
# Density = 1.759070 g / cm^3
# Si number density = 17.630830 Si / 1000 Ang^3
#
#
#
# Elastic Constant Matrix: (Units=GPa)
#
#
# Indices 1 2 3 4 5 6 
#
# 1 85.0564 24.2553 61.4493 0.0000 -6.0969 0.0000
# 2 24.2553 38.9746 41.8718 0.0000 -1.2552 0.0000
# 3 61.4493 41.8718 144.3008 0.0000 2.5330 0.0000
# 4 0.0000 0.0000 0.0000 23.6051 0.0000 -0.5670
# 5 -6.0969 -1.2552 2.5330 0.0000 27.3596 0.0000
# 6 0.0000 0.0000 0.0000 -0.5670 0.0000 21.8552
#
#
#
# Elastic Compliance Matrix: (Units=1/GPa)
#
#
# Indices 1 2 3 4 5 6 
#
# 1 0.017954 -0.003971 -0.006571 0.000000 0.004427 0.000000
# 2 -0.003971 0.038360 -0.009471 0.000000 0.001752 0.000000
# 3 -0.006571 -0.009471 0.012530 0.000000 -0.003059 0.000000
# 4 0.000000 0.000000 0.000000 0.042390 0.000000 0.001100
# 5 0.004427 0.001752 -0.003059 0.000000 0.037900 0.000000
# 6 0.000000 0.000000 0.000000 0.001100 0.000000 0.045784
#
#
# Mechanical properties :
#
#
# Convention : Reuss Voigt Hill
#
# Bulk Modulus (GPa) = 34.70009 58.16494 46.43251
# Shear Modulus (GPa) = 20.44566 23.94768 22.19667
#
# Velocity S-wave (km/s) = 3.40906 3.68949 3.55204
# Velocity P-wave (km/s) = 5.93463 7.15625 6.57388
#
# Compressibility (1/GPa) = 0.02881837
#
# Stress axis : x y z
#
# Youngs Moduli (GPa) = 55.69820 26.06859 79.80929
#
# Poissons Ratio (x) = 0.10353 0.52441
# Poissons Ratio (y) = 0.22120 0.75584
# Poissons Ratio (z) = 0.36598 0.24688
#
# Static dielectric constant tensor:
#      x y z
#    x 3.154340 0.000000 -0.295420 
#    y 0.000000 3.032330 0.000000 
#    z -0.295420 0.000000 3.982100 
# 
# 
# High freq. dielectric constant tensor:
#      x y z
#    x 1.661130 0.000000 -0.002010 
#    y 0.000000 1.650730 0.000000 
#    z -0.002010 0.000000 1.697240 
# 
# From -- ./inp_files/52280.got.cif
#   From: 2010.06.25/outbox.cif.g09.slc.cpg/sg11_27_cif.got.tgz:52280.got - 2010.06.27 23:14:04.
