data_PCOD8074627
_publ_section_title
;
Structure prediction by ZEFSAII (Michael W. Deem and Ramdas Pophale) SiO2 
 PCOD8074627
Probable space group: P 21/M
;
_chemical_formula_sum "Si O2"
_cell_formula_units_Z 32
_cell_length_a 16.161710
_cell_length_b 8.842436
_cell_length_c 24.880980
_cell_angle_alpha 90.000000
_cell_angle_beta 26.238134
_cell_angle_gamma 90.000000
_cell_volume 1571.991226
_symmetry_space_group_name_H-M "P 21/M"
_symmetry_group_IT_number 11
_symmetry_cell_setting 'monoclinic'
loop_
_space_group_symop_operation_xyz
x,y,z
-x,1/2+y,-z
-x,-y,-z
x,1/2-y,z
loop_
_atom_site_type_symbol
_atom_site_label
_atom_site_fract_x
_atom_site_fract_y
_atom_site_fract_z
Si Si1 0.973328 0.427554 0.145124
Si Si2 0.196607 0.929245 0.402182
Si Si3 0.830022 0.923732 0.071241
Si Si4 0.848816 0.422547 0.753934
Si Si5 0.786739 0.072472 0.910706
Si Si6 0.397877 0.072209 0.189296
Si Si7 0.741093 0.923341 0.521086
Si Si8 0.618433 0.927850 0.294558
O O1 0.932357 0.250000 0.172105
O O2 0.034171 0.489716 0.167492
O O3 0.785141 0.508411 0.234246
O O4 0.154845 0.466694 0.000692
O O5 0.182148 0.750000 0.406163
O O6 0.360633 0.986130 0.266894
O O7 0.245983 0.975502 0.433431
O O8 0.000000 0.000000 0.500000
O O9 0.871246 0.750000 0.053816
O O10 0.647358 0.964060 0.213103
O O11 0.000000 0.000000 0.000000
O O12 0.788032 0.250000 0.776810
O O13 0.776412 0.474347 0.854425
O O14 0.763144 0.532127 0.759391
O O15 0.072221 0.437999 0.622764
O O16 0.818541 0.250000 0.898444
O O17 0.595619 0.018488 0.050089
O O18 0.393008 0.250000 0.203170
O O19 0.702441 0.750000 0.559838
O O20 0.575197 0.987230 0.579565
O O21 0.600369 0.750000 0.316372
#
# Coordination Sequence:
#
# PCOD8074627 Si02
#       8
#     4   4   4   4   4   4   4   4
#     4  10  20  36  57  85 118 156 201 251 302 355
#     4  12  24  40  62  90 126 162 200 246 302 361
#     4   8  16  30  49  75 107 144 184 227 286 345
#     4  10  22  42  64  85 119 161 203 254 305 356
#     4  10  23  41  61  89 120 158 205 253 305 359
#     4  11  23  39  63  93 124 157 200 248 303 369
#     4  11  23  39  61  90 122 161 204 248 301 360
#     4  10  20  36  58  85 119 160 199 245 301 360
#
# _framework density 20.356349000000002
#
# number of rings (size 3 to 8) (size 9 to 14) (size 15 to 20)
#    0.000    1.750    1.250    3.000    1.750    3.000 
#    0.000    0.625    0.000    0.000    0.000    0.000 
#    0.000    0.000    0.000    0.000    0.000    0.000 
#
# Total GULP energy -396676.586684 kJ/mol
# GULP energy per Si atom -12396.143334 kJ/mol
# Density = 2.031002 g / cm^3
# Si number density = 20.356349 Si / 1000 Ang^3
#
#
#
# Elastic Constant Matrix: (Units=GPa)
#
#
# Indices 1 2 3 4 5 6 
#
# 1 56.3452 24.1923 24.9835 0.0000 -1.6291 0.0000
# 2 24.1923 89.4770 37.4058 0.0000 -1.1888 0.0000
# 3 24.9835 37.4058 92.5834 0.0000 -0.2522 0.0000
# 4 0.0000 0.0000 0.0000 26.8093 0.0000 -4.5038
# 5 -1.6291 -1.1888 -0.2522 0.0000 33.6399 0.0000
# 6 0.0000 0.0000 0.0000 -4.5038 0.0000 31.8885
#
#
#
# Elastic Compliance Matrix: (Units=1/GPa)
#
#
# Indices 1 2 3 4 5 6 
#
# 1 0.021333 -0.004032 -0.004125 0.000000 0.000860 0.000000
# 2 -0.004032 0.014216 -0.004655 0.000000 0.000272 0.000000
# 3 -0.004125 -0.004655 0.013794 0.000000 -0.000261 0.000000
# 4 0.000000 0.000000 0.000000 0.038207 0.000000 0.005396
# 5 0.000860 0.000272 -0.000261 0.000000 0.029776 0.000000
# 6 0.000000 0.000000 0.000000 0.005396 0.000000 0.032121
#
#
# Mechanical properties :
#
#
# Convention : Reuss Voigt Hill
#
# Bulk Modulus (GPa) = 42.16045 45.72986 43.94515
# Shear Modulus (GPa) = 27.32580 28.58914 27.95747
#
# Velocity S-wave (km/s) = 3.66782 3.75164 3.70997
# Velocity P-wave (km/s) = 6.22040 6.42494 6.32350
#
# Compressibility (1/GPa) = 0.02371891
#
# Stress axis : x y z
#
# Youngs Moduli (GPa) = 46.87600 70.34479 72.49422
#
# Poissons Ratio (x) = 0.28362 0.29906
# Poissons Ratio (y) = 0.18900 0.33744
# Poissons Ratio (z) = 0.19338 0.32744
#
# Static dielectric constant tensor:
#      x y z
#    x 3.559240 0.000000 0.123330 
#    y 0.000000 3.657720 0.000000 
#    z 0.123330 0.000000 3.924480 
# 
# 
# High freq. dielectric constant tensor:
#      x y z
#    x 1.786340 0.000000 -0.003350 
#    y 0.000000 1.800790 0.000000 
#    z -0.003350 0.000000 1.796650 
# 
# From -- ./inp_files/69063.got.cif
#   From: 2010.06.25/outbox.cif.g09.slc.cpg/sg11_35_cif.got.tgz:69063.got - 2010.06.27 23:14:04.
