data_PCOD8074145
_publ_section_title
;
Structure prediction by ZEFSAII (Michael W. Deem and Ramdas Pophale) SiO2 
 PCOD8074145
Probable space group: P 21/M
;
_chemical_formula_sum "Si O2"
_cell_formula_units_Z 28
_cell_length_a 29.982729
_cell_length_b 8.874168
_cell_length_c 10.152287
_cell_angle_alpha 90.000000
_cell_angle_beta 146.322074
_cell_angle_gamma 90.000000
_cell_volume 1497.900388
_symmetry_space_group_name_H-M "P 21/M"
_symmetry_group_IT_number 11
_symmetry_cell_setting 'monoclinic'
loop_
_space_group_symop_operation_xyz
x,y,z
-x,1/2+y,-z
-x,-y,-z
x,1/2-y,z
loop_
_atom_site_type_symbol
_atom_site_label
_atom_site_fract_x
_atom_site_fract_y
_atom_site_fract_z
Si Si1 0.496593 0.072073 0.135175
Si Si2 0.243391 0.576514 0.363108
Si Si3 0.339123 0.575097 0.854427
Si Si4 0.654152 0.924636 0.607308
Si Si5 0.904818 0.926768 0.397129
Si Si6 0.738495 0.924870 0.090775
Si Si7 0.918531 0.424614 0.156033
O O1 0.497988 0.250000 0.122186
O O2 0.572282 0.019693 0.407320
O O3 0.500000 0.000000 0.000000
O O4 0.417133 0.023088 0.016361
O O5 0.261546 0.750000 0.370104
O O6 0.270646 0.540844 0.578039
O O7 0.291116 0.471024 0.380902
O O8 0.147579 0.541742 0.119183
O O9 0.363413 0.750000 0.915119
O O10 0.305091 0.529469 0.911670
O O11 0.632291 0.750000 0.537938
O O12 0.700051 0.957856 0.854848
O O13 0.899805 0.750000 0.364181
O O14 0.832517 0.975063 0.316519
O O15 0.991956 0.978648 0.669247
O O16 0.890013 0.994764 0.217672
O O17 0.729049 0.750000 0.107407
O O18 0.922666 0.250000 0.200900
#
# Coordination Sequence:
#
# PCOD8074145 Si02
#       7
#     4   4   4   4   4   4   4
#     4  12  24  40  62  88 117 148 188 236 286 339
#     4  10  20  35  56  85 115 148 191 239 286 339
#     4  11  24  40  59  83 115 154 194 237 288 343
#     4  11  22  37  61  87 114 150 192 238 284 339
#     4   9  17  32  53  81 115 149 187 234 285 339
#     4  10  22  39  57  83 118 155 193 235 289 345
#     4   9  17  30  54  84 113 146 188 237 287 334
#
# _framework density 18.692831999999999
#
# number of rings (size 3 to 8) (size 9 to 14) (size 15 to 20)
#    0.000    1.714    2.857    2.143    0.000    2.857 
#    0.000    0.714    0.000    0.000    0.000    0.000 
#    0.000    0.000    0.000    0.000    0.000    0.000 
#
# Total GULP energy -347202.386063 kJ/mol
# GULP energy per Si atom -12400.085217 kJ/mol
# Density = 1.865029 g / cm^3
# Si number density = 18.692832 Si / 1000 Ang^3
#
#
#
# Elastic Constant Matrix: (Units=GPa)
#
#
# Indices 1 2 3 4 5 6 
#
# 1 87.6167 38.8616 35.3883 0.0000 9.1409 0.0000
# 2 38.8616 83.3583 40.3771 0.0000 4.1826 0.0000
# 3 35.3883 40.3771 101.7417 0.0000 18.9576 0.0000
# 4 0.0000 0.0000 0.0000 24.9160 0.0000 0.3889
# 5 9.1409 4.1826 18.9576 0.0000 32.0158 0.0000
# 6 0.0000 0.0000 0.0000 0.3889 0.0000 30.8255
#
#
#
# Elastic Compliance Matrix: (Units=1/GPa)
#
#
# Indices 1 2 3 4 5 6 
#
# 1 0.015231 -0.005714 -0.002651 0.000000 -0.002032 0.000000
# 2 -0.005714 0.017082 -0.005260 0.000000 0.002515 0.000000
# 3 -0.002651 -0.005260 0.014128 0.000000 -0.006922 0.000000
# 4 0.000000 0.000000 0.000000 0.040143 0.000000 -0.000506
# 5 -0.002032 0.002515 -0.006922 0.000000 0.035585 0.000000
# 6 0.000000 0.000000 0.000000 -0.000506 0.000000 0.032447
#
#
# Mechanical properties :
#
#
# Convention : Reuss Voigt Hill
#
# Bulk Modulus (GPa) = 52.11133 55.77451 53.94292
# Shear Modulus (GPa) = 26.55848 28.09077 27.32463
#
# Velocity S-wave (km/s) = 3.77342 3.88075 3.82746
# Velocity P-wave (km/s) = 6.85005 7.06982 6.96080
#
# Compressibility (1/GPa) = 0.01918968
#
# Stress axis : x y z
#
# Youngs Moduli (GPa) = 65.65666 58.54040 70.78046
#
# Poissons Ratio (x) = 0.33453 0.18765
# Poissons Ratio (y) = 0.37519 0.37232
# Poissons Ratio (z) = 0.17407 0.30793
#
# Static dielectric constant tensor:
#      x y z
#    x 3.525980 0.000000 0.724080 
#    y 0.000000 3.469360 0.000000 
#    z 0.724080 0.000000 4.735980 
# 
# 
# High freq. dielectric constant tensor:
#      x y z
#    x 1.709520 0.000000 0.019890 
#    y 0.000000 1.728850 0.000000 
#    z 0.019890 0.000000 1.738290 
# 
# From -- ./inp_files/28314.got.cif
#   From: 2010.06.25/outbox.cif.g09.slc.cpg/sg11_15_cif.got.tgz:28314.got - 2010.06.27 23:14:04.
