data_PCOD8074703
_publ_section_title
;
Structure prediction by ZEFSAII (Michael W. Deem and Ramdas Pophale) SiO2 
 PCOD8074703
Probable space group: P 21/M
;
_chemical_formula_sum "Si O2"
_cell_formula_units_Z 24
_cell_length_a 12.383654
_cell_length_b 8.766788
_cell_length_c 11.560779
_cell_angle_alpha 90.000000
_cell_angle_beta 110.166597
_cell_angle_gamma 90.000000
_cell_volume 1178.149853
_symmetry_space_group_name_H-M "P 21/M"
_symmetry_group_IT_number 11
_symmetry_cell_setting 'monoclinic'
loop_
_space_group_symop_operation_xyz
x,y,z
-x,1/2+y,-z
-x,-y,-z
x,1/2-y,z
loop_
_atom_site_type_symbol
_atom_site_label
_atom_site_fract_x
_atom_site_fract_y
_atom_site_fract_z
Si Si1 0.026487 0.431130 0.134521
Si Si2 0.251846 0.429412 0.345209
Si Si3 0.178896 0.430648 0.807465
Si Si4 0.545789 0.077032 0.706808
Si Si5 0.711285 0.569743 0.386880
Si Si6 0.612753 0.424684 0.990677
O O1 0.023234 0.250000 0.122892
O O2 0.150177 0.492145 0.225479
O O3 0.936102 0.484467 0.196966
O O4 0.000000 0.500000 0.000000
O O5 0.254833 0.250000 0.336879
O O6 0.377108 0.488340 0.356712
O O7 0.229382 0.478469 0.470408
O O8 0.159422 0.250000 0.805033
O O9 0.212051 0.491309 0.691402
O O10 0.279198 0.474916 0.932644
O O11 0.535463 0.250000 0.659121
O O12 0.418593 0.002452 0.667947
O O13 0.609534 0.068164 0.852131
O O14 0.701272 0.750000 0.368460
O O15 0.623665 0.250000 0.037960
O O16 0.500000 0.500000 0.000000
#
# Coordination Sequence:
#
# PCOD8074703 Si02
#       6
#     4   4   4   4   4   4
#     4  11  24  42  62  87 116 152 198 247 296 350
#     4  10  22  39  60  84 114 154 199 243 289 348
#     4  11  22  39  62  87 119 158 194 239 298 351
#     4  10  20  36  58  85 119 154 191 237 292 349
#     4   9  19  38  59  84 119 155 190 238 298 350
#     4  11  21  35  57  87 120 154 193 239 290 346
#
# _framework density 20.370923999999999
#
# number of rings (size 3 to 8) (size 9 to 14) (size 15 to 20)
#    0.000    1.667    1.667    3.000    0.000    6.000 
#    0.000    1.667    0.000    0.000    0.000    0.000 
#    0.000    0.000    0.000    0.000    0.000    0.000 
#
# Total GULP energy -297621.867091 kJ/mol
# GULP energy per Si atom -12400.911129 kJ/mol
# Density = 2.032456 g / cm^3
# Si number density = 20.370924 Si / 1000 Ang^3
#
#
#
# Elastic Constant Matrix: (Units=GPa)
#
#
# Indices 1 2 3 4 5 6 
#
# 1 136.8555 24.6694 55.4677 0.0000 -11.9285 0.0000
# 2 24.6694 42.1389 33.0049 0.0000 -3.1853 0.0000
# 3 55.4677 33.0049 127.1131 0.0000 -7.4634 0.0000
# 4 0.0000 0.0000 0.0000 25.3117 0.0000 -3.5096
# 5 -11.9285 -3.1853 -7.4634 0.0000 32.2522 0.0000
# 6 0.0000 0.0000 0.0000 -3.5096 0.0000 35.1132
#
#
#
# Elastic Compliance Matrix: (Units=1/GPa)
#
#
# Indices 1 2 3 4 5 6 
#
# 1 0.009316 -0.002759 -0.003206 0.000000 0.002431 0.000000
# 2 -0.002759 0.030650 -0.006728 0.000000 0.000450 0.000000
# 3 -0.003206 -0.006728 0.011054 0.000000 0.000708 0.000000
# 4 0.000000 0.000000 0.000000 0.040063 0.000000 0.004004
# 5 0.002431 0.000450 0.000708 0.000000 0.032113 0.000000
# 6 0.000000 0.000000 0.000000 0.004004 0.000000 0.028880
#
#
# Mechanical properties :
#
#
# Convention : Reuss Voigt Hill
#
# Bulk Modulus (GPa) = 39.01013 59.15460 49.08236
# Shear Modulus (GPa) = 26.88097 31.39977 29.14037
#
# Velocity S-wave (km/s) = 3.63654 3.93033 3.78628
# Velocity P-wave (km/s) = 6.06828 7.04971 6.57733
#
# Compressibility (1/GPa) = 0.02563437
#
# Stress axis : x y z
#
# Youngs Moduli (GPa) = 107.34769 32.62666 90.46145
#
# Poissons Ratio (x) = 0.09001 0.29001
# Poissons Ratio (y) = 0.29615 0.60862
# Poissons Ratio (z) = 0.34415 0.21951
#
# Static dielectric constant tensor:
#      x y z
#    x 3.695940 0.000000 -0.086210 
#    y 0.000000 3.548200 0.000000 
#    z -0.086210 0.000000 3.891200 
# 
# 
# High freq. dielectric constant tensor:
#      x y z
#    x 1.802660 0.000000 -0.004640 
#    y 0.000000 1.778360 0.000000 
#    z -0.004640 0.000000 1.807340 
# 
# From -- ./inp_files/33903.got.cif
#   From: 2010.06.25/outbox.cif.g09.slc.cpg/sg11_17_cif.got.tgz:33903.got - 2010.06.27 23:14:04.
