data_PCOD8074475
_publ_section_title
;
Structure prediction by ZEFSAII (Michael W. Deem and Ramdas Pophale) SiO2 
 PCOD8074475
Probable space group: P 21/M
;
_chemical_formula_sum "Si O2"
_cell_formula_units_Z 16
_cell_length_a 18.069380
_cell_length_b 10.633376
_cell_length_c 15.092499
_cell_angle_alpha 90.000000
_cell_angle_beta 166.873699
_cell_angle_gamma 90.000000
_cell_volume 658.551294
_symmetry_space_group_name_H-M "P 21/M"
_symmetry_group_IT_number 11
_symmetry_cell_setting 'monoclinic'
loop_
_space_group_symop_operation_xyz
x,y,z
-x,1/2+y,-z
-x,-y,-z
x,1/2-y,z
loop_
_atom_site_type_symbol
_atom_site_label
_atom_site_fract_x
_atom_site_fract_y
_atom_site_fract_z
Si Si1 0.547552 0.250000 0.478723
Si Si2 0.738460 0.007477 0.616972
Si Si3 0.912593 0.391792 0.639540
Si Si4 0.173834 0.106334 0.760228
Si Si5 0.292441 0.250000 0.369883
O O1 0.494259 0.124778 0.354412
O O2 0.302152 0.250000 0.274547
O O3 0.905579 0.250000 0.939252
O O4 0.921344 0.020104 0.736348
O O5 0.546019 0.874053 0.397158
O O6 0.000000 0.000000 0.000000
O O7 0.008804 0.250000 0.783923
O O8 0.143689 0.437209 0.828325
O O9 0.552211 0.392303 0.176789
O O10 0.030782 0.250000 0.580790
O O11 0.000000 0.000000 0.500000
#
# Coordination Sequence:
#
# PCOD8074475 Si02
#       5
#     2   4   4   4   2
#     4  10  20  36  56  74 111 160 197 234 284 336
#     4  10  21  39  58  87 123 161 199 244 288 346
#     4  10  21  39  64  90 118 161 202 236 294 368
#     4  10  22  42  66  91 117 151 197 251 306 359
#     4  10  22  34  52  82 111 154 199 238 284 326
#
# _framework density 24.295753000000001
#
# number of rings (size 3 to 8) (size 9 to 14) (size 15 to 20)
#    0.000    2.000    1.250    1.500    0.000    8.000 
#    4.500    0.000    0.000    0.000    0.000    0.000 
#    0.000    0.000    0.000    0.000    0.000    0.000 
#
# Total GULP energy -198400.478825 kJ/mol
# GULP energy per Si atom -12400.029927 kJ/mol
# Density = 2.424045 g / cm^3
# Si number density = 24.295753 Si / 1000 Ang^3
#
#
#
# Elastic Constant Matrix: (Units=GPa)
#
#
# Indices 1 2 3 4 5 6 
#
# 1 126.4811 57.4427 11.1796 0.0000 -12.4914 0.0000
# 2 57.4427 215.8098 21.6647 0.0000 -16.5008 0.0000
# 3 11.1796 21.6647 44.5187 0.0000 -7.5999 0.0000
# 4 0.0000 0.0000 0.0000 41.0119 0.0000 -10.1809
# 5 -12.4914 -16.5008 -7.5999 0.0000 39.2006 0.0000
# 6 0.0000 0.0000 0.0000 -10.1809 0.0000 44.4201
#
#
#
# Elastic Compliance Matrix: (Units=1/GPa)
#
#
# Indices 1 2 3 4 5 6 
#
# 1 0.009170 -0.002210 -0.000918 0.000000 0.001814 0.000000
# 2 -0.002210 0.005509 -0.001914 0.000000 0.001244 0.000000
# 3 -0.000918 -0.001914 0.024239 0.000000 0.003601 0.000000
# 4 0.000000 0.000000 0.000000 0.025854 0.000000 0.005926
# 5 0.001814 0.001244 0.003601 0.000000 0.027310 0.000000
# 6 0.000000 0.000000 0.000000 0.005926 0.000000 0.023870
#
#
# Mechanical properties :
#
#
# Convention : Reuss Voigt Hill
#
# Bulk Modulus (GPa) = 34.67938 63.04262 48.86100
# Shear Modulus (GPa) = 36.86029 44.69470 40.77750
#
# Velocity S-wave (km/s) = 3.89929 4.29372 4.10125
# Velocity P-wave (km/s) = 5.88026 7.11236 6.52545
#
# Compressibility (1/GPa) = 0.02883558
#
# Stress axis : x y z
#
# Youngs Moduli (GPa) = 109.04761 181.51535 41.25589
#
# Poissons Ratio (x) = 0.40116 0.03786
# Poissons Ratio (y) = 0.24100 0.07895
# Poissons Ratio (z) = 0.10007 0.34736
#
# Static dielectric constant tensor:
#      x y z
#    x 4.306840 0.000000 0.279270 
#    y 0.000000 6.379020 0.000000 
#    z 0.279270 0.000000 4.246550 
# 
# 
# High freq. dielectric constant tensor:
#      x y z
#    x 1.966630 0.000000 0.018970 
#    y 0.000000 1.968660 0.000000 
#    z 0.018970 0.000000 1.968400 
# 
# From -- ./inp_files/3745.got.cif
#   From: 2010.06.25/outbox.cif.g09.slc.cpg/sg11_2_cif.got.tgz:3745.got - 2010.06.27 23:14:04.
