data_PCOD8074337
_publ_section_title
;
Structure prediction by ZEFSAII (Michael W. Deem and Ramdas Pophale) SiO2 
 PCOD8074337
Probable space group: P 21/M
;
_chemical_formula_sum "Si O2"
_cell_formula_units_Z 32
_cell_length_a 19.213779
_cell_length_b 14.600549
_cell_length_c 12.617945
_cell_angle_alpha 90.000000
_cell_angle_beta 27.006109
_cell_angle_gamma 90.000000
_cell_volume 1607.341802
_symmetry_space_group_name_H-M "P 21/M"
_symmetry_group_IT_number 11
_symmetry_cell_setting 'monoclinic'
loop_
_space_group_symop_operation_xyz
x,y,z
-x,1/2+y,-z
-x,-y,-z
x,1/2-y,z
loop_
_atom_site_type_symbol
_atom_site_label
_atom_site_fract_x
_atom_site_fract_y
_atom_site_fract_z
Si Si1 0.867438 0.950004 0.242677
Si Si2 0.002155 0.007009 0.263100
Si Si3 0.696495 0.441225 0.040415
Si Si4 0.422015 0.573197 0.399859
Si Si5 0.707036 0.039513 0.788540
Si Si6 0.194366 0.145909 0.870050
Si Si7 0.478930 0.143791 0.946399
Si Si8 0.470840 0.646462 0.550686
O O1 0.834273 0.858753 0.218934
O O2 0.710012 0.006838 0.462459
O O3 0.923616 0.934022 0.287336
O O4 0.000000 0.000000 0.000000
O O5 0.066217 0.091908 0.108906
O O6 0.878308 0.044775 0.512937
O O7 0.132113 0.960169 0.155184
O O8 0.585056 0.527327 0.202835
O O9 0.629986 0.362740 0.206936
O O10 0.702135 0.412404 0.910216
O O11 0.450114 0.646714 0.268432
O O12 0.374414 0.615974 0.577800
O O13 0.603485 0.105752 0.858757
O O14 0.658281 0.931474 0.860435
O O15 0.183369 0.250000 0.922102
O O16 0.361281 0.098159 0.665654
O O17 0.429946 0.250000 0.040115
O O18 0.516432 0.750000 0.474016
#
# Coordination Sequence:
#
# PCOD8074337 Si02
#       8
#     4   4   4   4   4   4   4   4
#     4  10  20  35  58  87 123 157 201 252 308 366
#     4  11  21  41  60  87 121 164 208 251 305 370
#     4  11  22  38  63  85 123 165 204 245 310 373
#     4  11  19  38  62  88 118 159 209 249 310 369
#     4  10  23  41  64  92 124 164 212 252 307 371
#     4  10  21  36  59  93 125 161 204 254 313 366
#     4  10  22  41  65  93 121 158 210 263 309 365
#     4  11  21  35  58  92 124 156 204 255 306 367
#
# _framework density 19.908646000000001
#
# number of rings (size 3 to 8) (size 9 to 14) (size 15 to 20)
#    0.000    1.500    3.750    2.625    0.000    1.000 
#    0.000    6.250    0.000    1.500    0.000    0.000 
#    0.000    0.000    0.000    0.000    0.000    0.000 
#
# Total GULP energy -396492.168172 kJ/mol
# GULP energy per Si atom -12390.380255 kJ/mol
# Density = 1.986333 g / cm^3
# Si number density = 19.908646 Si / 1000 Ang^3
#
#
#
# Elastic Constant Matrix: (Units=GPa)
#
#
# Indices 1 2 3 4 5 6 
#
# 1 144.1241 24.1880 48.7893 0.0000 3.5415 0.0000
# 2 24.1880 62.2959 13.4350 0.0000 1.9120 0.0000
# 3 48.7893 13.4350 111.9554 0.0000 6.2020 0.0000
# 4 0.0000 0.0000 0.0000 19.9124 0.0000 3.0567
# 5 3.5415 1.9120 6.2020 0.0000 37.1144 0.0000
# 6 0.0000 0.0000 0.0000 3.0567 0.0000 18.3187
#
#
#
# Elastic Compliance Matrix: (Units=1/GPa)
#
#
# Indices 1 2 3 4 5 6 
#
# 1 0.008524 -0.002573 -0.003400 0.000000 -0.000113 0.000000
# 2 -0.002573 0.017266 -0.000924 0.000000 -0.000490 0.000000
# 3 -0.003400 -0.000924 0.010602 0.000000 -0.001400 0.000000
# 4 0.000000 0.000000 0.000000 0.051540 0.000000 -0.008600
# 5 -0.000113 -0.000490 -0.001400 0.000000 0.027214 0.000000
# 6 0.000000 0.000000 0.000000 -0.008600 0.000000 0.056024
#
#
# Mechanical properties :
#
#
# Convention : Reuss Voigt Hill
#
# Bulk Modulus (GPa) = 44.24920 54.57780 49.41350
# Shear Modulus (GPa) = 25.97474 30.53332 28.25403
#
# Velocity S-wave (km/s) = 3.61598 3.92046 3.77129
# Velocity P-wave (km/s) = 6.30144 6.92582 6.62099
#
# Compressibility (1/GPa) = 0.02259928
#
# Stress axis : x y z
#
# Youngs Moduli (GPa) = 117.31706 57.91848 94.32159
#
# Poissons Ratio (x) = 0.14902 0.32066
# Poissons Ratio (y) = 0.30186 0.08711
# Poissons Ratio (z) = 0.39884 0.05349
#
# Static dielectric constant tensor:
#      x y z
#    x 4.138040 0.000000 0.063990 
#    y 0.000000 3.271320 0.000000 
#    z 0.063990 0.000000 3.649700 
# 
# 
# High freq. dielectric constant tensor:
#      x y z
#    x 1.799630 0.000000 0.002170 
#    y 0.000000 1.736050 0.000000 
#    z 0.002170 0.000000 1.779700 
# 
# From -- ./inp_files/41611.got.cif
#   From: 2010.06.25/outbox.cif.g09.slc.cpg/sg11_21_cif.got.tgz:41611.got - 2010.06.27 23:14:04.
