data_PCOD8074082
_publ_section_title
;
Structure prediction by ZEFSAII (Michael W. Deem and Ramdas Pophale) SiO2 
 PCOD8074082
Probable space group: P 21/M
;
_chemical_formula_sum "Si O2"
_cell_formula_units_Z 32
_cell_length_a 12.039221
_cell_length_b 8.710187
_cell_length_c 21.888263
_cell_angle_alpha 90.000000
_cell_angle_beta 46.325263
_cell_angle_gamma 90.000000
_cell_volume 1660.116772
_symmetry_space_group_name_H-M "P 21/M"
_symmetry_group_IT_number 11
_symmetry_cell_setting 'monoclinic'
loop_
_space_group_symop_operation_xyz
x,y,z
-x,1/2+y,-z
-x,-y,-z
x,1/2-y,z
loop_
_atom_site_type_symbol
_atom_site_label
_atom_site_fract_x
_atom_site_fract_y
_atom_site_fract_z
Si Si1 0.895791 0.430800 0.385365
Si Si2 0.418944 0.070482 0.472589
Si Si3 0.901983 0.431449 0.592295
Si Si4 0.499807 0.568421 0.095079
Si Si5 0.434475 0.929231 0.253189
Si Si6 0.731879 0.430699 0.920854
Si Si7 0.621563 0.926335 0.296737
Si Si8 0.932286 0.927892 0.241163
O O1 0.911905 0.250000 0.386585
O O2 0.741890 0.486404 0.477474
O O3 0.889651 0.474856 0.316773
O O4 0.036899 0.513111 0.365218
O O5 0.391140 0.250000 0.493591
O O6 0.500000 0.000000 0.500000
O O7 0.525262 0.042889 0.374165
O O8 0.914578 0.250000 0.582774
O O9 0.725098 0.489977 0.656587
O O10 0.000000 0.500000 0.500000
O O11 0.510698 0.750000 0.093678
O O12 0.469900 0.496172 0.173574
O O13 0.361261 0.514062 0.103707
O O14 0.661453 0.506612 0.008147
O O15 0.412448 0.750000 0.250580
O O16 0.577912 0.964182 0.243319
O O17 0.720997 0.250000 0.932927
O O18 0.907326 0.486095 0.847612
O O19 0.577704 0.750000 0.329588
O O20 0.802398 0.954177 0.238920
O O21 0.943060 0.750000 0.256609
#
# Coordination Sequence:
#
# PCOD8074082 Si02
#       8
#     4   4   4   4   4   4   4   4
#     4  12  24  37  56  82 113 147 190 237 283 337
#     4  12  23  37  56  80 111 148 189 234 282 331
#     4  11  22  38  58  82 115 150 188 235 287 340
#     4   9  17  33  56  79 105 141 184 228 278 337
#     4   9  19  36  58  81 109 148 189 229 278 339
#     4   9  18  33  54  81 110 140 178 229 289 343
#     4  10  20  36  58  82 110 147 191 233 279 339
#     4  10  20  35  56  81 111 145 182 230 286 339
#
# _framework density 19.275751
#
# number of rings (size 3 to 8) (size 9 to 14) (size 15 to 20)
#    0.000    1.750    1.250    4.125    0.000    3.500 
#    0.000    5.625    0.000    0.000    0.000    0.000 
#    0.000    0.000    0.000    0.000    0.000    0.000 
#
# Total GULP energy -396859.064607 kJ/mol
# GULP energy per Si atom -12401.845769 kJ/mol
# Density = 1.923188 g / cm^3
# Si number density = 19.275751 Si / 1000 Ang^3
#
#
#
# Elastic Constant Matrix: (Units=GPa)
#
#
# Indices 1 2 3 4 5 6 
#
# 1 130.7017 26.0608 65.7273 0.0000 -4.9990 0.0000
# 2 26.0608 56.4311 27.4589 0.0000 -2.1817 0.0000
# 3 65.7273 27.4589 144.5257 0.0000 -3.5739 0.0000
# 4 0.0000 0.0000 0.0000 29.9664 0.0000 0.3217
# 5 -4.9990 -2.1817 -3.5739 0.0000 36.7098 0.0000
# 6 0.0000 0.0000 0.0000 0.3217 0.0000 21.4195
#
#
#
# Elastic Compliance Matrix: (Units=1/GPa)
#
#
# Indices 1 2 3 4 5 6 
#
# 1 0.010312 -0.002708 -0.004155 0.000000 0.000839 0.000000
# 2 -0.002708 0.020261 -0.002603 0.000000 0.000582 0.000000
# 3 -0.004155 -0.002603 0.009308 0.000000 0.000186 0.000000
# 4 0.000000 0.000000 0.000000 0.033376 0.000000 -0.000501
# 5 0.000839 0.000582 0.000186 0.000000 0.027408 0.000000
# 6 0.000000 0.000000 0.000000 -0.000501 0.000000 0.046694
#
#
# Mechanical properties :
#
#
# Convention : Reuss Voigt Hill
#
# Bulk Modulus (GPa) = 47.73631 63.35027 55.54329
# Shear Modulus (GPa) = 28.85608 31.77991 30.31800
#
# Velocity S-wave (km/s) = 3.87332 4.06482 3.97023
# Velocity P-wave (km/s) = 6.69494 7.41397 7.06361
#
# Compressibility (1/GPa) = 0.02094841
#
# Stress axis : x y z
#
# Youngs Moduli (GPa) = 96.97109 49.35656 107.43710
#
# Poissons Ratio (x) = 0.13368 0.44635
# Poissons Ratio (y) = 0.26264 0.27969
# Poissons Ratio (z) = 0.40287 0.12849
#
# Static dielectric constant tensor:
#      x y z
#    x 3.712460 0.000000 -0.024520 
#    y 0.000000 3.062500 0.000000 
#    z -0.024520 0.000000 3.807480 
# 
# 
# High freq. dielectric constant tensor:
#      x y z
#    x 1.755790 0.000000 -0.004400 
#    y 0.000000 1.733950 0.000000 
#    z -0.004400 0.000000 1.744600 
# 
# From -- ./inp_files/64376.got.cif
#   From: 2010.06.25/outbox.cif.g09.slc.cpg/sg11_33_cif.got.tgz:64376.got - 2010.06.27 23:14:04.
