data_PCOD8074767
_publ_section_title
;
Structure prediction by ZEFSAII (Michael W. Deem and Ramdas Pophale) SiO2 
 PCOD8074767
Probable space group: P 21/M
;
_chemical_formula_sum "Si O2"
_cell_formula_units_Z 28
_cell_length_a 10.237205
_cell_length_b 8.962476
_cell_length_c 27.746303
_cell_angle_alpha 90.000000
_cell_angle_beta 34.353846
_cell_angle_gamma 90.000000
_cell_volume 1436.568179
_symmetry_space_group_name_H-M "P 21/M"
_symmetry_group_IT_number 11
_symmetry_cell_setting 'monoclinic'
loop_
_space_group_symop_operation_xyz
x,y,z
-x,1/2+y,-z
-x,-y,-z
x,1/2-y,z
loop_
_atom_site_type_symbol
_atom_site_label
_atom_site_fract_x
_atom_site_fract_y
_atom_site_fract_z
Si Si1 0.293718 0.926269 0.689482
Si Si2 0.630087 0.925276 0.504185
Si Si3 0.415883 0.923772 0.977207
Si Si4 0.434360 0.576700 0.750388
Si Si5 0.851808 0.074069 0.671416
Si Si6 0.164791 0.423099 0.221987
Si Si7 0.001639 0.924055 0.947808
O O1 0.268235 0.750000 0.699968
O O2 0.510203 0.975665 0.590537
O O3 0.330593 0.988667 0.732083
O O4 0.055176 0.990132 0.739907
O O5 0.607625 0.750000 0.503501
O O6 0.896049 0.976873 0.424003
O O7 0.500000 0.000000 0.500000
O O8 0.370262 0.750000 0.000673
O O9 0.606335 0.948240 0.878440
O O10 0.500000 0.000000 0.000000
O O11 0.180829 0.000982 0.032175
O O12 0.496723 0.750000 0.725658
O O13 0.668484 0.488879 0.689509
O O14 0.254003 0.551569 0.848371
O O15 0.828815 0.250000 0.680579
O O16 0.800639 0.011333 0.739580
O O17 0.125966 0.250000 0.246406
O O18 0.942593 0.750000 0.971259
O O19 0.000000 0.000000 0.000000
#
# Coordination Sequence:
#
# PCOD8074767 Si02
#       7
#     4   4   4   4   4   4   4
#     4   9  18  36  61  83 109 149 193 235 275 331
#     4  10  20  36  59  86 116 148 187 233 285 341
#     4  11  23  38  59  88 118 152 196 243 296 352
#     4  10  22  40  60  82 111 154 199 233 280 349
#     4  11  23  36  55  88 121 146 184 239 290 336
#     4  10  20  37  61  84 109 151 198 233 278 348
#     4  11  23  40  61  85 116 155 201 247 294 352
#
# _framework density 19.490894000000001
#
# number of rings (size 3 to 8) (size 9 to 14) (size 15 to 20)
#    0.000    1.714    1.429    3.000    0.000    9.143 
#    0.000    1.429    0.000    0.000    0.000    0.000 
#    0.000    0.000    0.000    0.000    0.000    0.000 
#
# Total GULP energy -347305.529151 kJ/mol
# GULP energy per Si atom -12403.768898 kJ/mol
# Density = 1.944653 g / cm^3
# Si number density = 19.490894 Si / 1000 Ang^3
#
#
#
# Elastic Constant Matrix: (Units=GPa)
#
#
# Indices 1 2 3 4 5 6 
#
# 1 112.2562 28.7384 18.3274 0.0000 -5.2265 0.0000
# 2 28.7384 67.2094 35.6848 0.0000 -5.5212 0.0000
# 3 18.3274 35.6848 75.1042 0.0000 -6.6953 0.0000
# 4 0.0000 0.0000 0.0000 21.9517 0.0000 -5.7936
# 5 -5.2265 -5.5212 -6.6953 0.0000 40.5314 0.0000
# 6 0.0000 0.0000 0.0000 -5.7936 0.0000 34.1646
#
#
#
# Elastic Compliance Matrix: (Units=1/GPa)
#
#
# Indices 1 2 3 4 5 6 
#
# 1 0.010038 -0.003970 -0.000504 0.000000 0.000670 0.000000
# 2 -0.003970 0.021523 -0.009177 0.000000 0.000904 0.000000
# 3 -0.000504 -0.009177 0.017945 0.000000 0.001649 0.000000
# 4 0.000000 0.000000 0.000000 0.047689 0.000000 0.008087
# 5 0.000670 0.000904 0.001649 0.000000 0.025154 0.000000
# 6 0.000000 0.000000 0.000000 0.008087 0.000000 0.030641
#
#
# Mechanical properties :
#
#
# Convention : Reuss Voigt Hill
#
# Bulk Modulus (GPa) = 45.03424 46.67457 45.85440
# Shear Modulus (GPa) = 26.63918 30.78415 28.71167
#
# Velocity S-wave (km/s) = 3.70097 3.97849 3.84224
# Velocity P-wave (km/s) = 6.43571 6.71591 6.57730
#
# Compressibility (1/GPa) = 0.02220533
#
# Stress axis : x y z
#
# Youngs Moduli (GPa) = 99.62242 46.46163 55.72539
#
# Poissons Ratio (x) = 0.18444 0.02806
# Poissons Ratio (y) = 0.39547 0.51140
# Poissons Ratio (z) = 0.05017 0.42638
#
# Static dielectric constant tensor:
#      x y z
#    x 3.498600 0.000000 -0.072080 
#    y 0.000000 3.507240 0.000000 
#    z -0.072080 0.000000 3.595160 
# 
# 
# High freq. dielectric constant tensor:
#      x y z
#    x 1.771830 0.000000 -0.002790 
#    y 0.000000 1.745110 0.000000 
#    z -0.002790 0.000000 1.772600 
# 
# From -- ./inp_files/54535.got.cif
#   From: 2010.06.25/outbox.cif.g09.slc.cpg/sg11_28_cif.got.tgz:54535.got - 2010.06.27 23:14:04.
