data_PCOD8074553
_publ_section_title
;
Structure prediction by ZEFSAII (Michael W. Deem and Ramdas Pophale) SiO2 
 PCOD8074553
Probable space group: P 21/M
;
_chemical_formula_sum "Si O2"
_cell_formula_units_Z 32
_cell_length_a 11.390364
_cell_length_b 9.106921
_cell_length_c 21.323931
_cell_angle_alpha 90.000000
_cell_angle_beta 52.160445
_cell_angle_gamma 90.000000
_cell_volume 1746.851587
_symmetry_space_group_name_H-M "P 21/M"
_symmetry_group_IT_number 11
_symmetry_cell_setting 'monoclinic'
loop_
_space_group_symop_operation_xyz
x,y,z
-x,1/2+y,-z
-x,-y,-z
x,1/2-y,z
loop_
_atom_site_type_symbol
_atom_site_label
_atom_site_fract_x
_atom_site_fract_y
_atom_site_fract_z
Si Si1 0.005779 0.576637 0.564360
Si Si2 0.850112 0.914737 0.058454
Si Si3 0.281404 0.077996 0.535148
Si Si4 0.369254 0.079397 0.123153
Si Si5 0.311442 0.422331 0.276003
Si Si6 0.558724 0.919055 0.390392
Si Si7 0.659870 0.914330 0.001694
Si Si8 0.597899 0.921652 0.235512
O O1 0.034575 0.750000 0.548603
O O2 0.131524 0.508019 0.567759
O O3 0.000000 0.500000 0.500000
O O4 0.846149 0.538489 0.644101
O O5 0.886469 0.750000 0.068433
O O6 0.791247 0.918848 0.007295
O O7 0.734072 0.983153 0.147564
O O8 0.000000 0.000000 0.000000
O O9 0.259528 0.250000 0.528557
O O10 0.318719 0.047573 0.596169
O O11 0.415090 0.020889 0.447437
O O12 0.373607 0.250000 0.133050
O O13 0.298213 0.013027 0.209376
O O14 0.537494 0.027095 0.063843
O O15 0.281744 0.039552 0.087373
O O16 0.345106 0.250000 0.268617
O O17 0.443433 0.501785 0.269524
O O18 0.506110 0.750000 0.412238
O O19 0.630852 0.951207 0.298459
O O20 0.590674 0.750000 0.020341
O O21 0.579115 0.750000 0.226943
#
# Coordination Sequence:
#
# PCOD8074553 Si02
#       8
#     4   4   4   4   4   4   4   4
#     4  11  23  38  55  80 113 146 180 220 269 321
#     4  10  21  36  53  76 106 139 175 218 265 314
#     4  10  20  36  57  82 112 143 181 223 266 320
#     4   9  17  31  53  77 102 132 168 213 261 309
#     4  10  21  35  53  79 108 138 175 221 267 316
#     4   9  19  36  59  82 107 144 183 223 269 315
#     4   9  17  32  53  76 102 132 169 211 258 313
#     4  10  20  36  57  79 105 137 178 222 263 315
#
# _framework density 18.318673
#
# number of rings (size 3 to 8) (size 9 to 14) (size 15 to 20)
#    0.000    2.250    1.250    1.500    0.000    5.000 
#    2.250    0.000    0.000    0.000    0.000    0.000 
#    0.000    0.000    0.000    0.000    0.000    0.000 
#
# Total GULP energy -396582.001602 kJ/mol
# GULP energy per Si atom -12393.187550 kJ/mol
# Density = 1.827698 g / cm^3
# Si number density = 18.318673 Si / 1000 Ang^3
#
#
#
# Elastic Constant Matrix: (Units=GPa)
#
#
# Indices 1 2 3 4 5 6 
#
# 1 114.8448 47.4894 81.0519 0.0000 0.6936 0.0000
# 2 47.4894 47.4966 45.4989 0.0000 1.4555 0.0000
# 3 81.0519 45.4989 140.8671 0.0000 15.9154 0.0000
# 4 0.0000 0.0000 0.0000 25.8155 0.0000 -3.7309
# 5 0.6936 1.4555 15.9154 0.0000 28.5669 0.0000
# 6 0.0000 0.0000 0.0000 -3.7309 0.0000 31.3696
#
#
#
# Elastic Compliance Matrix: (Units=1/GPa)
#
#
# Indices 1 2 3 4 5 6 
#
# 1 0.018880 -0.011778 -0.007550 0.000000 0.004348 0.000000
# 2 -0.011778 0.038313 -0.005773 0.000000 0.001550 0.000000
# 3 -0.007550 -0.005773 0.014144 0.000000 -0.007403 0.000000
# 4 0.000000 0.000000 0.000000 0.039414 0.000000 0.004688
# 5 0.004348 0.001550 -0.007403 0.000000 0.038945 0.000000
# 6 0.000000 0.000000 0.000000 0.004688 0.000000 0.032436
#
#
# Mechanical properties :
#
#
# Convention : Reuss Voigt Hill
#
# Bulk Modulus (GPa) = 47.31555 72.36545 59.84050
# Shear Modulus (GPa) = 20.88734 25.76160 23.32447
#
# Velocity S-wave (km/s) = 3.38038 3.75414 3.57215
# Velocity P-wave (km/s) = 6.41258 7.64073 7.05344
#
# Compressibility (1/GPa) = 0.02113470
#
# Stress axis : x y z
#
# Youngs Moduli (GPa) = 52.96627 26.10077 70.69983
#
# Poissons Ratio (x) = 0.30740 0.53381
# Poissons Ratio (y) = 0.62382 0.40818
# Poissons Ratio (z) = 0.39991 0.15069
#
# Static dielectric constant tensor:
#      x y z
#    x 3.282270 0.000000 0.184670 
#    y 0.000000 3.445900 0.000000 
#    z 0.184670 0.000000 3.389760 
# 
# 
# High freq. dielectric constant tensor:
#      x y z
#    x 1.706600 0.000000 0.022560 
#    y 0.000000 1.708410 0.000000 
#    z 0.022560 0.000000 1.715720 
# 
# From -- ./inp_files/64377.got.cif
#   From: 2010.06.25/outbox.cif.g09.slc.cpg/sg11_33_cif.got.tgz:64377.got - 2010.06.27 23:14:04.
