data_PCOD8074453
_publ_section_title
;
Structure prediction by ZEFSAII (Michael W. Deem and Ramdas Pophale) SiO2 
 PCOD8074453
Probable space group: P 21/M
;
_chemical_formula_sum "Si O2"
_cell_formula_units_Z 32
_cell_length_a 12.734024
_cell_length_b 9.122821
_cell_length_c 19.826469
_cell_angle_alpha 90.000000
_cell_angle_beta 49.930509
_cell_angle_gamma 90.000000
_cell_volume 1762.591347
_symmetry_space_group_name_H-M "P 21/M"
_symmetry_group_IT_number 11
_symmetry_cell_setting 'monoclinic'
loop_
_space_group_symop_operation_xyz
x,y,z
-x,1/2+y,-z
-x,-y,-z
x,1/2-y,z
loop_
_atom_site_type_symbol
_atom_site_label
_atom_site_fract_x
_atom_site_fract_y
_atom_site_fract_z
Si Si1 0.590073 0.415601 0.016270
Si Si2 0.290332 0.076279 0.917763
Si Si3 0.127663 0.582745 0.596669
Si Si4 0.850304 0.923994 0.273895
Si Si5 0.099806 0.420045 0.407959
Si Si6 0.888448 0.415219 0.914563
Si Si7 0.683800 0.077669 0.607964
Si Si8 0.374822 0.076491 0.735564
O O1 0.533908 0.250000 0.048761
O O2 0.586196 0.502163 0.089544
O O3 0.500000 0.500000 0.000000
O O4 0.749856 0.412932 0.925851
O O5 0.297479 0.250000 0.923321
O O6 0.308447 0.025159 0.833412
O O7 0.143353 0.015277 0.006106
O O8 0.152981 0.750000 0.607571
O O9 0.158269 0.481727 0.647204
O O10 0.233639 0.538064 0.493939
O O11 0.969350 0.561465 0.637404
O O12 0.853408 0.750000 0.275978
O O13 0.718818 0.983261 0.286759
O O14 0.987373 0.982746 0.180024
O O15 0.110653 0.250000 0.422890
O O16 0.248521 0.496215 0.354969
O O17 0.000000 0.500000 0.500000
O O18 0.925353 0.250000 0.923515
O O19 0.687548 0.250000 0.621611
O O20 0.529408 0.016902 0.663661
O O21 0.377814 0.250000 0.731791
#
# Coordination Sequence:
#
# PCOD8074453 Si02
#       8
#     4   4   4   4   4   4   4   4
#     4   9  17  32  52  75 104 136 171 210 257 309
#     4   9  17  32  53  76 101 132 170 211 256 304
#     4   9  19  34  51  75 107 136 167 213 264 304
#     4  10  20  36  55  75 102 139 181 216 252 309
#     4   9  17  32  54  78 105 135 169 213 261 313
#     4   8  18  34  50  72 102 132 168 212 256 303
#     4   9  18  35  55  76 106 139 170 211 261 312
#     4   9  19  35  55  78 104 137 177 216 256 308
#
# _framework density 18.155087999999999
#
# number of rings (size 3 to 8) (size 9 to 14) (size 15 to 20)
#    0.750    2.250    0.000    1.500    0.000    4.000 
#    2.250    3.125    0.000    0.000    0.000    0.000 
#    0.000    0.000    0.000    0.000    0.000    0.000 
#
# Total GULP energy -396485.600113 kJ/mol
# GULP energy per Si atom -12390.175004 kJ/mol
# Density = 1.811377 g / cm^3
# Si number density = 18.155088 Si / 1000 Ang^3
#
#
#
# Elastic Constant Matrix: (Units=GPa)
#
#
# Indices 1 2 3 4 5 6 
#
# 1 127.6158 44.2634 46.2890 0.0000 -0.2198 0.0000
# 2 44.2634 73.7912 30.5054 0.0000 4.7388 0.0000
# 3 46.2890 30.5054 77.5897 0.0000 -3.9228 0.0000
# 4 0.0000 0.0000 0.0000 23.7145 0.0000 4.7015
# 5 -0.2198 4.7388 -3.9228 0.0000 29.1764 0.0000
# 6 0.0000 0.0000 0.0000 4.7015 0.0000 25.5747
#
#
#
# Elastic Compliance Matrix: (Units=1/GPa)
#
#
# Indices 1 2 3 4 5 6 
#
# 1 0.011236 -0.004760 -0.004821 0.000000 0.000210 0.000000
# 2 -0.004760 0.018563 -0.004644 0.000000 -0.003675 0.000000
# 3 -0.004821 -0.004644 0.017747 0.000000 0.003104 0.000000
# 4 0.000000 0.000000 0.000000 0.043763 0.000000 -0.008045
# 5 0.000210 -0.003675 0.003104 0.000000 0.035290 0.000000
# 6 0.000000 0.000000 0.000000 -0.008045 0.000000 0.040580
#
#
# Mechanical properties :
#
#
# Convention : Reuss Voigt Hill
#
# Bulk Modulus (GPa) = 52.36880 57.90135 55.13508
# Shear Modulus (GPa) = 24.75283 26.22238 25.48761
#
# Velocity S-wave (km/s) = 3.69644 3.80459 3.75091
# Velocity P-wave (km/s) = 6.86485 7.15973 7.01384
#
# Compressibility (1/GPa) = 0.01909534
#
# Stress axis : x y z
#
# Youngs Moduli (GPa) = 88.99748 53.86997 56.34621
#
# Poissons Ratio (x) = 0.25644 0.27166
# Poissons Ratio (y) = 0.42367 0.26168
# Poissons Ratio (z) = 0.42907 0.25018
#
# Static dielectric constant tensor:
#      x y z
#    x 4.438130 0.000000 -0.419010 
#    y 0.000000 3.280510 0.000000 
#    z -0.419010 0.000000 3.267870 
# 
# 
# High freq. dielectric constant tensor:
#      x y z
#    x 1.705310 0.000000 -0.006050 
#    y 0.000000 1.693490 0.000000 
#    z -0.006050 0.000000 1.679570 
# 
# From -- ./inp_files/64345.got.cif
#   From: 2010.06.25/outbox.cif.g09.slc.cpg/sg11_33_cif.got.tgz:64345.got - 2010.06.27 23:14:04.
