data_PCOD8074078
_publ_section_title
;
Structure prediction by ZEFSAII (Michael W. Deem and Ramdas Pophale) SiO2 
 PCOD8074078
Probable space group: P 21/M
;
_chemical_formula_sum "Si O2"
_cell_formula_units_Z 32
_cell_length_a 31.031621
_cell_length_b 8.994279
_cell_length_c 11.876870
_cell_angle_alpha 90.000000
_cell_angle_beta 30.572388
_cell_angle_gamma 90.000000
_cell_volume 1686.055416
_symmetry_space_group_name_H-M "P 21/M"
_symmetry_group_IT_number 11
_symmetry_cell_setting 'monoclinic'
loop_
_space_group_symop_operation_xyz
x,y,z
-x,1/2+y,-z
-x,-y,-z
x,1/2-y,z
loop_
_atom_site_type_symbol
_atom_site_label
_atom_site_fract_x
_atom_site_fract_y
_atom_site_fract_z
Si Si1 0.737194 0.577892 0.698048
Si Si2 0.800339 0.581718 0.314298
Si Si3 0.238125 0.420989 0.846349
Si Si4 0.427635 0.076337 0.801921
Si Si5 0.402731 0.424886 0.602751
Si Si6 0.909927 0.421313 0.698364
Si Si7 0.972338 0.074944 0.947348
Si Si8 0.115090 0.921152 0.499766
O O1 0.753759 0.750000 0.691450
O O2 0.741408 0.548964 0.554807
O O3 0.806552 0.481160 0.605561
O O4 0.644438 0.528131 0.947691
O O5 0.837104 0.750000 0.239422
O O6 0.745376 0.562848 0.324603
O O7 0.875840 0.464315 0.139224
O O8 0.224386 0.250000 0.912381
O O9 0.319624 0.488208 0.727054
O O10 0.153264 0.508424 0.068958
O O11 0.446268 0.250000 0.764365
O O12 0.397126 0.028129 0.745995
O O13 0.513908 0.994077 0.641886
O O14 0.408504 0.250000 0.573390
O O15 0.924034 0.250000 0.697939
O O16 0.866856 0.439660 0.672956
O O17 0.000000 0.500000 0.500000
O O18 0.984067 0.250000 0.930539
O O19 0.030491 0.013438 0.716466
O O20 0.000000 0.000000 0.000000
O O21 0.100104 0.750000 0.566671
#
# Coordination Sequence:
#
# PCOD8074078 Si02
#       8
#     4   4   4   4   4   4   4   4
#     4  10  20  35  56  81 109 143 182 227 280 330
#     4  10  21  37  56  80 110 146 188 232 277 326
#     4  10  21  38  59  81 111 149 189 230 275 334
#     4   9  18  33  55  82 109 138 179 228 278 335
#     4   9  18  34  56  81 108 142 180 223 280 335
#     4  11  24  39  56  81 112 146 185 230 278 329
#     4  12  23  36  55  79 109 146 187 229 273 324
#     4  11  23  37  55  81 111 142 183 232 280 329
#
# _framework density 18.979212
#
# number of rings (size 3 to 8) (size 9 to 14) (size 15 to 20)
#    0.000    1.750    1.250    3.375    0.000    7.500 
#    0.000    3.125    0.000    0.000    0.000    0.000 
#    0.000    0.000    0.000    0.000    0.000    0.000 
#
# Total GULP energy -396915.106376 kJ/mol
# GULP energy per Si atom -12403.597074 kJ/mol
# Density = 1.893601 g / cm^3
# Si number density = 18.979212 Si / 1000 Ang^3
#
#
#
# Elastic Constant Matrix: (Units=GPa)
#
#
# Indices 1 2 3 4 5 6 
#
# 1 103.1963 38.4594 57.8609 0.0000 -4.2981 0.0000
# 2 38.4594 90.8507 50.3248 0.0000 -0.2608 0.0000
# 3 57.8609 50.3248 147.5007 0.0000 -2.4735 0.0000
# 4 0.0000 0.0000 0.0000 32.9811 0.0000 -3.6795
# 5 -4.2981 -0.2608 -2.4735 0.0000 31.5770 0.0000
# 6 0.0000 0.0000 0.0000 -3.6795 0.0000 24.6340
#
#
#
# Elastic Compliance Matrix: (Units=1/GPa)
#
#
# Indices 1 2 3 4 5 6 
#
# 1 0.013270 -0.003383 -0.004027 0.000000 0.001463 0.000000
# 2 -0.003383 0.014436 -0.003609 0.000000 -0.000624 0.000000
# 3 -0.004027 -0.003609 0.009593 0.000000 0.000174 0.000000
# 4 0.000000 0.000000 0.000000 0.030834 0.000000 0.004606
# 5 0.001463 -0.000624 0.000174 0.000000 0.031876 0.000000
# 6 0.000000 0.000000 0.000000 0.004606 0.000000 0.041282
#
#
# Mechanical properties :
#
#
# Convention : Reuss Voigt Hill
#
# Bulk Modulus (GPa) = 65.51909 70.53754 68.02831
# Shear Modulus (GPa) = 29.68834 30.83192 30.26013
#
# Velocity S-wave (km/s) = 3.95936 4.03489 3.99730
# Velocity P-wave (km/s) = 7.44973 7.67812 7.56479
#
# Compressibility (1/GPa) = 0.01526273
#
# Stress axis : x y z
#
# Youngs Moduli (GPa) = 75.36052 69.26954 104.23792
#
# Poissons Ratio (x) = 0.23431 0.41973
# Poissons Ratio (y) = 0.25492 0.37619
# Poissons Ratio (z) = 0.30345 0.24999
#
# Static dielectric constant tensor:
#      x y z
#    x 3.586730 0.000000 0.076150 
#    y 0.000000 3.573680 0.000000 
#    z 0.076150 0.000000 3.595230 
# 
# 
# High freq. dielectric constant tensor:
#      x y z
#    x 1.735930 0.000000 0.007730 
#    y 0.000000 1.736180 0.000000 
#    z 0.007730 0.000000 1.735100 
# 
# From -- ./inp_files/45188.got.cif
#   From: 2010.06.25/outbox.cif.g09.slc.cpg/sg11_23_cif.got.tgz:45188.got - 2010.06.27 23:14:04.
