data_PCOD8074196
_publ_section_title
;
Structure prediction by ZEFSAII (Michael W. Deem and Ramdas Pophale) SiO2 
 PCOD8074196
Probable space group: P 21/M
;
_chemical_formula_sum "Si O2"
_cell_formula_units_Z 20
_cell_length_a 21.319123
_cell_length_b 9.231063
_cell_length_c 5.123396
_cell_angle_alpha 90.000000
_cell_angle_beta 59.075687
_cell_angle_gamma 90.000000
_cell_volume 864.945547
_symmetry_space_group_name_H-M "P 21/M"
_symmetry_group_IT_number 11
_symmetry_cell_setting 'monoclinic'
loop_
_space_group_symop_operation_xyz
x,y,z
-x,1/2+y,-z
-x,-y,-z
x,1/2-y,z
loop_
_atom_site_type_symbol
_atom_site_label
_atom_site_fract_x
_atom_site_fract_y
_atom_site_fract_z
Si Si1 0.461205 0.096766 0.377316
Si Si2 0.742029 0.079286 0.869934
Si Si3 0.799309 0.918040 0.246923
Si Si4 0.388939 0.902729 0.192124
Si Si5 0.029871 0.417643 0.186176
O O1 0.436830 0.250000 0.552655
O O2 0.500000 0.000000 0.500000
O O3 0.386629 0.028966 0.413809
O O4 0.524921 0.123626 0.030388
O O5 0.762972 0.250000 0.839622
O O6 0.656418 0.056438 0.971382
O O7 0.789268 0.998718 0.545318
O O8 0.753608 0.004229 0.124557
O O9 0.773960 0.750000 0.321128
O O10 0.883288 0.925705 0.988927
O O11 0.356200 0.750000 0.373852
O O12 0.003633 0.250000 0.240417
O O13 0.000000 0.500000 0.500000
O O14 0.000000 0.500000 0.000000
#
# Coordination Sequence:
#
# PCOD8074196 Si02
#       5
#     4   4   4   4   4
#     4  10  20  35  57  83 113 149 196 253 309 367
#     4  11  24  42  66  93 126 171 217 261 313 379
#     4  11  25  44  64  95 134 168 207 262 317 372
#     4   9  21  39  56  80 114 153 200 254 307 363
#     4  11  24  42  67  97 131 168 210 260 313 370
#
# _framework density 23.122841000000001
#
# number of rings (size 3 to 8) (size 9 to 14) (size 15 to 20)
#    0.000    1.600    0.000    3.600    2.800   10.400 
#    0.000    0.000    0.000    0.000    0.000    0.000 
#    0.000    0.000    0.000    0.000    0.000    0.000 
#
# Total GULP energy -247792.566108 kJ/mol
# GULP energy per Si atom -12389.628305 kJ/mol
# Density = 2.307021 g / cm^3
# Si number density = 23.122841 Si / 1000 Ang^3
#
#
#
# Elastic Constant Matrix: (Units=GPa)
#
#
# Indices 1 2 3 4 5 6 
#
# 1 95.9128 56.5123 -1.8610 0.0000 17.7449 0.0000
# 2 56.5123 201.5710 26.7920 0.0000 30.4486 0.0000
# 3 -1.8610 26.7920 60.3562 0.0000 16.6400 0.0000
# 4 0.0000 0.0000 0.0000 34.2436 0.0000 9.2604
# 5 17.7449 30.4486 16.6400 0.0000 37.7291 0.0000
# 6 0.0000 0.0000 0.0000 9.2604 0.0000 39.7493
#
#
#
# Elastic Compliance Matrix: (Units=1/GPa)
#
#
# Indices 1 2 3 4 5 6 
#
# 1 0.013455 -0.003459 0.003330 0.000000 -0.005006 0.000000
# 2 -0.003459 0.006648 -0.002308 0.000000 -0.002721 0.000000
# 3 0.003330 -0.002308 0.020052 0.000000 -0.008548 0.000000
# 4 0.000000 0.000000 0.000000 0.031166 0.000000 -0.007261
# 5 -0.005006 -0.002721 -0.008548 0.000000 0.034825 0.000000
# 6 0.000000 0.000000 0.000000 -0.007261 0.000000 0.026849
#
#
# Mechanical properties :
#
#
# Convention : Reuss Voigt Hill
#
# Bulk Modulus (GPa) = 28.34253 57.85849 43.10051
# Shear Modulus (GPa) = 33.41613 40.77085 37.09349
#
# Velocity S-wave (km/s) = 3.80565 4.20364 4.00958
# Velocity P-wave (km/s) = 5.62091 6.97404 6.33371
#
# Compressibility (1/GPa) = 0.03528266
#
# Stress axis : x y z
#
# Youngs Moduli (GPa) = 74.32357 150.41083 49.87056
#
# Poissons Ratio (x) = 0.52022 -0.16608
# Poissons Ratio (y) = 0.25706 0.11509
# Poissons Ratio (z) = -0.24751 0.34710
#
# Static dielectric constant tensor:
#      x y z
#    x 4.761790 0.000000 -0.877730 
#    y 0.000000 5.148860 0.000000 
#    z -0.877730 0.000000 4.840750 
# 
# 
# High freq. dielectric constant tensor:
#      x y z
#    x 1.917560 0.000000 0.007280 
#    y 0.000000 1.941360 0.000000 
#    z 0.007280 0.000000 1.903490 
# 
# From -- ./inp_files/8475.got.cif
#   From: 2010.06.25/outbox.cif.g09.slc.cpg/sg11_5_cif.got.tgz:8475.got - 2010.06.27 23:14:04.
