data_PCOD8074608
_publ_section_title
;
Structure prediction by ZEFSAII (Michael W. Deem and Ramdas Pophale) SiO2 
 PCOD8074608
Probable space group: P 21/M
;
_chemical_formula_sum "Si O2"
_cell_formula_units_Z 28
_cell_length_a 21.541636
_cell_length_b 8.942521
_cell_length_c 14.513935
_cell_angle_alpha 90.000000
_cell_angle_beta 149.342977
_cell_angle_gamma 90.000000
_cell_volume 1425.630474
_symmetry_space_group_name_H-M "P 21/M"
_symmetry_group_IT_number 11
_symmetry_cell_setting 'monoclinic'
loop_
_space_group_symop_operation_xyz
x,y,z
-x,1/2+y,-z
-x,-y,-z
x,1/2-y,z
loop_
_atom_site_type_symbol
_atom_site_label
_atom_site_fract_x
_atom_site_fract_y
_atom_site_fract_z
Si Si1 0.333976 0.076282 0.369102
Si Si2 0.818987 0.073138 0.520007
Si Si3 0.345930 0.921740 0.000335
Si Si4 0.387224 0.920021 0.256835
Si Si5 0.884622 0.427500 0.804353
Si Si6 0.890413 0.073568 0.413018
Si Si7 0.547100 0.426562 0.152470
O O1 0.300254 0.250000 0.334837
O O2 0.470561 0.040101 0.577315
O O3 0.323198 0.028325 0.248415
O O4 0.240818 0.981992 0.311130
O O5 0.812427 0.250000 0.507365
O O6 0.887548 0.021909 0.700590
O O7 0.887728 0.015394 0.515610
O O8 0.681539 0.011088 0.345656
O O9 0.378585 0.750000 0.019055
O O10 0.233095 0.976573 0.795237
O O11 0.315574 0.941027 0.069560
O O12 0.461349 0.024999 0.126733
O O13 0.377160 0.750000 0.280290
O O14 0.892168 0.250000 0.823920
O O15 0.000000 0.500000 0.000000
O O16 0.906517 0.250000 0.428375
O O17 0.000000 0.000000 0.500000
O O18 0.546577 0.250000 0.139681
O O19 0.500000 0.500000 0.000000
#
# Coordination Sequence:
#
# PCOD8074608 Si02
#       7
#     4   4   4   4   4   4   4
#     4  10  20  36  57  84 117 150 187 235 289 344
#     4   9  20  39  60  82 114 151 184 231 290 340
#     4  10  20  36  57  83 116 148 185 235 283 332
#     4   9  19  35  58  86 116 150 187 233 288 340
#     4  11  23  40  61  83 111 151 197 243 290 342
#     4  10  21  39  57  77 110 147 186 227 274 332
#     4  11  20  34  58  87 117 149 186 229 283 343
#
# _framework density 19.640433000000002
#
# number of rings (size 3 to 8) (size 9 to 14) (size 15 to 20)
#    0.000    2.000    1.429    2.143    0.000    2.857 
#    0.000    6.429    0.000    0.000    0.000    0.000 
#    0.000    0.000    0.000    0.000    0.000    0.000 
#
# Total GULP energy -347219.980297 kJ/mol
# GULP energy per Si atom -12400.713582 kJ/mol
# Density = 1.959573 g / cm^3
# Si number density = 19.640433 Si / 1000 Ang^3
#
#
#
# Elastic Constant Matrix: (Units=GPa)
#
#
# Indices 1 2 3 4 5 6 
#
# 1 148.5237 42.3902 75.3870 0.0000 -7.9493 0.0000
# 2 42.3902 60.8312 38.9021 0.0000 -2.4261 0.0000
# 3 75.3870 38.9021 111.4830 0.0000 -16.4163 0.0000
# 4 0.0000 0.0000 0.0000 28.0294 0.0000 4.8231
# 5 -7.9493 -2.4261 -16.4163 0.0000 37.1948 0.0000
# 6 0.0000 0.0000 0.0000 4.8231 0.0000 36.8052
#
#
#
# Elastic Compliance Matrix: (Units=1/GPa)
#
#
# Indices 1 2 3 4 5 6 
#
# 1 0.010875 -0.003657 -0.006172 0.000000 -0.000638 0.000000
# 2 -0.003657 0.022532 -0.005656 0.000000 -0.001808 0.000000
# 3 -0.006172 -0.005656 0.015902 0.000000 0.005331 0.000000
# 4 0.000000 0.000000 0.000000 0.036500 0.000000 -0.004783
# 5 -0.000638 -0.001808 0.005331 0.000000 0.028984 0.000000
# 6 0.000000 0.000000 0.000000 -0.004783 0.000000 0.027797
#
#
# Mechanical properties :
#
#
# Convention : Reuss Voigt Hill
#
# Bulk Modulus (GPa) = 54.52598 70.46627 62.49613
# Shear Modulus (GPa) = 27.82828 31.34977 29.58903
#
# Velocity S-wave (km/s) = 3.76824 3.99956 3.88562
# Velocity P-wave (km/s) = 6.83778 7.56867 7.21249
#
# Compressibility (1/GPa) = 0.01833988
#
# Stress axis : x y z
#
# Youngs Moduli (GPa) = 91.95235 44.38094 62.88413
#
# Poissons Ratio (x) = 0.16229 0.38812
# Poissons Ratio (y) = 0.33625 0.35568
# Poissons Ratio (z) = 0.56753 0.25102
#
# Static dielectric constant tensor:
#      x y z
#    x 3.778300 0.000000 -0.128000 
#    y 0.000000 3.502140 0.000000 
#    z -0.128000 0.000000 3.606760 
# 
# 
# High freq. dielectric constant tensor:
#      x y z
#    x 1.775440 0.000000 -0.011270 
#    y 0.000000 1.751580 0.000000 
#    z -0.011270 0.000000 1.762510 
# 
# From -- ./inp_files/54630.got.cif
#   From: 2010.06.25/outbox.cif.g09.slc.cpg/sg11_28_cif.got.tgz:54630.got - 2010.06.27 23:14:04.
