data_PCOD8074370
_publ_section_title
;
Structure prediction by ZEFSAII (Michael W. Deem and Ramdas Pophale) SiO2 
 PCOD8074370
Probable space group: P 21/M
;
_chemical_formula_sum "Si O2"
_cell_formula_units_Z 28
_cell_length_a 15.080918
_cell_length_b 18.689501
_cell_length_c 9.268786
_cell_angle_alpha 90.000000
_cell_angle_beta 147.366470
_cell_angle_gamma 90.000000
_cell_volume 1408.800606
_symmetry_space_group_name_H-M "P 21/M"
_symmetry_group_IT_number 11
_symmetry_cell_setting 'monoclinic'
loop_
_space_group_symop_operation_xyz
x,y,z
-x,1/2+y,-z
-x,-y,-z
x,1/2-y,z
loop_
_atom_site_type_symbol
_atom_site_label
_atom_site_fract_x
_atom_site_fract_y
_atom_site_fract_z
Si Si1 0.810060 0.591256 0.762574
Si Si2 0.455741 0.168741 0.417028
Si Si3 0.812730 0.669919 0.191154
Si Si4 0.932720 0.167560 0.706768
Si Si5 0.375092 0.539721 0.432479
Si Si6 0.627521 0.075268 0.251996
Si Si7 0.278401 0.425287 0.679503
O O1 0.660009 0.640170 0.613702
O O2 0.791704 0.508308 0.795408
O O3 0.806993 0.596394 0.586513
O O4 0.985473 0.620447 0.054607
O O5 0.507676 0.250000 0.521531
O O6 0.624317 0.121553 0.628574
O O7 0.354188 0.161951 0.129195
O O8 0.821439 0.750000 0.267677
O O9 0.823002 0.612593 0.332745
O O10 0.970293 0.654966 0.307975
O O11 0.937150 0.250000 0.759855
O O12 0.745314 0.143196 0.432693
O O13 0.500000 0.500000 0.500000
O O14 0.434577 0.542600 0.680152
O O15 0.723414 0.011335 0.300217
O O16 0.468950 0.101020 0.944809
#
# Coordination Sequence:
#
# PCOD8074370 Si02
#       7
#     4   4   4   4   4   4   4
#     4   9  19  34  57  83 112 151 191 240 287 340
#     4   9  16  30  52  80 110 148 194 236 284 341
#     4   9  18  33  56  80 111 155 194 229 282 352
#     4  10  22  40  59  83 117 154 194 235 285 350
#     4   9  17  31  54  83 113 143 190 240 276 326
#     4  10  21  36  58  88 117 148 192 241 291 341
#     4  10  20  35  59  88 114 144 195 242 285 343
#
# _framework density 19.875062
#
# number of rings (size 3 to 8) (size 9 to 14) (size 15 to 20)
#    0.000    2.571    1.429    1.286    0.000    5.143 
#    0.000    0.000   12.571    0.000    0.000    0.000 
#    0.000    0.000    0.000    0.000    0.000    0.000 
#
# Total GULP energy -346960.983992 kJ/mol
# GULP energy per Si atom -12391.463714 kJ/mol
# Density = 1.982983 g / cm^3
# Si number density = 19.875062 Si / 1000 Ang^3
#
#
#
# Elastic Constant Matrix: (Units=GPa)
#
#
# Indices 1 2 3 4 5 6 
#
# 1 61.5606 27.4299 14.3023 0.0000 -12.1146 0.0000
# 2 27.4299 97.9643 21.1636 0.0000 3.3380 0.0000
# 3 14.3023 21.1636 62.6102 0.0000 6.2163 0.0000
# 4 0.0000 0.0000 0.0000 31.0964 0.0000 3.4129
# 5 -12.1146 3.3380 6.2163 0.0000 18.4500 0.0000
# 6 0.0000 0.0000 0.0000 3.4129 0.0000 30.2692
#
#
#
# Elastic Compliance Matrix: (Units=1/GPa)
#
#
# Indices 1 2 3 4 5 6 
#
# 1 0.023857 -0.006189 -0.005198 0.000000 0.018536 0.000000
# 2 -0.006189 0.012628 -0.002301 0.000000 -0.005573 0.000000
# 3 -0.005198 -0.002301 0.018866 0.000000 -0.009353 0.000000
# 4 0.000000 0.000000 0.000000 0.032561 0.000000 -0.003671
# 5 0.018536 -0.005573 -0.009353 0.000000 0.070531 0.000000
# 6 0.000000 0.000000 0.000000 -0.003671 0.000000 0.033451
#
#
# Mechanical properties :
#
#
# Convention : Reuss Voigt Hill
#
# Bulk Modulus (GPa) = 35.74739 38.65853 37.20296
# Shear Modulus (GPa) = 21.87279 26.57909 24.22594
#
# Velocity S-wave (km/s) = 3.32100 3.66089 3.49508
# Velocity P-wave (km/s) = 5.72106 6.11249 5.92001
#
# Compressibility (1/GPa) = 0.02797407
#
# Stress axis : x y z
#
# Youngs Moduli (GPa) = 41.91640 79.19127 53.00575
#
# Poissons Ratio (x) = 0.49008 0.27554
# Poissons Ratio (y) = 0.25940 0.12199
# Poissons Ratio (z) = 0.21789 0.18226
#
# Static dielectric constant tensor:
#      x y z
#    x 3.576500 0.000000 -0.070770 
#    y 0.000000 3.937170 0.000000 
#    z -0.070770 0.000000 3.270520 
# 
# 
# High freq. dielectric constant tensor:
#      x y z
#    x 1.771650 0.000000 -0.005140 
#    y 0.000000 1.785000 0.000000 
#    z -0.005140 0.000000 1.733760 
# 
# From -- ./inp_files/23228.got.cif
#   From: 2010.06.25/outbox.cif.g09.slc.cpg/sg11_12_cif.got.tgz:23228.got - 2010.06.27 23:14:04.
