data_PCOD8074231
_publ_section_title
;
Structure prediction by ZEFSAII (Michael W. Deem and Ramdas Pophale) SiO2 
 PCOD8074231
Probable space group: P 21/M
;
_chemical_formula_sum "Si O2"
_cell_formula_units_Z 24
_cell_length_a 14.635733
_cell_length_b 8.981579
_cell_length_c 14.879779
_cell_angle_alpha 90.000000
_cell_angle_beta 139.756695
_cell_angle_gamma 90.000000
_cell_volume 1263.628930
_symmetry_space_group_name_H-M "P 21/M"
_symmetry_group_IT_number 11
_symmetry_cell_setting 'monoclinic'
loop_
_space_group_symop_operation_xyz
x,y,z
-x,1/2+y,-z
-x,-y,-z
x,1/2-y,z
loop_
_atom_site_type_symbol
_atom_site_label
_atom_site_fract_x
_atom_site_fract_y
_atom_site_fract_z
Si Si1 0.871000 0.423085 0.574099
Si Si2 0.638239 0.075868 0.907412
Si Si3 0.406549 0.424004 0.303875
Si Si4 0.319208 0.423134 0.715523
Si Si5 0.309961 0.076311 0.425910
Si Si6 0.802736 0.578241 0.184865
O O1 0.840823 0.250000 0.564319
O O2 0.779022 0.481540 0.422736
O O3 0.830427 0.505307 0.636780
O O4 0.033457 0.456213 0.674463
O O5 0.655424 0.250000 0.903540
O O6 0.481483 0.032917 0.822055
O O7 0.675349 0.990654 0.842861
O O8 0.750068 0.025018 0.065168
O O9 0.434222 0.250000 0.311848
O O10 0.556568 0.504526 0.424168
O O11 0.311904 0.456036 0.320990
O O12 0.290537 0.250000 0.674257
O O13 0.282982 0.464754 0.790390
O O14 0.314723 0.250000 0.450936
O O15 0.778211 0.750000 0.140209
#
# Coordination Sequence:
#
# PCOD8074231 Si02
#       6
#     4   4   4   4   4   4
#     4  11  22  36  58  86 114 151 192 232 282 335
#     4  11  22  36  58  87 115 149 190 232 284 338
#     4  10  20  35  58  85 113 146 184 231 282 333
#     4  10  21  38  59  83 113 149 192 239 281 331
#     4  10  20  35  57  85 114 145 185 232 281 333
#     4  10  23  40  56  80 117 155 192 233 280 336
#
# _framework density 18.992919000000001
#
# number of rings (size 3 to 8) (size 9 to 14) (size 15 to 20)
#    0.000    1.667    1.667    3.000    0.000    4.667 
#    0.000    0.833    0.000    0.000    0.000    0.000 
#    0.000    0.000    0.000    0.000    0.000    0.000 
#
# Total GULP energy -297729.672145 kJ/mol
# GULP energy per Si atom -12405.403006 kJ/mol
# Density = 1.894969 g / cm^3
# Si number density = 18.992919 Si / 1000 Ang^3
#
#
#
# Elastic Constant Matrix: (Units=GPa)
#
#
# Indices 1 2 3 4 5 6 
#
# 1 67.2308 33.0846 24.7758 0.0000 -22.8208 0.0000
# 2 33.0846 89.3250 42.4657 0.0000 -9.6776 0.0000
# 3 24.7758 42.4657 84.3395 0.0000 -13.3873 0.0000
# 4 0.0000 0.0000 0.0000 34.1112 0.0000 -4.2233
# 5 -22.8208 -9.6776 -13.3873 0.0000 25.8809 0.0000
# 6 0.0000 0.0000 0.0000 -4.2233 0.0000 30.2361
#
#
#
# Elastic Compliance Matrix: (Units=1/GPa)
#
#
# Indices 1 2 3 4 5 6 
#
# 1 0.025004 -0.006762 -0.000918 0.000000 0.019045 0.000000
# 2 -0.006762 0.016626 -0.006912 0.000000 -0.003321 0.000000
# 3 -0.000918 -0.006912 0.016416 0.000000 0.005097 0.000000
# 4 0.000000 0.000000 0.000000 0.029832 0.000000 0.004167
# 5 0.019045 -0.003321 0.005097 0.000000 0.056827 0.000000
# 6 0.000000 0.000000 0.000000 0.004167 0.000000 0.033655
#
#
# Mechanical properties :
#
#
# Convention : Reuss Voigt Hill
#
# Bulk Modulus (GPa) = 34.64620 49.06082 41.85351
# Shear Modulus (GPa) = 23.02416 27.41691 25.22054
#
# Velocity S-wave (km/s) = 3.48551 3.80351 3.64798
# Velocity P-wave (km/s) = 5.87194 6.72132 6.31093
#
# Compressibility (1/GPa) = 0.02886319
#
# Stress axis : x y z
#
# Youngs Moduli (GPa) = 39.99306 60.14789 60.91682
#
# Poissons Ratio (x) = 0.40669 0.05591
# Poissons Ratio (y) = 0.27041 0.42106
# Poissons Ratio (z) = 0.03671 0.41574
#
# Static dielectric constant tensor:
#      x y z
#    x 3.733940 0.000000 -0.101960 
#    y 0.000000 3.557100 0.000000 
#    z -0.101960 0.000000 3.256540 
# 
# 
# High freq. dielectric constant tensor:
#      x y z
#    x 1.749180 0.000000 -0.013800 
#    y 0.000000 1.748330 0.000000 
#    z -0.013800 0.000000 1.723320 
# 
# From -- ./inp_files/25725.got.cif
#   From: 2010.06.25/outbox.cif.g09.slc.cpg/sg11_13_cif.got.tgz:25725.got - 2010.06.27 23:14:04.
