data_PCOD8074730
_publ_section_title
;
Structure prediction by ZEFSAII (Michael W. Deem and Ramdas Pophale) SiO2 
 PCOD8074730
Probable space group: P 21/M
;
_chemical_formula_sum "Si O2"
_cell_formula_units_Z 20
_cell_length_a 15.673592
_cell_length_b 9.104982
_cell_length_c 22.181059
_cell_angle_alpha 90.000000
_cell_angle_beta 161.010475
_cell_angle_gamma 90.000000
_cell_volume 1030.009341
_symmetry_space_group_name_H-M "P 21/M"
_symmetry_group_IT_number 11
_symmetry_cell_setting 'monoclinic'
loop_
_space_group_symop_operation_xyz
x,y,z
-x,1/2+y,-z
-x,-y,-z
x,1/2-y,z
loop_
_atom_site_type_symbol
_atom_site_label
_atom_site_fract_x
_atom_site_fract_y
_atom_site_fract_z
Si Si1 0.288969 0.577155 0.567820
Si Si2 0.507435 0.421127 0.829026
Si Si3 0.883422 0.919245 0.767742
Si Si4 0.497035 0.578479 0.403332
Si Si5 0.311020 0.078801 0.827698
O O1 0.335411 0.750000 0.596143
O O2 0.376815 0.519258 0.691012
O O3 0.462928 0.500917 0.633202
O O4 0.986053 0.535975 0.355137
O O5 0.457105 0.250000 0.781449
O O6 0.374357 0.471375 0.802215
O O7 0.814161 0.456626 0.038378
O O8 0.834169 0.750000 0.751931
O O9 0.741196 0.958113 0.609941
O O10 0.770107 0.018580 0.745685
O O11 0.464656 0.750000 0.369426
O O12 0.364331 0.250000 0.870037
O O13 0.500000 0.000000 0.000000
#
# Coordination Sequence:
#
# PCOD8074730 Si02
#       5
#     4   4   4   4   4
#     4  11  23  37  55  83 116 147 183 227 273 325
#     4  10  21  38  58  81 112 148 184 225 276 329
#     4   9  19  36  58  83 110 142 185 233 275 323
#     4  10  20  36  59  83 110 147 186 227 277 328
#     4  10  22  39  60  85 112 144 183 227 274 327
#
# _framework density 19.417300000000001
#
# number of rings (size 3 to 8) (size 9 to 14) (size 15 to 20)
#    0.000    2.000    0.000    3.000    0.000    6.400 
#    0.000    0.000    0.000    0.000    0.000    0.000 
#    0.000    0.000    0.000    0.000    0.000    0.000 
#
# Total GULP energy -248118.034936 kJ/mol
# GULP energy per Si atom -12405.901747 kJ/mol
# Density = 1.937311 g / cm^3
# Si number density = 19.417300 Si / 1000 Ang^3
#
#
#
# Elastic Constant Matrix: (Units=GPa)
#
#
# Indices 1 2 3 4 5 6 
#
# 1 117.9362 45.9144 7.0746 0.0000 -1.7125 0.0000
# 2 45.9144 69.6790 22.6161 0.0000 1.6716 0.0000
# 3 7.0746 22.6161 29.0764 0.0000 -2.6770 0.0000
# 4 0.0000 0.0000 0.0000 31.9287 0.0000 -6.3595
# 5 -1.7125 1.6716 -2.6770 0.0000 27.4602 0.0000
# 6 0.0000 0.0000 0.0000 -6.3595 0.0000 33.6699
#
#
#
# Elastic Compliance Matrix: (Units=1/GPa)
#
#
# Indices 1 2 3 4 5 6 
#
# 1 0.011866 -0.009332 0.004533 0.000000 0.001750 0.000000
# 2 -0.009332 0.026730 -0.018894 0.000000 -0.004051 0.000000
# 3 0.004533 -0.018894 0.048553 0.000000 0.006166 0.000000
# 4 0.000000 0.000000 0.000000 0.032544 0.000000 0.006147
# 5 0.001750 -0.004051 0.006166 0.000000 0.037373 0.000000
# 6 0.000000 0.000000 0.000000 0.006147 0.000000 0.030861
#
#
# Mechanical properties :
#
#
# Convention : Reuss Voigt Hill
#
# Bulk Modulus (GPa) = 25.14910 40.87800 33.01355
# Shear Modulus (GPa) = 20.11519 28.01752 24.06636
#
# Velocity S-wave (km/s) = 3.22210 3.80269 3.52437
# Velocity P-wave (km/s) = 5.17905 6.35442 5.79661
#
# Compressibility (1/GPa) = 0.03976285
#
# Stress axis : x y z
#
# Youngs Moduli (GPa) = 84.27599 37.41051 20.59604
#
# Poissons Ratio (x) = 0.34912 -0.09336
# Poissons Ratio (y) = 0.78647 0.38914
# Poissons Ratio (z) = -0.38200 0.70683
#
# Static dielectric constant tensor:
#      x y z
#    x 3.623390 0.000000 0.089000 
#    y 0.000000 3.518180 0.000000 
#    z 0.089000 0.000000 3.563820 
# 
# 
# High freq. dielectric constant tensor:
#      x y z
#    x 1.768920 0.000000 0.004650 
#    y 0.000000 1.756580 0.000000 
#    z 0.004650 0.000000 1.758830 
# 
# From -- ./inp_files/15884.got.cif
#   From: 2010.06.25/outbox.cif.g09.slc.cpg/sg11_8_cif.got.tgz:15884.got - 2010.06.27 23:14:04.
