data_PCOD8074623
_publ_section_title
;
Structure prediction by ZEFSAII (Michael W. Deem and Ramdas Pophale) SiO2 
 PCOD8074623
Probable space group: P 21/M
;
_chemical_formula_sum "Si O2"
_cell_formula_units_Z 32
_cell_length_a 11.955592
_cell_length_b 8.673922
_cell_length_c 28.866400
_cell_angle_alpha 90.000000
_cell_angle_beta 149.258992
_cell_angle_gamma 90.000000
_cell_volume 1530.151948
_symmetry_space_group_name_H-M "P 21/M"
_symmetry_group_IT_number 11
_symmetry_cell_setting 'monoclinic'
loop_
_space_group_symop_operation_xyz
x,y,z
-x,1/2+y,-z
-x,-y,-z
x,1/2-y,z
loop_
_atom_site_type_symbol
_atom_site_label
_atom_site_fract_x
_atom_site_fract_y
_atom_site_fract_z
Si Si1 0.872594 0.931824 0.998394
Si Si2 0.511573 0.928095 0.302727
Si Si3 0.407280 0.567303 0.420010
Si Si4 0.047496 0.068468 0.784340
Si Si5 0.225757 0.570829 0.678902
Si Si6 0.936465 0.930486 0.840605
Si Si7 0.623892 0.071511 0.167124
Si Si8 0.227170 0.071170 0.518015
O O1 0.885071 0.750000 0.997811
O O2 0.620778 0.987892 0.909548
O O3 0.979584 0.982199 0.084331
O O4 0.000000 0.000000 0.000000
O O5 0.438824 0.750000 0.277582
O O6 0.725679 0.957315 0.410994
O O7 0.572254 0.980624 0.272629
O O8 0.318518 0.030048 0.255202
O O9 0.500000 0.500000 0.500000
O O10 0.406637 0.750000 0.423273
O O11 0.568417 0.503847 0.437658
O O12 0.162813 0.509273 0.320061
O O13 0.034105 0.250000 0.788071
O O14 0.268648 0.026609 0.835743
O O15 0.061230 0.987002 0.839120
O O16 0.252694 0.750000 0.675543
O O17 0.231452 0.544553 0.735633
O O18 0.000919 0.495723 0.579463
O O19 0.973993 0.750000 0.860309
O O20 0.622671 0.250000 0.151887
O O21 0.206715 0.250000 0.498641
#
# Coordination Sequence:
#
# PCOD8074623 Si02
#       8
#     4   4   4   4   4   4   4   4
#     4  11  24  44  70 100 132 166 207 257 314 377
#     4  11  21  37  59  86 124 164 207 259 314 373
#     4  10  20  36  57  84 120 163 210 257 309 364
#     4  11  23  41  65  92 126 164 209 262 314 372
#     4  10  20  36  59  88 123 164 207 254 310 375
#     4  12  25  42  66  93 124 166 214 264 319 379
#     4  10  23  42  64  91 126 163 203 252 311 375
#     4   9  18  34  55  81 121 163 201 250 309 369
#
# _framework density 20.912958
#
# number of rings (size 3 to 8) (size 9 to 14) (size 15 to 20)
#    0.000    1.500    1.250    4.125    0.000    5.000 
#    0.000    1.250    0.000    0.000    0.000    0.000 
#    0.000    0.000    0.000    0.000    0.000    0.000 
#
# Total GULP energy -396859.534713 kJ/mol
# GULP energy per Si atom -12401.860460 kJ/mol
# Density = 2.086536 g / cm^3
# Si number density = 20.912958 Si / 1000 Ang^3
#
#
#
# Elastic Constant Matrix: (Units=GPa)
#
#
# Indices 1 2 3 4 5 6 
#
# 1 147.6648 35.5320 48.3610 0.0000 6.4248 0.0000
# 2 35.5320 47.1609 23.3827 0.0000 5.7020 0.0000
# 3 48.3610 23.3827 103.4000 0.0000 1.9728 0.0000
# 4 0.0000 0.0000 0.0000 25.4823 0.0000 0.8684
# 5 6.4248 5.7020 1.9728 0.0000 37.3679 0.0000
# 6 0.0000 0.0000 0.0000 0.8684 0.0000 33.3242
#
#
#
# Elastic Compliance Matrix: (Units=1/GPa)
#
#
# Indices 1 2 3 4 5 6 
#
# 1 0.009055 -0.005244 -0.003038 0.000000 -0.000596 0.000000
# 2 -0.005244 0.027348 -0.003673 0.000000 -0.003078 0.000000
# 3 -0.003038 -0.003673 0.011914 0.000000 0.000454 0.000000
# 4 0.000000 0.000000 0.000000 0.039278 0.000000 -0.001024
# 5 -0.000596 -0.003078 0.000454 0.000000 0.027309 0.000000
# 6 0.000000 0.000000 0.000000 -0.001024 0.000000 0.030035
#
#
# Mechanical properties :
#
#
# Convention : Reuss Voigt Hill
#
# Bulk Modulus (GPa) = 40.97133 56.97523 48.97328
# Shear Modulus (GPa) = 28.25116 31.96486 30.10801
#
# Velocity S-wave (km/s) = 3.67944 3.91381 3.79843
# Velocity P-wave (km/s) = 6.13880 6.90847 6.53498
#
# Compressibility (1/GPa) = 0.02440731
#
# Stress axis : x y z
#
# Youngs Moduli (GPa) = 110.43976 36.56566 83.93516
#
# Poissons Ratio (x) = 0.19174 0.25498
# Poissons Ratio (y) = 0.57912 0.30831
# Poissons Ratio (z) = 0.33549 0.13431
#
# Static dielectric constant tensor:
#      x y z
#    x 3.830930 0.000000 0.099280 
#    y 0.000000 3.560760 0.000000 
#    z 0.099280 0.000000 4.245360 
# 
# 
# High freq. dielectric constant tensor:
#      x y z
#    x 1.830650 0.000000 -0.000880 
#    y 0.000000 1.801140 0.000000 
#    z -0.000880 0.000000 1.825250 
# 
# From -- ./inp_files/73172.got.cif
#   From: 2010.06.25/outbox.cif.g09.slc.cpg/sg11_37_cif.got.tgz:73172.got - 2010.06.27 23:14:04.
