data_PCOD8074530
_publ_section_title
;
Structure prediction by ZEFSAII (Michael W. Deem and Ramdas Pophale) SiO2 
 PCOD8074530
Probable space group: P 21/M
;
_chemical_formula_sum "Si O2"
_cell_formula_units_Z 32
_cell_length_a 16.825710
_cell_length_b 9.217221
_cell_length_c 25.764106
_cell_angle_alpha 90.000000
_cell_angle_beta 153.974036
_cell_angle_gamma 90.000000
_cell_volume 1753.209092
_symmetry_space_group_name_H-M "P 21/M"
_symmetry_group_IT_number 11
_symmetry_cell_setting 'monoclinic'
loop_
_space_group_symop_operation_xyz
x,y,z
-x,1/2+y,-z
-x,-y,-z
x,1/2-y,z
loop_
_atom_site_type_symbol
_atom_site_label
_atom_site_fract_x
_atom_site_fract_y
_atom_site_fract_z
Si Si1 0.538711 0.083783 0.971184
Si Si2 0.392536 0.918892 0.631854
Si Si3 0.149467 0.921375 0.923358
Si Si4 0.392920 0.085628 0.145309
Si Si5 0.531733 0.417356 0.442471
Si Si6 0.067914 0.088376 0.491127
Si Si7 0.222109 0.918767 0.318522
Si Si8 0.321708 0.592965 0.771186
O O1 0.531088 0.250000 0.980583
O O2 0.377081 0.042966 0.838075
O O3 0.727163 0.041261 0.054170
O O4 0.500000 0.000000 0.000000
O O5 0.342857 0.750000 0.608770
O O6 0.567613 0.955581 0.771164
O O7 0.432462 0.959410 0.595952
O O8 0.222103 0.011965 0.548905
O O9 0.126205 0.750000 0.917627
O O10 0.958621 0.993062 0.799278
O O11 0.241745 0.983491 0.030114
O O12 0.320010 0.250000 0.098106
O O13 0.591020 0.068469 0.234655
O O14 0.468505 0.250000 0.410538
O O15 0.712030 0.442580 0.583271
O O16 0.374891 0.523406 0.369429
O O17 0.132701 0.250000 0.545720
O O18 0.893030 0.099311 0.352274
O O19 0.000000 0.000000 0.500000
O O20 0.187398 0.750000 0.286648
O O21 0.395177 0.750000 0.835192
#
# Coordination Sequence:
#
# PCOD8074530 Si02
#       8
#     4   4   4   4   4   4   4   4
#     4  10  21  35  52  76 106 142 180 225 272 319
#     4  10  20  36  56  82 114 146 184 227 280 333
#     4  10  21  36  56  81 107 141 185 226 270 324
#     4   9  17  33  54  76 107 143 179 221 268 322
#     4   9  20  38  60  84 112 144 177 224 278 331
#     4  11  21  33  51  77 109 146 186 225 269 320
#     4  10  20  37  61  86 111 141 181 223 276 334
#     4   9  18  33  50  71 102 142 183 222 266 315
#
# _framework density 18.252244000000001
#
# number of rings (size 3 to 8) (size 9 to 14) (size 15 to 20)
#    0.000    2.250    1.250    1.500    0.000    5.000 
#    0.000    3.125    0.000    0.000    0.000    0.000 
#    0.000    0.000    0.000    0.000    0.000    0.000 
#
# Total GULP energy -396634.820102 kJ/mol
# GULP energy per Si atom -12394.838128 kJ/mol
# Density = 1.821070 g / cm^3
# Si number density = 18.252244 Si / 1000 Ang^3
#
#
#
# Elastic Constant Matrix: (Units=GPa)
#
#
# Indices 1 2 3 4 5 6 
#
# 1 114.0253 61.9862 60.7313 0.0000 -19.3417 0.0000
# 2 61.9862 93.8265 63.7369 0.0000 -0.1461 0.0000
# 3 60.7313 63.7369 122.6403 0.0000 -3.9049 0.0000
# 4 0.0000 0.0000 0.0000 32.5789 0.0000 3.3550
# 5 -19.3417 -0.1461 -3.9049 0.0000 21.8367 0.0000
# 6 0.0000 0.0000 0.0000 3.3550 0.0000 29.6740
#
#
#
# Elastic Compliance Matrix: (Units=1/GPa)
#
#
# Indices 1 2 3 4 5 6 
#
# 1 0.018815 -0.009925 -0.003651 0.000000 0.015946 0.000000
# 2 -0.009925 0.021754 -0.006704 0.000000 -0.009844 0.000000
# 3 -0.003651 -0.006704 0.013418 0.000000 -0.000880 0.000000
# 4 0.000000 0.000000 0.000000 0.031056 0.000000 -0.003511
# 5 0.015946 -0.009844 -0.000880 0.000000 0.059695 0.000000
# 6 0.000000 0.000000 0.000000 -0.003511 0.000000 0.034097
#
#
# Mechanical properties :
#
#
# Convention : Reuss Voigt Hill
#
# Bulk Modulus (GPa) = 74.48205 78.15566 76.31885
# Shear Modulus (GPa) = 22.33430 26.42043 24.37737
#
# Velocity S-wave (km/s) = 3.50186 3.80875 3.65853
# Velocity P-wave (km/s) = 7.56613 7.89017 7.72985
#
# Compressibility (1/GPa) = 0.01342605
#
# Stress axis : x y z
#
# Youngs Moduli (GPa) = 53.14941 45.96942 74.52503
#
# Poissons Ratio (x) = 0.45623 0.27212
# Poissons Ratio (y) = 0.52749 0.49963
# Poissons Ratio (z) = 0.19407 0.30819
#
# Static dielectric constant tensor:
#      x y z
#    x 3.043890 0.000000 0.202680 
#    y 0.000000 3.592210 0.000000 
#    z 0.202680 0.000000 3.200960 
# 
# 
# High freq. dielectric constant tensor:
#      x y z
#    x 1.692650 0.000000 -0.009490 
#    y 0.000000 1.719190 0.000000 
#    z -0.009490 0.000000 1.704590 
# 
# From -- ./inp_files/69146.got.cif
#   From: 2010.06.25/outbox.cif.g09.slc.cpg/sg11_35_cif.got.tgz:69146.got - 2010.06.27 23:14:04.
