data_PCOD8074834
_publ_section_title
;
Structure prediction by ZEFSAII (Michael W. Deem and Ramdas Pophale) SiO2 
 PCOD8074834
Probable space group: P 21/M
;
_chemical_formula_sum "Si O2"
_cell_formula_units_Z 32
_cell_length_a 12.038940
_cell_length_b 27.337087
_cell_length_c 9.061105
_cell_angle_alpha 90.000000
_cell_angle_beta 33.113853
_cell_angle_gamma 90.000000
_cell_volume 1629.132536
_symmetry_space_group_name_H-M "P 21/M"
_symmetry_group_IT_number 11
_symmetry_cell_setting 'monoclinic'
loop_
_space_group_symop_operation_xyz
x,y,z
-x,1/2+y,-z
-x,-y,-z
x,1/2-y,z
loop_
_atom_site_type_symbol
_atom_site_label
_atom_site_fract_x
_atom_site_fract_y
_atom_site_fract_z
Si Si1 0.848619 0.531963 0.268509
Si Si2 0.199919 0.927737 0.063093
Si Si3 0.541604 0.877068 0.168098
Si Si4 0.624156 0.694410 0.640334
Si Si5 0.843673 0.695451 0.684000
Si Si6 0.519652 0.988209 0.148482
Si Si7 0.439249 0.114547 0.517278
Si Si8 0.741680 0.348565 0.767821
O O1 0.694246 0.496864 0.529138
O O2 0.716615 0.568813 0.314089
O O3 0.977636 0.563708 0.241778
O O4 0.000000 0.500000 0.000000
O O5 0.177631 0.897092 0.238722
O O6 0.341973 0.898716 0.791677
O O7 0.301973 0.979660 0.981029
O O8 0.595443 0.933281 0.081333
O O9 0.513129 0.867349 0.372090
O O10 0.338686 0.863649 0.304001
O O11 0.727458 0.844523 0.907874
O O12 0.602648 0.750000 0.607719
O O13 0.812786 0.688117 0.542460
O O14 0.660381 0.659587 0.460561
O O15 0.426565 0.678980 0.950865
O O16 0.771758 0.750000 0.809919
O O17 0.079999 0.689892 0.455745
O O18 0.500000 0.000000 0.000000
#
# Coordination Sequence:
#
# PCOD8074834 Si02
#       8
#     4   4   4   4   4   4   4   4
#     4  11  23  38  60  86 121 163 201 244 303 353
#     4  10  21  38  61  84 117 159 200 243 293 351
#     4  11  23  38  58  86 123 157 191 244 303 352
#     4   9  19  38  62  84 109 148 195 244 296 350
#     4  10  22  39  61  85 114 151 195 247 298 353
#     4  11  23  39  58  90 126 157 206 248 292 361
#     4  10  22  39  59  86 120 154 200 246 293 362
#     4  10  20  36  60  87 114 149 196 242 294 350
#
# _framework density 19.642357000000001
#
# number of rings (size 3 to 8) (size 9 to 14) (size 15 to 20)
#    0.000    1.750    1.250    2.625    3.500    6.500 
#    0.000    0.000    0.000    0.000    0.000    0.000 
#    0.000    0.000    0.000    0.000    0.000    0.000 
#
# Total GULP energy -396873.483869 kJ/mol
# GULP energy per Si atom -12402.296371 kJ/mol
# Density = 1.959765 g / cm^3
# Si number density = 19.642357 Si / 1000 Ang^3
#
#
#
# Elastic Constant Matrix: (Units=GPa)
#
#
# Indices 1 2 3 4 5 6 
#
# 1 124.0755 39.9850 42.5052 0.0000 13.1413 0.0000
# 2 39.9850 122.2264 38.2989 0.0000 13.7614 0.0000
# 3 42.5052 38.2989 67.2456 0.0000 5.1855 0.0000
# 4 0.0000 0.0000 0.0000 24.8542 0.0000 -4.7264
# 5 13.1413 13.7614 5.1855 0.0000 37.6173 0.0000
# 6 0.0000 0.0000 0.0000 -4.7264 0.0000 24.0158
#
#
#
# Elastic Compliance Matrix: (Units=1/GPa)
#
#
# Indices 1 2 3 4 5 6 
#
# 1 0.010767 -0.001429 -0.005803 0.000000 -0.002438 0.000000
# 2 -0.001429 0.010470 -0.004854 0.000000 -0.002662 0.000000
# 3 -0.005803 -0.004854 0.021236 0.000000 0.000876 0.000000
# 4 0.000000 0.000000 0.000000 0.041799 0.000000 0.008226
# 5 -0.002438 -0.002662 0.000876 0.000000 0.028288 0.000000
# 6 0.000000 0.000000 0.000000 0.008226 0.000000 0.043258
#
#
# Mechanical properties :
#
#
# Convention : Reuss Voigt Hill
#
# Bulk Modulus (GPa) = 54.64828 61.68064 58.16446
# Shear Modulus (GPa) = 26.86848 30.14803 28.50825
#
# Velocity S-wave (km/s) = 3.70250 3.92196 3.81381
# Velocity P-wave (km/s) = 6.79412 7.20965 7.00497
#
# Compressibility (1/GPa) = 0.01829884
#
# Stress axis : x y z
#
# Youngs Moduli (GPa) = 92.88042 95.51241 47.08910
#
# Poissons Ratio (x) = 0.13650 0.27328
# Poissons Ratio (y) = 0.13274 0.22859
# Poissons Ratio (z) = 0.53902 0.46365
#
# Static dielectric constant tensor:
#      x y z
#    x 3.678870 0.000000 -0.062340 
#    y 0.000000 3.363340 0.000000 
#    z -0.062340 0.000000 3.379620 
# 
# 
# High freq. dielectric constant tensor:
#      x y z
#    x 1.775000 0.000000 -0.006280 
#    y 0.000000 1.774520 0.000000 
#    z -0.006280 0.000000 1.749150 
# 
# From -- ./inp_files/19870.got.cif
#   From: 2010.06.25/outbox.cif.g09.slc.cpg/sg11_10_cif.got.tgz:19870.got - 2010.06.27 23:14:04.
