data_PCOD8074534
_publ_section_title
;
Structure prediction by ZEFSAII (Michael W. Deem and Ramdas Pophale) SiO2 
 PCOD8074534
Probable space group: P 21/M
;
_chemical_formula_sum "Si O2"
_cell_formula_units_Z 32
_cell_length_a 12.166785
_cell_length_b 9.198736
_cell_length_c 28.561626
_cell_angle_alpha 90.000000
_cell_angle_beta 30.354267
_cell_angle_gamma 90.000000
_cell_volume 1615.381185
_symmetry_space_group_name_H-M "P 21/M"
_symmetry_group_IT_number 11
_symmetry_cell_setting 'monoclinic'
loop_
_space_group_symop_operation_xyz
x,y,z
-x,1/2+y,-z
-x,-y,-z
x,1/2-y,z
loop_
_atom_site_type_symbol
_atom_site_label
_atom_site_fract_x
_atom_site_fract_y
_atom_site_fract_z
Si Si1 0.752981 0.918865 0.779632
Si Si2 0.503392 0.412140 0.545755
Si Si3 0.233430 0.584367 0.322034
Si Si4 0.985249 0.084650 0.145241
Si Si5 0.168210 0.585387 0.497716
Si Si6 0.543904 0.916648 0.289984
Si Si7 0.875335 0.088297 0.288332
Si Si8 0.413601 0.577895 0.985117
O O1 0.746703 0.750000 0.768599
O O2 0.565029 0.958058 0.885349
O O3 0.980843 0.960363 0.720290
O O4 0.726250 0.007743 0.742062
O O5 0.500000 0.500000 0.500000
O O6 0.433402 0.250000 0.559577
O O7 0.737500 0.418333 0.484131
O O8 0.323347 0.478645 0.646712
O O9 0.165424 0.750000 0.337635
O O10 0.457291 0.574610 0.268672
O O11 0.045346 0.513440 0.423527
O O12 0.999519 0.250000 0.120477
O O13 0.018771 0.086976 0.188918
O O14 0.753774 0.018310 0.215908
O O15 0.180288 0.985301 0.054529
O O16 0.103850 0.750000 0.507251
O O17 0.351972 0.525918 0.394752
O O18 0.603418 0.750000 0.281778
O O19 0.782595 0.250000 0.331738
O O20 0.398313 0.750000 0.000482
O O21 0.500000 0.500000 0.000000
#
# Coordination Sequence:
#
# PCOD8074534 Si02
#       8
#     4   4   4   4   4   4   4   4
#     4  10  22  41  61  85 122 160 195 239 298 359
#     4  11  22  34  51  79 115 157 196 236 292 352
#     4  11  24  39  60  89 119 154 203 255 298 347
#     4  11  22  38  62  93 121 151 195 244 296 355
#     4  10  21  38  59  82 115 159 202 243 298 357
#     4  10  22  42  62  86 120 158 203 252 297 347
#     4  10  20  36  56  82 117 152 190 238 290 350
#     4  11  22  39  64  93 124 159 196 243 298 357
#
# _framework density 19.809566
#
# number of rings (size 3 to 8) (size 9 to 14) (size 15 to 20)
#    0.000    1.500    2.500    2.625    0.000    7.500 
#    0.000    0.625    0.000    0.000    0.000    0.000 
#    0.000    0.000    0.000    0.000    0.000    0.000 
#
# Total GULP energy -396832.213609 kJ/mol
# GULP energy per Si atom -12401.006675 kJ/mol
# Density = 1.976448 g / cm^3
# Si number density = 19.809566 Si / 1000 Ang^3
#
#
#
# Elastic Constant Matrix: (Units=GPa)
#
#
# Indices 1 2 3 4 5 6 
#
# 1 80.7564 38.9113 22.1018 0.0000 -4.6434 0.0000
# 2 38.9113 119.3037 54.9686 0.0000 -10.5617 0.0000
# 3 22.1018 54.9686 89.5260 0.0000 -11.6007 0.0000
# 4 0.0000 0.0000 0.0000 35.6625 0.0000 -2.4965
# 5 -4.6434 -10.5617 -11.6007 0.0000 22.0129 0.0000
# 6 0.0000 0.0000 0.0000 -2.4965 0.0000 30.8346
#
#
#
# Elastic Compliance Matrix: (Units=1/GPa)
#
#
# Indices 1 2 3 4 5 6 
#
# 1 0.014757 -0.004349 -0.000902 0.000000 0.000551 0.000000
# 2 -0.004349 0.013050 -0.006704 0.000000 0.001811 0.000000
# 3 -0.000902 -0.006704 0.016172 0.000000 0.005116 0.000000
# 4 0.000000 0.000000 0.000000 0.028200 0.000000 0.002283
# 5 0.000551 0.001811 0.005116 0.000000 0.049109 0.000000
# 6 0.000000 0.000000 0.000000 0.002283 0.000000 0.032616
#
#
# Mechanical properties :
#
#
# Convention : Reuss Voigt Hill
#
# Bulk Modulus (GPa) = 49.82785 57.94996 53.88891
# Shear Modulus (GPa) = 27.10001 29.27564 28.18782
#
# Velocity S-wave (km/s) = 3.70270 3.84846 3.77628
# Velocity P-wave (km/s) = 6.59454 7.00461 6.80267
#
# Compressibility (1/GPa) = 0.02006910
#
# Stress axis : x y z
#
# Youngs Moduli (GPa) = 67.76564 76.63111 61.83643
#
# Poissons Ratio (x) = 0.33325 0.05575
# Poissons Ratio (y) = 0.29470 0.41456
# Poissons Ratio (z) = 0.06109 0.51374
#
# Static dielectric constant tensor:
#      x y z
#    x 3.500140 0.000000 -0.021200 
#    y 0.000000 3.655210 0.000000 
#    z -0.021200 0.000000 3.690260 
# 
# 
# High freq. dielectric constant tensor:
#      x y z
#    x 1.770600 0.000000 -0.002390 
#    y 0.000000 1.777200 0.000000 
#    z -0.002390 0.000000 1.767960 
# 
# From -- ./inp_files/38101.got.cif
#   From: 2010.06.25/outbox.cif.g09.slc.cpg/sg11_20_cif.got.tgz:38101.got - 2010.06.27 23:14:04.
