data_PCOD8074094
_publ_section_title
;
Structure prediction by ZEFSAII (Michael W. Deem and Ramdas Pophale) SiO2 
 PCOD8074094
Probable space group: P 21/M
;
_chemical_formula_sum "Si O2"
_cell_formula_units_Z 28
_cell_length_a 27.503079
_cell_length_b 9.593824
_cell_length_c 10.091663
_cell_angle_alpha 90.000000
_cell_angle_beta 34.689805
_cell_angle_gamma 90.000000
_cell_volume 1515.478371
_symmetry_space_group_name_H-M "P 21/M"
_symmetry_group_IT_number 11
_symmetry_cell_setting 'monoclinic'
loop_
_space_group_symop_operation_xyz
x,y,z
-x,1/2+y,-z
-x,-y,-z
x,1/2-y,z
loop_
_atom_site_type_symbol
_atom_site_label
_atom_site_fract_x
_atom_site_fract_y
_atom_site_fract_z
Si Si1 0.724094 0.589425 0.622415
Si Si2 0.167189 0.088687 0.369423
Si Si3 0.009913 0.909610 0.107606
Si Si4 0.196112 0.912412 0.784286
Si Si5 0.248334 0.588100 0.960533
Si Si6 0.472960 0.409647 0.936774
Si Si7 0.446141 0.588053 0.518257
O O1 0.745368 0.750000 0.542139
O O2 0.779593 0.537058 0.622346
O O3 0.745956 0.498018 0.446369
O O4 0.625595 0.567417 0.879734
O O5 0.187372 0.250000 0.295030
O O6 0.067248 0.061965 0.618587
O O7 0.191809 0.999543 0.187654
O O8 0.009755 0.750000 0.060820
O O9 0.096696 0.948808 0.988480
O O10 0.000000 0.000000 0.000000
O O11 0.215304 0.750000 0.717410
O O12 0.222656 0.958820 0.871146
O O13 0.227813 0.750000 0.028829
O O14 0.347284 0.555191 0.763270
O O15 0.491621 0.250000 0.931955
O O16 0.500000 0.500000 0.000000
O O17 0.529158 0.456959 0.685674
O O18 0.500000 0.500000 0.500000
O O19 0.467719 0.750000 0.491932
#
# Coordination Sequence:
#
# PCOD8074094 Si02
#       7
#     4   4   4   4   4   4   4
#     4  10  20  35  56  82 110 143 184 228 276 329
#     4  10  21  37  57  82 112 144 183 227 271 325
#     4  10  20  36  59  85 112 144 183 225 272 327
#     4  10  21  37  58  83 113 147 183 226 275 329
#     4  10  22  38  55  81 114 147 185 227 275 329
#     4  10  21  36  55  80 110 144 183 229 278 327
#     4  10  21  38  58  79 109 148 187 229 276 327
#
# _framework density 18.476015
#
# number of rings (size 3 to 8) (size 9 to 14) (size 15 to 20)
#    0.000    2.000    1.429    1.714    0.000    6.286 
#    0.000    0.000    0.000    0.000    0.000    0.000 
#    0.000    0.000    0.000    0.000    0.000    0.000 
#
# Total GULP energy -347343.452434 kJ/mol
# GULP energy per Si atom -12405.123301 kJ/mol
# Density = 1.843396 g / cm^3
# Si number density = 18.476015 Si / 1000 Ang^3
#
#
#
# Elastic Constant Matrix: (Units=GPa)
#
#
# Indices 1 2 3 4 5 6 
#
# 1 80.8652 37.1572 19.4439 0.0000 10.8245 0.0000
# 2 37.1572 60.2226 46.2455 0.0000 14.3790 0.0000
# 3 19.4439 46.2455 99.5654 0.0000 12.9596 0.0000
# 4 0.0000 0.0000 0.0000 36.1560 0.0000 7.0653
# 5 10.8245 14.3790 12.9596 0.0000 32.8845 0.0000
# 6 0.0000 0.0000 0.0000 7.0653 0.0000 33.0354
#
#
#
# Elastic Compliance Matrix: (Units=1/GPa)
#
#
# Indices 1 2 3 4 5 6 
#
# 1 0.017705 -0.012564 0.002553 0.000000 -0.001340 0.000000
# 2 -0.012564 0.036311 -0.013580 0.000000 -0.006390 0.000000
# 3 0.002553 -0.013580 0.016011 0.000000 -0.001212 0.000000
# 4 0.000000 0.000000 0.000000 0.028864 0.000000 -0.006173
# 5 -0.001340 -0.006390 -0.001212 0.000000 0.034122 0.000000
# 6 0.000000 0.000000 0.000000 -0.006173 0.000000 0.031591
#
#
# Mechanical properties :
#
#
# Convention : Reuss Voigt Hill
#
# Bulk Modulus (GPa) = 43.77688 49.59404 46.68546
# Shear Modulus (GPa) = 22.78922 29.60228 26.19575
#
# Velocity S-wave (km/s) = 3.51586 4.00709 3.76949
# Velocity P-wave (km/s) = 6.34248 6.95052 6.65345
#
# Compressibility (1/GPa) = 0.02284311
#
# Stress axis : x y z
#
# Youngs Moduli (GPa) = 56.48101 27.53976 62.45881
#
# Poissons Ratio (x) = 0.34601 -0.15943
# Poissons Ratio (y) = 0.70964 0.84820
# Poissons Ratio (z) = -0.14417 0.37400
#
# Static dielectric constant tensor:
#      x y z
#    x 3.452610 0.000000 -0.017990 
#    y 0.000000 3.370470 0.000000 
#    z -0.017990 0.000000 3.237630 
# 
# 
# High freq. dielectric constant tensor:
#      x y z
#    x 1.725050 0.000000 -0.008550 
#    y 0.000000 1.712300 0.000000 
#    z -0.008550 0.000000 1.726600 
# 
# From -- ./inp_files/26188.got.cif
#   From: 2010.06.25/outbox.cif.g09.slc.cpg/sg11_14_cif.got.tgz:26188.got - 2010.06.27 23:14:04.
