data_PCOD8074880
_publ_section_title
;
Structure prediction by ZEFSAII (Michael W. Deem and Ramdas Pophale) SiO2 
 PCOD8074880
Probable space group: P 21/M
;
_chemical_formula_sum "Si O2"
_cell_formula_units_Z 28
_cell_length_a 7.936021
_cell_length_b 11.210629
_cell_length_c 15.773366
_cell_angle_alpha 90.000000
_cell_angle_beta 107.858867
_cell_angle_gamma 90.000000
_cell_volume 1335.702160
_symmetry_space_group_name_H-M "P 21/M"
_symmetry_group_IT_number 11
_symmetry_cell_setting 'monoclinic'
loop_
_space_group_symop_operation_xyz
x,y,z
-x,1/2+y,-z
-x,-y,-z
x,1/2-y,z
loop_
_atom_site_type_symbol
_atom_site_label
_atom_site_fract_x
_atom_site_fract_y
_atom_site_fract_z
Si Si1 0.886564 0.385358 0.579748
Si Si2 0.765652 0.115901 0.842379
Si Si3 0.430982 0.889470 0.354174
Si Si4 0.322361 0.620098 0.803106
Si Si5 0.771233 0.468911 0.386291
Si Si6 0.160582 0.381046 0.859708
Si Si7 0.634847 0.942849 0.955333
O O1 0.918906 0.250000 0.613723
O O2 0.723035 0.440913 0.608030
O O3 0.845580 0.387682 0.473302
O O4 0.066754 0.455725 0.628802
O O5 0.739264 0.250000 0.869334
O O6 0.615504 0.081968 0.750842
O O7 0.952023 0.098206 0.824876
O O8 0.750878 0.040639 0.924993
O O9 0.450117 0.750000 0.374499
O O10 0.619726 0.947700 0.403414
O O11 0.233648 0.750000 0.814342
O O12 0.313591 0.612777 0.699995
O O13 0.240795 0.497742 0.827402
O O14 0.524516 0.630959 0.868099
O O15 0.205123 0.250000 0.823899
O O16 0.227567 0.367304 0.967381
O O17 0.500000 0.000000 0.000000
#
# Coordination Sequence:
#
# PCOD8074880 Si02
#       7
#     4   4   4   4   4   4   4
#     4  10  22  38  60  90 121 157 207 260 306 371
#     4  10  20  37  61  89 120 156 203 261 310 364
#     4  10  20  36  60  90 120 155 205 259 311 366
#     4  11  23  39  60  88 126 164 204 254 313 370
#     4  11  21  38  61  85 124 164 204 248 318 369
#     4  10  22  39  63  90 120 161 210 257 307 365
#     4  10  21  37  56  85 120 157 202 247 306 366
#
# _framework density 20.962757
#
# number of rings (size 3 to 8) (size 9 to 14) (size 15 to 20)
#    0.000    1.714    1.429    3.000    0.000    6.857 
#    0.000    1.429    0.000    3.429    0.000    0.000 
#    0.000    0.000    0.000    0.000    0.000    0.000 
#
# Total GULP energy -346982.493805 kJ/mol
# GULP energy per Si atom -12392.231922 kJ/mol
# Density = 2.091504 g / cm^3
# Si number density = 20.962757 Si / 1000 Ang^3
#
#
#
# Elastic Constant Matrix: (Units=GPa)
#
#
# Indices 1 2 3 4 5 6 
#
# 1 92.6618 35.4472 2.7233 0.0000 0.8204 0.0000
# 2 35.4472 122.7524 21.0123 0.0000 -8.1711 0.0000
# 3 2.7233 21.0123 71.8813 0.0000 9.8722 0.0000
# 4 0.0000 0.0000 0.0000 14.5800 0.0000 -5.0637
# 5 0.8204 -8.1711 9.8722 0.0000 35.5688 0.0000
# 6 0.0000 0.0000 0.0000 -5.0637 0.0000 26.1265
#
#
#
# Elastic Compliance Matrix: (Units=1/GPa)
#
#
# Indices 1 2 3 4 5 6 
#
# 1 0.012219 -0.003761 0.000825 0.000000 -0.001375 0.000000
# 2 -0.003761 0.010004 -0.003233 0.000000 0.003282 0.000000
# 3 0.000825 -0.003233 0.015522 0.000000 -0.005070 0.000000
# 4 0.000000 0.000000 0.000000 0.073537 0.000000 0.014253
# 5 -0.001375 0.003282 -0.005070 0.000000 0.030307 0.000000
# 6 0.000000 0.000000 0.000000 0.014253 0.000000 0.041038
#
#
# Mechanical properties :
#
#
# Convention : Reuss Voigt Hill
#
# Bulk Modulus (GPa) = 39.35801 45.07345 42.21573
# Shear Modulus (GPa) = 24.57806 30.46259 27.52032
#
# Velocity S-wave (km/s) = 3.42784 3.81619 3.62722
# Velocity P-wave (km/s) = 5.87220 6.40048 6.14202
#
# Compressibility (1/GPa) = 0.02540779
#
# Stress axis : x y z
#
# Youngs Moduli (GPa) = 81.84200 99.95535 64.42532
#
# Poissons Ratio (x) = 0.37595 -0.05318
# Poissons Ratio (y) = 0.30782 0.20827
# Poissons Ratio (z) = -0.06755 0.32314
#
# Static dielectric constant tensor:
#      x y z
#    x 3.750740 0.000000 0.370030 
#    y 0.000000 3.667860 0.000000 
#    z 0.370030 0.000000 2.698820 
# 
# 
# High freq. dielectric constant tensor:
#      x y z
#    x 1.810810 0.000000 0.014820 
#    y 0.000000 1.811310 0.000000 
#    z 0.014820 0.000000 1.835620 
# 
# From -- ./inp_files/47024.got.cif
#   From: 2010.06.25/outbox.cif.g09.slc.cpg/sg11_24_cif.got.tgz:47024.got - 2010.06.27 23:14:04.
