data_PCOD8074458
_publ_section_title
;
Structure prediction by ZEFSAII (Michael W. Deem and Ramdas Pophale) SiO2 
 PCOD8074458
Probable space group: P 21/M
;
_chemical_formula_sum "Si O2"
_cell_formula_units_Z 32
_cell_length_a 23.364029
_cell_length_b 13.102854
_cell_length_c 17.063197
_cell_angle_alpha 90.000000
_cell_angle_beta 18.834405
_cell_angle_gamma 90.000000
_cell_volume 1686.372146
_symmetry_space_group_name_H-M "P 21/M"
_symmetry_group_IT_number 11
_symmetry_cell_setting 'monoclinic'
loop_
_space_group_symop_operation_xyz
x,y,z
-x,1/2+y,-z
-x,-y,-z
x,1/2-y,z
loop_
_atom_site_type_symbol
_atom_site_label
_atom_site_fract_x
_atom_site_fract_y
_atom_site_fract_z
Si Si1 0.182018 0.633926 0.347970
Si Si2 0.314854 0.133026 0.546842
Si Si3 0.692855 0.522496 0.282158
Si Si4 0.555397 0.461660 0.108433
Si Si5 0.995107 0.133771 0.843355
Si Si6 0.205995 0.506122 0.471176
Si Si7 0.788846 0.633891 0.875617
Si Si8 0.902125 0.864599 0.896154
O O1 0.223057 0.750000 0.325155
O O2 0.216605 0.546566 0.368596
O O3 0.977173 0.628004 0.586299
O O4 0.303040 0.611148 0.116639
O O5 0.341197 0.250000 0.541614
O O6 0.309843 0.050766 0.623239
O O7 0.480035 0.102576 0.278472
O O8 0.132757 0.121991 0.735949
O O9 0.500000 0.500000 0.500000
O O10 0.766379 0.622782 0.143025
O O11 0.819404 0.428104 0.095409
O O12 0.404449 0.493774 0.243147
O O13 0.643379 0.566707 0.021209
O O14 0.936256 0.250000 0.906943
O O15 0.090270 0.097261 0.638370
O O16 0.093333 0.586872 0.669218
O O17 0.716515 0.750000 0.971045
O O18 0.818932 0.588590 0.924231
O O19 0.944880 0.750000 0.821559
#
# Coordination Sequence:
#
# PCOD8074458 Si02
#       8
#     4   4   4   4   4   4   4   4
#     4  10  20  36  55  76 105 143 176 210 264 323
#     4  10  21  37  55  78 108 144 182 221 266 318
#     4  11  21  34  55  82 109 139 178 223 264 316
#     4  11  20  34  54  80 107 136 178 226 264 305
#     4   9  20  38  57  78 109 143 176 217 269 321
#     4   9  19  34  55  79 102 133 174 218 263 312
#     4   9  19  34  52  74 104 138 174 216 265 316
#     4   9  18  35  54  73 102 140 173 211 266 321
#
# _framework density 18.975645
#
# number of rings (size 3 to 8) (size 9 to 14) (size 15 to 20)
#    0.000    2.250    0.000    3.750    0.000    2.500 
#    0.000    1.250    0.000    5.250    0.000    0.000 
#    0.000    0.000    0.000    0.000    0.000    0.000 
#
# Total GULP energy -396580.082109 kJ/mol
# GULP energy per Si atom -12393.127566 kJ/mol
# Density = 1.893246 g / cm^3
# Si number density = 18.975645 Si / 1000 Ang^3
#
#
#
# Elastic Constant Matrix: (Units=GPa)
#
#
# Indices 1 2 3 4 5 6 
#
# 1 38.5313 38.7882 32.3829 0.0000 11.0520 0.0000
# 2 38.7882 109.5248 40.9349 0.0000 -3.4707 0.0000
# 3 32.3829 40.9349 109.4466 0.0000 9.1894 0.0000
# 4 0.0000 0.0000 0.0000 23.8771 0.0000 0.0249
# 5 11.0520 -3.4707 9.1894 0.0000 31.4968 0.0000
# 6 0.0000 0.0000 0.0000 0.0249 0.0000 28.9371
#
#
#
# Elastic Compliance Matrix: (Units=1/GPa)
#
#
# Indices 1 2 3 4 5 6 
#
# 1 0.055887 -0.017219 -0.008498 0.000000 -0.019028 0.000000
# 2 -0.017219 0.016097 -0.001622 0.000000 0.008289 0.000000
# 3 -0.008498 -0.001622 0.012324 0.000000 -0.000793 0.000000
# 4 0.000000 0.000000 0.000000 0.041881 0.000000 -0.000036
# 5 -0.019028 0.008289 -0.000793 0.000000 0.039571 0.000000
# 6 0.000000 0.000000 0.000000 -0.000036 0.000000 0.034558
#
#
# Mechanical properties :
#
#
# Convention : Reuss Voigt Hill
#
# Bulk Modulus (GPa) = 33.74875 53.52386 43.63630
# Shear Modulus (GPa) = 18.87701 26.55532 22.71616
#
# Velocity S-wave (km/s) = 3.15747 3.74497 3.46370
# Velocity P-wave (km/s) = 5.57824 6.85329 6.24837
#
# Compressibility (1/GPa) = 0.02963073
#
# Stress axis : x y z
#
# Youngs Moduli (GPa) = 17.89337 62.12193 81.14028
#
# Poissons Ratio (x) = 1.06969 0.68951
# Poissons Ratio (y) = 0.30811 0.13160
# Poissons Ratio (z) = 0.15205 0.10075
#
# Static dielectric constant tensor:
#      x y z
#    x 3.369390 0.000000 0.087120 
#    y 0.000000 3.560380 0.000000 
#    z 0.087120 0.000000 3.612120 
# 
# 
# High freq. dielectric constant tensor:
#      x y z
#    x 1.717950 0.000000 0.004520 
#    y 0.000000 1.740310 0.000000 
#    z 0.004520 0.000000 1.751850 
# 
# From -- ./inp_files/21559.got.cif
#   From: 2010.06.25/outbox.cif.g09.slc.cpg/sg11_11_cif.got.tgz:21559.got - 2010.06.27 23:14:04.
