data_PCOD8074129
_publ_section_title
;
Structure prediction by ZEFSAII (Michael W. Deem and Ramdas Pophale) SiO2 
 PCOD8074129
Probable space group: P 21/M
;
_chemical_formula_sum "Si O2"
_cell_formula_units_Z 28
_cell_length_a 21.391146
_cell_length_b 8.571741
_cell_length_c 15.885935
_cell_angle_alpha 90.000000
_cell_angle_beta 151.742847
_cell_angle_gamma 90.000000
_cell_volume 1379.022381
_symmetry_space_group_name_H-M "P 21/M"
_symmetry_group_IT_number 11
_symmetry_cell_setting 'monoclinic'
loop_
_space_group_symop_operation_xyz
x,y,z
-x,1/2+y,-z
-x,-y,-z
x,1/2-y,z
loop_
_atom_site_type_symbol
_atom_site_label
_atom_site_fract_x
_atom_site_fract_y
_atom_site_fract_z
Si Si1 0.080960 0.433890 0.294371
Si Si2 0.788207 0.073696 0.224656
Si Si3 0.401463 0.564895 0.453231
Si Si4 0.957714 0.930837 0.567869
Si Si5 0.482669 0.068663 0.073269
Si Si6 0.366895 0.434577 0.589100
Si Si7 0.109757 0.933267 0.070009
O O1 0.091128 0.250000 0.314426
O O2 0.213829 0.491766 0.404709
O O3 0.073907 0.503071 0.379039
O O4 0.945171 0.480936 0.087028
O O5 0.732954 0.250000 0.163913
O O6 0.884930 0.052048 0.259795
O O7 0.874492 0.040507 0.408914
O O8 0.667136 0.955472 0.073865
O O9 0.500000 0.500000 0.500000
O O10 0.406905 0.750000 0.456443
O O11 0.438700 0.508883 0.592234
O O12 0.255706 0.497511 0.257432
O O13 0.914736 0.750000 0.505449
O O14 0.517034 0.250000 0.110893
O O15 0.574920 0.988168 0.252296
O O16 0.500000 0.000000 0.000000
O O17 0.382851 0.250000 0.601685
O O18 0.115391 0.750000 0.089889
O O19 0.000000 0.000000 0.000000
#
# Coordination Sequence:
#
# PCOD8074129 Si02
#       7
#     4   4   4   4   4   4   4
#     4   9  18  34  59  87 113 148 196 245 298 358
#     4  10  20  35  56  83 117 157 201 247 301 358
#     4  11  24  41  63  92 129 170 215 264 319 380
#     4   9  18  34  57  84 116 155 199 248 297 356
#     4  12  25  41  61  87 122 160 206 256 309 374
#     4  11  22  39  64  90 122 162 205 257 316 376
#     4  10  20  37  61  88 117 154 199 251 306 363
#
# _framework density 20.304238000000002
#
# number of rings (size 3 to 8) (size 9 to 14) (size 15 to 20)
#    0.000    1.714    1.429    3.429    0.000    3.429 
#    0.000    4.286    0.000    0.000    0.000    0.000 
#    0.000    0.000    0.000    0.000    0.000    0.000 
#
# Total GULP energy -347095.941724 kJ/mol
# GULP energy per Si atom -12396.283633 kJ/mol
# Density = 2.025803 g / cm^3
# Si number density = 20.304238 Si / 1000 Ang^3
#
#
#
# Elastic Constant Matrix: (Units=GPa)
#
#
# Indices 1 2 3 4 5 6 
#
# 1 142.5895 37.9682 49.6528 0.0000 -9.0670 0.0000
# 2 37.9682 68.1585 26.1226 0.0000 0.9706 0.0000
# 3 49.6528 26.1226 105.3577 0.0000 4.1415 0.0000
# 4 0.0000 0.0000 0.0000 28.3930 0.0000 0.4405
# 5 -9.0670 0.9706 4.1415 0.0000 33.4169 0.0000
# 6 0.0000 0.0000 0.0000 0.4405 0.0000 29.8090
#
#
#
# Elastic Compliance Matrix: (Units=1/GPa)
#
#
# Indices 1 2 3 4 5 6 
#
# 1 0.009535 -0.003963 -0.003635 0.000000 0.003153 0.000000
# 2 -0.003963 0.017860 -0.002510 0.000000 -0.001283 0.000000
# 3 -0.003635 -0.002510 0.011921 0.000000 -0.002391 0.000000
# 4 0.000000 0.000000 0.000000 0.035228 0.000000 -0.000521
# 5 0.003153 -0.001283 -0.002391 0.000000 0.031114 0.000000
# 6 0.000000 0.000000 0.000000 -0.000521 0.000000 0.033555
#
#
# Mechanical properties :
#
#
# Convention : Reuss Voigt Hill
#
# Bulk Modulus (GPa) = 52.35808 60.39920 56.37864
# Shear Modulus (GPa) = 30.15797 31.81459 30.98628
#
# Velocity S-wave (km/s) = 3.85815 3.96270 3.91077
# Velocity P-wave (km/s) = 6.75942 7.12383 6.94402
#
# Compressibility (1/GPa) = 0.01909925
#
# Stress axis : x y z
#
# Youngs Moduli (GPa) = 104.88122 55.99222 83.88739
#
# Poissons Ratio (x) = 0.22191 0.30491
# Poissons Ratio (y) = 0.41566 0.21055
# Poissons Ratio (z) = 0.38122 0.14054
#
# Static dielectric constant tensor:
#      x y z
#    x 3.942540 0.000000 0.041940 
#    y 0.000000 3.427920 0.000000 
#    z 0.041940 0.000000 3.893560 
# 
# 
# High freq. dielectric constant tensor:
#      x y z
#    x 1.802050 0.000000 -0.001610 
#    y 0.000000 1.781410 0.000000 
#    z -0.001610 0.000000 1.795980 
# 
# From -- ./inp_files/54590.got.cif
#   From: 2010.06.25/outbox.cif.g09.slc.cpg/sg11_28_cif.got.tgz:54590.got - 2010.06.27 23:14:04.
