data_PCOD8074395
_publ_section_title
;
Structure prediction by ZEFSAII (Michael W. Deem and Ramdas Pophale) SiO2 
 PCOD8074395
Probable space group: P 21/M
;
_chemical_formula_sum "Si O2"
_cell_formula_units_Z 28
_cell_length_a 21.023508
_cell_length_b 14.131916
_cell_length_c 9.259979
_cell_angle_alpha 90.000000
_cell_angle_beta 149.004238
_cell_angle_gamma 90.000000
_cell_volume 1416.778973
_symmetry_space_group_name_H-M "P 21/M"
_symmetry_group_IT_number 11
_symmetry_cell_setting 'monoclinic'
loop_
_space_group_symop_operation_xyz
x,y,z
-x,1/2+y,-z
-x,-y,-z
x,1/2-y,z
loop_
_atom_site_type_symbol
_atom_site_label
_atom_site_fract_x
_atom_site_fract_y
_atom_site_fract_z
Si Si1 0.679540 0.643464 0.523063
Si Si2 0.777038 0.140348 0.011857
Si Si3 0.399913 0.449019 0.900710
Si Si4 0.942828 0.857739 0.473691
Si Si5 0.944730 0.640723 0.145755
Si Si6 0.562072 0.476125 0.469646
Si Si7 0.823020 0.470159 0.388589
O O1 0.655323 0.750000 0.531146
O O2 0.647534 0.638008 0.289967
O O3 0.598091 0.574559 0.463357
O O4 0.823900 0.617342 0.818622
O O5 0.741739 0.250000 0.961398
O O6 0.680633 0.090568 0.717360
O O7 0.771422 0.092641 0.157425
O O8 0.912846 0.129100 0.206774
O O9 0.285537 0.520193 0.706128
O O10 0.500000 0.500000 0.000000
O O11 0.462700 0.419990 0.175600
O O12 0.900092 0.750000 0.417151
O O13 0.920928 0.888476 0.265496
O O14 0.858815 0.924227 0.407918
O O15 0.983428 0.750000 0.212786
O O16 0.059439 0.580144 0.307908
O O17 0.500000 0.500000 0.500000
#
# Coordination Sequence:
#
# PCOD8074395 Si02
#       7
#     4   4   4   4   4   4   4
#     4  10  22  41  60  83 122 163 196 244 305 361
#     4  10  20  35  59  92 122 147 190 255 312 360
#     4  10  24  40  55  81 120 160 205 244 287 352
#     4   9  18  31  54  90 120 145 187 248 314 364
#     4   9  18  33  57  88 115 147 194 241 300 371
#     4  11  21  39  61  88 117 156 212 253 291 355
#     4  11  18  34  60  84 118 156 194 247 305 359
#
# _framework density 19.763138999999999
#
# number of rings (size 3 to 8) (size 9 to 14) (size 15 to 20)
#    0.000    2.000    1.429    4.714    0.000    2.286 
#    0.000    0.714    0.000    5.143    0.000    0.000 
#    0.000    0.000    0.000    0.000    0.000    0.000 
#
# Total GULP energy -347172.999002 kJ/mol
# GULP energy per Si atom -12399.035679 kJ/mol
# Density = 1.971816 g / cm^3
# Si number density = 19.763139 Si / 1000 Ang^3
#
#
#
# Elastic Constant Matrix: (Units=GPa)
#
#
# Indices 1 2 3 4 5 6 
#
# 1 99.7020 42.5854 44.5257 0.0000 9.8225 0.0000
# 2 42.5854 99.6664 49.2886 0.0000 4.4935 0.0000
# 3 44.5257 49.2886 148.4805 0.0000 -8.7730 0.0000
# 4 0.0000 0.0000 0.0000 31.4170 0.0000 -4.0856
# 5 9.8225 4.4935 -8.7730 0.0000 28.3102 0.0000
# 6 0.0000 0.0000 0.0000 -4.0856 0.0000 16.0134
#
#
#
# Elastic Compliance Matrix: (Units=1/GPa)
#
#
# Indices 1 2 3 4 5 6 
#
# 1 0.013624 -0.004102 -0.003020 0.000000 -0.005012 0.000000
# 2 -0.004102 0.013530 -0.003366 0.000000 -0.001767 0.000000
# 3 -0.003020 -0.003366 0.009016 0.000000 0.004376 0.000000
# 4 0.000000 0.000000 0.000000 0.032922 0.000000 0.008400
# 5 -0.005012 -0.001767 0.004376 0.000000 0.038699 0.000000
# 6 0.000000 0.000000 0.000000 0.008400 0.000000 0.064591
#
#
# Mechanical properties :
#
#
# Convention : Reuss Voigt Hill
#
# Bulk Modulus (GPa) = 65.80896 68.96091 67.38494
# Shear Modulus (GPa) = 25.19860 29.24473 27.22166
#
# Velocity S-wave (km/s) = 3.57463 3.85094 3.71535
# Velocity P-wave (km/s) = 7.09989 7.39881 7.25089
#
# Compressibility (1/GPa) = 0.01519550
#
# Stress axis : x y z
#
# Youngs Moduli (GPa) = 73.39738 73.90800 110.90885
#
# Poissons Ratio (x) = 0.30317 0.33496
# Poissons Ratio (y) = 0.30107 0.37330
# Poissons Ratio (z) = 0.22167 0.24876
#
# Static dielectric constant tensor:
#      x y z
#    x 3.369670 0.000000 -0.084490 
#    y 0.000000 3.578790 0.000000 
#    z -0.084490 0.000000 4.231070 
# 
# 
# High freq. dielectric constant tensor:
#      x y z
#    x 1.744200 0.000000 0.009860 
#    y 0.000000 1.765420 0.000000 
#    z 0.009860 0.000000 1.787050 
# 
# From -- ./inp_files/17899.got.cif
#   From: 2010.06.25/outbox.cif.g09.slc.cpg/sg11_9_cif.got.tgz:17899.got - 2010.06.27 23:14:04.
