data_PCOD8074257
_publ_section_title
;
Structure prediction by ZEFSAII (Michael W. Deem and Ramdas Pophale) SiO2 
 PCOD8074257
Probable space group: P 21/M
;
_chemical_formula_sum "Si O2"
_cell_formula_units_Z 32
_cell_length_a 14.935766
_cell_length_b 8.770326
_cell_length_c 14.226093
_cell_angle_alpha 90.000000
_cell_angle_beta 120.440274
_cell_angle_gamma 90.000000
_cell_volume 1606.629073
_symmetry_space_group_name_H-M "P 21/M"
_symmetry_group_IT_number 11
_symmetry_cell_setting 'monoclinic'
loop_
_space_group_symop_operation_xyz
x,y,z
-x,1/2+y,-z
-x,-y,-z
x,1/2-y,z
loop_
_atom_site_type_symbol
_atom_site_label
_atom_site_fract_x
_atom_site_fract_y
_atom_site_fract_z
Si Si1 0.332688 0.571944 0.174507
Si Si2 0.271703 0.428408 0.499307
Si Si3 0.068622 0.925894 0.457273
Si Si4 0.755416 0.574437 0.052748
Si Si5 0.191143 0.427069 0.251204
Si Si6 0.551524 0.070051 0.292279
Si Si7 0.586344 0.925872 0.111320
Si Si8 0.990204 0.574966 0.209202
O O1 0.354338 0.750000 0.194073
O O2 0.240786 0.524615 0.194904
O O3 0.436405 0.482860 0.257455
O O4 0.302040 0.532130 0.052081
O O5 0.285321 0.250000 0.523662
O O6 0.177865 0.487385 0.513547
O O7 0.249805 0.467463 0.379047
O O8 0.375905 0.514292 0.584394
O O9 0.090082 0.750000 0.491408
O O10 0.006783 0.948006 0.328166
O O11 0.000000 0.000000 0.500000
O O12 0.748250 0.750000 0.015403
O O13 0.698936 0.555002 0.123050
O O14 0.874089 0.520645 0.124394
O O15 0.199762 0.250000 0.230857
O O16 0.070024 0.471412 0.193203
O O17 0.553866 0.250000 0.286866
O O18 0.591187 0.004128 0.214820
O O19 0.557018 0.750000 0.110200
O O20 0.500000 0.000000 0.000000
O O21 0.008095 0.750000 0.189690
#
# Coordination Sequence:
#
# PCOD8074257 Si02
#       8
#     4   4   4   4   4   4   4   4
#     4  12  25  41  64  90 119 159 204 253 304 365
#     4  10  22  41  63  88 120 158 202 251 305 364
#     4  10  20  35  57  87 121 160 203 249 301 358
#     4  10  22  40  62  89 123 162 203 250 301 355
#     4  10  22  42  66  90 120 157 198 254 308 359
#     4  12  25  41  62  91 125 161 203 252 303 365
#     4  11  22  38  62  89 124 165 203 250 304 357
#     4   9  20  39  61  87 120 159 201 247 300 357
#
# _framework density 19.917477000000002
#
# number of rings (size 3 to 8) (size 9 to 14) (size 15 to 20)
#    0.000    1.500    1.250    3.750    1.750    4.000 
#    0.000    0.000    0.000    0.000    0.000    0.000 
#    0.000    0.000    0.000    0.000    0.000    0.000 
#
# Total GULP energy -396994.755212 kJ/mol
# GULP energy per Si atom -12406.086100 kJ/mol
# Density = 1.987214 g / cm^3
# Si number density = 19.917477 Si / 1000 Ang^3
#
#
#
# Elastic Constant Matrix: (Units=GPa)
#
#
# Indices 1 2 3 4 5 6 
#
# 1 103.4075 36.7971 21.7483 0.0000 5.9899 0.0000
# 2 36.7971 117.3406 24.0065 0.0000 2.4348 0.0000
# 3 21.7483 24.0065 41.0591 0.0000 20.7912 0.0000
# 4 0.0000 0.0000 0.0000 34.9567 0.0000 -0.0136
# 5 5.9899 2.4348 20.7912 0.0000 38.3303 0.0000
# 6 0.0000 0.0000 0.0000 -0.0136 0.0000 35.9999
#
#
#
# Elastic Compliance Matrix: (Units=1/GPa)
#
#
# Indices 1 2 3 4 5 6 
#
# 1 0.011629 -0.002599 -0.005244 0.000000 0.001192 0.000000
# 2 -0.002599 0.010590 -0.006453 0.000000 0.003233 0.000000
# 3 -0.005244 -0.006453 0.041751 0.000000 -0.021417 0.000000
# 4 0.000000 0.000000 0.000000 0.028607 0.000000 0.000011
# 5 0.001192 0.003233 -0.021417 0.000000 0.037314 0.000000
# 6 0.000000 0.000000 0.000000 0.000011 0.000000 0.027778
#
#
# Mechanical properties :
#
#
# Convention : Reuss Voigt Hill
#
# Bulk Modulus (GPa) = 28.26546 47.43456 37.85001
# Shear Modulus (GPa) = 25.24580 33.80775 29.52677
#
# Velocity S-wave (km/s) = 3.56409 4.12441 3.85444
# Velocity P-wave (km/s) = 5.58203 6.82263 6.23327
#
# Compressibility (1/GPa) = 0.03537887
#
# Stress axis : x y z
#
# Youngs Moduli (GPa) = 85.99161 94.42715 23.95175
#
# Poissons Ratio (x) = 0.24538 0.12560
# Poissons Ratio (y) = 0.22346 0.15456
# Poissons Ratio (z) = 0.45095 0.60932
#
# Static dielectric constant tensor:
#      x y z
#    x 3.832930 0.000000 0.109960 
#    y 0.000000 3.786000 0.000000 
#    z 0.109960 0.000000 3.556210 
# 
# 
# High freq. dielectric constant tensor:
#      x y z
#    x 1.788240 0.000000 0.003650 
#    y 0.000000 1.786640 0.000000 
#    z 0.003650 0.000000 1.773860 
# 
# From -- ./inp_files/51727.got.cif
#   From: 2010.06.25/outbox.cif.g09.slc.cpg/sg11_26_cif.got.tgz:51727.got - 2010.06.27 23:14:04.
