data_PCOD8074260
_publ_section_title
;
Structure prediction by ZEFSAII (Michael W. Deem and Ramdas Pophale) SiO2 
 PCOD8074260
Probable space group: P 21/M
;
_chemical_formula_sum "Si O2"
_cell_formula_units_Z 32
_cell_length_a 9.470580
_cell_length_b 19.610924
_cell_length_c 11.537926
_cell_angle_alpha 90.000000
_cell_angle_beta 53.524871
_cell_angle_gamma 90.000000
_cell_volume 1723.139900
_symmetry_space_group_name_H-M "P 21/M"
_symmetry_group_IT_number 11
_symmetry_cell_setting 'monoclinic'
loop_
_space_group_symop_operation_xyz
x,y,z
-x,1/2+y,-z
-x,-y,-z
x,1/2-y,z
loop_
_atom_site_type_symbol
_atom_site_label
_atom_site_fract_x
_atom_site_fract_y
_atom_site_fract_z
Si Si1 0.876430 0.906173 0.011846
Si Si2 0.832975 0.068240 0.687901
Si Si3 0.036086 0.174060 0.247562
Si Si4 0.363210 0.670788 0.568253
Si Si5 0.840802 0.913865 0.613871
Si Si6 0.162267 0.943467 0.045927
Si Si7 0.493116 0.414643 0.704255
Si Si8 0.460537 0.570729 0.720410
O O1 0.679150 0.890296 0.145552
O O2 0.004074 0.903646 0.060714
O O3 0.940716 0.847439 0.896098
O O4 0.887818 0.977059 0.936189
O O5 0.822303 0.082509 0.830056
O O6 0.655228 0.093286 0.713518
O O7 0.003134 0.106333 0.551383
O O8 0.861788 0.989313 0.651128
O O9 0.104385 0.250000 0.224731
O O10 0.157842 0.132411 0.274048
O O11 0.833641 0.167181 0.383867
O O12 0.417244 0.750000 0.567028
O O13 0.488248 0.636714 0.412036
O O14 0.368246 0.623216 0.679072
O O15 0.655979 0.901596 0.642432
O O16 0.349401 0.929616 0.893512
O O17 0.469921 0.492534 0.668917
#
# Coordination Sequence:
#
# PCOD8074260 Si02
#       8
#     4   4   4   4   4   4   4   4
#     4  10  21  35  58  87 112 148 187 233 286 341
#     4  10  20  35  57  88 120 140 180 242 293 334
#     4  11  22  39  60  79 115 157 198 233 277 354
#     4  11  23  41  59  79 119 157 194 241 286 344
#     4  10  21  35  58  87 112 148 187 233 286 341
#     4  10  20  35  57  88 120 140 180 242 293 334
#     4  10  22  36  61  90 115 148 193 244 288 342
#     4  10  22  36  61  90 115 148 193 244 288 342
#
# _framework density 18.57075
#
# number of rings (size 3 to 8) (size 9 to 14) (size 15 to 20)
#    0.000    1.750    3.750    0.375    3.500    2.500 
#    0.000    0.000    0.000    1.500    0.000    0.000 
#    0.000    0.000    0.000    0.000    0.000    0.000 
#
# Total GULP energy -396816.363786 kJ/mol
# GULP energy per Si atom -12400.511368 kJ/mol
# Density = 1.852848 g / cm^3
# Si number density = 18.570750 Si / 1000 Ang^3
#
#
#
# Elastic Constant Matrix: (Units=GPa)
#
#
# Indices 1 2 3 4 5 6 
#
# 1 67.5850 25.9730 33.0036 0.0000 -3.9670 0.0000
# 2 25.9730 40.3664 11.3214 0.0000 0.4777 0.0000
# 3 33.0036 11.3214 93.4493 0.0000 -4.8331 0.0000
# 4 0.0000 0.0000 0.0000 16.9296 0.0000 1.5062
# 5 -3.9670 0.4777 -4.8331 0.0000 39.0646 0.0000
# 6 0.0000 0.0000 0.0000 1.5062 0.0000 16.0604
#
#
#
# Elastic Compliance Matrix: (Units=1/GPa)
#
#
# Indices 1 2 3 4 5 6 
#
# 1 0.023076 -0.013050 -0.006481 0.000000 0.001701 0.000000
# 2 -0.013050 0.033044 0.000520 0.000000 -0.001665 0.000000
# 3 -0.006481 0.000520 0.012976 0.000000 0.000941 0.000000
# 4 0.000000 0.000000 0.000000 0.059565 0.000000 -0.005586
# 5 0.001701 -0.001665 0.000941 0.000000 0.025908 0.000000
# 6 0.000000 0.000000 0.000000 -0.005586 0.000000 0.062789
#
#
# Mechanical properties :
#
#
# Convention : Reuss Voigt Hill
#
# Bulk Modulus (GPa) = 32.18268 37.99963 35.09116
# Shear Modulus (GPa) = 18.81552 23.15110 20.98331
#
# Velocity S-wave (km/s) = 3.18650 3.53461 3.36506
# Velocity P-wave (km/s) = 5.55930 6.09627 5.83396
#
# Compressibility (1/GPa) = 0.03107261
#
# Stress axis : x y z
#
# Youngs Moduli (GPa) = 43.33503 30.26259 77.06828
#
# Poissons Ratio (x) = 0.39494 0.49946
# Poissons Ratio (y) = 0.56554 -0.04004
# Poissons Ratio (z) = 0.28084 -0.01572
#
# Static dielectric constant tensor:
#      x y z
#    x 3.395590 0.000000 -0.127690 
#    y 0.000000 3.227350 0.000000 
#    z -0.127690 0.000000 3.427970 
# 
# 
# High freq. dielectric constant tensor:
#      x y z
#    x 1.723240 0.000000 -0.007610 
#    y 0.000000 1.692320 0.000000 
#    z -0.007610 0.000000 1.729360 
# 
# From -- ./inp_files/19441.got.cif
#   From: 2010.06.25/outbox.cif.g09.slc.cpg/sg11_10_cif.got.tgz:19441.got - 2010.06.27 23:14:04.
