data_PCOD8074190
_publ_section_title
;
Structure prediction by ZEFSAII (Michael W. Deem and Ramdas Pophale) SiO2 
 PCOD8074190
Probable space group: P 21/M
;
_chemical_formula_sum "Si O2"
_cell_formula_units_Z 32
_cell_length_a 21.641159
_cell_length_b 8.812483
_cell_length_c 28.095168
_cell_angle_alpha 90.000000
_cell_angle_beta 18.919836
_cell_angle_gamma 90.000000
_cell_volume 1737.335303
_symmetry_space_group_name_H-M "P 21/M"
_symmetry_group_IT_number 11
_symmetry_cell_setting 'monoclinic'
loop_
_space_group_symop_operation_xyz
x,y,z
-x,1/2+y,-z
-x,-y,-z
x,1/2-y,z
loop_
_atom_site_type_symbol
_atom_site_label
_atom_site_fract_x
_atom_site_fract_y
_atom_site_fract_z
Si Si1 0.449218 0.571227 0.086939
Si Si2 0.910702 0.075450 0.916579
Si Si3 0.378438 0.924354 0.950910
Si Si4 0.201496 0.929779 0.839533
Si Si5 0.953751 0.426524 0.583317
Si Si6 0.684204 0.926759 0.342763
Si Si7 0.638573 0.927325 0.188353
Si Si8 0.649027 0.924545 0.667490
O O1 0.449475 0.750000 0.081135
O O2 0.601957 0.524727 0.016021
O O3 0.240673 0.507420 0.253140
O O4 0.500000 0.500000 0.000000
O O5 0.859088 0.250000 0.966673
O O6 0.137683 0.049793 0.750874
O O7 0.821031 0.034821 0.930327
O O8 0.817602 0.971676 0.024958
O O9 0.381546 0.750000 0.964673
O O10 0.553251 0.961656 0.788167
O O11 0.183328 0.750000 0.851114
O O12 0.272494 0.989884 0.737621
O O13 0.354328 0.981000 0.767544
O O14 0.000000 0.000000 0.000000
O O15 0.931045 0.250000 0.590116
O O16 0.000000 0.500000 0.500000
O O17 0.126499 0.459655 0.493904
O O18 0.648034 0.750000 0.359297
O O19 0.500000 0.000000 0.500000
O O20 0.647663 0.750000 0.192544
O O21 0.439600 0.968673 0.308244
O O22 0.607529 0.750000 0.684439
#
# Coordination Sequence:
#
# PCOD8074190 Si02
#       8
#     4   4   4   4   4   4   4   4
#     4  11  23  37  55  82 114 150 190 232 282 339
#     4   9  19  36  58  82 114 153 191 231 285 346
#     4   9  17  33  57  82 109 145 186 229 282 341
#     4  12  23  38  60  87 117 152 194 241 292 347
#     4  10  20  35  57  83 111 145 186 232 284 339
#     4  11  23  40  61  87 120 158 198 241 290 347
#     4  11  21  33  55  87 118 149 190 241 292 341
#     4   9  18  34  55  81 114 149 184 232 292 345
#
# _framework density 18.419011000000001
#
# number of rings (size 3 to 8) (size 9 to 14) (size 15 to 20)
#    0.000    1.750    2.500    3.750    0.000    3.500 
#    0.000    1.250    0.000    3.000    0.000    0.000 
#    0.000    0.000    0.000    0.000    0.000    0.000 
#
# Total GULP energy -396847.892060 kJ/mol
# GULP energy per Si atom -12401.496627 kJ/mol
# Density = 1.837709 g / cm^3
# Si number density = 18.419011 Si / 1000 Ang^3
#
#
#
# Elastic Constant Matrix: (Units=GPa)
#
#
# Indices 1 2 3 4 5 6 
#
# 1 137.0681 59.5506 71.0367 0.0000 -1.0895 0.0000
# 2 59.5506 108.5683 50.6152 0.0000 2.1769 0.0000
# 3 71.0367 50.6152 119.4327 0.0000 -2.4691 0.0000
# 4 0.0000 0.0000 0.0000 27.3977 0.0000 0.2266
# 5 -1.0895 2.1769 -2.4691 0.0000 27.7536 0.0000
# 6 0.0000 0.0000 0.0000 0.2266 0.0000 35.8173
#
#
#
# Elastic Compliance Matrix: (Units=1/GPa)
#
#
# Indices 1 2 3 4 5 6 
#
# 1 0.011786 -0.003995 -0.005311 0.000000 0.000304 0.000000
# 2 -0.003995 0.012882 -0.003113 0.000000 -0.001444 0.000000
# 3 -0.005311 -0.003113 0.012876 0.000000 0.001181 0.000000
# 4 0.000000 0.000000 0.000000 0.036501 0.000000 -0.000231
# 5 0.000304 -0.001444 0.001181 0.000000 0.036262 0.000000
# 6 0.000000 0.000000 0.000000 -0.000231 0.000000 0.027921
#
#
# Mechanical properties :
#
#
# Convention : Reuss Voigt Hill
#
# Bulk Modulus (GPa) = 78.70328 80.83046 79.76687
# Shear Modulus (GPa) = 29.88618 30.45149 30.16884
#
# Velocity S-wave (km/s) = 4.03249 4.07045 4.05151
# Velocity P-wave (km/s) = 8.03140 8.12840 8.08005
#
# Compressibility (1/GPa) = 0.01270595
#
# Stress axis : x y z
#
# Youngs Moduli (GPa) = 84.84585 77.62529 77.66641
#
# Poissons Ratio (x) = 0.31010 0.41248
# Poissons Ratio (y) = 0.33895 0.24180
# Poissons Ratio (z) = 0.45061 0.24167
#
# Static dielectric constant tensor:
#      x y z
#    x 3.523490 0.000000 -0.144290 
#    y 0.000000 3.422930 0.000000 
#    z -0.144290 0.000000 3.452770 
# 
# 
# High freq. dielectric constant tensor:
#      x y z
#    x 1.721020 0.000000 -0.020550 
#    y 0.000000 1.718090 0.000000 
#    z -0.020550 0.000000 1.694410 
# 
# From -- ./inp_files/72052.got.cif
#   From: 2010.06.25/outbox.cif.g09.slc.cpg/sg11_37_cif.got.tgz:72052.got - 2010.06.27 23:14:04.
