data_PCOD8074875
_publ_section_title
;
Structure prediction by ZEFSAII (Michael W. Deem and Ramdas Pophale) SiO2 
 PCOD8074875
Probable space group: P 21/M
;
_chemical_formula_sum "Si O2"
_cell_formula_units_Z 32
_cell_length_a 25.229646
_cell_length_b 8.853933
_cell_length_c 24.670811
_cell_angle_alpha 90.000000
_cell_angle_beta 16.381506
_cell_angle_gamma 90.000000
_cell_volume 1554.278658
_symmetry_space_group_name_H-M "P 21/M"
_symmetry_group_IT_number 11
_symmetry_cell_setting 'monoclinic'
loop_
_space_group_symop_operation_xyz
x,y,z
-x,1/2+y,-z
-x,-y,-z
x,1/2-y,z
loop_
_atom_site_type_symbol
_atom_site_label
_atom_site_fract_x
_atom_site_fract_y
_atom_site_fract_z
Si Si1 0.799034 0.072875 0.205539
Si Si2 0.469042 0.425638 0.451017
Si Si3 0.281694 0.917780 0.121754
Si Si4 0.594375 0.926144 0.609003
Si Si5 0.297633 0.929768 0.990025
Si Si6 0.835472 0.580405 0.543723
Si Si7 0.100408 0.927592 0.627675
Si Si8 0.796864 0.432031 0.688635
O O1 0.827033 0.250000 0.181491
O O2 0.663959 0.025596 0.288095
O O3 0.706488 0.016066 0.352108
O O4 0.000000 0.000000 0.000000
O O5 0.428615 0.250000 0.500637
O O6 0.487301 0.464880 0.369834
O O7 0.361214 0.750000 0.045447
O O8 0.328460 0.988160 0.135652
O O9 0.056370 0.920030 0.337474
O O10 0.362661 0.992055 0.986587
O O11 0.643065 0.750000 0.566744
O O12 0.444190 0.978117 0.800976
O O13 0.781441 0.023148 0.435489
O O14 0.265775 0.750000 0.024253
O O15 0.104242 0.005330 0.162868
O O16 0.756472 0.750000 0.615476
O O17 0.793228 0.493052 0.529606
O O18 0.722084 0.499962 0.704939
O O19 0.086870 0.750000 0.635492
O O20 0.807106 0.250000 0.675816
O O21 0.000000 0.500000 0.500000
#
# Coordination Sequence:
#
# PCOD8074875 Si02
#       8
#     4   4   4   4   4   4   4   4
#     4  10  20  36  60  89 121 156 190 229 277 324
#     4   9  20  38  58  84 116 151 194 234 270 321
#     4   7  12  23  41  66  95 126 165 216 271 328
#     4  10  21  38  60  82 109 149 192 233 273 321
#     4   9  18  35  57  79 105 143 189 230 275 335
#     4   9  16  28  45  66  95 132 177 226 275 334
#     4  11  22  35  53  79 111 144 181 230 286 342
#     4   9  14  21  37  64  96 129 167 217 278 340
#
# _framework density 20.588329999999999
#
# number of rings (size 3 to 8) (size 9 to 14) (size 15 to 20)
#    0.000    2.750    0.000    3.750    0.000    2.500 
#    0.000    3.125    0.000    0.750    0.000    0.000 
#    0.000    0.000    0.000    0.000    0.000    0.000 
#
# Total GULP energy -396541.484872 kJ/mol
# GULP energy per Si atom -12391.921402 kJ/mol
# Density = 2.054147 g / cm^3
# Si number density = 20.588330 Si / 1000 Ang^3
#
#
#
# Elastic Constant Matrix: (Units=GPa)
#
#
# Indices 1 2 3 4 5 6 
#
# 1 119.7724 32.8161 45.0774 0.0000 15.5767 0.0000
# 2 32.8161 75.4815 32.3292 0.0000 2.9454 0.0000
# 3 45.0774 32.3292 81.9421 0.0000 15.1128 0.0000
# 4 0.0000 0.0000 0.0000 21.0712 0.0000 3.9878
# 5 15.5767 2.9454 15.1128 0.0000 27.4961 0.0000
# 6 0.0000 0.0000 0.0000 3.9878 0.0000 29.2393
#
#
#
# Elastic Compliance Matrix: (Units=1/GPa)
#
#
# Indices 1 2 3 4 5 6 
#
# 1 0.011264 -0.002875 -0.004387 0.000000 -0.003662 0.000000
# 2 -0.002875 0.016770 -0.005568 0.000000 0.002893 0.000000
# 3 -0.004387 -0.005568 0.018078 0.000000 -0.006855 0.000000
# 4 0.000000 0.000000 0.000000 0.048715 0.000000 -0.006644
# 5 -0.003662 0.002893 -0.006855 0.000000 0.041901 0.000000
# 6 0.000000 0.000000 0.000000 -0.006644 0.000000 0.035107
#
#
# Mechanical properties :
#
#
# Convention : Reuss Voigt Hill
#
# Bulk Modulus (GPa) = 48.89540 55.29347 52.09444
# Shear Modulus (GPa) = 24.47212 26.69290 25.58251
#
# Velocity S-wave (km/s) = 3.45141 3.60461 3.52884
# Velocity P-wave (km/s) = 6.29949 6.65126 6.47777
#
# Compressibility (1/GPa) = 0.02045182
#
# Stress axis : x y z
#
# Youngs Moduli (GPa) = 88.77643 59.62869 55.31565
#
# Poissons Ratio (x) = 0.17146 0.24265
# Poissons Ratio (y) = 0.25527 0.30802
# Poissons Ratio (z) = 0.38944 0.33203
#
# Static dielectric constant tensor:
#      x y z
#    x 4.206850 0.000000 0.244260 
#    y 0.000000 3.625320 0.000000 
#    z 0.244260 0.000000 3.587000 
# 
# 
# High freq. dielectric constant tensor:
#      x y z
#    x 1.814130 0.000000 0.007870 
#    y 0.000000 1.784210 0.000000 
#    z 0.007870 0.000000 1.796400 
# 
# From -- ./inp_files/69988.got.cif
#   From: 2010.06.25/outbox.cif.g09.slc.cpg/sg11_35_cif.got.tgz:69988.got - 2010.06.27 23:14:04.
