data_PCOD8074841
_publ_section_title
;
Structure prediction by ZEFSAII (Michael W. Deem and Ramdas Pophale) SiO2 
 PCOD8074841
Probable space group: P 21/M
;
_chemical_formula_sum "Si O2"
_cell_formula_units_Z 24
_cell_length_a 14.996240
_cell_length_b 8.804704
_cell_length_c 14.758882
_cell_angle_alpha 90.000000
_cell_angle_beta 40.188440
_cell_angle_gamma 90.000000
_cell_volume 1257.519336
_symmetry_space_group_name_H-M "P 21/M"
_symmetry_group_IT_number 11
_symmetry_cell_setting 'monoclinic'
loop_
_space_group_symop_operation_xyz
x,y,z
-x,1/2+y,-z
-x,-y,-z
x,1/2-y,z
loop_
_atom_site_type_symbol
_atom_site_label
_atom_site_fract_x
_atom_site_fract_y
_atom_site_fract_z
Si Si1 0.634201 0.428585 0.352554
Si Si2 0.646490 0.073909 0.664387
Si Si3 0.133906 0.069595 0.160771
Si Si4 0.829716 0.429402 0.356662
Si Si5 0.866166 0.074024 0.647945
Si Si6 0.360527 0.570859 0.857825
O O1 0.500000 0.500000 0.500000
O O2 0.613498 0.250000 0.372434
O O3 0.767952 0.478830 0.307385
O O4 0.653780 0.484384 0.234900
O O5 0.607506 0.250000 0.679801
O O6 0.731994 0.007885 0.512621
O O7 0.734966 0.050500 0.685743
O O8 0.508429 0.976236 0.782686
O O9 0.135178 0.250000 0.165339
O O10 0.983807 0.004980 0.247651
O O11 0.173636 0.004294 0.227357
O O12 0.242320 0.014909 0.003251
O O13 0.836710 0.250000 0.361729
O O14 0.898385 0.250000 0.638640
O O15 0.000000 0.000000 0.500000
O O16 0.340658 0.750000 0.883630
#
# Coordination Sequence:
#
# PCOD8074841 Si02
#       6
#     4   4   4   4   4   4
#     4  10  20  36  60  87 118 152 194 242 289 345
#     4  10  20  38  63  87 115 156 198 238 289 353
#     4  11  23  41  62  86 118 161 199 241 297 350
#     4   9  18  36  61  87 115 151 198 240 284 349
#     4  11  22  38  62  91 120 153 197 245 293 349
#     4  11  24  39  57  90 125 154 192 247 300 345
#
# _framework density 19.085194999999999
#
# number of rings (size 3 to 8) (size 9 to 14) (size 15 to 20)
#    0.000    1.667    3.333    1.500    0.000    3.333 
#    0.000    1.667    0.000    0.000    0.000    0.000 
#    0.000    0.000    0.000    0.000    0.000    0.000 
#
# Total GULP energy -297674.098813 kJ/mol
# GULP energy per Si atom -12403.087451 kJ/mol
# Density = 1.904176 g / cm^3
# Si number density = 19.085195 Si / 1000 Ang^3
#
#
#
# Elastic Constant Matrix: (Units=GPa)
#
#
# Indices 1 2 3 4 5 6 
#
# 1 130.3407 44.1583 65.4765 0.0000 5.3955 0.0000
# 2 44.1583 63.6980 36.5901 0.0000 5.1748 0.0000
# 3 65.4765 36.5901 135.5633 0.0000 5.3277 0.0000
# 4 0.0000 0.0000 0.0000 29.6347 0.0000 2.3932
# 5 5.3955 5.1748 5.3277 0.0000 37.0282 0.0000
# 6 0.0000 0.0000 0.0000 2.3932 0.0000 25.3481
#
#
#
# Elastic Compliance Matrix: (Units=1/GPa)
#
#
# Indices 1 2 3 4 5 6 
#
# 1 0.011675 -0.005723 -0.004082 0.000000 -0.000314 0.000000
# 2 -0.005723 0.021517 -0.002975 0.000000 -0.001745 0.000000
# 3 -0.004082 -0.002975 0.010169 0.000000 -0.000453 0.000000
# 4 0.000000 0.000000 0.000000 0.034003 0.000000 -0.003210
# 5 -0.000314 -0.001745 -0.000453 0.000000 0.027361 0.000000
# 6 0.000000 0.000000 0.000000 -0.003210 0.000000 0.039754
#
#
# Mechanical properties :
#
#
# Convention : Reuss Voigt Hill
#
# Bulk Modulus (GPa) = 56.17618 69.11686 62.64652
# Shear Modulus (GPa) = 28.41355 30.62736 29.52045
#
# Velocity S-wave (km/s) = 3.86265 4.01030 3.93717
# Velocity P-wave (km/s) = 7.02793 7.59848 7.31877
#
# Compressibility (1/GPa) = 0.01780114
#
# Stress axis : x y z
#
# Youngs Moduli (GPa) = 85.65602 46.47424 98.33992
#
# Poissons Ratio (x) = 0.26598 0.40139
# Poissons Ratio (y) = 0.49023 0.29255
# Poissons Ratio (z) = 0.34962 0.13826
#
# Static dielectric constant tensor:
#      x y z
#    x 4.024290 0.000000 0.082010 
#    y 0.000000 3.383150 0.000000 
#    z 0.082010 0.000000 3.996620 
# 
# 
# High freq. dielectric constant tensor:
#      x y z
#    x 1.759540 0.000000 0.001320 
#    y 0.000000 1.731060 0.000000 
#    z 0.001320 0.000000 1.742800 
# 
# From -- ./inp_files/51491.got.cif
#   From: 2010.06.25/outbox.cif.g09.slc.cpg/sg11_26_cif.got.tgz:51491.got - 2010.06.27 23:14:04.
