data_PCOD8074233
_publ_section_title
;
Structure prediction by ZEFSAII (Michael W. Deem and Ramdas Pophale) SiO2 
 PCOD8074233
Probable space group: P 21/M
;
_chemical_formula_sum "Si O2"
_cell_formula_units_Z 24
_cell_length_a 15.806146
_cell_length_b 8.852511
_cell_length_c 9.117764
_cell_angle_alpha 90.000000
_cell_angle_beta 73.460083
_cell_angle_gamma 90.000000
_cell_volume 1223.004449
_symmetry_space_group_name_H-M "P 21/M"
_symmetry_group_IT_number 11
_symmetry_cell_setting 'monoclinic'
loop_
_space_group_symop_operation_xyz
x,y,z
-x,1/2+y,-z
-x,-y,-z
x,1/2-y,z
loop_
_atom_site_type_symbol
_atom_site_label
_atom_site_fract_x
_atom_site_fract_y
_atom_site_fract_z
Si Si1 0.081011 0.427373 0.376789
Si Si2 0.245092 0.927374 0.798032
Si Si3 0.238534 0.924020 0.463479
Si Si4 0.397421 0.074674 0.889864
Si Si5 0.401976 0.923062 0.188238
Si Si6 0.917575 0.928672 0.959391
O O1 0.069900 0.250000 0.391783
O O2 0.172397 0.473512 0.405074
O O3 0.080437 0.482806 0.209528
O O4 0.000000 0.500000 0.500000
O O5 0.232344 0.750000 0.828328
O O6 0.235075 0.972678 0.633802
O O7 0.341634 0.976787 0.803168
O O8 0.172927 0.016151 0.925995
O O9 0.210530 0.750000 0.457954
O O10 0.337171 0.952748 0.355968
O O11 0.374686 0.250000 0.880217
O O12 0.499609 0.037710 0.806235
O O13 0.373238 0.028638 0.067815
O O14 0.397449 0.750000 0.135849
O O15 0.923681 0.750000 0.970047
O O16 0.000000 0.000000 0.000000
#
# Coordination Sequence:
#
# PCOD8074233 Si02
#       6
#     4   4   4   4   4   4
#     4  11  24  40  60  86 114 145 184 229 277 331
#     4  11  23  38  57  83 115 151 190 232 279 332
#     4  10  22  39  58  82 113 149 190 232 277 332
#     4  10  20  35  57  85 114 147 190 235 281 336
#     4   9  19  37  59  82 112 150 189 233 284 334
#     4  11  24  41  61  87 116 147 186 230 278 334
#
# _framework density 19.623804
#
# number of rings (size 3 to 8) (size 9 to 14) (size 15 to 20)
#    0.000    1.667    0.000    4.000    0.000   12.667 
#    0.000    0.000    0.000    0.000    0.000    0.000 
#    0.000    0.000    0.000    0.000    0.000    0.000 
#
# Total GULP energy -297741.555897 kJ/mol
# GULP energy per Si atom -12405.898162 kJ/mol
# Density = 1.957914 g / cm^3
# Si number density = 19.623804 Si / 1000 Ang^3
#
#
#
# Elastic Constant Matrix: (Units=GPa)
#
#
# Indices 1 2 3 4 5 6 
#
# 1 124.8548 38.0035 73.3264 0.0000 8.1116 0.0000
# 2 38.0035 56.2140 54.3139 0.0000 4.6471 0.0000
# 3 73.3264 54.3139 163.3306 0.0000 -0.1434 0.0000
# 4 0.0000 0.0000 0.0000 30.5477 0.0000 2.1786
# 5 8.1116 4.6471 -0.1434 0.0000 38.4582 0.0000
# 6 0.0000 0.0000 0.0000 2.1786 0.0000 40.3348
#
#
#
# Elastic Compliance Matrix: (Units=1/GPa)
#
#
# Indices 1 2 3 4 5 6 
#
# 1 0.011634 -0.003907 -0.003925 0.000000 -0.001996 0.000000
# 2 -0.003907 0.027923 -0.007534 0.000000 -0.002578 0.000000
# 3 -0.003925 -0.007534 0.010392 0.000000 0.001777 0.000000
# 4 0.000000 0.000000 0.000000 0.032862 0.000000 -0.001775
# 5 -0.001996 -0.002578 0.001777 0.000000 0.026741 0.000000
# 6 0.000000 0.000000 0.000000 -0.001775 0.000000 0.024888
#
#
# Mechanical properties :
#
#
# Convention : Reuss Voigt Hill
#
# Bulk Modulus (GPa) = 52.04081 75.07634 63.55858
# Shear Modulus (GPa) = 29.14139 33.78517 31.46328
#
# Velocity S-wave (km/s) = 3.85775 4.15377 4.00849
# Velocity P-wave (km/s) = 6.81321 7.83236 7.34049
#
# Compressibility (1/GPa) = 0.01921569
#
# Stress axis : x y z
#
# Youngs Moduli (GPa) = 85.95804 35.81315 96.23220
#
# Poissons Ratio (x) = 0.13993 0.37774
# Poissons Ratio (y) = 0.33586 0.72497
# Poissons Ratio (z) = 0.33741 0.26980
#
# Static dielectric constant tensor:
#      x y z
#    x 3.735300 0.000000 -0.034520 
#    y 0.000000 3.661680 0.000000 
#    z -0.034520 0.000000 3.656940 
# 
# 
# High freq. dielectric constant tensor:
#      x y z
#    x 1.778780 0.000000 -0.003420 
#    y 0.000000 1.770770 0.000000 
#    z -0.003420 0.000000 1.770240 
# 
# From -- ./inp_files/20358.got.cif
#   From: 2010.06.25/outbox.cif.g09.slc.cpg/sg11_11_cif.got.tgz:20358.got - 2010.06.27 23:14:04.
