data_PCOD8074331
_publ_section_title
;
Structure prediction by ZEFSAII (Michael W. Deem and Ramdas Pophale) SiO2 
 PCOD8074331
Probable space group: P 21/M
;
_chemical_formula_sum "Si O2"
_cell_formula_units_Z 32
_cell_length_a 31.235979
_cell_length_b 8.907816
_cell_length_c 11.975849
_cell_angle_alpha 90.000000
_cell_angle_beta 150.055742
_cell_angle_gamma 90.000000
_cell_volume 1663.297871
_symmetry_space_group_name_H-M "P 21/M"
_symmetry_group_IT_number 11
_symmetry_cell_setting 'monoclinic'
loop_
_space_group_symop_operation_xyz
x,y,z
-x,1/2+y,-z
-x,-y,-z
x,1/2-y,z
loop_
_atom_site_type_symbol
_atom_site_label
_atom_site_fract_x
_atom_site_fract_y
_atom_site_fract_z
Si Si1 0.912696 0.425175 0.168730
Si Si2 0.106724 0.425502 0.645248
Si Si3 0.260312 0.077943 0.837591
Si Si4 0.378521 0.923954 0.483161
Si Si5 0.227780 0.425208 0.281490
Si Si6 0.701426 0.920916 0.320744
Si Si7 0.591582 0.422798 0.701107
Si Si8 0.474358 0.573471 0.057581
O O1 0.893107 0.250000 0.114668
O O2 0.875812 0.481777 0.203309
O O3 0.013108 0.462712 0.384398
O O4 0.865043 0.510828 0.960967
O O5 0.114342 0.250000 0.691163
O O6 0.175699 0.479768 0.710023
O O7 0.277971 0.250000 0.908794
O O8 0.242994 0.058234 0.666167
O O9 0.344756 0.987490 0.062349
O O10 0.386928 0.750000 0.535003
O O11 0.363836 0.946012 0.318378
O O12 0.299957 0.993329 0.372489
O O13 0.466547 0.007590 0.711511
O O14 0.232730 0.250000 0.265800
O O15 0.239980 0.458913 0.440206
O O16 0.666286 0.750000 0.250468
O O17 0.623395 0.036030 0.136984
O O18 0.500000 0.500000 0.500000
O O19 0.576218 0.250000 0.693697
O O20 0.488225 0.750000 0.081514
O O21 0.500000 0.500000 0.000000
#
# Coordination Sequence:
#
# PCOD8074331 Si02
#       8
#     4   4   4   4   4   4   4   4
#     4  10  20  35  58  87 118 145 180 234 285 335
#     4   9  19  37  61  87 113 148 187 225 282 345
#     4  10  21  39  61  82 111 150 191 234 281 337
#     4  11  23  38  57  82 113 146 187 237 286 334
#     4  11  22  36  56  82 112 147 187 231 284 338
#     4  10  22  39  57  80 111 149 193 238 281 330
#     4  11  24  39  56  82 114 148 186 231 281 334
#     4  12  23  36  56  81 111 148 190 234 280 332
#
# _framework density 19.238886999999998
#
# number of rings (size 3 to 8) (size 9 to 14) (size 15 to 20)
#    0.000    1.500    1.250    4.125    0.000    9.000 
#    0.000    0.625    0.000    0.000    0.000    0.000 
#    0.000    0.000    0.000    0.000    0.000    0.000 
#
# Total GULP energy -396948.609935 kJ/mol
# GULP energy per Si atom -12404.644060 kJ/mol
# Density = 1.919510 g / cm^3
# Si number density = 19.238887 Si / 1000 Ang^3
#
#
#
# Elastic Constant Matrix: (Units=GPa)
#
#
# Indices 1 2 3 4 5 6 
#
# 1 115.8501 44.1870 55.7478 0.0000 1.0316 0.0000
# 2 44.1870 108.2455 51.8710 0.0000 -5.5140 0.0000
# 3 55.7478 51.8710 123.8219 0.0000 -7.0421 0.0000
# 4 0.0000 0.0000 0.0000 35.2785 0.0000 -0.4275
# 5 1.0316 -5.5140 -7.0421 0.0000 29.6325 0.0000
# 6 0.0000 0.0000 0.0000 -0.4275 0.0000 25.0908
#
#
#
# Elastic Compliance Matrix: (Units=1/GPa)
#
#
# Indices 1 2 3 4 5 6 
#
# 1 0.011773 -0.002893 -0.004200 0.000000 -0.001946 0.000000
# 2 -0.002893 0.012299 -0.003765 0.000000 0.001495 0.000000
# 3 -0.004200 -0.003765 0.011670 0.000000 0.002219 0.000000
# 4 0.000000 0.000000 0.000000 0.028352 0.000000 0.000483
# 5 -0.001946 0.001495 0.002219 0.000000 0.034620 0.000000
# 6 0.000000 0.000000 0.000000 0.000483 0.000000 0.039863
#
#
# Mechanical properties :
#
#
# Convention : Reuss Voigt Hill
#
# Bulk Modulus (GPa) = 71.28372 72.39213 71.83792
# Shear Modulus (GPa) = 30.30874 31.07450 30.69162
#
# Velocity S-wave (km/s) = 3.97342 4.02331 3.99844
# Velocity P-wave (km/s) = 7.62779 7.70015 7.66406
#
# Compressibility (1/GPa) = 0.01402845
#
# Stress axis : x y z
#
# Youngs Moduli (GPa) = 84.93760 81.30451 85.68761
#
# Poissons Ratio (x) = 0.23519 0.35985
# Poissons Ratio (y) = 0.24570 0.32262
# Poissons Ratio (z) = 0.35670 0.30612
#
# Static dielectric constant tensor:
#      x y z
#    x 3.560870 0.000000 -0.030400 
#    y 0.000000 3.645380 0.000000 
#    z -0.030400 0.000000 3.671510 
# 
# 
# High freq. dielectric constant tensor:
#      x y z
#    x 1.747050 0.000000 -0.007270 
#    y 0.000000 1.756440 0.000000 
#    z -0.007270 0.000000 1.747940 
# 
# From -- ./inp_files/45216.got.cif
#   From: 2010.06.25/outbox.cif.g09.slc.cpg/sg11_23_cif.got.tgz:45216.got - 2010.06.27 23:14:04.
