data_PCOD8074358
_publ_section_title
;
Structure prediction by ZEFSAII (Michael W. Deem and Ramdas Pophale) SiO2 
 PCOD8074358
Probable space group: P 21/M
;
_chemical_formula_sum "Si O2"
_cell_formula_units_Z 32
_cell_length_a 12.482923
_cell_length_b 9.026625
_cell_length_c 29.311414
_cell_angle_alpha 90.000000
_cell_angle_beta 150.120525
_cell_angle_gamma 90.000000
_cell_volume 1645.365075
_symmetry_space_group_name_H-M "P 21/M"
_symmetry_group_IT_number 11
_symmetry_cell_setting 'monoclinic'
loop_
_space_group_symop_operation_xyz
x,y,z
-x,1/2+y,-z
-x,-y,-z
x,1/2-y,z
loop_
_atom_site_type_symbol
_atom_site_label
_atom_site_fract_x
_atom_site_fract_y
_atom_site_fract_z
Si Si1 0.255593 0.418734 0.187225
Si Si2 0.442831 0.079465 0.525886
Si Si3 0.108123 0.079239 0.783457
Si Si4 0.787762 0.077300 0.987496
Si Si5 0.976626 0.080738 0.333476
Si Si6 0.488945 0.577913 0.804581
Si Si7 0.520733 0.575661 0.959675
Si Si8 0.741176 0.078622 0.715792
O O1 0.251855 0.250000 0.201989
O O2 0.457295 0.452705 0.228670
O O3 0.277424 0.509795 0.241415
O O4 0.042909 0.452412 0.078174
O O5 0.514365 0.250000 0.546491
O O6 0.569777 0.010680 0.616266
O O7 0.187724 0.066030 0.443194
O O8 0.500000 0.000000 0.500000
O O9 0.179856 0.250000 0.806000
O O10 0.979527 0.052974 0.782963
O O11 0.969450 0.029625 0.688690
O O12 0.311433 0.970158 0.853750
O O13 0.733559 0.250000 0.972779
O O14 0.655109 0.015918 0.895919
O O15 0.727419 0.989058 0.011000
O O16 0.953103 0.250000 0.307495
O O17 0.759456 0.030843 0.279647
O O18 0.525701 0.750000 0.830656
O O19 0.542603 0.750000 0.973213
O O20 0.500000 0.500000 0.000000
O O21 0.691936 0.250000 0.704144
#
# Coordination Sequence:
#
# PCOD8074358 Si02
#       8
#     4   4   4   4   4   4   4   4
#     4  10  23  40  58  82 115 153 197 242 289 344
#     4  10  20  36  58  87 117 150 189 235 290 351
#     4  11  21  35  56  83 116 149 187 235 285 343
#     4  11  22  37  58  85 113 150 196 242 288 343
#     4  10  20  35  59  86 114 148 186 232 291 346
#     4  10  21  39  60  85 115 152 196 242 289 339
#     4  12  24  37  53  79 116 155 192 235 288 345
#     4  10  22  38  57  84 118 152 190 239 291 342
#
# _framework density 19.448571999999999
#
# number of rings (size 3 to 8) (size 9 to 14) (size 15 to 20)
#    0.000    1.500    2.500    3.000    0.000    5.000 
#    0.000    0.625    0.000    0.000    0.000    0.000 
#    0.000    0.000    0.000    0.000    0.000    0.000 
#
# Total GULP energy -396729.728547 kJ/mol
# GULP energy per Si atom -12397.804017 kJ/mol
# Density = 1.940431 g / cm^3
# Si number density = 19.448572 Si / 1000 Ang^3
#
#
#
# Elastic Constant Matrix: (Units=GPa)
#
#
# Indices 1 2 3 4 5 6 
#
# 1 108.2159 45.7836 35.4790 0.0000 3.4921 0.0000
# 2 45.7836 90.1468 32.1675 0.0000 0.1754 0.0000
# 3 35.4790 32.1675 85.2208 0.0000 2.9930 0.0000
# 4 0.0000 0.0000 0.0000 25.4774 0.0000 -5.1267
# 5 3.4921 0.1754 2.9930 0.0000 23.5001 0.0000
# 6 0.0000 0.0000 0.0000 -5.1267 0.0000 30.2089
#
#
#
# Elastic Compliance Matrix: (Units=1/GPa)
#
#
# Indices 1 2 3 4 5 6 
#
# 1 0.012548 -0.005228 -0.003201 0.000000 -0.001418 0.000000
# 2 -0.005228 0.015004 -0.003526 0.000000 0.001114 0.000000
# 3 -0.003201 -0.003526 0.014445 0.000000 -0.001338 0.000000
# 4 0.000000 0.000000 0.000000 0.040638 0.000000 0.006897
# 5 -0.001418 0.001114 -0.001338 0.000000 0.042926 0.000000
# 6 0.000000 0.000000 0.000000 0.006897 0.000000 0.034273
#
#
# Mechanical properties :
#
#
# Convention : Reuss Voigt Hill
#
# Bulk Modulus (GPa) = 55.28785 56.71595 56.00190
# Shear Modulus (GPa) = 26.34737 27.18085 26.76411
#
# Velocity S-wave (km/s) = 3.68464 3.74247 3.71367
# Velocity P-wave (km/s) = 6.82580 6.92099 6.87356
#
# Compressibility (1/GPa) = 0.01808716
#
# Stress axis : x y z
#
# Youngs Moduli (GPa) = 79.69608 66.64797 69.22941
#
# Poissons Ratio (x) = 0.34842 0.22159
# Poissons Ratio (y) = 0.41663 0.24412
# Poissons Ratio (z) = 0.25509 0.23501
#
# Static dielectric constant tensor:
#      x y z
#    x 3.494070 0.000000 0.174610 
#    y 0.000000 4.942040 0.000000 
#    z 0.174610 0.000000 3.992870 
# 
# 
# High freq. dielectric constant tensor:
#      x y z
#    x 1.751630 0.000000 0.007940 
#    y 0.000000 1.754580 0.000000 
#    z 0.007940 0.000000 1.760580 
# 
# From -- ./inp_files/73035.got.cif
#   From: 2010.06.25/outbox.cif.g09.slc.cpg/sg11_37_cif.got.tgz:73035.got - 2010.06.27 23:14:04.
