data_PCOD8074411
_publ_section_title
;
Structure prediction by ZEFSAII (Michael W. Deem and Ramdas Pophale) SiO2 
 PCOD8074411
Probable space group: P 21/M
;
_chemical_formula_sum "Si O2"
_cell_formula_units_Z 32
_cell_length_a 11.824267
_cell_length_b 9.079902
_cell_length_c 30.774284
_cell_angle_alpha 90.000000
_cell_angle_beta 149.601231
_cell_angle_gamma 90.000000
_cell_volume 1671.887063
_symmetry_space_group_name_H-M "P 21/M"
_symmetry_group_IT_number 11
_symmetry_cell_setting 'monoclinic'
loop_
_space_group_symop_operation_xyz
x,y,z
-x,1/2+y,-z
-x,-y,-z
x,1/2-y,z
loop_
_atom_site_type_symbol
_atom_site_label
_atom_site_fract_x
_atom_site_fract_y
_atom_site_fract_z
Si Si1 0.433831 0.579061 0.021945
Si Si2 0.336502 0.922946 0.762742
Si Si3 0.011655 0.581603 0.118399
Si Si4 0.204026 0.580392 0.090421
Si Si5 0.847811 0.919903 0.220560
Si Si6 0.111345 0.579074 0.598012
Si Si7 0.688510 0.077684 0.427367
Si Si8 0.770498 0.423171 0.720075
O O1 0.405254 0.750000 0.002417
O O2 0.203711 0.515380 0.964371
O O3 0.500000 0.500000 0.000000
O O4 0.622706 0.548690 0.119722
O O5 0.374207 0.750000 0.780582
O O6 0.250126 0.964356 0.686415
O O7 0.567986 0.004861 0.848860
O O8 0.154264 0.979681 0.737108
O O9 0.933706 0.750000 0.099728
O O10 0.183574 0.567495 0.135676
O O11 0.130042 0.521387 0.201048
O O12 0.208027 0.750000 0.076596
O O13 0.000000 0.500000 0.000000
O O14 0.865274 0.750000 0.240148
O O15 0.058678 0.966241 0.261356
O O16 0.044488 0.750000 0.575456
O O17 0.263680 0.538624 0.607068
O O18 0.884555 0.485667 0.522537
O O19 0.672375 0.250000 0.430118
O O20 0.458471 0.005142 0.365939
O O21 0.724955 0.250000 0.706903
#
# Coordination Sequence:
#
# PCOD8074411 Si02
#       8
#     4   4   4   4   4   4   4   4
#     4  11  21  35  55  79 110 148 190 236 281 330
#     4  11  23  39  60  84 115 152 192 233 279 339
#     4  10  21  37  56  81 110 146 191 233 282 338
#     4  11  23  38  58  83 115 151 190 235 282 336
#     4  10  22  39  57  79 112 153 194 235 280 334
#     4   9  20  39  60  85 117 150 181 223 282 338
#     4  10  20  35  60  91 116 140 181 231 279 337
#     4  10  20  37  57  80 113 147 182 230 287 336
#
# _framework density 19.140049000000001
#
# number of rings (size 3 to 8) (size 9 to 14) (size 15 to 20)
#    0.000    1.750    1.250    3.000    0.000    6.500 
#    0.000    0.625    0.000    0.000    0.000    0.000 
#    0.000    0.000    0.000    0.000    0.000    0.000 
#
# Total GULP energy -396985.153267 kJ/mol
# GULP energy per Si atom -12405.786040 kJ/mol
# Density = 1.909649 g / cm^3
# Si number density = 19.140049 Si / 1000 Ang^3
#
#
#
# Elastic Constant Matrix: (Units=GPa)
#
#
# Indices 1 2 3 4 5 6 
#
# 1 99.1805 47.2474 48.5679 0.0000 7.3336 0.0000
# 2 47.2474 88.7139 57.1492 0.0000 6.3182 0.0000
# 3 48.5679 57.1492 104.9794 0.0000 15.7104 0.0000
# 4 0.0000 0.0000 0.0000 33.0281 0.0000 2.9662
# 5 7.3336 6.3182 15.7104 0.0000 33.8672 0.0000
# 6 0.0000 0.0000 0.0000 2.9662 0.0000 33.2154
#
#
#
# Elastic Compliance Matrix: (Units=1/GPa)
#
#
# Indices 1 2 3 4 5 6 
#
# 1 0.014457 -0.005238 -0.003777 0.000000 -0.000401 0.000000
# 2 -0.005238 0.019306 -0.008293 0.000000 0.001380 0.000000
# 3 -0.003777 -0.008293 0.016585 0.000000 -0.005329 0.000000
# 4 0.000000 0.000000 0.000000 0.030522 0.000000 -0.002726
# 5 -0.000401 0.001380 -0.005329 0.000000 0.031828 0.000000
# 6 0.000000 0.000000 0.000000 -0.002726 0.000000 0.030350
#
#
# Mechanical properties :
#
#
# Convention : Reuss Voigt Hill
#
# Bulk Modulus (GPa) = 63.56352 66.53364 65.04858
# Shear Modulus (GPa) = 27.33612 29.34944 28.34278
#
# Velocity S-wave (km/s) = 3.78327 3.92012 3.85230
# Velocity P-wave (km/s) = 7.23644 7.43819 7.33801
#
# Compressibility (1/GPa) = 0.01573229
#
# Stress axis : x y z
#
# Youngs Moduli (GPa) = 69.17036 51.79773 60.29510
#
# Poissons Ratio (x) = 0.27131 0.22773
# Poissons Ratio (y) = 0.36230 0.50003
# Poissons Ratio (z) = 0.26126 0.42956
#
# Static dielectric constant tensor:
#      x y z
#    x 3.573970 0.000000 0.001740 
#    y 0.000000 3.555840 0.000000 
#    z 0.001740 0.000000 3.373540 
# 
# 
# High freq. dielectric constant tensor:
#      x y z
#    x 1.750180 0.000000 0.002180 
#    y 0.000000 1.747950 0.000000 
#    z 0.002180 0.000000 1.737510 
# 
# From -- ./inp_files/45224.got.cif
#   From: 2010.06.25/outbox.cif.g09.slc.cpg/sg11_23_cif.got.tgz:45224.got - 2010.06.27 23:14:04.
