data_PCOD8074308
_publ_section_title
;
Structure prediction by ZEFSAII (Michael W. Deem and Ramdas Pophale) SiO2 
 PCOD8074308
Probable space group: P 21/M
;
_chemical_formula_sum "Si O2"
_cell_formula_units_Z 28
_cell_length_a 23.636250
_cell_length_b 9.163902
_cell_length_c 21.319574
_cell_angle_alpha 90.000000
_cell_angle_beta 18.429483
_cell_angle_gamma 90.000000
_cell_volume 1459.866770
_symmetry_space_group_name_H-M "P 21/M"
_symmetry_group_IT_number 11
_symmetry_cell_setting 'monoclinic'
loop_
_space_group_symop_operation_xyz
x,y,z
-x,1/2+y,-z
-x,-y,-z
x,1/2-y,z
loop_
_atom_site_type_symbol
_atom_site_label
_atom_site_fract_x
_atom_site_fract_y
_atom_site_fract_z
Si Si1 0.523850 0.581113 0.039735
Si Si2 0.816309 0.421323 0.523201
Si Si3 0.622792 0.581531 0.504133
Si Si4 0.731938 0.577512 0.125675
Si Si5 0.073738 0.421427 0.715913
Si Si6 0.923814 0.919111 0.639921
Si Si7 0.820006 0.919217 0.173125
O O1 0.504416 0.750000 0.043902
O O2 0.715245 0.543909 0.869086
O O3 0.500000 0.500000 0.000000
O O4 0.373252 0.533882 0.247448
O O5 0.825070 0.250000 0.497132
O O6 0.833768 0.518299 0.443461
O O7 0.973765 0.467456 0.405160
O O8 0.567809 0.750000 0.570066
O O9 0.457749 0.481835 0.699703
O O10 0.795625 0.543298 0.363745
O O11 0.669441 0.544075 0.382978
O O12 0.740483 0.750000 0.106427
O O13 0.748897 0.530697 0.180382
O O14 0.887491 0.504002 0.921749
O O15 0.036854 0.250000 0.748340
O O16 0.957168 0.750000 0.591827
O O17 0.000000 0.000000 0.500000
O O18 0.867980 0.750000 0.123214
O O19 0.000000 0.000000 0.000000
#
# Coordination Sequence:
#
# PCOD8074308 Si02
#       7
#     4   4   4   4   4   4   4
#     4  10  20  35  58  86 115 147 185 232 286 341
#     4  10  22  39  57  84 121 155 194 243 292 348
#     4  10  22  40  61  87 122 160 200 250 304 355
#     4  11  23  38  62  92 120 157 203 249 302 361
#     4  11  24  42  62  85 119 162 203 249 300 355
#     4  10  20  35  58  87 117 149 186 233 287 342
#     4  10  20  36  60  90 121 156 198 249 305 356
#
# _framework density 19.179832999999999
#
# number of rings (size 3 to 8) (size 9 to 14) (size 15 to 20)
#    0.000    1.714    2.857    1.286    0.000    4.571 
#    0.000    1.429    0.000    0.000    0.000    0.000 
#    0.000    0.000    0.000    0.000    0.000    0.000 
#
# Total GULP energy -347321.822173 kJ/mol
# GULP energy per Si atom -12404.350792 kJ/mol
# Density = 1.913618 g / cm^3
# Si number density = 19.179833 Si / 1000 Ang^3
#
#
#
# Elastic Constant Matrix: (Units=GPa)
#
#
# Indices 1 2 3 4 5 6 
#
# 1 58.8500 27.1540 33.9351 0.0000 9.9114 0.0000
# 2 27.1540 64.3268 49.9697 0.0000 2.2399 0.0000
# 3 33.9351 49.9697 140.1753 0.0000 -2.7428 0.0000
# 4 0.0000 0.0000 0.0000 36.6496 0.0000 2.0952
# 5 9.9114 2.2399 -2.7428 0.0000 34.8393 0.0000
# 6 0.0000 0.0000 0.0000 2.0952 0.0000 32.1680
#
#
#
# Elastic Compliance Matrix: (Units=1/GPa)
#
#
# Indices 1 2 3 4 5 6 
#
# 1 0.023185 -0.007063 -0.003220 0.000000 -0.006395 0.000000
# 2 -0.007063 0.023789 -0.006772 0.000000 -0.000053 0.000000
# 3 -0.003220 -0.006772 0.010370 0.000000 0.002168 0.000000
# 4 0.000000 0.000000 0.000000 0.027387 0.000000 -0.001784
# 5 -0.006395 -0.000053 0.002168 0.000000 0.030697 0.000000
# 6 0.000000 0.000000 0.000000 -0.001784 0.000000 0.031203
#
#
# Mechanical properties :
#
#
# Convention : Reuss Voigt Hill
#
# Bulk Modulus (GPa) = 43.03881 53.94111 48.48996
# Shear Modulus (GPa) = 26.52721 30.88425 28.70573
#
# Velocity S-wave (km/s) = 3.72301 4.01714 3.87287
# Velocity P-wave (km/s) = 6.40073 7.04993 6.73316
#
# Compressibility (1/GPa) = 0.02323484
#
# Stress axis : x y z
#
# Youngs Moduli (GPa) = 43.13083 42.03611 96.43324
#
# Poissons Ratio (x) = 0.29689 0.31055
# Poissons Ratio (y) = 0.30463 0.65300
# Poissons Ratio (z) = 0.13889 0.28465
#
# Static dielectric constant tensor:
#      x y z
#    x 3.452590 0.000000 -0.251100 
#    y 0.000000 3.743950 0.000000 
#    z -0.251100 0.000000 3.749810 
# 
# 
# High freq. dielectric constant tensor:
#      x y z
#    x 1.744110 0.000000 -0.005200 
#    y 0.000000 1.744150 0.000000 
#    z -0.005200 0.000000 1.758870 
# 
# From -- ./inp_files/66687.got.cif
#   From: 2010.06.25/outbox.cif.g09.slc.cpg/sg11_34_cif.got.tgz:66687.got - 2010.06.27 23:14:04.
