data_PCOD8074670
_publ_section_title
;
Structure prediction by ZEFSAII (Michael W. Deem and Ramdas Pophale) SiO2 
 PCOD8074670
Probable space group: P 21/M
;
_chemical_formula_sum "Si O2"
_cell_formula_units_Z 24
_cell_length_a 13.298697
_cell_length_b 10.203972
_cell_length_c 20.034026
_cell_angle_alpha 90.000000
_cell_angle_beta 152.767701
_cell_angle_gamma 90.000000
_cell_volume 1244.032930
_symmetry_space_group_name_H-M "P 21/M"
_symmetry_group_IT_number 11
_symmetry_cell_setting 'monoclinic'
loop_
_space_group_symop_operation_xyz
x,y,z
-x,1/2+y,-z
-x,-y,-z
x,1/2-y,z
loop_
_atom_site_type_symbol
_atom_site_label
_atom_site_fract_x
_atom_site_fract_y
_atom_site_fract_z
Si Si1 0.601461 0.901723 0.611836
Si Si2 0.492206 0.895090 0.198382
Si Si3 0.909560 0.097973 0.119913
Si Si4 0.096355 0.038003 0.628703
Si Si5 0.634646 0.393637 0.389074
Si Si6 0.299564 0.598601 0.868130
O O1 0.586521 0.750000 0.578759
O O2 0.472967 0.923671 0.603913
O O3 0.854737 0.946446 0.768646
O O4 0.500000 0.000000 0.500000
O O5 0.443003 0.750000 0.198936
O O6 0.687748 0.876203 0.259384
O O7 0.559138 0.991896 0.296362
O O8 0.283922 0.964344 0.039484
O O9 0.875350 0.250000 0.088461
O O10 0.880698 0.065212 0.181140
O O11 0.900670 0.111366 0.552486
O O12 0.181224 0.919950 0.726479
O O13 0.000000 0.000000 0.500000
O O14 0.557015 0.250000 0.317722
O O15 0.380162 0.750000 0.920099
O O16 0.500000 0.500000 0.000000
#
# Coordination Sequence:
#
# PCOD8074670 Si02
#       6
#     4   4   4   4   4   4
#     4  10  21  39  60  81 112 150 193 240 290 346
#     4  10  20  36  58  83 114 155 195 237 293 358
#     4   9  19  37  59  84 115 152 190 236 291 353
#     4  10  21  36  57  86 121 156 196 241 293 350
#     4  10  22  37  57  86 118 152 194 248 294 337
#     4  11  22  38  61  89 119 155 197 243 299 356
#
# _framework density 19.292095
#
# number of rings (size 3 to 8) (size 9 to 14) (size 15 to 20)
#    0.000    2.000    1.667    1.500    0.000    7.333 
#    0.000    1.667    0.000    0.000    0.000    0.000 
#    0.000    0.000    0.000    0.000    0.000    0.000 
#
# Total GULP energy -297331.798111 kJ/mol
# GULP energy per Si atom -12388.824921 kJ/mol
# Density = 1.924819 g / cm^3
# Si number density = 19.292095 Si / 1000 Ang^3
#
#
#
# Elastic Constant Matrix: (Units=GPa)
#
#
# Indices 1 2 3 4 5 6 
#
# 1 135.9125 55.6550 70.7517 0.0000 17.1350 0.0000
# 2 55.6550 106.3870 53.4315 0.0000 -9.1617 0.0000
# 3 70.7517 53.4315 135.8603 0.0000 7.9423 0.0000
# 4 0.0000 0.0000 0.0000 29.6075 0.0000 -4.1310
# 5 17.1350 -9.1617 7.9423 0.0000 35.5815 0.0000
# 6 0.0000 0.0000 0.0000 -4.1310 0.0000 28.1263
#
#
#
# Elastic Compliance Matrix: (Units=1/GPa)
#
#
# Indices 1 2 3 4 5 6 
#
# 1 0.012296 -0.004910 -0.004106 0.000000 -0.006269 0.000000
# 2 -0.004910 0.014295 -0.003463 0.000000 0.006819 0.000000
# 3 -0.004106 -0.003463 0.010940 0.000000 -0.001357 0.000000
# 4 0.000000 0.000000 0.000000 0.034482 0.000000 0.005064
# 5 -0.006269 0.006819 -0.001357 0.000000 0.033182 0.000000
# 6 0.000000 0.000000 0.000000 0.005064 0.000000 0.036298
#
#
# Mechanical properties :
#
#
# Convention : Reuss Voigt Hill
#
# Bulk Modulus (GPa) = 79.54113 81.98181 80.76147
# Shear Modulus (GPa) = 29.30094 31.88451 30.59273
#
# Velocity S-wave (km/s) = 3.90141 4.06978 3.98649
# Velocity P-wave (km/s) = 7.84947 8.04186 7.94624
#
# Compressibility (1/GPa) = 0.01257211
#
# Stress axis : x y z
#
# Youngs Moduli (GPa) = 81.32603 69.95392 91.40706
#
# Poissons Ratio (x) = 0.34350 0.37530
# Poissons Ratio (y) = 0.39934 0.31658
# Poissons Ratio (z) = 0.33391 0.24228
#
# Static dielectric constant tensor:
#      x y z
#    x 4.294480 0.000000 0.918080 
#    y 0.000000 3.334740 0.000000 
#    z 0.918080 0.000000 4.608910 
# 
# 
# High freq. dielectric constant tensor:
#      x y z
#    x 1.756450 0.000000 0.009920 
#    y 0.000000 1.734840 0.000000 
#    z 0.009920 0.000000 1.754810 
# 
# From -- ./inp_files/34663.got.cif
#   From: 2010.06.25/outbox.cif.g09.slc.cpg/sg11_18_cif.got.tgz:34663.got - 2010.06.27 23:14:04.
