data_PCOD8074908
_publ_section_title
;
Structure prediction by ZEFSAII (Michael W. Deem and Ramdas Pophale) SiO2 
 PCOD8074908
Probable space group: P 21/M
;
_chemical_formula_sum "Si O2"
_cell_formula_units_Z 24
_cell_length_a 15.128895
_cell_length_b 8.753966
_cell_length_c 14.899876
_cell_angle_alpha 90.000000
_cell_angle_beta 140.173019
_cell_angle_gamma 90.000000
_cell_volume 1263.846914
_symmetry_space_group_name_H-M "P 21/M"
_symmetry_group_IT_number 11
_symmetry_cell_setting 'monoclinic'
loop_
_space_group_symop_operation_xyz
x,y,z
-x,1/2+y,-z
-x,-y,-z
x,1/2-y,z
loop_
_atom_site_type_symbol
_atom_site_label
_atom_site_fract_x
_atom_site_fract_y
_atom_site_fract_z
Si Si1 0.891988 0.068837 0.347657
Si Si2 0.415946 0.570151 0.853745
Si Si3 0.075100 0.069942 0.144010
Si Si4 0.612093 0.928891 0.651902
Si Si5 0.388279 0.068882 0.148133
Si Si6 0.898370 0.568242 0.158488
O O1 0.905317 0.250000 0.354724
O O2 0.741633 0.015929 0.264837
O O3 0.922863 0.001051 0.274825
O O4 0.000000 0.000000 0.500000
O O5 0.428982 0.750000 0.873241
O O6 0.482301 0.514915 0.811302
O O7 0.500000 0.500000 0.000000
O O8 0.047534 0.250000 0.124126
O O9 0.236488 0.031177 0.265699
O O10 0.020877 0.991374 0.191585
O O11 0.000000 0.000000 0.000000
O O12 0.586520 0.750000 0.634575
O O13 0.594224 0.998481 0.738255
O O14 0.500000 0.000000 0.500000
O O15 0.377661 0.250000 0.145219
O O16 0.246944 0.007320 0.993801
O O17 0.903401 0.750000 0.168010
#
# Coordination Sequence:
#
# PCOD8074908 Si02
#       6
#     4   4   4   4   4   4
#     4  11  24  40  59  90 127 162 199 247 303 361
#     4  10  20  36  61  89 116 152 197 245 298 357
#     4  11  22  38  61  91 124 158 202 250 298 359
#     4  10  22  40  59  86 122 158 196 245 300 356
#     4   9  18  36  60  85 116 152 194 242 297 356
#     4  11  21  38  64  89 117 160 203 251 306 354
#
# _framework density 18.989642
#
# number of rings (size 3 to 8) (size 9 to 14) (size 15 to 20)
#    0.000    1.667    3.333    1.500    0.000    3.333 
#    0.000    2.500    0.000    0.000    0.000    0.000 
#    0.000    0.000    0.000    0.000    0.000    0.000 
#
# Total GULP energy -297655.719419 kJ/mol
# GULP energy per Si atom -12402.321642 kJ/mol
# Density = 1.894642 g / cm^3
# Si number density = 18.989642 Si / 1000 Ang^3
#
#
#
# Elastic Constant Matrix: (Units=GPa)
#
#
# Indices 1 2 3 4 5 6 
#
# 1 188.6980 49.9132 97.8631 0.0000 -10.9528 0.0000
# 2 49.9132 56.4432 51.8761 0.0000 3.9463 0.0000
# 3 97.8631 51.8761 182.8998 0.0000 -8.5192 0.0000
# 4 0.0000 0.0000 0.0000 34.6625 0.0000 -3.9155
# 5 -10.9528 3.9463 -8.5192 0.0000 35.8107 0.0000
# 6 0.0000 0.0000 0.0000 -3.9155 0.0000 29.2494
#
#
#
# Elastic Compliance Matrix: (Units=1/GPa)
#
#
# Indices 1 2 3 4 5 6 
#
# 1 0.008210 -0.004714 -0.002947 0.000000 0.002330 0.000000
# 2 -0.004714 0.027346 -0.005502 0.000000 -0.005764 0.000000
# 3 -0.002947 -0.005502 0.008688 0.000000 0.001772 0.000000
# 4 0.000000 0.000000 0.000000 0.029293 0.000000 0.003921
# 5 0.002330 -0.005764 0.001772 0.000000 0.029694 0.000000
# 6 0.000000 0.000000 0.000000 0.003921 0.000000 0.034714
#
#
# Mechanical properties :
#
#
# Convention : Reuss Voigt Hill
#
# Bulk Modulus (GPa) = 55.81622 91.92731 73.87177
# Shear Modulus (GPa) = 29.36969 35.17043 32.27006
#
# Velocity S-wave (km/s) = 3.93697 4.30825 4.12679
# Velocity P-wave (km/s) = 7.07977 8.55934 7.85447
#
# Compressibility (1/GPa) = 0.01791594
#
# Stress axis : x y z
#
# Youngs Moduli (GPa) = 121.79839 36.56861 115.10662
#
# Poissons Ratio (x) = 0.17240 0.33926
# Poissons Ratio (y) = 0.57421 0.63333
# Poissons Ratio (z) = 0.35898 0.20120
#
# Static dielectric constant tensor:
#      x y z
#    x -4.267900 0.000000 -3.877390 
#    y 0.000000 3.383200 0.000000 
#    z -3.877390 0.000000 1.612670 
# 
# 
# High freq. dielectric constant tensor:
#      x y z
#    x 1.759740 0.000000 -0.001390 
#    y 0.000000 1.726990 0.000000 
#    z -0.001390 0.000000 1.739110 
# 
# From -- ./inp_files/46487.got.cif
#   From: 2010.06.25/outbox.cif.g09.slc.cpg/sg11_24_cif.got.tgz:46487.got - 2010.06.27 23:14:04.
