data_PCOD8074053
_publ_section_title
;
Structure prediction by ZEFSAII (Michael W. Deem and Ramdas Pophale) SiO2 
 PCOD8074053
Probable space group: P 21/M
;
_chemical_formula_sum "Si O2"
_cell_formula_units_Z 32
_cell_length_a 26.247819
_cell_length_b 8.784334
_cell_length_c 27.069498
_cell_angle_alpha 90.000000
_cell_angle_beta 164.351820
_cell_angle_gamma 90.000000
_cell_volume 1683.491590
_symmetry_space_group_name_H-M "P 21/M"
_symmetry_group_IT_number 11
_symmetry_cell_setting 'monoclinic'
loop_
_space_group_symop_operation_xyz
x,y,z
-x,1/2+y,-z
-x,-y,-z
x,1/2-y,z
loop_
_atom_site_type_symbol
_atom_site_label
_atom_site_fract_x
_atom_site_fract_y
_atom_site_fract_z
Si Si1 0.794340 0.429490 0.798795
Si Si2 0.497169 0.072042 0.225677
Si Si3 0.925310 0.573551 0.191141
Si Si4 0.923251 0.429134 0.478089
Si Si5 0.560188 0.430176 0.484614
Si Si6 0.295313 0.570831 0.484319
Si Si7 0.430395 0.426969 0.807426
Si Si8 0.861232 0.073419 0.231476
O O1 0.811673 0.250000 0.821370
O O2 0.715126 0.474317 0.670667
O O3 0.643384 0.493208 0.697094
O O4 0.000000 0.500000 0.000000
O O5 0.541566 0.250000 0.260313
O O6 0.577763 0.007517 0.352278
O O7 0.597540 0.985283 0.274471
O O8 0.275574 0.036988 0.020308
O O9 0.945059 0.750000 0.224589
O O10 0.960320 0.475977 0.273051
O O11 0.078342 0.527057 0.292760
O O12 0.922302 0.250000 0.471588
O O13 0.710490 0.486030 0.287855
O O14 0.000000 0.500000 0.500000
O O15 0.057243 0.475941 0.648044
O O16 0.528461 0.250000 0.453890
O O17 0.639490 0.498000 0.507095
O O18 0.321516 0.750000 0.505324
O O19 0.381665 0.250000 0.763015
O O20 0.639551 0.462475 0.021760
O O21 0.903036 0.250000 0.279975
#
# Coordination Sequence:
#
# PCOD8074053 Si02
#       8
#     4   4   4   4   4   4   4   4
#     4  10  20  35  56  78 103 139 181 225 272 322
#     4   9  17  30  51  78 106 138 177 217 258 310
#     4   9  17  30  50  77 106 137 175 214 256 310
#     4  12  25  40  59  82 109 140 178 224 272 322
#     4   9  19  35  54  78 107 139 179 224 270 320
#     4   9  17  30  50  76 105 137 174 219 265 309
#     4  10  21  38  59  82 111 145 180 219 265 319
#     4  10  21  38  59  82 110 144 180 218 263 316
#
# _framework density 19.008113999999999
#
# number of rings (size 3 to 8) (size 9 to 14) (size 15 to 20)
#    0.000    2.250    0.000    3.000    0.000    4.500 
#    0.000    5.000    0.000    3.000    0.000    0.000 
#    0.000    0.000    0.000    0.000    0.000    0.000 
#
# Total GULP energy -396841.547845 kJ/mol
# GULP energy per Si atom -12401.298370 kJ/mol
# Density = 1.896485 g / cm^3
# Si number density = 19.008114 Si / 1000 Ang^3
#
#
#
# Elastic Constant Matrix: (Units=GPa)
#
#
# Indices 1 2 3 4 5 6 
#
# 1 128.8367 36.1224 40.0915 0.0000 29.8659 0.0000
# 2 36.1224 77.1337 26.6756 0.0000 12.1252 0.0000
# 3 40.0915 26.6756 87.7248 0.0000 23.0757 0.0000
# 4 0.0000 0.0000 0.0000 27.0762 0.0000 1.7591
# 5 29.8659 12.1252 23.0757 0.0000 22.7538 0.0000
# 6 0.0000 0.0000 0.0000 1.7591 0.0000 28.0389
#
#
#
# Elastic Compliance Matrix: (Units=1/GPa)
#
#
# Indices 1 2 3 4 5 6 
#
# 1 0.012000 -0.003205 -0.001112 0.000000 -0.012915 0.000000
# 2 -0.003205 0.015680 -0.003017 0.000000 -0.001090 0.000000
# 3 -0.001112 -0.003017 0.016391 0.000000 -0.013555 0.000000
# 4 0.000000 0.000000 0.000000 0.037084 0.000000 -0.002327
# 5 -0.012915 -0.001090 -0.013555 0.000000 0.075228 0.000000
# 6 0.000000 0.000000 0.000000 -0.002327 0.000000 0.035811
#
#
# Mechanical properties :
#
#
# Convention : Reuss Voigt Hill
#
# Bulk Modulus (GPa) = 34.01050 55.49713 44.75381
# Shear Modulus (GPa) = 23.07734 28.29414 25.68574
#
# Velocity S-wave (km/s) = 3.48814 3.86233 3.68000
# Velocity P-wave (km/s) = 5.84417 7.01071 6.45385
#
# Compressibility (1/GPa) = 0.02940269
#
# Stress axis : x y z
#
# Youngs Moduli (GPa) = 83.33020 63.77565 61.01080
#
# Poissons Ratio (x) = 0.20440 0.06787
# Poissons Ratio (y) = 0.26707 0.18405
# Poissons Ratio (z) = 0.09270 0.19239
#
# Static dielectric constant tensor:
#      x y z
#    x 3.724720 0.000000 0.388500 
#    y 0.000000 3.377660 0.000000 
#    z 0.388500 0.000000 3.832220 
# 
# 
# High freq. dielectric constant tensor:
#      x y z
#    x 1.739800 0.000000 0.006200 
#    y 0.000000 1.728090 0.000000 
#    z 0.006200 0.000000 1.749470 
# 
# From -- ./inp_files/70042.got.cif
#   From: 2010.06.25/outbox.cif.g09.slc.cpg/sg11_36_cif.got.tgz:70042.got - 2010.06.27 23:14:04.
