data_PCOD8074127
_publ_section_title
;
Structure prediction by ZEFSAII (Michael W. Deem and Ramdas Pophale) SiO2 
 PCOD8074127
Probable space group: P 21/M
;
_chemical_formula_sum "Si O2"
_cell_formula_units_Z 32
_cell_length_a 13.516917
_cell_length_b 18.282619
_cell_length_c 9.403659
_cell_angle_alpha 90.000000
_cell_angle_beta 134.090079
_cell_angle_gamma 90.000000
_cell_volume 1669.116384
_symmetry_space_group_name_H-M "P 21/M"
_symmetry_group_IT_number 11
_symmetry_cell_setting 'monoclinic'
loop_
_space_group_symop_operation_xyz
x,y,z
-x,1/2+y,-z
-x,-y,-z
x,1/2-y,z
loop_
_atom_site_type_symbol
_atom_site_label
_atom_site_fract_x
_atom_site_fract_y
_atom_site_fract_z
Si Si1 0.376521 0.166233 0.329424
Si Si2 0.945647 0.164837 0.836685
Si Si3 0.451630 0.498952 0.788926
Si Si4 0.835427 0.940110 0.452358
Si Si5 0.697454 0.511955 0.843888
Si Si6 0.872714 0.832142 0.724004
Si Si7 0.652121 0.097131 0.551432
Si Si8 0.940122 0.553768 0.254449
O O1 0.363989 0.250000 0.253631
O O2 0.321321 0.100628 0.172924
O O3 0.286157 0.162652 0.382704
O O4 0.536763 0.146230 0.516215
O O5 0.970540 0.250000 0.845590
O O6 0.785202 0.147255 0.679756
O O7 0.019842 0.129423 0.777051
O O8 0.023256 0.134950 0.054292
O O9 0.323192 0.444182 0.658711
O O10 0.581441 0.472301 0.825023
O O11 0.397236 0.574247 0.657683
O O12 0.500000 0.500000 0.000000
O O13 0.900373 0.874702 0.606679
O O14 0.849431 0.924162 0.299975
O O15 0.916481 0.014738 0.566100
O O16 0.684797 0.477202 0.673876
O O17 0.848198 0.499918 0.062563
O O18 0.915364 0.750000 0.732276
#
# Coordination Sequence:
#
# PCOD8074127 Si02
#       8
#     4   4   4   4   4   4   4   4
#     4  10  20  35  56  83 115 148 186 233 287 343
#     4  11  23  39  59  87 118 154 194 236 290 348
#     4  11  21  36  57  86 117 148 192 241 287 343
#     4  11  22  39  57  84 116 152 191 236 293 338
#     4  11  21  36  60  91 110 148 195 243 293 340
#     4  10  21  37  60  85 114 148 188 238 289 346
#     4  11  22  37  60  86 116 155 190 243 290 341
#     4  11  23  36  59  86 115 151 193 244 284 347
#
# _framework density 19.171821000000001
#
# number of rings (size 3 to 8) (size 9 to 14) (size 15 to 20)
#    0.000    1.250    3.750    4.125    0.000    1.500 
#    0.000    0.000    0.000    0.000    0.000    3.500 
#    0.000    0.000    0.000    0.000    0.000    0.000 
#
# Total GULP energy -396526.305451 kJ/mol
# GULP energy per Si atom -12391.447045 kJ/mol
# Density = 1.912818 g / cm^3
# Si number density = 19.171821 Si / 1000 Ang^3
#
#
#
# Elastic Constant Matrix: (Units=GPa)
#
#
# Indices 1 2 3 4 5 6 
#
# 1 67.8022 21.9894 35.3455 0.0000 3.4858 0.0000
# 2 21.9894 68.1775 32.5758 0.0000 -14.2791 0.0000
# 3 35.3455 32.5758 96.5810 0.0000 -2.3151 0.0000
# 4 0.0000 0.0000 0.0000 25.5117 0.0000 1.8526
# 5 3.4858 -14.2791 -2.3151 0.0000 38.3702 0.0000
# 6 0.0000 0.0000 0.0000 1.8526 0.0000 23.7220
#
#
#
# Elastic Compliance Matrix: (Units=1/GPa)
#
#
# Indices 1 2 3 4 5 6 
#
# 1 0.019300 -0.004268 -0.005712 0.000000 -0.003686 0.000000
# 2 -0.004268 0.020015 -0.005008 0.000000 0.007534 0.000000
# 3 -0.005712 -0.005008 0.014122 0.000000 -0.000493 0.000000
# 4 0.000000 0.000000 0.000000 0.039421 0.000000 -0.003079
# 5 -0.003686 0.007534 -0.000493 0.000000 0.029171 0.000000
# 6 0.000000 0.000000 0.000000 -0.003079 0.000000 0.042395
#
#
# Mechanical properties :
#
#
# Convention : Reuss Voigt Hill
#
# Bulk Modulus (GPa) = 42.62459 45.82024 44.22242
# Shear Modulus (GPa) = 24.72541 27.03078 25.87810
#
# Velocity S-wave (km/s) = 3.59510 3.75897 3.67795
# Velocity P-wave (km/s) = 6.28603 6.54152 6.41505
#
# Compressibility (1/GPa) = 0.02346064
#
# Stress axis : x y z
#
# Youngs Moduli (GPa) = 51.81313 49.96245 70.81172
#
# Poissons Ratio (x) = 0.21322 0.40449
# Poissons Ratio (y) = 0.22112 0.35466
# Poissons Ratio (z) = 0.29596 0.25024
#
# Static dielectric constant tensor:
#      x y z
#    x 3.657730 0.000000 0.197160 
#    y 0.000000 3.315650 0.000000 
#    z 0.197160 0.000000 3.656750 
# 
# 
# High freq. dielectric constant tensor:
#      x y z
#    x 1.754240 0.000000 0.018510 
#    y 0.000000 1.723030 0.000000 
#    z 0.018510 0.000000 1.749110 
# 
# From -- ./inp_files/19439.got.cif
#   From: 2010.06.25/outbox.cif.g09.slc.cpg/sg11_10_cif.got.tgz:19439.got - 2010.06.27 23:14:04.
