data_PCOD8074913
_publ_section_title
;
Structure prediction by ZEFSAII (Michael W. Deem and Ramdas Pophale) SiO2 
 PCOD8074913
Probable space group: P 21/M
;
_chemical_formula_sum "Si O2"
_cell_formula_units_Z 28
_cell_length_a 22.185556
_cell_length_b 9.042029
_cell_length_c 24.530938
_cell_angle_alpha 90.000000
_cell_angle_beta 16.925042
_cell_angle_gamma 90.000000
_cell_volume 1432.593384
_symmetry_space_group_name_H-M "P 21/M"
_symmetry_group_IT_number 11
_symmetry_cell_setting 'monoclinic'
loop_
_space_group_symop_operation_xyz
x,y,z
-x,1/2+y,-z
-x,-y,-z
x,1/2-y,z
loop_
_atom_site_type_symbol
_atom_site_label
_atom_site_fract_x
_atom_site_fract_y
_atom_site_fract_z
Si Si1 0.849038 0.422167 0.062436
Si Si2 0.310002 0.075963 0.695856
Si Si3 0.858570 0.926013 0.832459
Si Si4 0.062150 0.912555 0.499660
Si Si5 0.368717 0.409025 0.071350
Si Si6 0.226230 0.421012 0.454064
Si Si7 0.694345 0.080604 0.077732
O O1 0.811195 0.250000 0.107586
O O2 0.711694 0.513993 0.224146
O O3 0.769500 0.468388 0.072018
O O4 0.093315 0.460332 0.853139
O O5 0.353908 0.250000 0.660225
O O6 0.500000 0.000000 0.500000
O O7 0.886813 0.750000 0.805207
O O8 0.664176 0.975891 0.961039
O O9 0.069753 0.002927 0.631272
O O10 0.810098 0.975706 0.935185
O O11 0.153386 0.750000 0.405716
O O12 0.862247 0.890400 0.708646
O O13 0.225881 0.004209 0.394156
O O14 0.000000 0.000000 0.500000
O O15 0.479781 0.250000 0.971855
O O16 0.500000 0.500000 0.000000
O O17 0.165370 0.250000 0.499447
O O18 0.449711 0.442067 0.286864
O O19 0.755177 0.250000 0.012518
#
# Coordination Sequence:
#
# PCOD8074913 Si02
#       7
#     4   4   4   4   4   4   4
#     4   9  20  39  59  85 119 154 197 241 279 333
#     4  10  20  36  61  89 121 158 193 235 286 333
#     4  10  22  39  56  80 113 148 187 235 290 346
#     4  10  21  36  53  77 106 138 179 227 284 345
#     4   9  20  35  51  74 101 133 175 223 278 336
#     4  10  21  38  58  81 109 145 189 236 286 342
#     4  10  22  39  61  85 113 154 197 237 285 341
#
# _framework density 19.544972999999999
#
# number of rings (size 3 to 8) (size 9 to 14) (size 15 to 20)
#    0.000    2.286    0.000    2.571    2.000    6.857 
#    0.000    5.714    0.000    0.000    0.000    0.000 
#    0.000    0.000    0.000    0.000    0.000    0.000 
#
# Total GULP energy -347090.065612 kJ/mol
# GULP energy per Si atom -12396.073772 kJ/mol
# Density = 1.950049 g / cm^3
# Si number density = 19.544973 Si / 1000 Ang^3
#
#
#
# Elastic Constant Matrix: (Units=GPa)
#
#
# Indices 1 2 3 4 5 6 
#
# 1 175.6180 73.2715 59.1228 0.0000 -1.8560 0.0000
# 2 73.2715 122.3455 53.5865 0.0000 5.8598 0.0000
# 3 59.1228 53.5865 96.1431 0.0000 9.2255 0.0000
# 4 0.0000 0.0000 0.0000 26.5931 0.0000 4.6407
# 5 -1.8560 5.8598 9.2255 0.0000 27.0425 0.0000
# 6 0.0000 0.0000 0.0000 4.6407 0.0000 36.0476
#
#
#
# Elastic Compliance Matrix: (Units=1/GPa)
#
#
# Indices 1 2 3 4 5 6 
#
# 1 0.008380 -0.003673 -0.003347 0.000000 0.002513 0.000000
# 2 -0.003673 0.012426 -0.004533 0.000000 -0.001398 0.000000
# 3 -0.003347 -0.004533 0.015418 0.000000 -0.004508 0.000000
# 4 0.000000 0.000000 0.000000 0.038468 0.000000 -0.004952
# 5 0.002513 -0.001398 -0.004508 0.000000 0.038992 0.000000
# 6 0.000000 0.000000 0.000000 -0.004952 0.000000 0.028379
#
#
# Mechanical properties :
#
#
# Convention : Reuss Voigt Hill
#
# Bulk Modulus (GPa) = 76.22996 85.11870 80.67433
# Shear Modulus (GPa) = 29.49136 31.81168 30.65152
#
# Velocity S-wave (km/s) = 3.88867 4.03875 3.96442
# Velocity P-wave (km/s) = 7.69736 8.08662 7.89439
#
# Compressibility (1/GPa) = 0.01311820
#
# Stress axis : x y z
#
# Youngs Moduli (GPa) = 119.33094 80.47927 64.85771
#
# Poissons Ratio (x) = 0.29560 0.21709
# Poissons Ratio (y) = 0.43831 0.29398
# Poissons Ratio (z) = 0.39943 0.36478
#
# Static dielectric constant tensor:
#      x y z
#    x 4.599450 0.000000 -0.070490 
#    y 0.000000 3.996170 0.000000 
#    z -0.070490 0.000000 3.479750 
# 
# 
# High freq. dielectric constant tensor:
#      x y z
#    x 1.765440 0.000000 0.001690 
#    y 0.000000 1.767910 0.000000 
#    z 0.001690 0.000000 1.759680 
# 
# From -- ./inp_files/69787.got.cif
#   From: 2010.06.25/outbox.cif.g09.slc.cpg/sg11_35_cif.got.tgz:69787.got - 2010.06.27 23:14:04.
