data_PCOD8074876
_publ_section_title
;
Structure prediction by ZEFSAII (Michael W. Deem and Ramdas Pophale) SiO2 
 PCOD8074876
Probable space group: P 21/M
;
_chemical_formula_sum "Si O2"
_cell_formula_units_Z 28
_cell_length_a 12.644195
_cell_length_b 8.543736
_cell_length_c 13.636848
_cell_angle_alpha 90.000000
_cell_angle_beta 112.698768
_cell_angle_gamma 90.000000
_cell_volume 1359.068096
_symmetry_space_group_name_H-M "P 21/M"
_symmetry_group_IT_number 11
_symmetry_cell_setting 'monoclinic'
loop_
_space_group_symop_operation_xyz
x,y,z
-x,1/2+y,-z
-x,-y,-z
x,1/2-y,z
loop_
_atom_site_type_symbol
_atom_site_label
_atom_site_fract_x
_atom_site_fract_y
_atom_site_fract_z
Si Si1 0.417148 0.066716 0.889240
Si Si2 0.970773 0.064123 0.883745
Si Si3 0.880164 0.935453 0.424881
Si Si4 0.720880 0.434308 0.724580
Si Si5 0.160515 0.433318 0.804413
Si Si6 0.680466 0.565190 0.496642
Si Si7 0.505012 0.433841 0.287378
O O1 0.437515 0.250000 0.880877
O O2 0.289992 0.031106 0.884652
O O3 0.435339 0.984429 0.791862
O O4 0.500000 0.000000 0.000000
O O5 0.975146 0.250000 0.887868
O O6 0.846672 0.005463 0.802026
O O7 0.068017 0.993583 0.845935
O O8 0.000000 0.000000 0.000000
O O9 0.880826 0.750000 0.422733
O O10 0.855271 0.006682 0.308961
O O11 0.783269 0.994289 0.464481
O O12 0.000000 0.000000 0.500000
O O13 0.710736 0.250000 0.735562
O O14 0.695172 0.476890 0.603620
O O15 0.628577 0.517888 0.762126
O O16 0.137562 0.250000 0.789923
O O17 0.681829 0.750000 0.516088
O O18 0.562267 0.518543 0.401396
O O19 0.517587 0.250000 0.305226
#
# Coordination Sequence:
#
# PCOD8074876 Si02
#       7
#     4   4   4   4   4   4   4
#     4  11  23  42  66  95 129 165 209 259 316 378
#     4  10  23  42  65  91 123 164 209 258 312 372
#     4  10  20  36  60  89 123 163 204 253 308 369
#     4  11  24  42  64  92 129 169 211 262 316 381
#     4   9  19  40  64  87 122 163 199 247 311 370
#     4  11  22  40  64  93 128 165 208 261 319 379
#     4  12  25  42  65  94 128 169 214 261 316 378
#
# _framework density 20.602352
#
# number of rings (size 3 to 8) (size 9 to 14) (size 15 to 20)
#    0.000    1.429    1.429    3.857    2.000    3.429 
#    0.000    1.429    0.000    0.000    0.000    0.000 
#    0.000    0.000    0.000    0.000    0.000    0.000 
#
# Total GULP energy -347285.038811 kJ/mol
# GULP energy per Si atom -12403.037100 kJ/mol
# Density = 2.055546 g / cm^3
# Si number density = 20.602352 Si / 1000 Ang^3
#
#
#
# Elastic Constant Matrix: (Units=GPa)
#
#
# Indices 1 2 3 4 5 6 
#
# 1 142.8330 20.0123 34.6830 0.0000 7.5367 0.0000
# 2 20.0123 34.7945 6.8813 0.0000 1.7400 0.0000
# 3 34.6830 6.8813 111.3476 0.0000 10.7827 0.0000
# 4 0.0000 0.0000 0.0000 35.8714 0.0000 -1.7791
# 5 7.5367 1.7400 10.7827 0.0000 38.6191 0.0000
# 6 0.0000 0.0000 0.0000 -1.7791 0.0000 30.9893
#
#
#
# Elastic Compliance Matrix: (Units=1/GPa)
#
#
# Indices 1 2 3 4 5 6 
#
# 1 0.008171 -0.004223 -0.002208 0.000000 -0.000788 0.000000
# 2 -0.004223 0.031305 -0.000578 0.000000 -0.000425 0.000000
# 3 -0.002208 -0.000578 0.009928 0.000000 -0.002315 0.000000
# 4 0.000000 0.000000 0.000000 0.027957 0.000000 0.001605
# 5 -0.000788 -0.000425 -0.002315 0.000000 0.026713 0.000000
# 6 0.000000 0.000000 0.000000 0.001605 0.000000 0.032361
#
#
# Mechanical properties :
#
#
# Convention : Reuss Voigt Hill
#
# Bulk Modulus (GPa) = 28.25996 45.79205 37.02601
# Shear Modulus (GPa) = 30.81687 36.25586 33.53637
#
# Velocity S-wave (km/s) = 3.87175 4.19954 4.03897
# Velocity P-wave (km/s) = 5.80809 6.76681 6.30569
#
# Compressibility (1/GPa) = 0.03538575
#
# Stress axis : x y z
#
# Youngs Moduli (GPa) = 122.39050 31.94395 100.72048
#
# Poissons Ratio (x) = 0.13491 0.22236
# Poissons Ratio (y) = 0.51690 0.05822
# Poissons Ratio (z) = 0.27020 0.01846
#
# Static dielectric constant tensor:
#      x y z
#    x 3.931440 0.000000 0.093520 
#    y 0.000000 4.443080 0.000000 
#    z 0.093520 0.000000 3.779470 
# 
# 
# High freq. dielectric constant tensor:
#      x y z
#    x 1.827530 0.000000 0.002800 
#    y 0.000000 1.791040 0.000000 
#    z 0.002800 0.000000 1.813750 
# 
# From -- ./inp_files/49459.got.cif
#   From: 2010.06.25/outbox.cif.g09.slc.cpg/sg11_25_cif.got.tgz:49459.got - 2010.06.27 23:14:04.
