data_PCOD8074905
_publ_section_title
;
Structure prediction by ZEFSAII (Michael W. Deem and Ramdas Pophale) SiO2 
 PCOD8074905
Probable space group: P 21/M
;
_chemical_formula_sum "Si O2"
_cell_formula_units_Z 28
_cell_length_a 9.463376
_cell_length_b 8.647223
_cell_length_c 27.603301
_cell_angle_alpha 90.000000
_cell_angle_beta 38.582500
_cell_angle_gamma 90.000000
_cell_volume 1408.699440
_symmetry_space_group_name_H-M "P 21/M"
_symmetry_group_IT_number 11
_symmetry_cell_setting 'monoclinic'
loop_
_space_group_symop_operation_xyz
x,y,z
-x,1/2+y,-z
-x,-y,-z
x,1/2-y,z
loop_
_atom_site_type_symbol
_atom_site_label
_atom_site_fract_x
_atom_site_fract_y
_atom_site_fract_z
Si Si1 0.244971 0.566672 0.440729
Si Si2 0.471594 0.433560 0.725762
Si Si3 0.039998 0.565442 0.131326
Si Si4 0.309410 0.933283 0.153488
Si Si5 0.825361 0.933151 0.007493
Si Si6 0.712199 0.933435 0.469183
Si Si7 0.833775 0.434118 0.704496
O O1 0.235934 0.750000 0.443028
O O2 0.407073 0.504274 0.354911
O O3 0.336940 0.501124 0.465419
O O4 0.000000 0.500000 0.500000
O O5 0.467934 0.250000 0.726707
O O6 0.612027 0.493465 0.734818
O O7 0.216250 0.496689 0.794625
O O8 0.050118 0.750000 0.125233
O O9 0.187202 0.502725 0.137626
O O10 0.133422 0.494270 0.057226
O O11 0.296525 0.750000 0.155126
O O12 0.569951 0.987033 0.088238
O O13 0.179689 0.994865 0.236437
O O14 0.848957 0.750000 0.002346
O O15 0.000000 0.000000 0.000000
O O16 0.717587 0.750000 0.468934
O O17 0.941461 0.997635 0.382482
O O18 0.500000 0.000000 0.500000
O O19 0.839242 0.250000 0.702601
#
# Coordination Sequence:
#
# PCOD8074905 Si02
#       7
#     4   4   4   4   4   4   4
#     4  11  21  37  60  87 117 155 199 245 296 348
#     4   9  18  33  57  85 112 149 196 235 276 343
#     4  10  20  36  61  89 114 145 189 235 282 340
#     4   9  19  34  58  87 114 147 189 233 277 336
#     4  11  22  38  60  86 117 151 189 232 282 338
#     4  11  23  38  58  84 117 154 198 249 298 350
#     4   9  17  33  55  81 111 147 193 236 273 334
#
# _framework density 19.87649
#
# number of rings (size 3 to 8) (size 9 to 14) (size 15 to 20)
#    0.000    2.000    1.429    2.571    2.000    2.286 
#    0.000    2.143    0.000    2.571    0.000    0.000 
#    0.000    0.000    0.000    0.000    0.000    0.000 
#
# Total GULP energy -347094.404449 kJ/mol
# GULP energy per Si atom -12396.228730 kJ/mol
# Density = 1.983125 g / cm^3
# Si number density = 19.876490 Si / 1000 Ang^3
#
#
#
# Elastic Constant Matrix: (Units=GPa)
#
#
# Indices 1 2 3 4 5 6 
#
# 1 171.7896 16.0717 60.6919 0.0000 11.4887 0.0000
# 2 16.0717 35.2474 18.2821 0.0000 2.2172 0.0000
# 3 60.6919 18.2821 125.7653 0.0000 13.6243 0.0000
# 4 0.0000 0.0000 0.0000 27.1675 0.0000 2.9543
# 5 11.4887 2.2172 13.6243 0.0000 45.9040 0.0000
# 6 0.0000 0.0000 0.0000 2.9543 0.0000 29.5007
#
#
#
# Elastic Compliance Matrix: (Units=1/GPa)
#
#
# Indices 1 2 3 4 5 6 
#
# 1 0.007125 -0.001579 -0.003124 0.000000 -0.000780 0.000000
# 2 -0.001579 0.031036 -0.003750 0.000000 0.000009 0.000000
# 3 -0.003124 -0.003750 0.010229 0.000000 -0.002073 0.000000
# 4 0.000000 0.000000 0.000000 0.037214 0.000000 -0.003727
# 5 -0.000780 0.000009 -0.002073 0.000000 0.022594 0.000000
# 6 0.000000 0.000000 0.000000 -0.003727 0.000000 0.034271
#
#
# Mechanical properties :
#
#
# Convention : Reuss Voigt Hill
#
# Bulk Modulus (GPa) = 31.76479 58.09928 44.93203
# Shear Modulus (GPa) = 29.43430 36.36487 32.89959
#
# Velocity S-wave (km/s) = 3.85237 4.28195 4.07283
# Velocity P-wave (km/s) = 5.98360 7.33079 6.69118
#
# Compressibility (1/GPa) = 0.03148140
#
# Stress axis : x y z
#
# Youngs Moduli (GPa) = 140.35645 32.22100 97.76349
#
# Poissons Ratio (x) = 0.05088 0.30544
# Poissons Ratio (y) = 0.22164 0.36666
# Poissons Ratio (z) = 0.43851 0.12084
#
# Static dielectric constant tensor:
#      x y z
#    x 3.845800 0.000000 -0.050660 
#    y 0.000000 3.219210 0.000000 
#    z -0.050660 0.000000 3.904650 
# 
# 
# High freq. dielectric constant tensor:
#      x y z
#    x 1.796310 0.000000 0.003340 
#    y 0.000000 1.731530 0.000000 
#    z 0.003340 0.000000 1.792340 
# 
# From -- ./inp_files/70837.got.cif
#   From: 2010.06.25/outbox.cif.g09.slc.cpg/sg11_36_cif.got.tgz:70837.got - 2010.06.27 23:14:04.
