data_PCOD8074925
_publ_section_title
;
Structure prediction by ZEFSAII (Michael W. Deem and Ramdas Pophale) SiO2 
 PCOD8074925
Probable space group: P 21/M
;
_chemical_formula_sum "Si O2"
_cell_formula_units_Z 28
_cell_length_a 14.634928
_cell_length_b 8.773612
_cell_length_c 21.508111
_cell_angle_alpha 90.000000
_cell_angle_beta 31.335077
_cell_angle_gamma 90.000000
_cell_volume 1436.183079
_symmetry_space_group_name_H-M "P 21/M"
_symmetry_group_IT_number 11
_symmetry_cell_setting 'monoclinic'
loop_
_space_group_symop_operation_xyz
x,y,z
-x,1/2+y,-z
-x,-y,-z
x,1/2-y,z
loop_
_atom_site_type_symbol
_atom_site_label
_atom_site_fract_x
_atom_site_fract_y
_atom_site_fract_z
Si Si1 0.833978 0.425825 0.874301
Si Si2 0.070719 0.929158 0.521738
Si Si3 0.551336 0.570788 0.691354
Si Si4 0.556263 0.571475 0.119901
Si Si5 0.776278 0.073978 0.768165
Si Si6 0.762746 0.927098 0.363059
Si Si7 0.478886 0.073392 0.610696
O O1 0.820083 0.250000 0.902741
O O2 0.742703 0.452073 0.860587
O O3 0.035704 0.478785 0.754839
O O4 0.736844 0.529002 0.981211
O O5 0.080189 0.750000 0.508001
O O6 0.262288 0.990539 0.424671
O O7 0.000000 0.000000 0.500000
O O8 0.942458 0.972978 0.652398
O O9 0.577544 0.750000 0.679035
O O10 0.450942 0.516838 0.811129
O O11 0.438905 0.522551 0.696261
O O12 0.550343 0.750000 0.136671
O O13 0.394139 0.519594 0.170760
O O14 0.820312 0.250000 0.728508
O O15 0.743406 0.750000 0.392313
O O16 0.681007 0.960772 0.343029
O O17 0.663359 0.024072 0.472986
O O18 0.491497 0.250000 0.620882
#
# Coordination Sequence:
#
# PCOD8074925 Si02
#       7
#     4   4   4   4   4   4   4
#     4  10  21  38  59  83 113 152 195 236 284 343
#     4  12  23  36  57  85 117 151 189 234 284 339
#     4  12  24  39  59  83 115 156 195 237 291 346
#     4  11  23  38  56  81 116 155 196 240 284 340
#     4  10  21  37  58  84 117 155 193 237 287 339
#     4   9  19  37  61  89 120 151 187 236 292 347
#     4  10  20  36  61  91 119 148 187 239 293 347
#
# _framework density 19.496120999999999
#
# number of rings (size 3 to 8) (size 9 to 14) (size 15 to 20)
#    0.000    1.429    1.429    4.714    0.000    3.429 
#    0.000    0.714    0.000    0.000    0.000    0.000 
#    0.000    0.000    0.000    0.000    0.000    0.000 
#
# Total GULP energy -347369.666770 kJ/mol
# GULP energy per Si atom -12406.059528 kJ/mol
# Density = 1.945175 g / cm^3
# Si number density = 19.496121 Si / 1000 Ang^3
#
#
#
# Elastic Constant Matrix: (Units=GPa)
#
#
# Indices 1 2 3 4 5 6 
#
# 1 98.5131 34.4925 39.2687 0.0000 16.1538 0.0000
# 2 34.4925 104.5540 36.9875 0.0000 13.4570 0.0000
# 3 39.2687 36.9875 92.5335 0.0000 11.8223 0.0000
# 4 0.0000 0.0000 0.0000 34.7809 0.0000 3.1417
# 5 16.1538 13.4570 11.8223 0.0000 25.2227 0.0000
# 6 0.0000 0.0000 0.0000 3.1417 0.0000 27.8510
#
#
#
# Elastic Compliance Matrix: (Units=1/GPa)
#
#
# Indices 1 2 3 4 5 6 
#
# 1 0.013491 -0.002291 -0.004108 0.000000 -0.005493 0.000000
# 2 -0.002291 0.011942 -0.003377 0.000000 -0.003322 0.000000
# 3 -0.004108 -0.003377 0.014183 0.000000 -0.002215 0.000000
# 4 0.000000 0.000000 0.000000 0.029047 0.000000 -0.003277
# 5 -0.005493 -0.003322 -0.002215 0.000000 0.045975 0.000000
# 6 0.000000 0.000000 0.000000 -0.003277 0.000000 0.036275
#
#
# Mechanical properties :
#
#
# Convention : Reuss Voigt Hill
#
# Bulk Modulus (GPa) = 49.83720 57.45535 53.64628
# Shear Modulus (GPa) = 28.22408 29.89438 29.05923
#
# Velocity S-wave (km/s) = 3.80896 3.92005 3.86491
# Velocity P-wave (km/s) = 6.70540 7.07271 6.89150
#
# Compressibility (1/GPa) = 0.02006533
#
# Stress axis : x y z
#
# Youngs Moduli (GPa) = 74.12310 83.73571 70.50628
#
# Poissons Ratio (x) = 0.19180 0.28963
# Poissons Ratio (y) = 0.16978 0.23811
# Poissons Ratio (z) = 0.30449 0.28279
#
# Static dielectric constant tensor:
#      x y z
#    x 3.876530 0.000000 0.019030 
#    y 0.000000 3.689840 0.000000 
#    z 0.019030 0.000000 3.448720 
# 
# 
# High freq. dielectric constant tensor:
#      x y z
#    x 1.766170 0.000000 0.008560 
#    y 0.000000 1.762930 0.000000 
#    z 0.008560 0.000000 1.750570 
# 
# From -- ./inp_files/48915.got.cif
#   From: 2010.06.25/outbox.cif.g09.slc.cpg/sg11_25_cif.got.tgz:48915.got - 2010.06.27 23:14:04.
