data_PCOD8074137
_publ_section_title
;
Structure prediction by ZEFSAII (Michael W. Deem and Ramdas Pophale) SiO2 
 PCOD8074137
Probable space group: P 21/M
;
_chemical_formula_sum "Si O2"
_cell_formula_units_Z 32
_cell_length_a 22.415717
_cell_length_b 8.974605
_cell_length_c 15.008281
_cell_angle_alpha 90.000000
_cell_angle_beta 148.476938
_cell_angle_gamma 90.000000
_cell_volume 1578.589328
_symmetry_space_group_name_H-M "P 21/M"
_symmetry_group_IT_number 11
_symmetry_cell_setting 'monoclinic'
loop_
_space_group_symop_operation_xyz
x,y,z
-x,1/2+y,-z
-x,-y,-z
x,1/2-y,z
loop_
_atom_site_type_symbol
_atom_site_label
_atom_site_fract_x
_atom_site_fract_y
_atom_site_fract_z
Si Si1 0.622465 0.925801 0.661300
Si Si2 0.256098 0.925112 0.018564
Si Si3 0.222833 0.573152 0.634625
Si Si4 0.589355 0.421583 0.265185
Si Si5 0.057947 0.422328 0.155428
Si Si6 0.309309 0.422643 0.448884
Si Si7 0.668020 0.923742 0.062595
Si Si8 0.002588 0.078277 0.280801
O O1 0.610641 0.750000 0.663926
O O2 0.683142 0.961937 0.645230
O O3 0.500000 0.000000 0.500000
O O4 0.698998 0.999191 0.834671
O O5 0.283509 0.750000 0.057923
O O6 0.120888 0.953783 0.834622
O O7 0.320019 0.998156 0.017285
O O8 0.229553 0.750000 0.653345
O O9 0.318055 0.511635 0.686363
O O10 0.245751 0.499465 0.759041
O O11 0.095855 0.527178 0.444649
O O12 0.616874 0.250000 0.313523
O O13 0.596593 0.494901 0.371938
O O14 0.461192 0.447653 0.066548
O O15 0.057588 0.250000 0.131503
O O16 0.187439 0.478519 0.329747
O O17 0.992644 0.459437 0.163372
O O18 0.000000 0.500000 0.000000
O O19 0.330069 0.250000 0.491850
O O20 0.697782 0.750000 0.090903
O O21 0.040013 0.250000 0.341761
#
# Coordination Sequence:
#
# PCOD8074137 Si02
#       8
#     4   4   4   4   4   4   4   4
#     4  11  23  39  60  89 124 165 209 254 303 360
#     4  11  24  42  63  90 123 162 209 257 304 361
#     4  11  23  40  64  94 123 155 201 255 308 365
#     4  10  22  39  61  92 124 156 199 250 307 365
#     4  10  20  35  56  84 115 151 194 239 292 351
#     4  10  21  36  58  86 118 156 198 242 297 359
#     4  11  24  42  64  89 121 162 204 251 309 370
#     4  10  22  41  63  87 122 163 202 248 306 366
#
# _framework density 20.271263000000001
#
# number of rings (size 3 to 8) (size 9 to 14) (size 15 to 20)
#    0.000    1.500    1.250    3.375    0.000    7.000 
#    0.000    0.000    0.000    0.000    0.000    0.000 
#    0.000    0.000    0.000    0.000    0.000    0.000 
#
# Total GULP energy -396920.725916 kJ/mol
# GULP energy per Si atom -12403.772685 kJ/mol
# Density = 2.022513 g / cm^3
# Si number density = 20.271263 Si / 1000 Ang^3
#
#
#
# Elastic Constant Matrix: (Units=GPa)
#
#
# Indices 1 2 3 4 5 6 
#
# 1 78.1959 36.6012 23.2653 0.0000 0.0787 0.0000
# 2 36.6012 87.5561 47.4388 0.0000 -4.7881 0.0000
# 3 23.2653 47.4388 101.3757 0.0000 -9.5624 0.0000
# 4 0.0000 0.0000 0.0000 39.9377 0.0000 -4.5835
# 5 0.0787 -4.7881 -9.5624 0.0000 34.0172 0.0000
# 6 0.0000 0.0000 0.0000 -4.5835 0.0000 31.6860
#
#
#
# Elastic Compliance Matrix: (Units=1/GPa)
#
#
# Indices 1 2 3 4 5 6 
#
# 1 0.015983 -0.006294 -0.000832 0.000000 -0.001157 0.000000
# 2 -0.006294 0.017780 -0.006819 0.000000 0.000600 0.000000
# 3 -0.000832 -0.006819 0.013514 0.000000 0.002841 0.000000
# 4 0.000000 0.000000 0.000000 0.025462 0.000000 0.003683
# 5 -0.001157 0.000600 0.002841 0.000000 0.030283 0.000000
# 6 0.000000 0.000000 0.000000 0.003683 0.000000 0.032092
#
#
# Mechanical properties :
#
#
# Convention : Reuss Voigt Hill
#
# Bulk Modulus (GPa) = 51.58014 53.52645 52.55330
# Shear Modulus (GPa) = 29.50447 31.78302 30.64374
#
# Velocity S-wave (km/s) = 3.81922 3.96395 3.89226
# Velocity P-wave (km/s) = 6.70438 6.88571 6.79565
#
# Compressibility (1/GPa) = 0.01938731
#
# Stress axis : x y z
#
# Youngs Moduli (GPa) = 62.56619 56.24379 73.99659
#
# Poissons Ratio (x) = 0.35400 0.06156
# Poissons Ratio (y) = 0.39379 0.50458
# Poissons Ratio (z) = 0.05205 0.38353
#
# Static dielectric constant tensor:
#      x y z
#    x 5.503220 0.000000 0.762180 
#    y 0.000000 3.679460 0.000000 
#    z 0.762180 0.000000 3.921960 
# 
# 
# High freq. dielectric constant tensor:
#      x y z
#    x 1.798750 0.000000 0.000440 
#    y 0.000000 1.792430 0.000000 
#    z 0.000440 0.000000 1.800140 
# 
# From -- ./inp_files/55676.got.cif
#   From: 2010.06.25/outbox.cif.g09.slc.cpg/sg11_28_cif.got.tgz:55676.got - 2010.06.27 23:14:04.
