data_PCOD8074318
_publ_section_title
;
Structure prediction by ZEFSAII (Michael W. Deem and Ramdas Pophale) SiO2 
 PCOD8074318
Probable space group: P 21/M
;
_chemical_formula_sum "Si O2"
_cell_formula_units_Z 32
_cell_length_a 15.143058
_cell_length_b 8.754850
_cell_length_c 22.230603
_cell_angle_alpha 90.000000
_cell_angle_beta 31.468718
_cell_angle_gamma 90.000000
_cell_volume 1538.549484
_symmetry_space_group_name_H-M "P 21/M"
_symmetry_group_IT_number 11
_symmetry_cell_setting 'monoclinic'
loop_
_space_group_symop_operation_xyz
x,y,z
-x,1/2+y,-z
-x,-y,-z
x,1/2-y,z
loop_
_atom_site_type_symbol
_atom_site_label
_atom_site_fract_x
_atom_site_fract_y
_atom_site_fract_z
Si Si1 0.646056 0.584321 0.849230
Si Si2 0.327793 0.082891 0.025928
Si Si3 0.495303 0.569767 0.666863
Si Si4 0.756563 0.426839 0.594649
Si Si5 0.082839 0.575030 0.372407
Si Si6 0.875387 0.568577 0.122445
Si Si7 0.364500 0.569667 0.534170
Si Si8 0.040002 0.570551 0.799499
O O1 0.691670 0.750000 0.794681
O O2 0.628364 0.601600 0.930102
O O3 0.794726 0.461753 0.753835
O O4 0.472320 0.530179 0.917180
O O5 0.345579 0.250000 0.984621
O O6 0.140375 0.019291 0.122720
O O7 0.472731 0.750000 0.672557
O O8 0.594904 0.527589 0.669976
O O9 0.312625 0.493907 0.777554
O O10 0.608550 0.505392 0.546415
O O11 0.712438 0.250000 0.611086
O O12 0.807130 0.468698 0.633011
O O13 0.917944 0.470825 0.460180
O O14 0.025175 0.750000 0.406433
O O15 0.874995 0.750000 0.116147
O O16 0.934827 0.523493 0.154374
O O17 0.000000 0.500000 0.000000
O O18 0.500000 0.500000 0.500000
O O19 0.391887 0.750000 0.512629
O O20 0.179661 0.529295 0.667965
O O21 0.048838 0.750000 0.809511
#
# Coordination Sequence:
#
# PCOD8074318 Si02
#       8
#     4   4   4   4   4   4   4   4
#     4  10  20  35  58  86 118 159 201 247 298 355
#     4   9  20  38  58  84 118 158 199 246 298 355
#     4  12  25  42  64  94 128 163 210 258 308 370
#     4  10  22  40  61  87 121 159 203 250 302 362
#     4  10  21  38  60  87 119 158 200 250 304 360
#     4  12  26  45  68  92 123 162 206 257 313 371
#     4  11  22  38  64  94 128 166 204 254 313 370
#     4  10  22  41  64  91 125 163 207 254 310 372
#
# _framework density 20.798811000000001
#
# number of rings (size 3 to 8) (size 9 to 14) (size 15 to 20)
#    0.000    1.500    1.250    3.750    1.750    4.000 
#    0.000    1.250    0.000    0.000    0.000    0.000 
#    0.000    0.000    0.000    0.000    0.000    0.000 
#
# Total GULP energy -396771.195609 kJ/mol
# GULP energy per Si atom -12399.099863 kJ/mol
# Density = 2.075147 g / cm^3
# Si number density = 20.798811 Si / 1000 Ang^3
#
#
#
# Elastic Constant Matrix: (Units=GPa)
#
#
# Indices 1 2 3 4 5 6 
#
# 1 67.7279 40.0805 32.4862 0.0000 -23.6644 0.0000
# 2 40.0805 119.6501 51.9690 0.0000 -5.6385 0.0000
# 3 32.4862 51.9690 116.6677 0.0000 -13.6125 0.0000
# 4 0.0000 0.0000 0.0000 37.4855 0.0000 -1.4812
# 5 -23.6644 -5.6385 -13.6125 0.0000 38.8966 0.0000
# 6 0.0000 0.0000 0.0000 -1.4812 0.0000 33.8315
#
#
#
# Elastic Compliance Matrix: (Units=1/GPa)
#
#
# Indices 1 2 3 4 5 6 
#
# 1 0.024285 -0.006502 -0.002348 0.000000 0.013011 0.000000
# 2 -0.006502 0.012104 -0.004001 0.000000 -0.003602 0.000000
# 3 -0.002348 -0.004001 0.011232 0.000000 0.001922 0.000000
# 4 0.000000 0.000000 0.000000 0.026723 0.000000 0.001170
# 5 0.013011 -0.003602 0.001922 0.000000 0.033775 0.000000
# 6 0.000000 0.000000 0.000000 0.001170 0.000000 0.029610
#
#
# Mechanical properties :
#
#
# Convention : Reuss Voigt Hill
#
# Bulk Modulus (GPa) = 45.62426 61.45744 53.54085
# Shear Modulus (GPa) = 29.28475 34.01005 31.64740
#
# Velocity S-wave (km/s) = 3.75640 4.04814 3.90500
# Velocity P-wave (km/s) = 6.38731 7.17374 6.79192
#
# Compressibility (1/GPa) = 0.02191816
#
# Stress axis : x y z
#
# Youngs Moduli (GPa) = 41.17790 82.61718 89.03316
#
# Poissons Ratio (x) = 0.53719 0.20903
# Poissons Ratio (y) = 0.26774 0.35626
# Poissons Ratio (z) = 0.09668 0.33058
#
# Static dielectric constant tensor:
#      x y z
#    x 3.746440 0.000000 -0.018960 
#    y 0.000000 3.998770 0.000000 
#    z -0.018960 0.000000 4.017900 
# 
# 
# High freq. dielectric constant tensor:
#      x y z
#    x 1.807600 0.000000 -0.012110 
#    y 0.000000 1.822410 0.000000 
#    z -0.012110 0.000000 1.821020 
# 
# From -- ./inp_files/69008.got.cif
#   From: 2010.06.25/outbox.cif.g09.slc.cpg/sg11_35_cif.got.tgz:69008.got - 2010.06.27 23:14:04.
