data_PCOD8074857
_publ_section_title
;
Structure prediction by ZEFSAII (Michael W. Deem and Ramdas Pophale) SiO2 
 PCOD8074857
Probable space group: P 21/M
;
_chemical_formula_sum "Si O2"
_cell_formula_units_Z 24
_cell_length_a 15.091749
_cell_length_b 8.823167
_cell_length_c 10.222755
_cell_angle_alpha 90.000000
_cell_angle_beta 67.507189
_cell_angle_gamma 90.000000
_cell_volume 1257.679374
_symmetry_space_group_name_H-M "P 21/M"
_symmetry_group_IT_number 11
_symmetry_cell_setting 'monoclinic'
loop_
_space_group_symop_operation_xyz
x,y,z
-x,1/2+y,-z
-x,-y,-z
x,1/2-y,z
loop_
_atom_site_type_symbol
_atom_site_label
_atom_site_fract_x
_atom_site_fract_y
_atom_site_fract_z
Si Si1 0.720979 0.571870 0.151460
Si Si2 0.216360 0.574797 0.147842
Si Si3 0.313799 0.570701 0.355349
Si Si4 0.178102 0.929927 0.662986
Si Si5 0.001336 0.924923 0.358117
Si Si6 0.511869 0.928271 0.352900
O O1 0.732521 0.750000 0.167494
O O2 0.787936 0.484923 0.215194
O O3 0.610854 0.519133 0.231511
O O4 0.752879 0.529024 0.989049
O O5 0.242592 0.750000 0.105437
O O6 0.273657 0.509313 0.240878
O O7 0.104140 0.555090 0.234378
O O8 0.303183 0.750000 0.362067
O O9 0.250531 0.506647 0.511228
O O10 0.423909 0.517871 0.310386
O O11 0.173097 0.750000 0.665298
O O12 0.072920 0.994698 0.696414
O O13 0.974057 0.750000 0.390432
O O14 0.000000 0.000000 0.500000
O O15 0.507888 0.750000 0.374747
O O16 0.500000 0.000000 0.500000
#
# Coordination Sequence:
#
# PCOD8074857 Si02
#       6
#     4   4   4   4   4   4
#     4  11  24  39  57  90 126 155 194 250 301 348
#     4  10  22  41  61  84 118 161 198 237 296 361
#     4   9  18  36  61  87 115 151 198 240 286 353
#     4  11  21  38  64  89 116 159 201 244 299 353
#     4  11  22  38  62  92 121 154 200 249 296 353
#     4  10  20  36  60  88 119 153 195 245 294 350
#
# _framework density 19.082763
#
# number of rings (size 3 to 8) (size 9 to 14) (size 15 to 20)
#    0.000    1.667    3.333    1.500    0.000    3.333 
#    0.000    0.833    0.000    0.000    0.000    0.000 
#    0.000    0.000    0.000    0.000    0.000    0.000 
#
# Total GULP energy -297679.294651 kJ/mol
# GULP energy per Si atom -12403.303944 kJ/mol
# Density = 1.903933 g / cm^3
# Si number density = 19.082763 Si / 1000 Ang^3
#
#
#
# Elastic Constant Matrix: (Units=GPa)
#
#
# Indices 1 2 3 4 5 6 
#
# 1 154.8551 45.3049 58.6361 0.0000 18.6575 0.0000
# 2 45.3049 66.1243 36.6512 0.0000 -1.4079 0.0000
# 3 58.6361 36.6512 124.2543 0.0000 10.1761 0.0000
# 4 0.0000 0.0000 0.0000 30.5648 0.0000 1.4550
# 5 18.6575 -1.4079 10.1761 0.0000 33.2190 0.0000
# 6 0.0000 0.0000 0.0000 1.4550 0.0000 25.5721
#
#
#
# Elastic Compliance Matrix: (Units=1/GPa)
#
#
# Indices 1 2 3 4 5 6 
#
# 1 0.009531 -0.005208 -0.002570 0.000000 -0.004787 0.000000
# 2 -0.005208 0.021123 -0.004191 0.000000 0.005104 0.000000
# 3 -0.002570 -0.004191 0.010661 0.000000 -0.002000 0.000000
# 4 0.000000 0.000000 0.000000 0.032806 0.000000 -0.001867
# 5 -0.004787 0.005104 -0.002000 0.000000 0.033621 0.000000
# 6 0.000000 0.000000 0.000000 -0.001867 0.000000 0.039211
#
#
# Mechanical properties :
#
#
# Convention : Reuss Voigt Hill
#
# Bulk Modulus (GPa) = 57.54507 69.60201 63.57354
# Shear Modulus (GPa) = 28.29949 31.51396 29.90673
#
# Velocity S-wave (km/s) = 3.85513 4.06820 3.96310
# Velocity P-wave (km/s) = 7.07369 7.65636 7.37079
#
# Compressibility (1/GPa) = 0.01737768
#
# Stress axis : x y z
#
# Youngs Moduli (GPa) = 104.92168 47.34230 93.80331
#
# Poissons Ratio (x) = 0.24655 0.24103
# Poissons Ratio (y) = 0.54641 0.39313
# Poissons Ratio (z) = 0.26960 0.19841
#
# Static dielectric constant tensor:
#      x y z
#    x -4.302410 0.000000 -0.197510 
#    y 0.000000 3.386350 0.000000 
#    z -0.197510 0.000000 3.396510 
# 
# 
# High freq. dielectric constant tensor:
#      x y z
#    x 1.761250 0.000000 0.004410 
#    y 0.000000 1.730830 0.000000 
#    z 0.004410 0.000000 1.739990 
# 
# From -- ./inp_files/20368.got.cif
#   From: 2010.06.25/outbox.cif.g09.slc.cpg/sg11_11_cif.got.tgz:20368.got - 2010.06.27 23:14:04.
