data_PCOD8074917
_publ_section_title
;
Structure prediction by ZEFSAII (Michael W. Deem and Ramdas Pophale) SiO2 
 PCOD8074917
Probable space group: P 21/M
;
_chemical_formula_sum "Si O2"
_cell_formula_units_Z 24
_cell_length_a 5.387814
_cell_length_b 19.420402
_cell_length_c 10.459301
_cell_angle_alpha 90.000000
_cell_angle_beta 85.621213
_cell_angle_gamma 90.000000
_cell_volume 1091.198977
_symmetry_space_group_name_H-M "P 21/M"
_symmetry_group_IT_number 11
_symmetry_cell_setting 'monoclinic'
loop_
_space_group_symop_operation_xyz
x,y,z
-x,1/2+y,-z
-x,-y,-z
x,1/2-y,z
loop_
_atom_site_type_symbol
_atom_site_label
_atom_site_fract_x
_atom_site_fract_y
_atom_site_fract_z
Si Si1 0.292349 0.427580 0.386129
Si Si2 0.580229 0.427707 0.624178
Si Si3 0.881332 0.326442 0.489093
Si Si4 0.725993 0.938471 0.124469
Si Si5 0.761718 0.411452 0.014296
Si Si6 0.409683 0.825232 0.762884
O O1 0.517473 0.436278 0.476774
O O2 0.240519 0.506693 0.341709
O O3 0.370314 0.381730 0.259968
O O4 0.077053 0.387771 0.467040
O O5 0.720507 0.353466 0.617986
O O6 0.336274 0.426458 0.723641
O O7 0.991219 0.250000 0.518045
O O8 0.733415 0.319470 0.364011
O O9 0.762536 0.018714 0.095505
O O10 0.488559 0.906811 0.059748
O O11 0.988144 0.901987 0.080266
O O12 0.768223 0.348882 0.114930
O O13 0.523270 0.750000 0.790587
#
# Coordination Sequence:
#
# PCOD8074917 Si02
#       6
#     4   4   4   4   4   4
#     4  10  20  36  61  90 118 158 202 258 314 369
#     4  10  21  37  59  92 119 157 206 257 308 376
#     4  10  22  37  59  88 122 163 200 256 320 371
#     4  10  22  39  63  87 124 159 204 256 309 363
#     4  10  22  39  60  91 119 164 204 253 310 369
#     4  10  21  38  59  88 122 156 209 263 312 368
#
# _framework density 21.994154999999999
#
# number of rings (size 3 to 8) (size 9 to 14) (size 15 to 20)
#    0.000    2.000    1.667    1.000    4.667    2.000 
#    0.000    1.667    0.000    0.000    0.000    0.000 
#    0.000    0.000    0.000    0.000    0.000    0.000 
#
# Total GULP energy -297315.518234 kJ/mol
# GULP energy per Si atom -12388.146593 kJ/mol
# Density = 2.194410 g / cm^3
# Si number density = 21.994155 Si / 1000 Ang^3
#
#
#
# Elastic Constant Matrix: (Units=GPa)
#
#
# Indices 1 2 3 4 5 6 
#
# 1 75.1867 35.9165 23.4046 0.0000 -27.9428 0.0000
# 2 35.9165 142.7533 63.1029 0.0000 -22.9368 0.0000
# 3 23.4046 63.1029 110.3002 0.0000 -38.4354 0.0000
# 4 0.0000 0.0000 0.0000 10.3264 0.0000 -3.3951
# 5 -27.9428 -22.9368 -38.4354 0.0000 34.0241 0.0000
# 6 0.0000 0.0000 0.0000 -3.3951 0.0000 15.5377
#
#
#
# Elastic Compliance Matrix: (Units=1/GPa)
#
#
# Indices 1 2 3 4 5 6 
#
# 1 0.021341 -0.004327 0.005010 0.000000 0.020269 0.000000
# 2 -0.004327 0.010258 -0.006232 0.000000 -0.003679 0.000000
# 3 0.005010 -0.006232 0.019029 0.000000 0.021410 0.000000
# 4 0.000000 0.000000 0.000000 0.104334 0.000000 0.022797
# 5 0.020269 -0.003679 0.021410 0.000000 0.067743 0.000000
# 6 0.000000 0.000000 0.000000 0.022797 0.000000 0.069341
#
#
# Mechanical properties :
#
#
# Convention : Reuss Voigt Hill
#
# Bulk Modulus (GPa) = 25.29787 63.67647 44.48717
# Shear Modulus (GPa) = 15.80683 25.69873 20.75278
#
# Velocity S-wave (km/s) = 2.68373 3.42195 3.07507
# Velocity P-wave (km/s) = 4.59677 6.68037 5.73401
#
# Compressibility (1/GPa) = 0.03952902
#
# Stress axis : x y z
#
# Youngs Moduli (GPa) = 46.85880 97.48866 52.55162
#
# Poissons Ratio (x) = 0.42187 -0.26331
# Poissons Ratio (y) = 0.20278 0.32751
# Poissons Ratio (z) = -0.23479 0.60757
#
# Static dielectric constant tensor:
#      x y z
#    x 3.803420 0.000000 -0.227100 
#    y 0.000000 5.136080 0.000000 
#    z -0.227100 0.000000 3.882200 
# 
# 
# High freq. dielectric constant tensor:
#      x y z
#    x 1.839020 0.000000 -0.020390 
#    y 0.000000 1.860500 0.000000 
#    z -0.020390 0.000000 1.858790 
# 
# From -- ./inp_files/4669.got.cif
#   From: 2010.06.25/outbox.cif.g09.slc.cpg/sg11_3_cif.got.tgz:4669.got - 2010.06.27 23:14:04.
