data_PCOD8074459
_publ_section_title
;
Structure prediction by ZEFSAII (Michael W. Deem and Ramdas Pophale) SiO2 
 PCOD8074459
Probable space group: P 21/M
;
_chemical_formula_sum "Si O2"
_cell_formula_units_Z 28
_cell_length_a 16.454948
_cell_length_b 8.953548
_cell_length_c 14.017679
_cell_angle_alpha 90.000000
_cell_angle_beta 47.235453
_cell_angle_gamma 90.000000
_cell_volume 1516.186686
_symmetry_space_group_name_H-M "P 21/M"
_symmetry_group_IT_number 11
_symmetry_cell_setting 'monoclinic'
loop_
_space_group_symop_operation_xyz
x,y,z
-x,1/2+y,-z
-x,-y,-z
x,1/2-y,z
loop_
_atom_site_type_symbol
_atom_site_label
_atom_site_fract_x
_atom_site_fract_y
_atom_site_fract_z
Si Si1 0.876370 0.925973 0.496203
Si Si2 0.444970 0.426397 0.744824
Si Si3 0.106551 0.579586 0.954279
Si Si4 0.664499 0.927826 0.545925
Si Si5 0.672053 0.423406 0.334689
Si Si6 0.101003 0.076059 0.307693
Si Si7 0.226194 0.077027 0.023646
O O1 0.887274 0.750000 0.480584
O O2 0.771721 0.981922 0.519056
O O3 0.860317 0.978981 0.618759
O O4 0.988444 0.995398 0.364241
O O5 0.464818 0.250000 0.721981
O O6 0.556866 0.510341 0.687729
O O7 0.410621 0.487742 0.668484
O O8 0.352231 0.467943 0.897819
O O9 0.076335 0.750000 0.995654
O O10 0.203379 0.558246 0.800771
O O11 0.139635 0.512928 0.029394
O O12 0.000000 0.500000 0.000000
O O13 0.659169 0.750000 0.540953
O O14 0.666422 0.003606 0.441937
O O15 0.636123 0.250000 0.367152
O O16 0.073630 0.250000 0.330737
O O17 0.200084 0.039453 0.154785
O O18 0.207461 0.250000 0.015103
#
# Coordination Sequence:
#
# PCOD8074459 Si02
#       7
#     4   4   4   4   4   4   4
#     4   9  20  36  54  80 108 137 173 217 266 314
#     4  10  20  36  55  77 106 139 178 218 260 314
#     4  10  21  34  50  75 108 140 174 215 257 312
#     4  11  22  35  53  77 108 141 177 218 263 311
#     4  10  21  36  53  75 104 141 180 215 260 309
#     4   9  18  36  59  79 105 137 173 217 266 318
#     4   9  19  35  56  78 102 138 176 215 266 313
#
# _framework density 18.467383000000002
#
# number of rings (size 3 to 8) (size 9 to 14) (size 15 to 20)
#    0.000    2.286    0.000    2.143    2.000    4.000 
#    0.000    0.714    0.000    0.000    0.000    0.000 
#    0.000    0.000    0.000    0.000    0.000    0.000 
#
# Total GULP energy -347237.428158 kJ/mol
# GULP energy per Si atom -12401.336720 kJ/mol
# Density = 1.842535 g / cm^3
# Si number density = 18.467383 Si / 1000 Ang^3
#
#
#
# Elastic Constant Matrix: (Units=GPa)
#
#
# Indices 1 2 3 4 5 6 
#
# 1 98.7718 26.6963 46.2031 0.0000 -14.3034 0.0000
# 2 26.6963 55.5975 26.9812 0.0000 -4.1152 0.0000
# 3 46.2031 26.9812 108.2042 0.0000 1.2412 0.0000
# 4 0.0000 0.0000 0.0000 28.1204 0.0000 -5.2230
# 5 -14.3034 -4.1152 1.2412 0.0000 15.3648 0.0000
# 6 0.0000 0.0000 0.0000 -5.2230 0.0000 29.4017
#
#
#
# Elastic Compliance Matrix: (Units=1/GPa)
#
#
# Indices 1 2 3 4 5 6 
#
# 1 0.016074 -0.003681 -0.006112 0.000000 0.014471 0.000000
# 2 -0.003681 0.021854 -0.003909 0.000000 0.002742 0.000000
# 3 -0.006112 -0.003909 0.012915 0.000000 -0.007780 0.000000
# 4 0.000000 0.000000 0.000000 0.036775 0.000000 0.006533
# 5 0.014471 0.002742 -0.007780 0.000000 0.079918 0.000000
# 6 0.000000 0.000000 0.000000 0.006533 0.000000 0.035172
#
#
# Mechanical properties :
#
#
# Convention : Reuss Voigt Hill
#
# Bulk Modulus (GPa) = 42.66261 51.37052 47.01657
# Shear Modulus (GPa) = 21.01503 25.42356 23.21929
#
# Velocity S-wave (km/s) = 3.37702 3.71438 3.54971
# Velocity P-wave (km/s) = 6.19334 6.80241 6.50501
#
# Compressibility (1/GPa) = 0.02343973
#
# Stress axis : x y z
#
# Youngs Moduli (GPa) = 62.21328 45.75823 77.42702
#
# Poissons Ratio (x) = 0.16844 0.47320
# Poissons Ratio (y) = 0.22901 0.30266
# Poissons Ratio (z) = 0.38022 0.17887
#
# Static dielectric constant tensor:
#      x y z
#    x 3.460480 0.000000 -0.108440 
#    y 0.000000 3.478200 0.000000 
#    z -0.108440 0.000000 3.595960 
# 
# 
# High freq. dielectric constant tensor:
#      x y z
#    x 1.706570 0.000000 -0.010940 
#    y 0.000000 1.723020 0.000000 
#    z -0.010940 0.000000 1.721400 
# 
# From -- ./inp_files/37400.got.cif
#   From: 2010.06.25/outbox.cif.g09.slc.cpg/sg11_19_cif.got.tgz:37400.got - 2010.06.27 23:14:04.
