data_PCOD8074646
_publ_section_title
;
Structure prediction by ZEFSAII (Michael W. Deem and Ramdas Pophale) SiO2 
 PCOD8074646
Probable space group: P 21/M
;
_chemical_formula_sum "Si O2"
_cell_formula_units_Z 32
_cell_length_a 21.427892
_cell_length_b 14.637047
_cell_length_c 18.317893
_cell_angle_alpha 90.000000
_cell_angle_beta 162.015152
_cell_angle_gamma 90.000000
_cell_volume 1773.932811
_symmetry_space_group_name_H-M "P 21/M"
_symmetry_group_IT_number 11
_symmetry_cell_setting 'monoclinic'
loop_
_space_group_symop_operation_xyz
x,y,z
-x,1/2+y,-z
-x,-y,-z
x,1/2-y,z
loop_
_atom_site_type_symbol
_atom_site_label
_atom_site_fract_x
_atom_site_fract_y
_atom_site_fract_z
Si Si1 0.156140 0.645113 0.073954
Si Si2 0.143563 0.353816 0.555006
Si Si3 0.541303 0.853525 0.594449
Si Si4 0.573130 0.075026 0.024820
Si Si5 0.286484 0.145058 0.368642
Si Si6 0.369134 0.518941 0.203152
Si Si7 0.182859 0.508885 0.840957
Si Si8 0.012203 0.646074 0.462036
O O1 0.170630 0.750000 0.062767
O O2 0.313114 0.628226 0.314096
O O3 0.197786 0.578288 0.052738
O O4 0.940346 0.619932 0.865198
O O5 0.074452 0.250000 0.467439
O O6 0.987534 0.414062 0.334689
O O7 0.115107 0.383694 0.607961
O O8 0.375424 0.364024 0.787430
O O9 0.567518 0.750000 0.652720
O O10 0.686701 0.872551 0.687509
O O11 0.596079 0.922260 0.719373
O O12 0.654588 0.034107 0.040010
O O13 0.748577 0.134485 0.257882
O O14 0.500000 0.000000 0.000000
O O15 0.341329 0.250000 0.448754
O O16 0.427701 0.079074 0.573313
O O17 0.304217 0.493928 0.049791
O O18 0.064513 0.416191 0.689332
O O19 0.968241 0.750000 0.391353
#
# Coordination Sequence:
#
# PCOD8074646 Si02
#       8
#     4   4   4   4   4   4   4   4
#     4   9  18  35  58  80 104 139 178 221 264 308
#     4  10  20  36  59  81 102 135 180 226 270 316
#     4   9  19  35  55  78 104 138 184 223 253 304
#     4  11  18  37  62  77 103 136 183 228 267 307
#     4   9  18  35  58  81 104 137 179 221 261 310
#     4  11  22  33  51  80 114 143 174 210 269 324
#     4  11  23  36  51  82 114 145 172 221 271 323
#     4  10  20  36  58  81 102 136 183 222 264 319
#
# _framework density 18.039016
#
# number of rings (size 3 to 8) (size 9 to 14) (size 15 to 20)
#    0.000    2.000    2.500    3.750    0.000    5.000 
#    0.000    1.250    0.000    0.000    0.000    0.000 
#    0.000    0.000    0.000    0.000    0.000    0.000 
#
# Total GULP energy -396822.416791 kJ/mol
# GULP energy per Si atom -12400.700525 kJ/mol
# Density = 1.799796 g / cm^3
# Si number density = 18.039016 Si / 1000 Ang^3
#
#
#
# Elastic Constant Matrix: (Units=GPa)
#
#
# Indices 1 2 3 4 5 6 
#
# 1 84.3860 49.7004 77.8002 0.0000 -3.5929 0.0000
# 2 49.7004 94.0287 52.2904 0.0000 -9.2760 0.0000
# 3 77.8002 52.2904 111.1683 0.0000 15.0446 0.0000
# 4 0.0000 0.0000 0.0000 18.2425 0.0000 6.6620
# 5 -3.5929 -9.2760 15.0446 0.0000 40.2641 0.0000
# 6 0.0000 0.0000 0.0000 6.6620 0.0000 15.7840
#
#
#
# Elastic Compliance Matrix: (Units=1/GPa)
#
#
# Indices 1 2 3 4 5 6 
#
# 1 0.041802 -0.004730 -0.028846 0.000000 0.013419 0.000000
# 2 -0.004730 0.016551 -0.005197 0.000000 0.005333 0.000000
# 3 -0.028846 -0.005197 0.033850 0.000000 -0.016419 0.000000
# 4 0.000000 0.000000 0.000000 0.064806 0.000000 -0.027353
# 5 0.013419 0.005333 -0.016419 0.000000 0.033397 0.000000
# 6 0.000000 0.000000 0.000000 -0.027353 0.000000 0.074900
#
#
# Mechanical properties :
#
#
# Convention : Reuss Voigt Hill
#
# Bulk Modulus (GPa) = 68.22470 72.12945 70.17708
# Shear Modulus (GPa) = 14.37867 22.17759 18.27813
#
# Velocity S-wave (km/s) = 2.82634 3.51012 3.18662
# Velocity P-wave (km/s) = 6.96804 7.51664 7.24754
#
# Compressibility (1/GPa) = 0.01465745
#
# Stress axis : x y z
#
# Youngs Moduli (GPa) = 23.92215 60.41893 29.54251
#
# Poissons Ratio (x) = 0.28577 0.85219
# Poissons Ratio (y) = 0.11315 0.15352
# Poissons Ratio (z) = 0.69006 0.31398
#
# Static dielectric constant tensor:
#      x y z
#    x 3.159980 0.000000 0.303220 
#    y 0.000000 3.388030 0.000000 
#    z 0.303220 0.000000 3.413630 
# 
# 
# High freq. dielectric constant tensor:
#      x y z
#    x 1.675210 0.000000 0.020060 
#    y 0.000000 1.709770 0.000000 
#    z 0.020060 0.000000 1.698120 
# 
# From -- ./inp_files/61633.got.cif
#   From: 2010.06.25/outbox.cif.g09.slc.cpg/sg11_31_cif.got.tgz:61633.got - 2010.06.27 23:14:04.
