data_PCOD8074051
_publ_section_title
;
Structure prediction by ZEFSAII (Michael W. Deem and Ramdas Pophale) SiO2 
 PCOD8074051
Probable space group: P 21/M
;
_chemical_formula_sum "Si O2"
_cell_formula_units_Z 32
_cell_length_a 20.151271
_cell_length_b 8.674481
_cell_length_c 12.295823
_cell_angle_alpha 90.000000
_cell_angle_beta 55.486068
_cell_angle_gamma 90.000000
_cell_volume 1771.024887
_symmetry_space_group_name_H-M "P 21/M"
_symmetry_group_IT_number 11
_symmetry_cell_setting 'monoclinic'
loop_
_space_group_symop_operation_xyz
x,y,z
-x,1/2+y,-z
-x,-y,-z
x,1/2-y,z
loop_
_atom_site_type_symbol
_atom_site_label
_atom_site_fract_x
_atom_site_fract_y
_atom_site_fract_z
Si Si1 0.717789 0.566094 0.895752
Si Si2 0.662122 0.930089 0.720525
Si Si3 0.547672 0.933059 0.643943
Si Si4 0.053634 0.431334 0.596008
Si Si5 0.792563 0.929699 0.423413
Si Si6 0.104762 0.067800 0.311729
Si Si7 0.677698 0.068901 0.365154
Si Si8 0.371700 0.067638 0.805828
O O1 0.719005 0.750000 0.890620
O O2 0.670917 0.497500 0.833070
O O3 0.809604 0.503618 0.810205
O O4 0.672756 0.507155 0.044756
O O5 0.653672 0.750000 0.744076
O O6 0.583687 0.989934 0.727188
O O7 0.741848 0.969571 0.578223
O O8 0.556395 0.750000 0.622478
O O9 0.598532 0.011220 0.501181
O O10 0.456575 0.983284 0.718810
O O11 0.042524 0.250000 0.599919
O O12 0.115044 0.474969 0.636518
O O13 0.089398 0.493247 0.448468
O O14 0.966799 0.507252 0.700109
O O15 0.783135 0.750000 0.402807
O O16 0.759709 0.028694 0.353190
O O17 0.105292 0.250000 0.308433
O O18 0.671453 0.250000 0.352220
O O19 0.682636 0.982651 0.245256
O O20 0.384735 0.250000 0.795236
#
# Coordination Sequence:
#
# PCOD8074051 Si02
#       8
#     4   4   4   4   4   4   4   4
#     4   9  17  31  51  73 101 139 173 201 240 299
#     4   8  14  28  50  74  99 131 164 197 244 298
#     4  10  20  35  56  77 100 129 164 209 257 301
#     4   9  16  27  48  77 107 135 163 198 246 297
#     4   9  16  30  53  77 103 133 165 203 251 302
#     4   9  16  28  48  74 105 137 168 199 237 292
#     4  11  22  36  54  75 100 127 166 216 259 296
#     4  11  22  35  52  73  99 133 174 211 247 296
#
# _framework density 18.068635
#
# number of rings (size 3 to 8) (size 9 to 14) (size 15 to 20)
#    0.000    2.500    1.250    3.000    0.000    1.000 
#    0.000    1.250    0.000    7.500    0.000    0.000 
#    0.000    0.000    0.000    0.000    0.000    0.000 
#
# Total GULP energy -396682.217398 kJ/mol
# GULP energy per Si atom -12396.319294 kJ/mol
# Density = 1.802751 g / cm^3
# Si number density = 18.068635 Si / 1000 Ang^3
#
#
#
# Elastic Constant Matrix: (Units=GPa)
#
#
# Indices 1 2 3 4 5 6 
#
# 1 111.8008 7.2099 32.8256 0.0000 15.2958 0.0000
# 2 7.2099 16.1012 7.8504 0.0000 -3.1990 0.0000
# 3 32.8256 7.8504 60.4496 0.0000 19.4646 0.0000
# 4 0.0000 0.0000 0.0000 15.0606 0.0000 -3.4959
# 5 15.2958 -3.1990 19.4646 0.0000 27.6776 0.0000
# 6 0.0000 0.0000 0.0000 -3.4959 0.0000 26.9551
#
#
#
# Elastic Compliance Matrix: (Units=1/GPa)
#
#
# Indices 1 2 3 4 5 6 
#
# 1 0.010914 -0.003392 -0.004418 0.000000 -0.003316 0.000000
# 2 -0.003392 0.074856 -0.014568 0.000000 0.020771 0.000000
# 3 -0.004418 -0.014568 0.026617 0.000000 -0.017961 0.000000
# 4 0.000000 0.000000 0.000000 0.068459 0.000000 0.008879
# 5 -0.003316 0.020771 -0.017961 0.000000 0.052995 0.000000
# 6 0.000000 0.000000 0.000000 0.008879 0.000000 0.038250
#
#
# Mechanical properties :
#
#
# Convention : Reuss Voigt Hill
#
# Bulk Modulus (GPa) = 14.78608 31.56928 23.17768
# Shear Modulus (GPa) = 14.73226 23.30303 19.01764
#
# Velocity S-wave (km/s) = 2.85853 3.59513 3.24778
# Velocity P-wave (km/s) = 4.36990 5.89432 5.18840
#
# Compressibility (1/GPa) = 0.06763118
#
# Stress axis : x y z
#
# Youngs Moduli (GPa) = 91.62368 13.35905 37.56980
#
# Poissons Ratio (x) = 0.04531 0.16599
# Poissons Ratio (y) = 0.31078 0.54730
# Poissons Ratio (z) = 0.40482 0.19461
#
# Static dielectric constant tensor:
#      x y z
#    x 3.655390 0.000000 0.118120 
#    y 0.000000 3.057220 0.000000 
#    z 0.118120 0.000000 3.223130 
# 
# 
# High freq. dielectric constant tensor:
#      x y z
#    x 1.717210 0.000000 0.001650 
#    y 0.000000 1.675910 0.000000 
#    z 0.001650 0.000000 1.665940 
# 
# From -- ./inp_files/42824.got.cif
#   From: 2010.06.25/outbox.cif.g09.slc.cpg/sg11_22_cif.got.tgz:42824.got - 2010.06.27 23:14:04.
