data_PCOD8074525
_publ_section_title
;
Structure prediction by ZEFSAII (Michael W. Deem and Ramdas Pophale) SiO2 
 PCOD8074525
Probable space group: P 21/M
;
_chemical_formula_sum "Si O2"
_cell_formula_units_Z 32
_cell_length_a 20.030905
_cell_length_b 8.759398
_cell_length_c 25.826162
_cell_angle_alpha 90.000000
_cell_angle_beta 158.541654
_cell_angle_gamma 90.000000
_cell_volume 1657.706907
_symmetry_space_group_name_H-M "P 21/M"
_symmetry_group_IT_number 11
_symmetry_cell_setting 'monoclinic'
loop_
_space_group_symop_operation_xyz
x,y,z
-x,1/2+y,-z
-x,-y,-z
x,1/2-y,z
loop_
_atom_site_type_symbol
_atom_site_label
_atom_site_fract_x
_atom_site_fract_y
_atom_site_fract_z
Si Si1 0.285168 0.429406 0.698933
Si Si2 0.116088 0.926877 0.397215
Si Si3 0.028485 0.429662 0.229114
Si Si4 0.176913 0.071297 0.153549
Si Si5 0.302707 0.930326 0.350067
Si Si6 0.472334 0.073125 0.281307
Si Si7 0.012596 0.426631 0.585306
Si Si8 0.354981 0.569306 0.090913
O O1 0.300829 0.250000 0.708126
O O2 0.202716 0.481009 0.695319
O O3 0.486186 0.497723 0.832403
O O4 0.153978 0.479534 0.558061
O O5 0.116192 0.750000 0.379952
O O6 0.321109 0.979822 0.559100
O O7 0.982165 0.953614 0.349512
O O8 0.035198 0.034358 0.294694
O O9 0.054820 0.250000 0.238552
O O10 0.188332 0.524347 0.317759
O O11 0.837599 0.491888 0.068793
O O12 0.144367 0.250000 0.138035
O O13 0.355033 0.038186 0.247747
O O14 0.203179 0.994977 0.227918
O O15 0.000000 0.000000 0.000000
O O16 0.319283 0.750000 0.357715
O O17 0.500000 0.000000 0.500000
O O18 0.466120 0.250000 0.261658
O O19 0.384905 0.981036 0.171234
O O20 0.975569 0.250000 0.545548
O O21 0.354822 0.750000 0.089440
#
# Coordination Sequence:
#
# PCOD8074525 Si02
#       8
#     4   4   4   4   4   4   4   4
#     4   9  17  31  53  82 113 147 185 231 284 335
#     4  10  20  36  56  82 112 146 189 238 285 336
#     4  11  24  40  58  82 115 154 192 233 283 344
#     4  11  23  39  59  86 118 153 192 241 293 347
#     4  12  25  43  65  88 114 150 194 242 294 353
#     4  10  21  36  57  82 109 141 184 232 280 335
#     4   9  17  31  54  82 112 145 186 234 283 334
#     4  10  21  36  55  82 116 151 188 232 283 337
#
# _framework density 19.303775000000002
#
# number of rings (size 3 to 8) (size 9 to 14) (size 15 to 20)
#    0.000    1.750    1.250    3.375    0.000    6.000 
#    0.000    0.625    0.000    0.000    0.000    0.000 
#    0.000    0.000    0.000    0.000    0.000    0.000 
#
# Total GULP energy -396836.541568 kJ/mol
# GULP energy per Si atom -12401.141924 kJ/mol
# Density = 1.925984 g / cm^3
# Si number density = 19.303775 Si / 1000 Ang^3
#
#
#
# Elastic Constant Matrix: (Units=GPa)
#
#
# Indices 1 2 3 4 5 6 
#
# 1 110.4089 28.6272 33.6830 0.0000 0.1272 0.0000
# 2 28.6272 57.1578 26.0324 0.0000 0.5140 0.0000
# 3 33.6830 26.0324 85.6243 0.0000 -7.3915 0.0000
# 4 0.0000 0.0000 0.0000 27.3151 0.0000 -5.2855
# 5 0.1272 0.5140 -7.3915 0.0000 34.1145 0.0000
# 6 0.0000 0.0000 0.0000 -5.2855 0.0000 30.3777
#
#
#
# Elastic Compliance Matrix: (Units=1/GPa)
#
#
# Indices 1 2 3 4 5 6 
#
# 1 0.011090 -0.004103 -0.003173 0.000000 -0.000667 0.000000
# 2 -0.004103 0.021920 -0.005174 0.000000 -0.001436 0.000000
# 3 -0.003173 -0.005174 0.014784 0.000000 0.003293 0.000000
# 4 0.000000 0.000000 0.000000 0.037885 0.000000 0.006592
# 5 -0.000667 -0.001436 0.003293 0.000000 0.030051 0.000000
# 6 0.000000 0.000000 0.000000 0.006592 0.000000 0.034066
#
#
# Mechanical properties :
#
#
# Convention : Reuss Voigt Hill
#
# Bulk Modulus (GPa) = 43.67942 47.76403 45.72173
# Shear Modulus (GPa) = 27.42319 29.35133 28.38726
#
# Velocity S-wave (km/s) = 3.77319 3.90359 3.83894
# Velocity P-wave (km/s) = 6.45439 6.71672 6.58686
#
# Compressibility (1/GPa) = 0.02289407
#
# Stress axis : x y z
#
# Youngs Moduli (GPa) = 90.17291 45.62038 67.63925
#
# Poissons Ratio (x) = 0.18720 0.21459
# Poissons Ratio (y) = 0.37001 0.34997
# Poissons Ratio (z) = 0.28608 0.23605
#
# Static dielectric constant tensor:
#      x y z
#    x 3.581520 0.000000 0.273860 
#    y 0.000000 3.476850 0.000000 
#    z 0.273860 0.000000 3.710020 
# 
# 
# High freq. dielectric constant tensor:
#      x y z
#    x 1.767670 0.000000 0.012060 
#    y 0.000000 1.746380 0.000000 
#    z 0.012060 0.000000 1.744520 
# 
# From -- ./inp_files/72201.got.cif
#   From: 2010.06.25/outbox.cif.g09.slc.cpg/sg11_37_cif.got.tgz:72201.got - 2010.06.27 23:14:04.
