data_PCOD8074693
_publ_section_title
;
Structure prediction by ZEFSAII (Michael W. Deem and Ramdas Pophale) SiO2 
 PCOD8074693
Probable space group: P 21/M
;
_chemical_formula_sum "Si O2"
_cell_formula_units_Z 28
_cell_length_a 20.171156
_cell_length_b 8.859822
_cell_length_c 23.349990
_cell_angle_alpha 90.000000
_cell_angle_beta 19.881525
_cell_angle_gamma 90.000000
_cell_volume 1419.119272
_symmetry_space_group_name_H-M "P 21/M"
_symmetry_group_IT_number 11
_symmetry_cell_setting 'monoclinic'
loop_
_space_group_symop_operation_xyz
x,y,z
-x,1/2+y,-z
-x,-y,-z
x,1/2-y,z
loop_
_atom_site_type_symbol
_atom_site_label
_atom_site_fract_x
_atom_site_fract_y
_atom_site_fract_z
Si Si1 0.382359 0.929747 0.543869
Si Si2 0.964897 0.925622 0.468315
Si Si3 0.410862 0.426876 0.742244
Si Si4 0.958011 0.422409 0.894793
Si Si5 0.308120 0.920732 0.990555
Si Si6 0.635808 0.080129 0.668162
Si Si7 0.672542 0.425684 0.894149
O O1 0.377444 0.750000 0.551320
O O2 0.502220 0.981273 0.389432
O O3 0.500000 0.000000 0.500000
O O4 0.160069 0.986841 0.730767
O O5 0.969868 0.750000 0.475185
O O6 0.133105 0.987400 0.291664
O O7 0.769923 0.964638 0.593179
O O8 0.000000 0.000000 0.500000
O O9 0.358371 0.250000 0.784573
O O10 0.596300 0.458243 0.633713
O O11 0.212052 0.512402 0.924204
O O12 0.995036 0.250000 0.884751
O O13 0.894594 0.424525 0.879383
O O14 0.397012 0.750000 0.913131
O O15 0.297174 0.970258 0.064991
O O16 0.428060 0.056355 0.865786
O O17 0.712264 0.250000 0.614753
O O18 0.643360 0.250000 0.909998
O O19 0.500000 0.500000 0.000000
#
# Coordination Sequence:
#
# PCOD8074693 Si02
#       7
#     4   4   4   4   4   4   4
#     4  11  24  42  64  92 126 164 205 253 305 365
#     4  11  23  37  54  78 110 149 190 237 289 345
#     4   9  21  41  63  89 124 163 204 249 302 364
#     4  10  21  38  64  94 123 159 203 253 309 364
#     4   9  19  37  58  82 112 147 189 237 290 348
#     4  10  20  36  58  85 113 145 188 237 290 348
#     4  10  22  37  53  76 107 145 188 234 285 339
#
# _framework density 19.730547999999999
#
# number of rings (size 3 to 8) (size 9 to 14) (size 15 to 20)
#    0.000    2.000    0.000    2.571    2.000    6.857 
#    0.000    0.000    0.000    0.000    0.000    0.000 
#    0.000    0.000    0.000    0.000    0.000    0.000 
#
# Total GULP energy -346870.845079 kJ/mol
# GULP energy per Si atom -12388.244467 kJ/mol
# Density = 1.968564 g / cm^3
# Si number density = 19.730548 Si / 1000 Ang^3
#
#
#
# Elastic Constant Matrix: (Units=GPa)
#
#
# Indices 1 2 3 4 5 6 
#
# 1 158.9758 46.6738 66.3782 0.0000 10.3514 0.0000
# 2 46.6738 63.4892 40.6287 0.0000 4.5865 0.0000
# 3 66.3782 40.6287 97.7685 0.0000 0.9558 0.0000
# 4 0.0000 0.0000 0.0000 33.4135 0.0000 -4.7887
# 5 10.3514 4.5865 0.9558 0.0000 35.5500 0.0000
# 6 0.0000 0.0000 0.0000 -4.7887 0.0000 32.4560
#
#
#
# Elastic Compliance Matrix: (Units=1/GPa)
#
#
# Indices 1 2 3 4 5 6 
#
# 1 0.009590 -0.003732 -0.004939 0.000000 -0.002178 0.000000
# 2 -0.003732 0.023139 -0.007065 0.000000 -0.001709 0.000000
# 3 -0.004939 -0.007065 0.016499 0.000000 0.001906 0.000000
# 4 0.000000 0.000000 0.000000 0.030575 0.000000 0.004511
# 5 -0.002178 -0.001709 0.001906 0.000000 0.028933 0.000000
# 6 0.000000 0.000000 0.000000 0.004511 0.000000 0.031477
#
#
# Mechanical properties :
#
#
# Convention : Reuss Voigt Hill
#
# Bulk Modulus (GPa) = 56.31997 69.73277 63.02637
# Shear Modulus (GPa) = 28.15289 31.38740 29.77014
#
# Velocity S-wave (km/s) = 3.78149 3.99281 3.88859
# Velocity P-wave (km/s) = 6.90454 7.52835 7.22318
#
# Compressibility (1/GPa) = 0.01775569
#
# Stress axis : x y z
#
# Youngs Moduli (GPa) = 104.27649 43.21707 60.61146
#
# Poissons Ratio (x) = 0.16130 0.29934
# Poissons Ratio (y) = 0.38918 0.42822
# Poissons Ratio (z) = 0.51498 0.30533
#
# Static dielectric constant tensor:
#      x y z
#    x 3.782450 0.000000 0.105510 
#    y 0.000000 3.732120 0.000000 
#    z 0.105510 0.000000 3.637610 
# 
# 
# High freq. dielectric constant tensor:
#      x y z
#    x 1.783790 0.000000 -0.000170 
#    y 0.000000 1.772750 0.000000 
#    z -0.000170 0.000000 1.766430 
# 
# From -- ./inp_files/69779.got.cif
#   From: 2010.06.25/outbox.cif.g09.slc.cpg/sg11_35_cif.got.tgz:69779.got - 2010.06.27 23:14:04.
