data_PCOD8074865
_publ_section_title
;
Structure prediction by ZEFSAII (Michael W. Deem and Ramdas Pophale) SiO2 
 PCOD8074865
Probable space group: P 21/M
;
_chemical_formula_sum "Si O2"
_cell_formula_units_Z 32
_cell_length_a 12.219436
_cell_length_b 8.602063
_cell_length_c 28.153394
_cell_angle_alpha 90.000000
_cell_angle_beta 32.737510
_cell_angle_gamma 90.000000
_cell_volume 1600.346739
_symmetry_space_group_name_H-M "P 21/M"
_symmetry_group_IT_number 11
_symmetry_cell_setting 'monoclinic'
loop_
_space_group_symop_operation_xyz
x,y,z
-x,1/2+y,-z
-x,-y,-z
x,1/2-y,z
loop_
_atom_site_type_symbol
_atom_site_label
_atom_site_fract_x
_atom_site_fract_y
_atom_site_fract_z
Si Si1 0.276203 0.570414 0.634459
Si Si2 0.874754 0.566393 0.089028
Si Si3 0.578868 0.432832 0.756332
Si Si4 0.106176 0.567958 0.186175
Si Si5 0.044772 0.433225 0.432132
Si Si6 0.295138 0.931554 0.518109
Si Si7 0.586936 0.932101 0.854816
Si Si8 0.815639 0.066131 0.947657
O O1 0.237514 0.750000 0.660259
O O2 0.503364 0.527897 0.566643
O O3 0.229895 0.534693 0.596064
O O4 0.130641 0.463058 0.719279
O O5 0.874050 0.750000 0.083846
O O6 0.645856 0.502979 0.173314
O O7 0.984116 0.511738 0.097422
O O8 0.000000 0.500000 0.000000
O O9 0.594654 0.250000 0.742851
O O10 0.732809 0.513837 0.664327
O O11 0.632672 0.474817 0.790440
O O12 0.154880 0.750000 0.174608
O O13 0.226196 0.462209 0.179141
O O14 0.170133 0.504695 0.111054
O O15 0.038521 0.250000 0.437338
O O16 0.000000 0.500000 0.500000
O O17 0.880012 0.491352 0.453494
O O18 0.341333 0.750000 0.493963
O O19 0.569965 0.750000 0.849311
O O20 0.383792 0.999732 0.953438
O O21 0.800956 0.250000 0.952458
#
# Coordination Sequence:
#
# PCOD8074865 Si02
#       8
#     4   4   4   4   4   4   4   4
#     4  10  20  36  60  89 116 147 191 242 294 355
#     4  10  20  38  61  86 116 152 197 247 297 353
#     4  11  23  38  62  93 121 155 201 248 300 364
#     4  11  22  36  55  83 120 157 195 239 294 357
#     4  11  24  42  63  88 123 162 202 249 302 358
#     4   9  20  39  61  83 112 152 193 239 297 352
#     4  11  21  37  60  83 115 156 200 248 296 349
#     4   9  20  37  57  81 114 156 195 240 297 349
#
# _framework density 19.995667000000001
#
# number of rings (size 3 to 8) (size 9 to 14) (size 15 to 20)
#    0.000    1.750    1.250    3.000    0.000    4.000 
#    0.000    5.625    0.000    0.000    0.000    0.000 
#    0.000    0.000    0.000    0.000    0.000    0.000 
#
# Total GULP energy -396912.760823 kJ/mol
# GULP energy per Si atom -12403.523776 kJ/mol
# Density = 1.995016 g / cm^3
# Si number density = 19.995667 Si / 1000 Ang^3
#
#
#
# Elastic Constant Matrix: (Units=GPa)
#
#
# Indices 1 2 3 4 5 6 
#
# 1 84.6765 20.2608 61.5182 0.0000 -7.8733 0.0000
# 2 20.2608 39.8693 27.6306 0.0000 -2.4729 0.0000
# 3 61.5182 27.6306 147.2809 0.0000 3.1609 0.0000
# 4 0.0000 0.0000 0.0000 34.1858 0.0000 -0.9247
# 5 -7.8733 -2.4729 3.1609 0.0000 34.5513 0.0000
# 6 0.0000 0.0000 0.0000 -0.9247 0.0000 22.4106
#
#
#
# Elastic Compliance Matrix: (Units=1/GPa)
#
#
# Indices 1 2 3 4 5 6 
#
# 1 0.018277 -0.004197 -0.006943 0.000000 0.004500 0.000000
# 2 -0.004197 0.030022 -0.003913 0.000000 0.001550 0.000000
# 3 -0.006943 -0.003913 0.010484 0.000000 -0.002821 0.000000
# 4 0.000000 0.000000 0.000000 0.029285 0.000000 0.001208
# 5 0.004500 0.001550 -0.002821 0.000000 0.030337 0.000000
# 6 0.000000 0.000000 0.000000 0.001208 0.000000 0.044672
#
#
# Mechanical properties :
#
#
# Convention : Reuss Voigt Hill
#
# Bulk Modulus (GPa) = 34.86982 54.51620 44.69301
# Shear Modulus (GPa) = 24.66199 29.05735 26.85967
#
# Velocity S-wave (km/s) = 3.51574 3.81620 3.66905
# Velocity P-wave (km/s) = 5.82728 6.83674 6.35209
#
# Compressibility (1/GPa) = 0.02867810
#
# Stress axis : x y z
#
# Youngs Moduli (GPa) = 54.71505 33.30838 95.37935
#
# Poissons Ratio (x) = 0.13979 0.66224
# Poissons Ratio (y) = 0.22963 0.37319
# Poissons Ratio (z) = 0.37990 0.13032
#
# Static dielectric constant tensor:
#      x y z
#    x 3.622830 0.000000 -0.111110 
#    y 0.000000 3.449940 0.000000 
#    z -0.111110 0.000000 3.766570 
# 
# 
# High freq. dielectric constant tensor:
#      x y z
#    x 1.783770 0.000000 -0.005430 
#    y 0.000000 1.769680 0.000000 
#    z -0.005430 0.000000 1.790990 
# 
# From -- ./inp_files/73112.got.cif
#   From: 2010.06.25/outbox.cif.g09.slc.cpg/sg11_37_cif.got.tgz:73112.got - 2010.06.27 23:14:04.
