data_PCOD8074484
_publ_section_title
;
Structure prediction by ZEFSAII (Michael W. Deem and Ramdas Pophale) SiO2 
 PCOD8074484
Probable space group: P 21/M
;
_chemical_formula_sum "Si O2"
_cell_formula_units_Z 28
_cell_length_a 25.975690
_cell_length_b 9.103342
_cell_length_c 9.043999
_cell_angle_alpha 90.000000
_cell_angle_beta 136.291409
_cell_angle_gamma 90.000000
_cell_volume 1477.749177
_symmetry_space_group_name_H-M "P 21/M"
_symmetry_group_IT_number 11
_symmetry_cell_setting 'monoclinic'
loop_
_space_group_symop_operation_xyz
x,y,z
-x,1/2+y,-z
-x,-y,-z
x,1/2-y,z
loop_
_atom_site_type_symbol
_atom_site_label
_atom_site_fract_x
_atom_site_fract_y
_atom_site_fract_z
Si Si1 0.273089 0.422911 0.397482
Si Si2 0.128963 0.423746 0.928071
Si Si3 0.437012 0.584760 0.057874
Si Si4 0.987169 0.075183 0.817816
Si Si5 0.420059 0.584265 0.671968
Si Si6 0.707568 0.581548 0.225589
Si Si7 0.859151 0.578646 0.381760
O O1 0.282598 0.250000 0.392648
O O2 0.344340 0.500731 0.471947
O O3 0.265180 0.462871 0.553821
O O4 0.199666 0.486275 0.164719
O O5 0.133622 0.250000 0.941049
O O6 0.130350 0.479910 0.762814
O O7 0.052994 0.478096 0.845763
O O8 0.444100 0.750000 0.132137
O O9 0.510149 0.495890 0.260989
O O10 0.430598 0.580606 0.868811
O O11 0.363036 0.513042 0.973985
O O12 0.985809 0.250000 0.833920
O O13 0.909513 0.019503 0.592186
O O14 0.000000 0.000000 0.000000
O O15 0.415990 0.750000 0.603739
O O16 0.681792 0.750000 0.172048
O O17 0.773718 0.552628 0.248442
O O18 0.880953 0.750000 0.444471
#
# Coordination Sequence:
#
# PCOD8074484 Si02
#       7
#     4   4   4   4   4   4   4
#     4   9  16  29  48  70  97 131 169 207 250 302
#     4   9  19  35  55  77 104 138 174 211 255 309
#     4   9  16  26  43  68  98 130 165 207 254 302
#     4  11  22  37  57  81 107 136 172 214 258 304
#     4   9  16  26  42  68  99 128 162 207 257 303
#     4   9  17  29  48  72 100 133 168 208 254 303
#     4  10  20  36  56  78 105 138 173 210 257 310
#
# _framework density 18.947735999999999
#
# number of rings (size 3 to 8) (size 9 to 14) (size 15 to 20)
#    0.000    2.571    0.000    2.571    0.000    6.286 
#    0.000    5.714    0.000    0.857    0.000    0.000 
#    0.000    0.000    0.000    0.000    0.000    0.000 
#
# Total GULP energy -347233.225580 kJ/mol
# GULP energy per Si atom -12401.186628 kJ/mol
# Density = 1.890461 g / cm^3
# Si number density = 18.947736 Si / 1000 Ang^3
#
#
#
# Elastic Constant Matrix: (Units=GPa)
#
#
# Indices 1 2 3 4 5 6 
#
# 1 117.5215 47.2959 43.1016 0.0000 9.3246 0.0000
# 2 47.2959 83.0140 25.8697 0.0000 11.2842 0.0000
# 3 43.1016 25.8697 37.9882 0.0000 8.3139 0.0000
# 4 0.0000 0.0000 0.0000 26.3768 0.0000 9.0515
# 5 9.3246 11.2842 8.3139 0.0000 31.2939 0.0000
# 6 0.0000 0.0000 0.0000 9.0515 0.0000 25.2775
#
#
#
# Elastic Compliance Matrix: (Units=1/GPa)
#
#
# Indices 1 2 3 4 5 6 
#
# 1 0.015723 -0.004391 -0.015045 0.000000 0.000895 0.000000
# 2 -0.004391 0.016773 -0.005736 0.000000 -0.003216 0.000000
# 3 -0.015045 -0.005736 0.048698 0.000000 -0.006386 0.000000
# 4 0.000000 0.000000 0.000000 0.043223 0.000000 -0.015478
# 5 0.000895 -0.003216 -0.006386 0.000000 0.034544 0.000000
# 6 0.000000 0.000000 0.000000 -0.015478 0.000000 0.045103
#
#
# Mechanical properties :
#
#
# Convention : Reuss Voigt Hill
#
# Bulk Modulus (GPa) = 32.41579 52.33978 42.37778
# Shear Modulus (GPa) = 18.88987 24.74011 21.81499
#
# Velocity S-wave (km/s) = 3.16087 3.61737 3.39680
# Velocity P-wave (km/s) = 5.51966 6.71791 6.14805
#
# Compressibility (1/GPa) = 0.03084917
#
# Stress axis : x y z
#
# Youngs Moduli (GPa) = 63.60073 59.62116 20.53475
#
# Poissons Ratio (x) = 0.26181 0.30895
# Poissons Ratio (y) = 0.27928 0.11779
# Poissons Ratio (z) = 0.95688 0.34198
#
# Static dielectric constant tensor:
#      x y z
#    x 3.513140 0.000000 0.181040 
#    y 0.000000 3.383630 0.000000 
#    z 0.181040 0.000000 3.409690 
# 
# 
# High freq. dielectric constant tensor:
#      x y z
#    x 1.732200 0.000000 0.024420 
#    y 0.000000 1.723530 0.000000 
#    z 0.024420 0.000000 1.723320 
# 
# From -- ./inp_files/28648.got.cif
#   From: 2010.06.25/outbox.cif.g09.slc.cpg/sg11_15_cif.got.tgz:28648.got - 2010.06.27 23:14:04.
