data_PCOD8074025
_publ_section_title
;
Structure prediction by ZEFSAII (Michael W. Deem and Ramdas Pophale) SiO2 
 PCOD8074025
Probable space group: P 21/M
;
_chemical_formula_sum "Si O2"
_cell_formula_units_Z 32
_cell_length_a 12.659101
_cell_length_b 9.477976
_cell_length_c 31.017259
_cell_angle_alpha 90.000000
_cell_angle_beta 152.613024
_cell_angle_gamma 90.000000
_cell_volume 1711.897642
_symmetry_space_group_name_H-M "P 21/M"
_symmetry_group_IT_number 11
_symmetry_cell_setting 'monoclinic'
loop_
_space_group_symop_operation_xyz
x,y,z
-x,1/2+y,-z
-x,-y,-z
x,1/2-y,z
loop_
_atom_site_type_symbol
_atom_site_label
_atom_site_fract_x
_atom_site_fract_y
_atom_site_fract_z
Si Si1 0.545473 0.095142 0.645438
Si Si2 0.445688 0.413444 0.215671
Si Si3 0.768601 0.413747 0.411783
Si Si4 0.851398 0.917749 0.210640
Si Si5 0.041862 0.587156 0.925821
Si Si6 0.923021 0.909740 0.142638
Si Si7 0.649368 0.410455 0.586258
Si Si8 0.466368 0.586677 0.137412
O O1 0.449313 0.250000 0.624556
O O2 0.805117 0.082719 0.754417
O O3 0.524523 0.080358 0.586800
O O4 0.404786 0.968335 0.614986
O O5 0.415602 0.250000 0.192379
O O6 0.657388 0.437485 0.324588
O O7 0.504049 0.499360 0.194177
O O8 0.209557 0.469477 0.151728
O O9 0.817449 0.250000 0.438124
O O10 0.000000 0.500000 0.500000
O O11 0.870833 0.750000 0.214582
O O12 0.644429 0.969049 0.165825
O O13 0.811831 0.970386 0.146858
O O14 0.092520 0.974416 0.317183
O O15 0.029373 0.750000 0.907636
O O16 0.148273 0.504837 0.923736
O O17 0.209116 0.563976 0.027003
O O18 0.840837 0.750000 0.103832
O O19 0.500000 0.500000 0.500000
O O20 0.658545 0.250000 0.572841
O O21 0.514745 0.750000 0.165300
#
# Coordination Sequence:
#
# PCOD8074025 Si02
#       8
#     4   4   4   4   4   4   4   4
#     4   9  18  34  54  77 105 139 180 225 269 322
#     4  10  22  39  55  76 112 146 179 231 280 317
#     4  11  23  38  57  81 110 143 179 228 282 329
#     4   8  17  35  53  76 110 142 176 223 275 320
#     4  10  20  35  55  82 112 142 182 230 276 323
#     4   9  17  32  57  80 104 142 182 221 266 325
#     4   9  18  33  54  78 106 139 179 224 270 326
#     4  10  21  36  57  81 110 149 186 222 270 334
#
# _framework density 18.692706000000001
#
# number of rings (size 3 to 8) (size 9 to 14) (size 15 to 20)
#    0.000    2.500    1.250    2.250    0.000    4.000 
#    0.000    5.625    0.000    0.000    0.000    0.000 
#    0.000    0.000    0.000    0.000    0.000    0.000 
#
# Total GULP energy -396778.280806 kJ/mol
# GULP energy per Si atom -12399.321275 kJ/mol
# Density = 1.865016 g / cm^3
# Si number density = 18.692706 Si / 1000 Ang^3
#
#
#
# Elastic Constant Matrix: (Units=GPa)
#
#
# Indices 1 2 3 4 5 6 
#
# 1 116.8342 54.5162 42.3255 0.0000 0.1994 0.0000
# 2 54.5162 79.1743 41.2018 0.0000 -6.1053 0.0000
# 3 42.3255 41.2018 70.1938 0.0000 -6.3879 0.0000
# 4 0.0000 0.0000 0.0000 26.7190 0.0000 -6.7857
# 5 0.1994 -6.1053 -6.3879 0.0000 24.0322 0.0000
# 6 0.0000 0.0000 0.0000 -6.7857 0.0000 31.8500
#
#
#
# Elastic Compliance Matrix: (Units=1/GPa)
#
#
# Indices 1 2 3 4 5 6 
#
# 1 0.013497 -0.007415 -0.004066 0.000000 -0.003077 0.000000
# 2 -0.007415 0.022337 -0.008319 0.000000 0.003525 0.000000
# 3 -0.004066 -0.008319 0.021922 0.000000 0.003747 0.000000
# 4 0.000000 0.000000 0.000000 0.039567 0.000000 0.008430
# 5 -0.003077 0.003525 0.003747 0.000000 0.043528 0.000000
# 6 0.000000 0.000000 0.000000 0.008430 0.000000 0.033193
#
#
# Mechanical properties :
#
#
# Convention : Reuss Voigt Hill
#
# Bulk Modulus (GPa) = 55.07915 60.25437 57.66676
# Shear Modulus (GPa) = 22.75843 25.06416 23.91129
#
# Velocity S-wave (km/s) = 3.49306 3.66574 3.58044
# Velocity P-wave (km/s) = 6.76743 7.08668 6.92889
#
# Compressibility (1/GPa) = 0.01815569
#
# Stress axis : x y z
#
# Youngs Moduli (GPa) = 74.08844 44.76839 45.61529
#
# Poissons Ratio (x) = 0.33195 0.18549
# Poissons Ratio (y) = 0.54936 0.37949
# Poissons Ratio (z) = 0.30127 0.37245
#
# Static dielectric constant tensor:
#      x y z
#    x 3.743110 0.000000 0.124460 
#    y 0.000000 3.060170 0.000000 
#    z 0.124460 0.000000 3.417930 
# 
# 
# High freq. dielectric constant tensor:
#      x y z
#    x 1.727970 0.000000 -0.002440 
#    y 0.000000 1.709490 0.000000 
#    z -0.002440 0.000000 1.724630 
# 
# From -- ./inp_files/45151.got.cif
#   From: 2010.06.25/outbox.cif.g09.slc.cpg/sg11_23_cif.got.tgz:45151.got - 2010.06.27 23:14:04.
