data_PCOD8074597
_publ_section_title
;
Structure prediction by ZEFSAII (Michael W. Deem and Ramdas Pophale) SiO2 
 PCOD8074597
Probable space group: P 21/M
;
_chemical_formula_sum "Si O2"
_cell_formula_units_Z 28
_cell_length_a 21.621212
_cell_length_b 9.065235
_cell_length_c 9.753121
_cell_angle_alpha 90.000000
_cell_angle_beta 132.687161
_cell_angle_gamma 90.000000
_cell_volume 1405.171617
_symmetry_space_group_name_H-M "P 21/M"
_symmetry_group_IT_number 11
_symmetry_cell_setting 'monoclinic'
loop_
_space_group_symop_operation_xyz
x,y,z
-x,1/2+y,-z
-x,-y,-z
x,1/2-y,z
loop_
_atom_site_type_symbol
_atom_site_label
_atom_site_fract_x
_atom_site_fract_y
_atom_site_fract_z
Si Si1 0.298514 0.917423 0.717124
Si Si2 0.146055 0.079619 0.868647
Si Si3 0.442582 0.580288 0.139708
Si Si4 0.614726 0.420061 0.425787
Si Si5 0.319180 0.925067 0.188388
Si Si6 0.134675 0.079042 0.542198
Si Si7 0.003026 0.575376 0.152871
O O1 0.267723 0.750000 0.701984
O O2 0.312455 0.942975 0.576961
O O3 0.231887 0.033699 0.673779
O O4 0.388424 0.945558 0.922082
O O5 0.170572 0.250000 0.920794
O O6 0.107189 0.050242 0.658645
O O7 0.079408 0.031980 0.884196
O O8 0.228645 0.984542 0.012131
O O9 0.464443 0.750000 0.196312
O O10 0.529372 0.496864 0.252900
O O11 0.389072 0.518039 0.187091
O O12 0.592280 0.250000 0.412268
O O13 0.652615 0.487206 0.622016
O O14 0.311608 0.750000 0.174189
O O15 0.123642 0.250000 0.486332
O O16 0.082582 0.980786 0.358064
O O17 0.011375 0.750000 0.145542
O O18 0.000000 0.500000 0.000000
#
# Coordination Sequence:
#
# PCOD8074597 Si02
#       7
#     4   4   4   4   4   4   4
#     4  10  21  38  58  85 121 158 201 250 300 357
#     4  10  23  42  64  91 122 158 203 249 297 356
#     4  10  20  36  57  82 115 158 204 249 300 355
#     4  10  22  36  55  84 118 157 201 249 304 358
#     4  10  21  37  58  86 119 157 201 247 300 359
#     4  11  23  41  65  93 122 159 204 247 300 359
#     4  11  25  44  66  95 128 159 196 245 300 359
#
# _framework density 19.926390999999999
#
# number of rings (size 3 to 8) (size 9 to 14) (size 15 to 20)
#    0.000    1.714    1.429    2.143    2.000    4.000 
#    0.000    0.000    0.000    0.000    0.000    0.000 
#    0.000    0.000    0.000    0.000    0.000    0.000 
#
# Total GULP energy -347282.886973 kJ/mol
# GULP energy per Si atom -12402.960249 kJ/mol
# Density = 1.988104 g / cm^3
# Si number density = 19.926391 Si / 1000 Ang^3
#
#
#
# Elastic Constant Matrix: (Units=GPa)
#
#
# Indices 1 2 3 4 5 6 
#
# 1 94.1976 39.6212 34.6881 0.0000 -11.0399 0.0000
# 2 39.6212 64.2519 33.9638 0.0000 -0.2481 0.0000
# 3 34.6881 33.9638 88.0961 0.0000 -14.1208 0.0000
# 4 0.0000 0.0000 0.0000 36.7102 0.0000 5.3903
# 5 -11.0399 -0.2481 -14.1208 0.0000 36.7974 0.0000
# 6 0.0000 0.0000 0.0000 5.3903 0.0000 25.7321
#
#
#
# Elastic Compliance Matrix: (Units=1/GPa)
#
#
# Indices 1 2 3 4 5 6 
#
# 1 0.015356 -0.008252 -0.002275 0.000000 0.003678 0.000000
# 2 -0.008252 0.024286 -0.006909 0.000000 -0.004963 0.000000
# 3 -0.002275 -0.006909 0.015764 0.000000 0.005320 0.000000
# 4 0.000000 0.000000 0.000000 0.028105 0.000000 -0.005887
# 5 0.003678 -0.004963 0.005320 0.000000 0.030287 0.000000
# 6 0.000000 0.000000 0.000000 -0.005887 0.000000 0.040095
#
#
# Mechanical properties :
#
#
# Convention : Reuss Voigt Hill
#
# Bulk Modulus (GPa) = 48.70534 51.45464 50.07999
# Shear Modulus (GPa) = 25.56106 29.06613 27.31359
#
# Velocity S-wave (km/s) = 3.58547 3.82340 3.70635
# Velocity P-wave (km/s) = 6.45263 6.73570 6.59568
#
# Compressibility (1/GPa) = 0.02053163
#
# Stress axis : x y z
#
# Youngs Moduli (GPa) = 65.12079 41.17666 63.43756
#
# Poissons Ratio (x) = 0.33981 0.14434
# Poissons Ratio (y) = 0.53740 0.43829
# Poissons Ratio (z) = 0.14817 0.28449
#
# Static dielectric constant tensor:
#      x y z
#    x 3.712770 0.000000 -0.252460 
#    y 0.000000 3.494590 0.000000 
#    z -0.252460 0.000000 3.708390 
# 
# 
# High freq. dielectric constant tensor:
#      x y z
#    x 1.786390 0.000000 -0.010760 
#    y 0.000000 1.769740 0.000000 
#    z -0.010760 0.000000 1.787370 
# 
# From -- ./inp_files/26173.got.cif
#   From: 2010.06.25/outbox.cif.g09.slc.cpg/sg11_14_cif.got.tgz:26173.got - 2010.06.27 23:14:04.
