data_PCOD8074357
_publ_section_title
;
Structure prediction by ZEFSAII (Michael W. Deem and Ramdas Pophale) SiO2 
 PCOD8074357
Probable space group: P 21/M
;
_chemical_formula_sum "Si O2"
_cell_formula_units_Z 32
_cell_length_a 11.282881
_cell_length_b 9.321224
_cell_length_c 21.111595
_cell_angle_alpha 90.000000
_cell_angle_beta 128.810066
_cell_angle_gamma 90.000000
_cell_volume 1730.128955
_symmetry_space_group_name_H-M "P 21/M"
_symmetry_group_IT_number 11
_symmetry_cell_setting 'monoclinic'
loop_
_space_group_symop_operation_xyz
x,y,z
-x,1/2+y,-z
-x,-y,-z
x,1/2-y,z
loop_
_atom_site_type_symbol
_atom_site_label
_atom_site_fract_x
_atom_site_fract_y
_atom_site_fract_z
Si Si1 0.067867 0.082325 0.617330
Si Si2 0.196131 0.081577 0.276861
Si Si3 0.805645 0.092458 0.977782
Si Si4 0.478451 0.918624 0.427556
Si Si5 0.657545 0.420104 0.055382
Si Si6 0.204477 0.085459 0.529317
Si Si7 0.882899 0.082555 0.241888
Si Si8 0.157896 0.407208 0.121420
O O1 0.045891 0.250000 0.623177
O O2 0.179313 0.053490 0.595207
O O3 0.143529 0.008389 0.703501
O O4 0.902538 0.014619 0.549120
O O5 0.237823 0.250000 0.295708
O O6 0.165589 0.031845 0.194805
O O7 0.047467 0.047789 0.268053
O O8 0.330986 0.982485 0.345460
O O9 0.735188 0.250000 0.945193
O O10 0.747083 0.024762 0.023486
O O11 0.985804 0.101345 0.041169
O O12 0.749705 0.003199 0.897908
O O13 0.456870 0.750000 0.433143
O O14 0.621584 0.947769 0.429625
O O15 0.500000 0.000000 0.500000
O O16 0.634178 0.250000 0.046616
O O17 0.753182 0.465465 0.149081
O O18 0.500000 0.500000 0.000000
O O19 0.162066 0.250000 0.499172
O O20 0.868884 0.250000 0.253412
O O21 0.232746 0.250000 0.144836
#
# Coordination Sequence:
#
# PCOD8074357 Si02
#       8
#     4   4   4   4   4   4   4   4
#     4  10  20  35  59  86 108 139 185 228 262 310
#     4  10  20  36  57  80 109 144 182 224 271 324
#     4   9  17  33  55  78 105 139 176 218 271 324
#     4  11  23  38  56  81 114 148 180 219 271 324
#     4  10  21  38  57  78 108 145 183 224 273 327
#     4   9  20  39  57  77 112 150 179 215 270 324
#     4  10  20  37  58  79 108 144 181 221 273 328
#     4   9  17  32  55  80 105 137 177 221 266 319
#
# _framework density 18.495733000000001
#
# number of rings (size 3 to 8) (size 9 to 14) (size 15 to 20)
#    0.000    2.250    1.250    1.500    0.000    6.500 
#    2.250    0.000    0.000    0.000    0.000    0.000 
#    0.000    0.000    0.000    0.000    0.000    0.000 
#
# Total GULP energy -396775.392564 kJ/mol
# GULP energy per Si atom -12399.231018 kJ/mol
# Density = 1.845364 g / cm^3
# Si number density = 18.495733 Si / 1000 Ang^3
#
#
#
# Elastic Constant Matrix: (Units=GPa)
#
#
# Indices 1 2 3 4 5 6 
#
# 1 94.5197 55.3506 61.2355 0.0000 -7.3844 0.0000
# 2 55.3506 82.8318 58.9374 0.0000 -7.9594 0.0000
# 3 61.2355 58.9374 98.9693 0.0000 -17.4853 0.0000
# 4 0.0000 0.0000 0.0000 37.4592 0.0000 -2.5117
# 5 -7.3844 -7.9594 -17.4853 0.0000 36.7057 0.0000
# 6 0.0000 0.0000 0.0000 -2.5117 0.0000 32.1024
#
#
#
# Elastic Compliance Matrix: (Units=1/GPa)
#
#
# Indices 1 2 3 4 5 6 
#
# 1 0.020417 -0.008000 -0.008134 0.000000 -0.001502 0.000000
# 2 -0.008000 0.024163 -0.009607 0.000000 -0.000946 0.000000
# 3 -0.008134 -0.009607 0.022057 0.000000 0.006788 0.000000
# 4 0.000000 0.000000 0.000000 0.026837 0.000000 0.002100
# 5 -0.001502 -0.000946 0.006788 0.000000 0.029970 0.000000
# 6 0.000000 0.000000 0.000000 0.002100 0.000000 0.031315
#
#
# Mechanical properties :
#
#
# Convention : Reuss Voigt Hill
#
# Bulk Modulus (GPa) = 65.98146 69.70753 67.84450
# Shear Modulus (GPa) = 23.66411 27.97326 25.81869
#
# Velocity S-wave (km/s) = 3.58080 3.89320 3.74026
# Velocity P-wave (km/s) = 7.26963 7.61443 7.44403
#
# Compressibility (1/GPa) = 0.01515577
#
# Stress axis : x y z
#
# Youngs Moduli (GPa) = 48.97924 41.38558 45.33736
#
# Poissons Ratio (x) = 0.33108 0.36877
# Poissons Ratio (y) = 0.39183 0.43554
# Poissons Ratio (z) = 0.39839 0.39758
#
# Static dielectric constant tensor:
#      x y z
#    x 3.547290 0.000000 -0.413520 
#    y 0.000000 3.554470 0.000000 
#    z -0.413520 0.000000 3.671040 
# 
# 
# High freq. dielectric constant tensor:
#      x y z
#    x 1.716210 0.000000 -0.017780 
#    y 0.000000 1.716130 0.000000 
#    z -0.017780 0.000000 1.716160 
# 
# From -- ./inp_files/64407.got.cif
#   From: 2010.06.25/outbox.cif.g09.slc.cpg/sg11_33_cif.got.tgz:64407.got - 2010.06.27 23:14:04.
