data_PCOD8074435
_publ_section_title
;
Structure prediction by ZEFSAII (Michael W. Deem and Ramdas Pophale) SiO2 
 PCOD8074435
Probable space group: P 21/M
;
_chemical_formula_sum "Si O2"
_cell_formula_units_Z 28
_cell_length_a 14.837312
_cell_length_b 18.293678
_cell_length_c 8.884233
_cell_angle_alpha 90.000000
_cell_angle_beta 145.093140
_cell_angle_gamma 90.000000
_cell_volume 1379.931401
_symmetry_space_group_name_H-M "P 21/M"
_symmetry_group_IT_number 11
_symmetry_cell_setting 'monoclinic'
loop_
_space_group_symop_operation_xyz
x,y,z
-x,1/2+y,-z
-x,-y,-z
x,1/2-y,z
loop_
_atom_site_type_symbol
_atom_site_label
_atom_site_fract_x
_atom_site_fract_y
_atom_site_fract_z
Si Si1 0.445385 0.540105 0.159127
Si Si2 0.271679 0.089750 0.065500
Si Si3 0.723141 0.028311 0.372988
Si Si4 0.894015 0.333179 0.055379
Si Si5 0.467590 0.666743 0.412937
Si Si6 0.998960 0.579133 0.071106
Si Si7 0.927334 0.572129 0.476052
O O1 0.596567 0.490338 0.327863
O O2 0.499430 0.613809 0.315211
O O3 0.334522 0.492277 0.117561
O O4 0.357196 0.563374 0.884797
O O5 0.169778 0.117443 0.782852
O O6 0.164229 0.088948 0.066028
O O7 0.415913 0.145028 0.291138
O O8 0.851652 0.085687 0.611389
O O9 0.808106 0.952258 0.444318
O O10 0.941125 0.250000 0.150715
O O11 0.937392 0.378195 0.265653
O O12 0.709544 0.342743 0.770454
O O13 0.989438 0.359332 0.040166
O O14 0.500080 0.750000 0.407056
O O15 0.000000 0.500000 0.000000
O O16 0.000000 0.500000 0.500000
#
# Coordination Sequence:
#
# PCOD8074435 Si02
#       7
#     4   4   4   4   4   4   4
#     4  10  21  38  61  95 123 161 205 262 306 366
#     4  11  23  37  66  92 124 158 209 261 306 370
#     4  10  20  35  64  94 123 155 211 255 312 366
#     4  11  25  42  62  89 129 168 208 257 321 378
#     4  11  24  41  59  85 125 171 205 247 311 377
#     4  12  20  36  64  93 122 161 207 260 310 368
#     4  11  20  40  66  97 121 160 210 262 314 371
#
# _framework density 20.290863000000002
#
# number of rings (size 3 to 8) (size 9 to 14) (size 15 to 20)
#    0.000    1.143    2.857    4.714    0.000    1.143 
#    0.000    0.714    0.000    5.143    0.000    0.000 
#    0.000    0.000    0.000    0.000    0.000    0.000 
#
# Total GULP energy -347262.790528 kJ/mol
# GULP energy per Si atom -12402.242519 kJ/mol
# Density = 2.024468 g / cm^3
# Si number density = 20.290863 Si / 1000 Ang^3
#
#
#
# Elastic Constant Matrix: (Units=GPa)
#
#
# Indices 1 2 3 4 5 6 
#
# 1 114.7619 46.9731 41.9108 0.0000 1.1871 0.0000
# 2 46.9731 106.1606 59.3358 0.0000 -7.0799 0.0000
# 3 41.9108 59.3358 148.8225 0.0000 -0.2197 0.0000
# 4 0.0000 0.0000 0.0000 26.9828 0.0000 1.8900
# 5 1.1871 -7.0799 -0.2197 0.0000 26.0981 0.0000
# 6 0.0000 0.0000 0.0000 1.8900 0.0000 22.9706
#
#
#
# Elastic Compliance Matrix: (Units=1/GPa)
#
#
# Indices 1 2 3 4 5 6 
#
# 1 0.010954 -0.004157 -0.001430 0.000000 -0.001638 0.000000
# 2 -0.004157 0.013980 -0.004397 0.000000 0.003945 0.000000
# 3 -0.001430 -0.004397 0.008874 0.000000 -0.001053 0.000000
# 4 0.000000 0.000000 0.000000 0.037275 0.000000 -0.003067
# 5 -0.001638 0.003945 -0.001053 0.000000 0.039453 0.000000
# 6 0.000000 0.000000 0.000000 -0.003067 0.000000 0.043786
#
#
# Mechanical properties :
#
#
# Convention : Reuss Voigt Hill
#
# Bulk Modulus (GPa) = 72.25690 74.02048 73.13869
# Shear Modulus (GPa) = 27.94795 29.97866 28.96330
#
# Velocity S-wave (km/s) = 3.71531 3.84793 3.78220
# Velocity P-wave (km/s) = 7.35477 7.50340 7.42945
#
# Compressibility (1/GPa) = 0.01383951
#
# Stress axis : x y z
#
# Youngs Moduli (GPa) = 91.28800 71.53138 112.69180
#
# Poissons Ratio (x) = 0.29736 0.16114
# Poissons Ratio (y) = 0.37949 0.49554
# Poissons Ratio (z) = 0.13054 0.31454
#
# Static dielectric constant tensor:
#      x y z
#    x 3.806470 0.000000 0.044010 
#    y 0.000000 3.394550 0.000000 
#    z 0.044010 0.000000 4.196850 
# 
# 
# High freq. dielectric constant tensor:
#      x y z
#    x 1.798510 0.000000 0.005810 
#    y 0.000000 1.748520 0.000000 
#    z 0.005810 0.000000 1.818890 
# 
# From -- ./inp_files/22798.got.cif
#   From: 2010.06.25/outbox.cif.g09.slc.cpg/sg11_12_cif.got.tgz:22798.got - 2010.06.27 23:14:04.
