data_PCOD8074764
_publ_section_title
;
Structure prediction by ZEFSAII (Michael W. Deem and Ramdas Pophale) SiO2 
 PCOD8074764
Probable space group: P 21/M
;
_chemical_formula_sum "Si O2"
_cell_formula_units_Z 24
_cell_length_a 14.128987
_cell_length_b 8.730402
_cell_length_c 10.192896
_cell_angle_alpha 90.000000
_cell_angle_beta 89.864521
_cell_angle_gamma 90.000000
_cell_volume 1257.307905
_symmetry_space_group_name_H-M "P 21/M"
_symmetry_group_IT_number 11
_symmetry_cell_setting 'monoclinic'
loop_
_space_group_symop_operation_xyz
x,y,z
-x,1/2+y,-z
-x,-y,-z
x,1/2-y,z
loop_
_atom_site_type_symbol
_atom_site_label
_atom_site_fract_x
_atom_site_fract_y
_atom_site_fract_z
Si Si1 0.054432 0.432077 0.122698
Si Si2 0.445782 0.568426 0.621216
Si Si3 0.455350 0.568962 0.130029
Si Si4 0.052764 0.930491 0.620580
Si Si5 0.248209 0.930269 0.515305
Si Si6 0.753717 0.068199 0.782763
O O1 0.056798 0.250000 0.112783
O O2 0.161656 0.493233 0.133704
O O3 0.993505 0.492279 0.246342
O O4 0.000000 0.500000 0.000000
O O5 0.500000 0.500000 0.500000
O O6 0.458665 0.750000 0.628025
O O7 0.481564 0.492966 0.752833
O O8 0.338021 0.516962 0.598480
O O9 0.463570 0.750000 0.125441
O O10 0.345680 0.520154 0.149559
O O11 0.500000 0.500000 0.000000
O O12 0.044073 0.750000 0.614096
O O13 0.161061 0.984926 0.605485
O O14 0.000000 0.000000 0.500000
O O15 0.249630 0.750000 0.495468
O O16 0.245096 0.998022 0.366741
O O17 0.767150 0.250000 0.785449
#
# Coordination Sequence:
#
# PCOD8074764 Si02
#       6
#     4   4   4   4   4   4
#     4  11  24  39  59  90 123 159 201 247 299 358
#     4  11  21  37  61  90 121 159 204 251 301 360
#     4  11  24  42  62  90 123 161 204 252 311 370
#     4  10  20  36  59  86 114 147 194 242 289 346
#     4   9  18  35  60  87 117 155 196 241 298 356
#     4  10  20  39  64  85 116 161 200 242 304 367
#
# _framework density 19.088401000000001
#
# number of rings (size 3 to 8) (size 9 to 14) (size 15 to 20)
#    0.000    1.667    3.333    1.500    0.000    3.333 
#    0.000    5.000    0.000    0.000    0.000    0.000 
#    0.000    0.000    0.000    0.000    0.000    0.000 
#
# Total GULP energy -297562.383972 kJ/mol
# GULP energy per Si atom -12398.432665 kJ/mol
# Density = 1.904496 g / cm^3
# Si number density = 19.088401 Si / 1000 Ang^3
#
#
#
# Elastic Constant Matrix: (Units=GPa)
#
#
# Indices 1 2 3 4 5 6 
#
# 1 195.9513 49.2229 97.4918 0.0000 7.3938 0.0000
# 2 49.2229 48.9454 41.6464 0.0000 0.9640 0.0000
# 3 97.4918 41.6464 169.9623 0.0000 5.4859 0.0000
# 4 0.0000 0.0000 0.0000 34.1088 0.0000 3.9659
# 5 7.3938 0.9640 5.4859 0.0000 38.2904 0.0000
# 6 0.0000 0.0000 0.0000 3.9659 0.0000 30.4436
#
#
#
# Elastic Compliance Matrix: (Units=1/GPa)
#
#
# Indices 1 2 3 4 5 6 
#
# 1 0.008135 -0.005329 -0.003329 0.000000 -0.000960 0.000000
# 2 -0.005329 0.029306 -0.004153 0.000000 0.000886 0.000000
# 3 -0.003329 -0.004153 0.008828 0.000000 -0.000517 0.000000
# 4 0.000000 0.000000 0.000000 0.029769 0.000000 -0.003878
# 5 -0.000960 0.000886 -0.000517 0.000000 0.026353 0.000000
# 6 0.000000 0.000000 0.000000 -0.003878 0.000000 0.033353
#
#
# Mechanical properties :
#
#
# Convention : Reuss Voigt Hill
#
# Bulk Modulus (GPa) = 48.43512 87.95346 68.19429
# Shear Modulus (GPa) = 29.71808 35.66843 32.69325
#
# Velocity S-wave (km/s) = 3.94999 4.32741 4.14300
# Velocity P-wave (km/s) = 6.79945 8.43478 7.66088
#
# Compressibility (1/GPa) = 0.02064617
#
# Stress axis : x y z
#
# Youngs Moduli (GPa) = 122.93170 34.12246 113.28019
#
# Poissons Ratio (x) = 0.18184 0.37715
# Poissons Ratio (y) = 0.65510 0.47044
# Poissons Ratio (z) = 0.40928 0.14171
#
# Static dielectric constant tensor:
#      x y z
#    x 3.750460 0.000000 -0.102040 
#    y 0.000000 3.400110 0.000000 
#    z -0.102040 0.000000 3.482190 
# 
# 
# High freq. dielectric constant tensor:
#      x y z
#    x 1.762480 0.000000 -0.000850 
#    y 0.000000 1.730340 0.000000 
#    z -0.000850 0.000000 1.745600 
# 
# From -- ./inp_files/20316.got.cif
#   From: 2010.06.25/outbox.cif.g09.slc.cpg/sg11_11_cif.got.tgz:20316.got - 2010.06.27 23:14:04.
