data_PCOD8074993
_publ_section_title
;
Structure prediction by ZEFSAII (Michael W. Deem and Ramdas Pophale) SiO2 
 PCOD8074993
Probable space group: P 21/M
;
_chemical_formula_sum "Si O2"
_cell_formula_units_Z 32
_cell_length_a 16.180293
_cell_length_b 8.492827
_cell_length_c 24.573200
_cell_angle_alpha 90.000000
_cell_angle_beta 150.992134
_cell_angle_gamma 90.000000
_cell_volume 1637.491859
_symmetry_space_group_name_H-M "P 21/M"
_symmetry_group_IT_number 11
_symmetry_cell_setting 'monoclinic'
loop_
_space_group_symop_operation_xyz
x,y,z
-x,1/2+y,-z
-x,-y,-z
x,1/2-y,z
loop_
_atom_site_type_symbol
_atom_site_label
_atom_site_fract_x
_atom_site_fract_y
_atom_site_fract_z
Si Si1 0.921583 0.936309 0.634308
Si Si2 0.352357 0.565178 0.600904
Si Si3 0.739912 0.565148 0.844674
Si Si4 0.568029 0.071010 0.985138
Si Si5 0.815431 0.934173 0.391596
Si Si6 0.932889 0.062668 0.167304
Si Si7 0.035820 0.563546 0.936414
Si Si8 0.743197 0.070678 0.241408
O O1 0.895435 0.750000 0.614899
O O2 0.948808 0.990366 0.713194
O O3 0.086414 0.986003 0.692578
O O4 0.749929 0.020862 0.513354
O O5 0.328703 0.750000 0.598911
O O6 0.552376 0.519200 0.714616
O O7 0.276707 0.457541 0.604508
O O8 0.756199 0.750000 0.860759
O O9 0.872562 0.501136 0.875900
O O10 0.790257 0.492729 0.932813
O O11 0.613730 0.250000 0.021028
O O12 0.414686 0.046389 0.856141
O O13 0.744304 0.990756 0.068102
O O14 0.500000 0.000000 0.000000
O O15 0.808809 0.750000 0.371363
O O16 0.745551 0.054119 0.306957
O O17 0.000000 0.000000 0.500000
O O18 0.932240 0.250000 0.165134
O O19 0.986678 0.997615 0.138503
O O20 0.043650 0.750000 0.938756
O O21 0.702376 0.250000 0.200746
#
# Coordination Sequence:
#
# PCOD8074993 Si02
#       8
#     4   4   4   4   4   4   4   4
#     4  10  20  37  57  77 110 152 193 232 275 331
#     4  11  23  38  56  82 116 150 188 232 282 338
#     4   9  20  38  59  86 116 143 177 230 288 337
#     4  11  21  35  53  79 113 151 194 235 281 335
#     4  12  24  38  56  80 110 148 192 233 278 333
#     4   9  19  36  57  82 109 144 190 235 277 331
#     4   9  18  37  64  86 109 144 183 228 285 342
#     4  11  22  37  54  77 112 151 189 235 283 331
#
# _framework density 19.542081
#
# number of rings (size 3 to 8) (size 9 to 14) (size 15 to 20)
#    0.000    1.750    2.500    2.250    1.750    1.500 
#    0.000    1.875    0.000    0.000    0.000    0.000 
#    0.000    0.000    0.000    0.000    0.000    0.000 
#
# Total GULP energy -396418.225042 kJ/mol
# GULP energy per Si atom -12388.069533 kJ/mol
# Density = 1.949760 g / cm^3
# Si number density = 19.542081 Si / 1000 Ang^3
#
#
#
# Elastic Constant Matrix: (Units=GPa)
#
#
# Indices 1 2 3 4 5 6 
#
# 1 121.7415 19.0943 66.0774 0.0000 -19.2094 0.0000
# 2 19.0943 43.4396 19.9153 0.0000 2.4998 0.0000
# 3 66.0774 19.9153 153.3208 0.0000 -11.1760 0.0000
# 4 0.0000 0.0000 0.0000 31.2365 0.0000 -3.5085
# 5 -19.2094 2.4998 -11.1760 0.0000 36.0734 0.0000
# 6 0.0000 0.0000 0.0000 -3.5085 0.0000 22.5916
#
#
#
# Elastic Compliance Matrix: (Units=1/GPa)
#
#
# Indices 1 2 3 4 5 6 
#
# 1 0.011940 -0.003582 -0.004296 0.000000 0.005276 0.000000
# 2 -0.003582 0.025821 -0.002128 0.000000 -0.004356 0.000000
# 3 -0.004296 -0.002128 0.008690 0.000000 0.000552 0.000000
# 4 0.000000 0.000000 0.000000 0.032582 0.000000 0.005060
# 5 0.005276 -0.004356 0.000552 0.000000 0.031003 0.000000
# 6 0.000000 0.000000 0.000000 0.005060 0.000000 0.045050
#
#
# Mechanical properties :
#
#
# Convention : Reuss Voigt Hill
#
# Bulk Modulus (GPa) = 37.82197 58.74177 48.28187
# Shear Modulus (GPa) = 27.18678 32.20797 29.69737
#
# Velocity S-wave (km/s) = 3.73391 4.06413 3.90251
# Velocity P-wave (km/s) = 6.16325 7.22130 6.71315
#
# Compressibility (1/GPa) = 0.02643966
#
# Stress axis : x y z
#
# Youngs Moduli (GPa) = 83.75082 38.72775 115.07008
#
# Poissons Ratio (x) = 0.13874 0.49434
# Poissons Ratio (y) = 0.30003 0.24482
# Poissons Ratio (z) = 0.35980 0.08240
#
# Static dielectric constant tensor:
#      x y z
#    x 3.700590 0.000000 -0.134270 
#    y 0.000000 3.393030 0.000000 
#    z -0.134270 0.000000 3.524040 
# 
# 
# High freq. dielectric constant tensor:
#      x y z
#    x 1.752680 0.000000 -0.014490 
#    y 0.000000 1.744040 0.000000 
#    z -0.014490 0.000000 1.772160 
# 
# From -- ./inp_files/69109.got.cif
#   From: 2010.06.25/outbox.cif.g09.slc.cpg/sg11_35_cif.got.tgz:69109.got - 2010.06.27 23:14:04.
