data_PCOD8074247
_publ_section_title
;
Structure prediction by ZEFSAII (Michael W. Deem and Ramdas Pophale) SiO2 
 PCOD8074247
Probable space group: P 21/M
;
_chemical_formula_sum "Si O2"
_cell_formula_units_Z 28
_cell_length_a 18.408965
_cell_length_b 9.165289
_cell_length_c 20.706678
_cell_angle_alpha 90.000000
_cell_angle_beta 22.351665
_cell_angle_gamma 90.000000
_cell_volume 1328.621272
_symmetry_space_group_name_H-M "P 21/M"
_symmetry_group_IT_number 11
_symmetry_cell_setting 'monoclinic'
loop_
_space_group_symop_operation_xyz
x,y,z
-x,1/2+y,-z
-x,-y,-z
x,1/2-y,z
loop_
_atom_site_type_symbol
_atom_site_label
_atom_site_fract_x
_atom_site_fract_y
_atom_site_fract_z
Si Si1 0.827071 0.418995 0.676248
Si Si2 0.681805 0.090697 0.337578
Si Si3 0.578762 0.091567 0.275658
Si Si4 0.509658 0.579054 0.138933
Si Si5 0.725617 0.421474 0.539281
Si Si6 0.130223 0.922675 0.210784
Si Si7 0.022271 0.579498 0.049996
O O1 0.870422 0.250000 0.629841
O O2 0.625477 0.462135 0.810203
O O3 0.812133 0.460495 0.763387
O O4 0.000000 0.500000 0.500000
O O5 0.677505 0.250000 0.373830
O O6 0.679678 0.106825 0.262143
O O7 0.500000 0.000000 0.500000
O O8 0.856180 0.001547 0.227049
O O9 0.495176 0.250000 0.323100
O O10 0.415072 0.970073 0.403536
O O11 0.777751 0.052338 0.074746
O O12 0.559587 0.750000 0.099778
O O13 0.390477 0.532663 0.300772
O O14 0.707221 0.489706 0.969729
O O15 0.765793 0.250000 0.503651
O O16 0.924123 0.505447 0.367928
O O17 0.116384 0.750000 0.209588
O O18 0.974097 0.750000 0.082532
O O19 0.000000 0.500000 0.000000
#
# Coordination Sequence:
#
# PCOD8074247 Si02
#       7
#     4   4   4   4   4   4   4
#     4  10  20  36  60  88 118 153 195 246 302 353
#     4  10  20  35  57  86 117 148 185 235 287 339
#     4   9  20  38  58  82 114 151 189 231 284 343
#     4  10  22  40  60  86 119 155 198 248 300 352
#     4  11  23  40  62  85 118 161 200 246 297 352
#     4  11  23  38  61  90 118 156 200 246 300 358
#     4   9  17  32  55  80 107 141 179 225 276 329
#
# _framework density 21.074479
#
# number of rings (size 3 to 8) (size 9 to 14) (size 15 to 20)
#    0.000    2.000    1.429    3.000    0.000    5.714 
#    2.571    0.000    0.000    0.000    0.000    0.000 
#    0.000    0.000    0.000    0.000    0.000    0.000 
#
# Total GULP energy -346898.688444 kJ/mol
# GULP energy per Si atom -12389.238873 kJ/mol
# Density = 2.102651 g / cm^3
# Si number density = 21.074479 Si / 1000 Ang^3
#
#
#
# Elastic Constant Matrix: (Units=GPa)
#
#
# Indices 1 2 3 4 5 6 
#
# 1 29.3330 18.4283 14.1893 0.0000 -19.7031 0.0000
# 2 18.4283 131.4487 76.4507 0.0000 -18.0401 0.0000
# 3 14.1893 76.4507 156.1144 0.0000 -25.9375 0.0000
# 4 0.0000 0.0000 0.0000 46.8513 0.0000 -5.2749
# 5 -19.7031 -18.0401 -25.9375 0.0000 29.8727 0.0000
# 6 0.0000 0.0000 0.0000 -5.2749 0.0000 23.6276
#
#
#
# Elastic Compliance Matrix: (Units=1/GPa)
#
#
# Indices 1 2 3 4 5 6 
#
# 1 0.064065 -0.005419 0.003865 0.000000 0.042339 0.000000
# 2 -0.005419 0.011223 -0.005225 0.000000 -0.001333 0.000000
# 3 0.003865 -0.005225 0.009947 0.000000 0.008031 0.000000
# 4 0.000000 0.000000 0.000000 0.021894 0.000000 0.004888
# 5 0.042339 -0.001333 0.008031 0.000000 0.067569 0.000000
# 6 0.000000 0.000000 0.000000 0.004888 0.000000 0.043415
#
#
# Mechanical properties :
#
#
# Convention : Reuss Voigt Hill
#
# Bulk Modulus (GPa) = 13.95123 59.44808 36.69966
# Shear Modulus (GPa) = 19.56456 33.92550 26.74503
#
# Velocity S-wave (km/s) = 3.05019 4.01657 3.56627
# Velocity P-wave (km/s) = 4.36340 7.05551 5.86598
#
# Compressibility (1/GPa) = 0.07167827
#
# Stress axis : x y z
#
# Youngs Moduli (GPa) = 15.60905 89.10146 100.52982
#
# Poissons Ratio (x) = 0.48283 -0.38857
# Poissons Ratio (y) = 0.08458 0.52528
# Poissons Ratio (z) = -0.06033 0.46556
#
# Static dielectric constant tensor:
#      x y z
#    x 3.395810 0.000000 -0.393490 
#    y 0.000000 3.756000 0.000000 
#    z -0.393490 0.000000 3.804400 
# 
# 
# High freq. dielectric constant tensor:
#      x y z
#    x 1.800530 0.000000 -0.014390 
#    y 0.000000 1.831660 0.000000 
#    z -0.014390 0.000000 1.844650 
# 
# From -- ./inp_files/69765.got.cif
#   From: 2010.06.25/outbox.cif.g09.slc.cpg/sg11_35_cif.got.tgz:69765.got - 2010.06.27 23:14:04.
