data_PCOD8074802
_publ_section_title
;
Structure prediction by ZEFSAII (Michael W. Deem and Ramdas Pophale) SiO2 
 PCOD8074802
Probable space group: P 21/M
;
_chemical_formula_sum "Si O2"
_cell_formula_units_Z 32
_cell_length_a 8.706550
_cell_length_b 14.599771
_cell_length_c 12.070406
_cell_angle_alpha 90.000000
_cell_angle_beta 98.710701
_cell_angle_gamma 90.000000
_cell_volume 1516.615844
_symmetry_space_group_name_H-M "P 21/M"
_symmetry_group_IT_number 11
_symmetry_cell_setting 'monoclinic'
loop_
_space_group_symop_operation_xyz
x,y,z
-x,1/2+y,-z
-x,-y,-z
x,1/2-y,z
loop_
_atom_site_type_symbol
_atom_site_label
_atom_site_fract_x
_atom_site_fract_y
_atom_site_fract_z
Si Si1 0.348823 0.056088 0.511516
Si Si2 0.279631 0.142751 0.111168
Si Si3 0.941680 0.149387 0.650153
Si Si4 0.693275 0.649140 0.283226
Si Si5 0.346282 0.025993 0.920437
Si Si6 0.641788 0.350344 0.189728
Si Si7 0.843956 0.098452 0.403272
Si Si8 0.138809 0.047902 0.298741
O O1 0.384905 0.136168 0.603484
O O2 0.275535 0.091716 0.389261
O O3 0.500000 0.000000 0.500000
O O4 0.214697 0.997907 0.557399
O O5 0.235068 0.250000 0.095961
O O6 0.456986 0.130589 0.170629
O O7 0.163602 0.089962 0.180690
O O8 0.245971 0.091937 0.989532
O O9 0.890119 0.250000 0.691883
O O10 0.908109 0.154967 0.514501
O O11 0.122695 0.134823 0.691821
O O12 0.851408 0.064351 0.698884
O O13 0.649538 0.750000 0.237507
O O14 0.615855 0.578987 0.189055
O O15 0.270591 0.928228 0.875071
O O16 0.500000 0.000000 0.000000
O O17 0.674963 0.250000 0.141644
O O18 0.703077 0.351337 0.323385
O O19 0.975388 0.081736 0.326623
#
# Coordination Sequence:
#
# PCOD8074802 Si02
#       8
#     4   4   4   4   4   4   4   4
#     4  11  21  36  62  90 129 162 200 255 314 368
#     4  10  23  40  61  91 122 163 214 262 307 371
#     4  10  20  36  59  89 126 165 204 244 307 378
#     4  11  21  39  65  94 122 161 208 256 311 373
#     4  10  21  40  65  84 120 162 209 260 312 358
#     4  10  20  37  63  90 118 159 210 257 313 366
#     4  11  19  38  60  89 127 169 205 247 311 378
#     4  11  21  37  60  91 128 165 207 252 310 373
#
# _framework density 21.099608
#
# number of rings (size 3 to 8) (size 9 to 14) (size 15 to 20)
#    0.000    1.500    3.750    2.250    1.750    2.000 
#    0.000    6.250    0.000    1.500    0.000    0.000 
#    0.000    0.000    0.000    0.000    0.000    0.000 
#
# Total GULP energy -396549.475696 kJ/mol
# GULP energy per Si atom -12392.171116 kJ/mol
# Density = 2.105158 g / cm^3
# Si number density = 21.099608 Si / 1000 Ang^3
#
#
#
# Elastic Constant Matrix: (Units=GPa)
#
#
# Indices 1 2 3 4 5 6 
#
# 1 42.9859 12.6597 12.5364 0.0000 -1.7108 0.0000
# 2 12.6597 164.2726 55.6404 0.0000 -10.1062 0.0000
# 3 12.5364 55.6404 88.2337 0.0000 -3.2002 0.0000
# 4 0.0000 0.0000 0.0000 24.4270 0.0000 -1.7141
# 5 -1.7108 -10.1062 -3.2002 0.0000 37.1300 0.0000
# 6 0.0000 0.0000 0.0000 -1.7141 0.0000 23.7633
#
#
#
# Elastic Compliance Matrix: (Units=1/GPa)
#
#
# Indices 1 2 3 4 5 6 
#
# 1 0.024388 -0.000857 -0.002901 0.000000 0.000640 0.000000
# 2 -0.000857 0.007878 -0.004785 0.000000 0.001692 0.000000
# 3 -0.002901 -0.004785 0.014757 0.000000 -0.000164 0.000000
# 4 0.000000 0.000000 0.000000 0.041147 0.000000 0.002968
# 5 0.000640 0.001692 -0.000164 0.000000 0.027408 0.000000
# 6 0.000000 0.000000 0.000000 0.002968 0.000000 0.042296
#
#
# Mechanical properties :
#
#
# Convention : Reuss Voigt Hill
#
# Bulk Modulus (GPa) = 33.40444 50.79614 42.10029
# Shear Modulus (GPa) = 27.03591 31.37446 29.20518
#
# Velocity S-wave (km/s) = 3.58347 3.86031 3.72446
# Velocity P-wave (km/s) = 5.74351 6.63295 6.20419
#
# Compressibility (1/GPa) = 0.02993614
#
# Stress axis : x y z
#
# Youngs Moduli (GPa) = 41.00461 126.93066 67.76378
#
# Poissons Ratio (x) = 0.10883 0.19659
# Poissons Ratio (y) = 0.03516 0.32424
# Poissons Ratio (z) = 0.11896 0.60735
#
# Static dielectric constant tensor:
#      x y z
#    x 3.641740 0.000000 0.261690 
#    y 0.000000 4.231730 0.000000 
#    z 0.261690 0.000000 4.096160 
# 
# 
# High freq. dielectric constant tensor:
#      x y z
#    x 1.796400 0.000000 0.022830 
#    y 0.000000 1.836640 0.000000 
#    z 0.022830 0.000000 1.822710 
# 
# From -- ./inp_files/31864.got.cif
#   From: 2010.06.25/outbox.cif.g09.slc.cpg/sg11_16_cif.got.tgz:31864.got - 2010.06.27 23:14:04.
