data_PCOD8074890
_publ_section_title
;
Structure prediction by ZEFSAII (Michael W. Deem and Ramdas Pophale) SiO2 
 PCOD8074890
Probable space group: P 21/M
;
_chemical_formula_sum "Si O2"
_cell_formula_units_Z 20
_cell_length_a 21.857986
_cell_length_b 8.737402
_cell_length_c 13.580366
_cell_angle_alpha 90.000000
_cell_angle_beta 158.870696
_cell_angle_gamma 90.000000
_cell_volume 934.927182
_symmetry_space_group_name_H-M "P 21/M"
_symmetry_group_IT_number 11
_symmetry_cell_setting 'monoclinic'
loop_
_space_group_symop_operation_xyz
x,y,z
-x,1/2+y,-z
-x,-y,-z
x,1/2-y,z
loop_
_atom_site_type_symbol
_atom_site_label
_atom_site_fract_x
_atom_site_fract_y
_atom_site_fract_z
Si Si1 0.339965 0.926217 0.313192
Si Si2 0.099018 0.923404 0.779493
Si Si3 0.253734 0.076211 0.829797
Si Si4 0.186659 0.567845 0.286125
Si Si5 0.555464 0.571498 0.185872
O O1 0.385989 0.750000 0.390574
O O2 0.298750 0.990106 0.360400
O O3 0.500000 0.000000 0.500000
O O4 0.169520 0.954808 0.993977
O O5 0.140726 0.750000 0.807261
O O6 0.895944 0.947626 0.475182
O O7 0.184321 0.043897 0.834204
O O8 0.323473 0.250000 0.930869
O O9 0.403816 0.958429 0.034542
O O10 0.174278 0.750000 0.268916
O O11 0.274399 0.507153 0.517366
O O12 0.000000 0.500000 0.000000
O O13 0.590187 0.750000 0.224727
O O14 0.500000 0.500000 0.000000
#
# Coordination Sequence:
#
# PCOD8074890 Si02
#       5
#     4   4   4   4   4
#     4  10  22  39  62  91 126 168 216 266 321 383
#     4   9  19  36  59  88 124 165 206 259 321 381
#     4  10  20  36  60  91 126 162 209 266 320 383
#     4  11  25  45  68  99 135 176 221 273 330 395
#     4  12  26  44  66  92 126 169 217 271 327 392
#
# _framework density 21.392039
#
# number of rings (size 3 to 8) (size 9 to 14) (size 15 to 20)
#    0.000    1.600    0.000    4.200    2.800    6.400 
#    0.000    0.000    0.000    0.000    0.000    0.000 
#    0.000    0.000    0.000    0.000    0.000    0.000 
#
# Total GULP energy -248034.229923 kJ/mol
# GULP energy per Si atom -12401.711496 kJ/mol
# Density = 2.134335 g / cm^3
# Si number density = 21.392039 Si / 1000 Ang^3
#
#
#
# Elastic Constant Matrix: (Units=GPa)
#
#
# Indices 1 2 3 4 5 6 
#
# 1 89.3414 43.1894 53.8425 0.0000 -9.8543 0.0000
# 2 43.1894 101.6316 52.7234 0.0000 -2.4731 0.0000
# 3 53.8425 52.7234 144.5844 0.0000 -13.2465 0.0000
# 4 0.0000 0.0000 0.0000 37.5949 0.0000 3.1470
# 5 -9.8543 -2.4731 -13.2465 0.0000 38.8735 0.0000
# 6 0.0000 0.0000 0.0000 3.1470 0.0000 33.0618
#
#
#
# Elastic Compliance Matrix: (Units=1/GPa)
#
#
# Indices 1 2 3 4 5 6 
#
# 1 0.016201 -0.004700 -0.004098 0.000000 0.002411 0.000000
# 2 -0.004700 0.013520 -0.003314 0.000000 -0.001461 0.000000
# 3 -0.004098 -0.003314 0.009844 0.000000 0.002105 0.000000
# 4 0.000000 0.000000 0.000000 0.026813 0.000000 -0.002552
# 5 0.002411 -0.001461 0.002105 0.000000 0.026960 0.000000
# 6 0.000000 0.000000 0.000000 -0.002552 0.000000 0.030489
#
#
# Mechanical properties :
#
#
# Convention : Reuss Voigt Hill
#
# Bulk Modulus (GPa) = 65.18570 70.56310 67.87440
# Shear Modulus (GPa) = 32.64445 34.29282 33.46864
#
# Velocity S-wave (km/s) = 3.91065 4.00817 3.95971
# Velocity P-wave (km/s) = 7.13646 7.38091 7.25972
#
# Compressibility (1/GPa) = 0.01534079
#
# Stress axis : x y z
#
# Youngs Moduli (GPa) = 61.72469 73.96266 101.58666
#
# Poissons Ratio (x) = 0.34762 0.41634
# Poissons Ratio (y) = 0.29010 0.33664
# Poissons Ratio (z) = 0.25297 0.24510
#
# Static dielectric constant tensor:
#      x y z
#    x 3.877070 0.000000 -0.158500 
#    y 0.000000 3.893380 0.000000 
#    z -0.158500 0.000000 4.207060 
# 
# 
# High freq. dielectric constant tensor:
#      x y z
#    x 1.832000 0.000000 -0.008660 
#    y 0.000000 1.835990 0.000000 
#    z -0.008660 0.000000 1.858010 
# 
# From -- ./inp_files/55477.got.cif
#   From: 2010.06.25/outbox.cif.g09.slc.cpg/sg11_28_cif.got.tgz:55477.got - 2010.06.27 23:14:04.
