data_PCOD8074992
_publ_section_title
;
Structure prediction by ZEFSAII (Michael W. Deem and Ramdas Pophale) SiO2 
 PCOD8074992
Probable space group: P 21/M
;
_chemical_formula_sum "Si O2"
_cell_formula_units_Z 28
_cell_length_a 9.599218
_cell_length_b 8.867054
_cell_length_c 26.512466
_cell_angle_alpha 90.000000
_cell_angle_beta 38.949690
_cell_angle_gamma 90.000000
_cell_volume 1418.619070
_symmetry_space_group_name_H-M "P 21/M"
_symmetry_group_IT_number 11
_symmetry_cell_setting 'monoclinic'
loop_
_space_group_symop_operation_xyz
x,y,z
-x,1/2+y,-z
-x,-y,-z
x,1/2-y,z
loop_
_atom_site_type_symbol
_atom_site_label
_atom_site_fract_x
_atom_site_fract_y
_atom_site_fract_z
Si Si1 0.179873 0.925790 0.726486
Si Si2 0.715217 0.070957 0.415262
Si Si3 0.352542 0.921716 0.000401
Si Si4 0.434687 0.573013 0.751421
Si Si5 0.834916 0.073082 0.686355
Si Si6 0.280611 0.421036 0.181605
Si Si7 0.044474 0.925171 0.934026
O O1 0.218079 0.750000 0.721066
O O2 0.275139 0.982216 0.645901
O O3 0.308540 0.997721 0.737964
O O4 0.916311 0.963413 0.802479
O O5 0.708815 0.250000 0.421943
O O6 0.500000 0.000000 0.500000
O O7 0.928995 0.009441 0.385050
O O8 0.306619 0.750000 0.028998
O O9 0.480743 0.930395 0.911122
O O10 0.500000 0.000000 0.000000
O O11 0.122856 0.008843 0.060326
O O12 0.481457 0.750000 0.731985
O O13 0.668232 0.486950 0.690226
O O14 0.289333 0.544856 0.843020
O O15 0.870582 0.250000 0.669853
O O16 0.722812 0.036858 0.771564
O O17 0.236639 0.250000 0.214340
O O18 0.997328 0.750000 0.953679
O O19 0.000000 0.000000 0.000000
#
# Coordination Sequence:
#
# PCOD8074992 Si02
#       7
#     4   4   4   4   4   4   4
#     4   8  16  33  58  81 103 137 182 225 267 318
#     4  10  20  38  63  89 115 143 176 217 266 326
#     4  11  22  35  53  77 107 143 187 238 290 339
#     4  10  20  37  57  77 106 147 188 227 274 329
#     4  11  22  35  55  84 112 141 179 223 268 321
#     4   9  18  35  55  75 102 142 187 229 276 333
#     4  11  23  37  54  77 109 149 193 239 289 340
#
# _framework density 19.737503
#
# number of rings (size 3 to 8) (size 9 to 14) (size 15 to 20)
#    0.000    2.000    0.000    5.143    0.000    8.000 
#    0.000    4.286    0.000    0.000    0.000    0.000 
#    0.000    0.000    0.000    0.000    0.000    0.000 
#
# Total GULP energy -347176.483406 kJ/mol
# GULP energy per Si atom -12399.160122 kJ/mol
# Density = 1.969258 g / cm^3
# Si number density = 19.737503 Si / 1000 Ang^3
#
#
#
# Elastic Constant Matrix: (Units=GPa)
#
#
# Indices 1 2 3 4 5 6 
#
# 1 106.2714 33.9386 18.6624 0.0000 -16.5090 0.0000
# 2 33.9386 101.0970 39.3569 0.0000 -11.6760 0.0000
# 3 18.6624 39.3569 67.0940 0.0000 -16.3120 0.0000
# 4 0.0000 0.0000 0.0000 29.4042 0.0000 -4.2648
# 5 -16.5090 -11.6760 -16.3120 0.0000 27.8125 0.0000
# 6 0.0000 0.0000 0.0000 -4.2648 0.0000 31.8945
#
#
#
# Elastic Compliance Matrix: (Units=1/GPa)
#
#
# Indices 1 2 3 4 5 6 
#
# 1 0.011250 -0.003171 0.000036 0.000000 0.005368 0.000000
# 2 -0.003171 0.013743 -0.007271 0.000000 -0.000377 0.000000
# 3 0.000036 -0.007271 0.021487 0.000000 0.009570 0.000000
# 4 0.000000 0.000000 0.000000 0.034681 0.000000 0.004637
# 5 0.005368 -0.000377 0.009570 0.000000 0.044596 0.000000
# 6 0.000000 0.000000 0.000000 0.004637 0.000000 0.031973
#
#
# Mechanical properties :
#
#
# Convention : Reuss Voigt Hill
#
# Bulk Modulus (GPa) = 38.96052 50.93091 44.94571
# Shear Modulus (GPa) = 26.72384 29.98920 28.35652
#
# Velocity S-wave (km/s) = 3.68362 3.90218 3.79447
# Velocity P-wave (km/s) = 6.15420 6.79432 6.48217
#
# Compressibility (1/GPa) = 0.02566701
#
# Stress axis : x y z
#
# Youngs Moduli (GPa) = 88.88868 72.76405 46.54050
#
# Poissons Ratio (x) = 0.23071 -0.00166
# Poissons Ratio (y) = 0.28183 0.33841
# Poissons Ratio (z) = -0.00317 0.52909
#
# Static dielectric constant tensor:
#      x y z
#    x 3.856280 0.000000 -0.137290 
#    y 0.000000 3.347190 0.000000 
#    z -0.137290 0.000000 3.580180 
# 
# 
# High freq. dielectric constant tensor:
#      x y z
#    x 1.780530 0.000000 -0.013700 
#    y 0.000000 1.756150 0.000000 
#    z -0.013700 0.000000 1.753390 
# 
# From -- ./inp_files/29121.got.cif
#   From: 2010.06.25/outbox.cif.g09.slc.cpg/sg11_15_cif.got.tgz:29121.got - 2010.06.27 23:14:04.
