data_PCOD8074551
_publ_section_title
;
Structure prediction by ZEFSAII (Michael W. Deem and Ramdas Pophale) SiO2 
 PCOD8074551
Probable space group: P 21/M
;
_chemical_formula_sum "Si O2"
_cell_formula_units_Z 28
_cell_length_a 25.324844
_cell_length_b 9.247860
_cell_length_c 8.947109
_cell_angle_alpha 90.000000
_cell_angle_beta 44.721819
_cell_angle_gamma 90.000000
_cell_volume 1474.473289
_symmetry_space_group_name_H-M "P 21/M"
_symmetry_group_IT_number 11
_symmetry_cell_setting 'monoclinic'
loop_
_space_group_symop_operation_xyz
x,y,z
-x,1/2+y,-z
-x,-y,-z
x,1/2-y,z
loop_
_atom_site_type_symbol
_atom_site_label
_atom_site_fract_x
_atom_site_fract_y
_atom_site_fract_z
Si Si1 0.845565 0.919823 0.969339
Si Si2 0.281696 0.580949 0.606513
Si Si3 0.581435 0.080197 0.173873
Si Si4 0.727578 0.421371 0.712585
Si Si5 0.870334 0.420791 0.613828
Si Si6 0.009641 0.082985 0.133171
Si Si7 0.435289 0.916210 0.451964
O O1 0.834229 0.750000 0.966398
O O2 0.768596 0.989745 0.179421
O O3 0.909188 0.952337 0.963407
O O4 0.870464 0.992474 0.766265
O O5 0.261318 0.750000 0.665344
O O6 0.268469 0.523141 0.465510
O O7 0.368141 0.552514 0.473006
O O8 0.574498 0.250000 0.162306
O O9 0.590888 0.039706 0.328880
O O10 0.506695 0.008763 0.256310
O O11 0.653672 0.016206 0.942675
O O12 0.723451 0.250000 0.721242
O O13 0.800993 0.474663 0.652174
O O14 0.865496 0.250000 0.656753
O O15 0.946483 0.465157 0.377622
O O16 0.999531 0.250000 0.115656
O O17 0.000000 0.000000 0.000000
O O18 0.459765 0.750000 0.399542
#
# Coordination Sequence:
#
# PCOD8074551 Si02
#       7
#     4   4   4   4   4   4   4
#     4  11  23  37  54  82 114 140 175 224 271 312
#     4  10  20  36  57  78 104 142 183 220 263 319
#     4   9  17  31  50  73 103 136 172 219 268 311
#     4   9  18  33  55  80 103 134 181 226 261 311
#     4  10  20  37  59  80 105 143 186 219 257 317
#     4  10  22  38  58  84 113 144 179 220 265 315
#     4   9  18  32  51  75 102 136 179 219 258 314
#
# _framework density 18.989832
#
# number of rings (size 3 to 8) (size 9 to 14) (size 15 to 20)
#    0.000    2.286    0.000    2.571    0.000    6.286 
#    0.000    5.000    0.000    0.000    0.000    0.000 
#    0.000    0.000    0.000    0.000    0.000    0.000 
#
# Total GULP energy -347294.541274 kJ/mol
# GULP energy per Si atom -12403.376474 kJ/mol
# Density = 1.894661 g / cm^3
# Si number density = 18.989832 Si / 1000 Ang^3
#
#
#
# Elastic Constant Matrix: (Units=GPa)
#
#
# Indices 1 2 3 4 5 6 
#
# 1 73.9387 35.1785 14.5976 0.0000 5.4454 0.0000
# 2 35.1785 49.2092 30.2457 0.0000 2.1509 0.0000
# 3 14.5976 30.2457 74.0461 0.0000 -2.1529 0.0000
# 4 0.0000 0.0000 0.0000 28.2924 0.0000 0.3541
# 5 5.4454 2.1509 -2.1529 0.0000 34.7342 0.0000
# 6 0.0000 0.0000 0.0000 0.3541 0.0000 27.5093
#
#
#
# Elastic Compliance Matrix: (Units=1/GPa)
#
#
# Indices 1 2 3 4 5 6 
#
# 1 0.021030 -0.016497 0.002531 0.000000 -0.002119 0.000000
# 2 -0.016497 0.040271 -0.013218 0.000000 -0.000727 0.000000
# 3 0.002531 -0.013218 0.018451 0.000000 0.001565 0.000000
# 4 0.000000 0.000000 0.000000 0.035351 0.000000 -0.000455
# 5 -0.002119 -0.000727 0.001565 0.000000 0.029264 0.000000
# 6 0.000000 0.000000 0.000000 -0.000455 0.000000 0.036357
#
#
# Mechanical properties :
#
#
# Convention : Reuss Voigt Hill
#
# Bulk Modulus (GPa) = 39.39601 39.69308 39.54455
# Shear Modulus (GPa) = 20.52935 25.91863 23.22399
#
# Velocity S-wave (km/s) = 3.29153 3.69842 3.50089
# Velocity P-wave (km/s) = 5.93603 6.25983 6.10008
#
# Compressibility (1/GPa) = 0.02538328
#
# Stress axis : x y z
#
# Youngs Moduli (GPa) = 47.55131 24.83186 54.19768
#
# Poissons Ratio (x) = 0.40965 -0.13717
# Poissons Ratio (y) = 0.78445 0.71641
# Poissons Ratio (z) = -0.12035 0.32824
#
# Static dielectric constant tensor:
#      x y z
#    x 3.600350 0.000000 -0.068770 
#    y 0.000000 3.265280 0.000000 
#    z -0.068770 0.000000 3.577170 
# 
# 
# High freq. dielectric constant tensor:
#      x y z
#    x 1.749110 0.000000 -0.004580 
#    y 0.000000 1.714840 0.000000 
#    z -0.004580 0.000000 1.747350 
# 
# From -- ./inp_files/28424.got.cif
#   From: 2010.06.25/outbox.cif.g09.slc.cpg/sg11_15_cif.got.tgz:28424.got - 2010.06.27 23:14:04.
