data_PCOD8074750
_publ_section_title
;
Structure prediction by ZEFSAII (Michael W. Deem and Ramdas Pophale) SiO2 
 PCOD8074750
Probable space group: P 21/M
;
_chemical_formula_sum "Si O2"
_cell_formula_units_Z 32
_cell_length_a 26.732928
_cell_length_b 8.809154
_cell_length_c 10.870797
_cell_angle_alpha 90.000000
_cell_angle_beta 143.023735
_cell_angle_gamma 90.000000
_cell_volume 1539.807011
_symmetry_space_group_name_H-M "P 21/M"
_symmetry_group_IT_number 11
_symmetry_cell_setting 'monoclinic'
loop_
_space_group_symop_operation_xyz
x,y,z
-x,1/2+y,-z
-x,-y,-z
x,1/2-y,z
loop_
_atom_site_type_symbol
_atom_site_label
_atom_site_fract_x
_atom_site_fract_y
_atom_site_fract_z
Si Si1 0.124161 0.075820 0.282708
Si Si2 0.282075 0.923647 0.200336
Si Si3 0.036103 0.925436 0.334893
Si Si4 0.291616 0.077624 0.747737
Si Si5 0.798265 0.421174 0.216676
Si Si6 0.876547 0.427071 0.973604
Si Si7 0.538147 0.072250 0.952893
Si Si8 0.541835 0.571219 0.460935
O O1 0.103772 0.250000 0.211048
O O2 0.220473 0.056152 0.507022
O O3 0.064863 0.021562 0.274225
O O4 0.105217 0.970476 0.130191
O O5 0.312958 0.750000 0.276038
O O6 0.218635 0.974587 0.182996
O O7 0.360938 0.032650 0.352720
O O8 0.225987 0.944274 0.970436
O O9 0.030468 0.750000 0.287576
O O10 0.102916 0.952963 0.575110
O O11 0.944818 0.987102 0.193455
O O12 0.324801 0.250000 0.816427
O O13 0.256274 0.037441 0.812051
O O14 0.364820 0.964424 0.855741
O O15 0.778114 0.250000 0.222611
O O16 0.887741 0.250000 0.019573
O O17 0.522866 0.250000 0.931919
O O18 0.498830 0.010568 0.746749
O O19 0.500000 0.000000 0.000000
O O20 0.500000 0.500000 0.500000
O O21 0.529219 0.750000 0.447091
#
# Coordination Sequence:
#
# PCOD8074750 Si02
#       8
#     4   4   4   4   4   4   4   4
#     4  10  21  37  58  83 116 154 195 243 291 351
#     4  10  23  41  61  87 119 156 197 245 297 353
#     4  10  20  36  59  85 114 153 197 242 294 351
#     4  10  21  37  60  89 117 150 193 243 297 355
#     4   9  19  38  61  85 115 152 198 244 290 350
#     4  11  23  37  55  83 119 156 195 242 296 352
#     4  11  25  42  62  91 126 162 202 253 310 368
#     4  11  25  44  67  94 125 163 208 255 306 371
#
# _framework density 20.781824
#
# number of rings (size 3 to 8) (size 9 to 14) (size 15 to 20)
#    0.000    1.750    0.000    3.375    1.750    9.000 
#    0.000    0.000    0.000    0.000    0.000    0.000 
#    0.000    0.000    0.000    0.000    0.000    0.000 
#
# Total GULP energy -396812.351043 kJ/mol
# GULP energy per Si atom -12400.385970 kJ/mol
# Density = 2.073452 g / cm^3
# Si number density = 20.781824 Si / 1000 Ang^3
#
#
#
# Elastic Constant Matrix: (Units=GPa)
#
#
# Indices 1 2 3 4 5 6 
#
# 1 72.9383 33.5670 45.7295 0.0000 4.3301 0.0000
# 2 33.5670 64.5502 40.0601 0.0000 1.7040 0.0000
# 3 45.7295 40.0601 98.0115 0.0000 9.8964 0.0000
# 4 0.0000 0.0000 0.0000 35.5371 0.0000 6.7462
# 5 4.3301 1.7040 9.8964 0.0000 34.3939 0.0000
# 6 0.0000 0.0000 0.0000 6.7462 0.0000 31.9269
#
#
#
# Elastic Compliance Matrix: (Units=1/GPa)
#
#
# Indices 1 2 3 4 5 6 
#
# 1 0.021275 -0.006583 -0.007208 0.000000 -0.000278 0.000000
# 2 -0.006583 0.022865 -0.006430 0.000000 0.001546 0.000000
# 3 -0.007208 -0.006430 0.016551 0.000000 -0.003536 0.000000
# 4 0.000000 0.000000 0.000000 0.029316 0.000000 -0.006194
# 5 -0.000278 0.001546 -0.003536 0.000000 0.030051 0.000000
# 6 0.000000 0.000000 0.000000 -0.006194 0.000000 0.032630
#
#
# Mechanical properties :
#
#
# Convention : Reuss Voigt Hill
#
# Bulk Modulus (GPa) = 49.38404 52.69036 51.03720
# Shear Modulus (GPa) = 25.01505 28.11445 26.56475
#
# Velocity S-wave (km/s) = 3.47320 3.68209 3.57917
# Velocity P-wave (km/s) = 6.31655 6.59440 6.45697
#
# Compressibility (1/GPa) = 0.02024946
#
# Stress axis : x y z
#
# Youngs Moduli (GPa) = 47.00298 43.73529 60.41893
#
# Poissons Ratio (x) = 0.28791 0.43548
# Poissons Ratio (y) = 0.30942 0.38851
# Poissons Ratio (z) = 0.33878 0.28123
#
# Static dielectric constant tensor:
#      x y z
#    x 3.727180 0.000000 0.097390 
#    y 0.000000 3.787450 0.000000 
#    z 0.097390 0.000000 4.067770 
# 
# 
# High freq. dielectric constant tensor:
#      x y z
#    x 1.807000 0.000000 0.006750 
#    y 0.000000 1.815110 0.000000 
#    z 0.006750 0.000000 1.828480 
# 
# From -- ./inp_files/45353.got.cif
#   From: 2010.06.25/outbox.cif.g09.slc.cpg/sg11_23_cif.got.tgz:45353.got - 2010.06.27 23:14:04.
