data_PCOD8074859
_publ_section_title
;
Structure prediction by ZEFSAII (Michael W. Deem and Ramdas Pophale) SiO2 
 PCOD8074859
Probable space group: P 21/M
;
_chemical_formula_sum "Si O2"
_cell_formula_units_Z 24
_cell_length_a 9.148214
_cell_length_b 14.138867
_cell_length_c 10.009208
_cell_angle_alpha 90.000000
_cell_angle_beta 91.341044
_cell_angle_gamma 90.000000
_cell_volume 1294.290220
_symmetry_space_group_name_H-M "P 21/M"
_symmetry_group_IT_number 11
_symmetry_cell_setting 'monoclinic'
loop_
_space_group_symop_operation_xyz
x,y,z
-x,1/2+y,-z
-x,-y,-z
x,1/2-y,z
loop_
_atom_site_type_symbol
_atom_site_label
_atom_site_fract_x
_atom_site_fract_y
_atom_site_fract_z
Si Si1 0.924570 0.946036 0.620142
Si Si2 0.087204 0.750000 0.694034
Si Si3 0.493921 0.750000 0.932157
Si Si4 0.401103 0.053073 0.098186
Si Si5 0.410557 0.750000 0.627980
Si Si6 0.898580 0.046318 0.890852
Si Si7 0.173782 0.750000 0.008587
Si Si8 0.421364 0.069228 0.400100
O O1 0.753792 0.926375 0.584427
O O2 0.997062 0.844551 0.654614
O O3 0.947178 0.020025 0.742007
O O4 0.000000 0.000000 0.500000
O O5 0.234193 0.750000 0.605202
O O6 0.118373 0.750000 0.853922
O O7 0.601028 0.661307 0.952051
O O8 0.427383 0.750000 0.785193
O O9 0.351168 0.750000 0.024758
O O10 0.461193 0.041761 0.249367
O O11 0.246982 0.007839 0.079024
O O12 0.500000 0.000000 0.000000
O O13 0.495559 0.664790 0.560462
O O14 0.886169 0.158947 0.912433
O O15 0.000000 0.000000 0.000000
O O16 0.500000 0.000000 0.500000
#
# Coordination Sequence:
#
# PCOD8074859 Si02
#       8
#     4   2   2   4   2   4   2   4
#     4  11  24  40  62  94 128 168 208 261 314 378
#     4  11  21  38  66  88 121 169 210 250 324 386
#     4   9  18  34  60  87 118 160 200 248 306 371
#     4  10  20  36  60  88 119 159 206 255 304 365
#     4   9  19  35  60  87 110 159 206 246 293 372
#     4  11  23  38  61  93 127 162 210 262 311 375
#     4  11  20  37  64  90 123 164 208 258 319 373
#     4  10  21  38  59  87 120 157 202 250 302 365
#
# _framework density 18.542981000000001
#
# number of rings (size 3 to 8) (size 9 to 14) (size 15 to 20)
#    0.000    1.667    3.333    1.500    0.000    4.667 
#    0.000    4.167    0.000    2.000    0.000    0.000 
#    0.000    0.000    0.000    0.000    0.000    0.000 
#
# Total GULP energy -297377.549389 kJ/mol
# GULP energy per Si atom -12390.731225 kJ/mol
# Density = 1.850078 g / cm^3
# Si number density = 18.542981 Si / 1000 Ang^3
#
#
#
# Elastic Constant Matrix: (Units=GPa)
#
#
# Indices 1 2 3 4 5 6 
#
# 1 107.1518 80.8937 70.6393 0.0000 0.6535 0.0000
# 2 80.8937 195.8413 80.4981 0.0000 -2.7244 0.0000
# 3 70.6393 80.4981 107.5717 0.0000 -14.4372 0.0000
# 4 0.0000 0.0000 0.0000 32.7489 0.0000 -1.5556
# 5 0.6535 -2.7244 -14.4372 0.0000 31.6452 0.0000
# 6 0.0000 0.0000 0.0000 -1.5556 0.0000 35.0172
#
#
#
# Elastic Compliance Matrix: (Units=1/GPa)
#
#
# Indices 1 2 3 4 5 6 
#
# 1 0.019041 -0.003608 -0.010544 0.000000 -0.005514 0.000000
# 2 -0.003608 0.008180 -0.003885 0.000000 -0.000994 0.000000
# 3 -0.010544 -0.003885 0.020358 0.000000 0.009171 0.000000
# 4 0.000000 0.000000 0.000000 0.030600 0.000000 0.001359
# 5 -0.005514 -0.000994 0.009171 0.000000 0.035813 0.000000
# 6 0.000000 0.000000 0.000000 0.001359 0.000000 0.028618
#
#
# Mechanical properties :
#
#
# Convention : Reuss Voigt Hill
#
# Bulk Modulus (GPa) = 86.91908 97.18078 92.04993
# Shear Modulus (GPa) = 27.39462 31.78453 29.58958
#
# Velocity S-wave (km/s) = 3.84781 4.14466 3.99899
# Velocity P-wave (km/s) = 8.16805 8.68484 8.43041
#
# Compressibility (1/GPa) = 0.01150495
#
# Stress axis : x y z
#
# Youngs Moduli (GPa) = 52.51871 122.25682 49.12022
#
# Poissons Ratio (x) = 0.44107 0.51792
# Poissons Ratio (y) = 0.18947 0.19084
# Poissons Ratio (z) = 0.55375 0.47499
#
# Static dielectric constant tensor:
#      x y z
#    x 3.107320 0.000000 0.131080 
#    y 0.000000 3.541350 0.000000 
#    z 0.131080 0.000000 3.309840 
# 
# 
# High freq. dielectric constant tensor:
#      x y z
#    x 1.730780 0.000000 -0.006170 
#    y 0.000000 1.736270 0.000000 
#    z -0.006170 0.000000 1.708670 
# 
# From -- ./inp_files/17008.got.cif
#   From: 2010.06.25/outbox.cif.g09.slc.cpg/sg11_9_cif.got.tgz:17008.got - 2010.06.27 23:14:04.
