data_PCOD8074752
_publ_section_title
;
Structure prediction by ZEFSAII (Michael W. Deem and Ramdas Pophale) SiO2 
 PCOD8074752
Probable space group: P 21/M
;
_chemical_formula_sum "Si O2"
_cell_formula_units_Z 28
_cell_length_a 9.271711
_cell_length_b 9.190382
_cell_length_c 26.936585
_cell_angle_alpha 90.000000
_cell_angle_beta 39.583268
_cell_angle_gamma 90.000000
_cell_volume 1462.551060
_symmetry_space_group_name_H-M "P 21/M"
_symmetry_group_IT_number 11
_symmetry_cell_setting 'monoclinic'
loop_
_space_group_symop_operation_xyz
x,y,z
-x,1/2+y,-z
-x,-y,-z
x,1/2-y,z
loop_
_atom_site_type_symbol
_atom_site_label
_atom_site_fract_x
_atom_site_fract_y
_atom_site_fract_z
Si Si1 0.227620 0.411581 0.442451
Si Si2 0.490512 0.417380 0.708209
Si Si3 0.033476 0.581182 0.133366
Si Si4 0.332402 0.922008 0.146243
Si Si5 0.851176 0.923470 0.997570
Si Si6 0.714365 0.589217 0.457994
Si Si7 0.815757 0.423146 0.708340
O O1 0.190694 0.250000 0.430217
O O2 0.428049 0.490020 0.360008
O O3 0.295814 0.401638 0.480838
O O4 0.000000 0.500000 0.500000
O O5 0.556472 0.250000 0.681040
O O6 0.612813 0.473962 0.725908
O O7 0.224143 0.438064 0.782398
O O8 0.086453 0.750000 0.106363
O O9 0.191695 0.521815 0.136028
O O10 0.073913 0.479352 0.075781
O O11 0.313242 0.750000 0.153031
O O12 0.591843 0.971320 0.073824
O O13 0.228482 0.987168 0.224844
O O14 0.882085 0.750000 0.992921
O O15 0.000000 0.000000 0.000000
O O16 0.500000 0.500000 0.500000
O O17 0.694850 0.750000 0.439788
O O18 0.946457 0.516086 0.376102
O O19 0.819953 0.250000 0.708617
#
# Coordination Sequence:
#
# PCOD8074752 Si02
#       7
#     4   4   4   4   4   4   4
#     4  11  22  38  58  84 116 151 194 243 291 343
#     4  10  20  36  59  85 115 152 194 238 286 345
#     4  10  21  37  61  90 116 148 191 233 286 351
#     4   9  19  35  58  87 116 149 189 236 285 341
#     4  11  22  38  61  87 119 154 192 237 285 338
#     4  10  22  37  56  81 113 149 191 240 287 343
#     4   9  17  34  55  79 112 147 188 234 280 334
#
# _framework density 19.144628999999998
#
# number of rings (size 3 to 8) (size 9 to 14) (size 15 to 20)
#    0.000    2.000    1.429    2.143    2.000    4.000 
#    0.000    0.714    0.000    2.571    0.000    0.000 
#    0.000    0.000    0.000    0.000    0.000    0.000 
#
# Total GULP energy -347190.937925 kJ/mol
# GULP energy per Si atom -12399.676354 kJ/mol
# Density = 1.910106 g / cm^3
# Si number density = 19.144629 Si / 1000 Ang^3
#
#
#
# Elastic Constant Matrix: (Units=GPa)
#
#
# Indices 1 2 3 4 5 6 
#
# 1 142.9749 48.0619 69.5452 0.0000 -13.6858 0.0000
# 2 48.0619 74.0448 53.6325 0.0000 -1.9998 0.0000
# 3 69.5452 53.6325 130.3157 0.0000 4.3954 0.0000
# 4 0.0000 0.0000 0.0000 31.5968 0.0000 1.1899
# 5 -13.6858 -1.9998 4.3954 0.0000 37.4758 0.0000
# 6 0.0000 0.0000 0.0000 1.1899 0.0000 28.3858
#
#
#
# Elastic Compliance Matrix: (Units=1/GPa)
#
#
# Indices 1 2 3 4 5 6 
#
# 1 0.010772 -0.003718 -0.004362 0.000000 0.004247 0.000000
# 2 -0.003718 0.020669 -0.006540 0.000000 0.000512 0.000000
# 3 -0.004362 -0.006540 0.012809 0.000000 -0.003444 0.000000
# 4 0.000000 0.000000 0.000000 0.031699 0.000000 -0.001329
# 5 0.004247 0.000512 -0.003444 0.000000 0.028666 0.000000
# 6 0.000000 0.000000 0.000000 -0.001329 0.000000 0.035285
#
#
# Mechanical properties :
#
#
# Convention : Reuss Voigt Hill
#
# Bulk Modulus (GPa) = 66.61573 76.64608 71.63091
# Shear Modulus (GPa) = 28.71193 31.23140 29.97167
#
# Velocity S-wave (km/s) = 3.87685 4.04337 3.96098
# Velocity P-wave (km/s) = 7.41023 7.86897 7.64304
#
# Compressibility (1/GPa) = 0.01501147
#
# Stress axis : x y z
#
# Youngs Moduli (GPa) = 92.83054 48.38059 78.06951
#
# Poissons Ratio (x) = 0.17988 0.34053
# Poissons Ratio (y) = 0.34515 0.51055
# Poissons Ratio (z) = 0.40491 0.31640
#
# Static dielectric constant tensor:
#      x y z
#    x 3.627590 0.000000 -0.006480 
#    y 0.000000 3.452070 0.000000 
#    z -0.006480 0.000000 3.690650 
# 
# 
# High freq. dielectric constant tensor:
#      x y z
#    x 1.756580 0.000000 -0.000280 
#    y 0.000000 1.714120 0.000000 
#    z -0.000280 0.000000 1.759150 
# 
# From -- ./inp_files/70836.got.cif
#   From: 2010.06.25/outbox.cif.g09.slc.cpg/sg11_36_cif.got.tgz:70836.got - 2010.06.27 23:14:04.
