data_PCOD8074589
_publ_section_title
;
Structure prediction by ZEFSAII (Michael W. Deem and Ramdas Pophale) SiO2 
 PCOD8074589
Probable space group: P 21/M
;
_chemical_formula_sum "Si O2"
_cell_formula_units_Z 28
_cell_length_a 14.038374
_cell_length_b 9.255925
_cell_length_c 16.860827
_cell_angle_alpha 90.000000
_cell_angle_beta 41.047482
_cell_angle_gamma 90.000000
_cell_volume 1438.706164
_symmetry_space_group_name_H-M "P 21/M"
_symmetry_group_IT_number 11
_symmetry_cell_setting 'monoclinic'
loop_
_space_group_symop_operation_xyz
x,y,z
-x,1/2+y,-z
-x,-y,-z
x,1/2-y,z
loop_
_atom_site_type_symbol
_atom_site_label
_atom_site_fract_x
_atom_site_fract_y
_atom_site_fract_z
Si Si1 0.063493 0.421487 0.207693
Si Si2 0.480030 0.415087 0.432663
Si Si3 0.074752 0.085122 0.023811
Si Si4 0.591655 0.583598 0.218001
Si Si5 0.348016 0.415907 0.289921
Si Si6 0.828424 0.587704 0.451218
Si Si7 0.352829 0.084121 0.106665
O O1 0.058595 0.250000 0.216825
O O2 0.025788 0.472621 0.141585
O O3 0.224561 0.475417 0.130967
O O4 0.948917 0.481914 0.341942
O O5 0.500000 0.500000 0.500000
O O6 0.532151 0.250000 0.409514
O O7 0.580749 0.492391 0.305032
O O8 0.312859 0.423767 0.514401
O O9 0.026930 0.250000 0.042932
O O10 0.246729 0.069191 0.915056
O O11 0.000000 0.000000 0.000000
O O12 0.549452 0.750000 0.260584
O O13 0.486106 0.518287 0.217575
O O14 0.393504 0.250000 0.280764
O O15 0.215276 0.459101 0.431675
O O16 0.297269 0.435021 0.231785
O O17 0.891064 0.750000 0.410580
O O18 0.386523 0.250000 0.066232
O O19 0.500000 0.000000 0.000000
#
# Coordination Sequence:
#
# PCOD8074589 Si02
#       7
#     4   4   4   4   4   4   4
#     4  10  22  39  57  83 116 149 188 239 290 340
#     4  10  21  36  56  82 113 148 190 239 287 339
#     4  10  23  39  55  78 110 148 189 235 288 343
#     4  10  20  36  57  82 111 144 188 238 285 339
#     4   9  19  37  59  84 115 151 187 230 286 343
#     4   9  20  37  55  80 115 150 188 232 279 339
#     4  10  21  38  61  87 117 150 190 237 287 343
#
# _framework density 19.461929999999999
#
# number of rings (size 3 to 8) (size 9 to 14) (size 15 to 20)
#    0.000    2.286    0.000    2.571    2.000    7.429 
#    0.000    0.000    0.000    0.000    0.000    0.000 
#    0.000    0.000    0.000    0.000    0.000    0.000 
#
# Total GULP energy -347210.886757 kJ/mol
# GULP energy per Si atom -12400.388813 kJ/mol
# Density = 1.941763 g / cm^3
# Si number density = 19.461930 Si / 1000 Ang^3
#
#
#
# Elastic Constant Matrix: (Units=GPa)
#
#
# Indices 1 2 3 4 5 6 
#
# 1 100.1771 42.3530 49.1816 0.0000 18.0388 0.0000
# 2 42.3530 86.9688 45.4511 0.0000 4.2911 0.0000
# 3 49.1816 45.4511 107.0955 0.0000 4.7273 0.0000
# 4 0.0000 0.0000 0.0000 36.5546 0.0000 -1.7230
# 5 18.0388 4.2911 4.7273 0.0000 24.4008 0.0000
# 6 0.0000 0.0000 0.0000 -1.7230 0.0000 30.3380
#
#
#
# Elastic Compliance Matrix: (Units=1/GPa)
#
#
# Indices 1 2 3 4 5 6 
#
# 1 0.016322 -0.004834 -0.004992 0.000000 -0.010249 0.000000
# 2 -0.004834 0.016255 -0.004751 0.000000 0.001636 0.000000
# 3 -0.004992 -0.004751 0.013562 0.000000 0.001898 0.000000
# 4 0.000000 0.000000 0.000000 0.027430 0.000000 0.001558
# 5 -0.010249 0.001636 0.001898 0.000000 0.047904 0.000000
# 6 0.000000 0.000000 0.000000 0.001558 0.000000 0.033050
#
#
# Mechanical properties :
#
#
# Convention : Reuss Voigt Hill
#
# Bulk Modulus (GPa) = 58.87200 63.13477 61.00339
# Shear Modulus (GPa) = 26.40770 28.74240 27.57505
#
# Velocity S-wave (km/s) = 3.68760 3.84715 3.76822
# Velocity P-wave (km/s) = 6.96036 7.22805 7.09547
#
# Compressibility (1/GPa) = 0.01698600
#
# Stress axis : x y z
#
# Youngs Moduli (GPa) = 61.26516 61.52066 73.73488
#
# Poissons Ratio (x) = 0.29742 0.36806
# Poissons Ratio (y) = 0.29619 0.35028
# Poissons Ratio (z) = 0.30581 0.29225
#
# Static dielectric constant tensor:
#      x y z
#    x 3.669810 0.000000 0.249120 
#    y 0.000000 3.690300 0.000000 
#    z 0.249120 0.000000 3.586240 
# 
# 
# High freq. dielectric constant tensor:
#      x y z
#    x 1.758310 0.000000 0.013690 
#    y 0.000000 1.755610 0.000000 
#    z 0.013690 0.000000 1.762930 
# 
# From -- ./inp_files/60063.got.cif
#   From: 2010.06.25/outbox.cif.g09.slc.cpg/sg11_31_cif.got.tgz:60063.got - 2010.06.27 23:14:04.
