data_PCOD8074971
_publ_section_title
;
Structure prediction by ZEFSAII (Michael W. Deem and Ramdas Pophale) SiO2 
 PCOD8074971
Probable space group: P 21/M
;
_chemical_formula_sum "Si O2"
_cell_formula_units_Z 20
_cell_length_a 15.157561
_cell_length_b 10.853693
_cell_length_c 11.951939
_cell_angle_alpha 90.000000
_cell_angle_beta 27.112875
_cell_angle_gamma 90.000000
_cell_volume 896.121873
_symmetry_space_group_name_H-M "P 21/M"
_symmetry_group_IT_number 11
_symmetry_cell_setting 'monoclinic'
loop_
_space_group_symop_operation_xyz
x,y,z
-x,1/2+y,-z
-x,-y,-z
x,1/2-y,z
loop_
_atom_site_type_symbol
_atom_site_label
_atom_site_fract_x
_atom_site_fract_y
_atom_site_fract_z
Si Si1 0.327996 0.977795 0.335600
Si Si2 0.694729 0.111067 0.874309
Si Si3 0.301004 0.115848 0.989625
Si Si4 0.718066 0.539233 0.234959
Si Si5 0.071872 0.384859 0.791314
O O1 0.466611 0.888246 0.251593
O O2 0.460017 0.094377 0.145396
O O3 0.148042 0.019170 0.613431
O O4 0.239124 0.907295 0.328675
O O5 0.749678 0.250000 0.852316
O O6 0.794712 0.003963 0.839195
O O7 0.225237 0.250000 0.119673
O O8 0.260595 0.114011 0.903696
O O9 0.500000 0.500000 0.500000
O O10 0.785574 0.621641 0.262849
O O11 0.856040 0.419600 0.073567
O O12 0.065142 0.250000 0.744567
#
# Coordination Sequence:
#
# PCOD8074971 Si02
#       5
#     4   4   4   4   4
#     4   9  19  34  62  93 129 164 213 259 320 382
#     4   9  18  34  63  95 128 170 214 261 321 387
#     4  10  20  36  63  93 126 169 213 261 321 384
#     4  11  23  44  62  94 127 171 218 271 327 389
#     4  11  24  41  64  95 130 171 218 273 327 389
#
# _framework density 22.318391999999999
#
# number of rings (size 3 to 8) (size 9 to 14) (size 15 to 20)
#    1.200    0.800    2.000    1.800    0.000    3.200 
#    0.000    4.000    0.000    0.000    0.000    0.000 
#    0.000    0.000    0.000    0.000    0.000    0.000 
#
# Total GULP energy -247811.321720 kJ/mol
# GULP energy per Si atom -12390.566086 kJ/mol
# Density = 2.226759 g / cm^3
# Si number density = 22.318392 Si / 1000 Ang^3
#
#
#
# Elastic Constant Matrix: (Units=GPa)
#
#
# Indices 1 2 3 4 5 6 
#
# 1 90.3273 41.5242 43.5265 0.0000 14.6535 0.0000
# 2 41.5242 175.4742 24.8436 0.0000 9.9717 0.0000
# 3 43.5265 24.8436 79.2476 0.0000 2.2565 0.0000
# 4 0.0000 0.0000 0.0000 15.0863 0.0000 9.6106
# 5 14.6535 9.9717 2.2565 0.0000 32.3939 0.0000
# 6 0.0000 0.0000 0.0000 9.6106 0.0000 18.6372
#
#
#
# Elastic Compliance Matrix: (Units=1/GPa)
#
#
# Indices 1 2 3 4 5 6 
#
# 1 0.017435 -0.002539 -0.008595 0.000000 -0.006507 0.000000
# 2 -0.002539 0.006429 -0.000598 0.000000 -0.000789 0.000000
# 3 -0.008595 -0.000598 0.017446 0.000000 0.002857 0.000000
# 4 0.000000 0.000000 0.000000 0.098712 0.000000 -0.050902
# 5 -0.006507 -0.000789 0.002857 0.000000 0.033857 0.000000
# 6 0.000000 0.000000 0.000000 -0.050902 0.000000 0.079905
#
#
# Mechanical properties :
#
#
# Convention : Reuss Voigt Hill
#
# Bulk Modulus (GPa) = 56.03801 62.75973 59.39887
# Shear Modulus (GPa) = 17.65549 28.90048 23.27799
#
# Velocity S-wave (km/s) = 2.81565 3.60240 3.23305
# Velocity P-wave (km/s) = 5.97775 6.74420 6.37251
#
# Compressibility (1/GPa) = 0.01784503
#
# Stress axis : x y z
#
# Youngs Moduli (GPa) = 57.35430 155.53836 57.32061
#
# Poissons Ratio (x) = 0.39496 0.49267
# Poissons Ratio (y) = 0.14564 0.03430
# Poissons Ratio (z) = 0.49296 0.09307
#
# Static dielectric constant tensor:
#      x y z
#    x 4.031270 0.000000 0.147250 
#    y 0.000000 3.734790 0.000000 
#    z 0.147250 0.000000 3.632810 
# 
# 
# High freq. dielectric constant tensor:
#      x y z
#    x 1.883110 0.000000 0.009630 
#    y 0.000000 1.863560 0.000000 
#    z 0.009630 0.000000 1.851240 
# 
# From -- ./inp_files/39130.got.cif
#   From: 2010.06.25/outbox.cif.g09.slc.cpg/sg11_20_cif.got.tgz:39130.got - 2010.06.27 23:14:04.
