data_PCOD8074664
_publ_section_title
;
Structure prediction by ZEFSAII (Michael W. Deem and Ramdas Pophale) SiO2 
 PCOD8074664
Probable space group: P 21/M
;
_chemical_formula_sum "Si O2"
_cell_formula_units_Z 28
_cell_length_a 16.069582
_cell_length_b 8.866345
_cell_length_c 20.357884
_cell_angle_alpha 90.000000
_cell_angle_beta 150.193714
_cell_angle_gamma 90.000000
_cell_volume 1441.778889
_symmetry_space_group_name_H-M "P 21/M"
_symmetry_group_IT_number 11
_symmetry_cell_setting 'monoclinic'
loop_
_space_group_symop_operation_xyz
x,y,z
-x,1/2+y,-z
-x,-y,-z
x,1/2-y,z
loop_
_atom_site_type_symbol
_atom_site_label
_atom_site_fract_x
_atom_site_fract_y
_atom_site_fract_z
Si Si1 0.363944 0.428436 0.359111
Si Si2 0.126154 0.929205 0.406654
Si Si3 0.905711 0.571968 0.374876
Si Si4 0.943323 0.074530 0.786673
Si Si5 0.530932 0.571950 0.091361
Si Si6 0.327082 0.074055 0.064987
Si Si7 0.502943 0.071056 0.316313
O O1 0.500000 0.500000 0.500000
O O2 0.377605 0.250000 0.374953
O O3 0.178136 0.482585 0.248865
O O4 0.401072 0.483004 0.310418
O O5 0.128460 0.750000 0.407476
O O6 0.075771 0.988806 0.300334
O O7 0.308506 0.993137 0.550995
O O8 0.990573 0.988645 0.365994
O O9 0.925176 0.750000 0.393608
O O10 0.712635 0.521698 0.242684
O O11 0.000000 0.500000 0.500000
O O12 0.893780 0.250000 0.755777
O O13 0.130557 0.046133 0.939466
O O14 0.519970 0.750000 0.076085
O O15 0.390909 0.515373 0.045570
O O16 0.500000 0.500000 0.000000
O O17 0.366195 0.250000 0.080641
O O18 0.415861 0.008250 0.190903
O O19 0.505037 0.250000 0.314923
#
# Coordination Sequence:
#
# PCOD8074664 Si02
#       7
#     4   4   4   4   4   4   4
#     4  11  21  36  58  85 115 148 190 236 286 341
#     4   9  16  31  54  76 104 144 186 225 275 337
#     4  10  21  36  57  84 113 149 192 241 291 345
#     4  10  20  36  58  83 111 145 189 236 283 343
#     4  11  23  39  59  86 121 157 198 243 291 348
#     4  10  21  38  60  84 112 152 196 235 288 349
#     4   9  18  33  56  82 111 148 188 231 284 346
#
# _framework density 19.420452999999998
#
# number of rings (size 3 to 8) (size 9 to 14) (size 15 to 20)
#    0.000    2.000    1.429    2.571    0.000    5.714 
#    0.000    2.143    0.000    0.000    0.000    0.000 
#    0.000    0.000    0.000    0.000    0.000    0.000 
#
# Total GULP energy -347272.018226 kJ/mol
# GULP energy per Si atom -12402.572080 kJ/mol
# Density = 1.937625 g / cm^3
# Si number density = 19.420453 Si / 1000 Ang^3
#
#
#
# Elastic Constant Matrix: (Units=GPa)
#
#
# Indices 1 2 3 4 5 6 
#
# 1 117.1794 32.5409 29.5251 0.0000 2.4418 0.0000
# 2 32.5409 47.1721 31.8675 0.0000 2.4340 0.0000
# 3 29.5251 31.8675 105.9830 0.0000 -5.2036 0.0000
# 4 0.0000 0.0000 0.0000 21.9451 0.0000 2.3663
# 5 2.4418 2.4340 -5.2036 0.0000 40.8557 0.0000
# 6 0.0000 0.0000 0.0000 2.3663 0.0000 30.7196
#
#
#
# Elastic Compliance Matrix: (Units=1/GPa)
#
#
# Indices 1 2 3 4 5 6 
#
# 1 0.010637 -0.006657 -0.000979 0.000000 -0.000364 0.000000
# 2 -0.006657 0.031051 -0.007601 0.000000 -0.002420 0.000000
# 3 -0.000979 -0.007601 0.012095 0.000000 0.002052 0.000000
# 4 0.000000 0.000000 0.000000 0.045950 0.000000 -0.003539
# 5 -0.000364 -0.002420 0.002052 0.000000 0.024904 0.000000
# 6 0.000000 0.000000 0.000000 -0.003539 0.000000 0.032825
#
#
# Mechanical properties :
#
#
# Convention : Reuss Voigt Hill
#
# Bulk Modulus (GPa) = 42.90459 50.91128 46.90794
# Shear Modulus (GPa) = 25.54856 30.46413 28.00635
#
# Velocity S-wave (km/s) = 3.63098 3.96493 3.80163
# Velocity P-wave (km/s) = 6.30231 6.87263 6.59364
#
# Compressibility (1/GPa) = 0.02330753
#
# Stress axis : x y z
#
# Youngs Moduli (GPa) = 94.01115 32.20497 82.68216
#
# Poissons Ratio (x) = 0.21440 0.08098
# Poissons Ratio (y) = 0.62587 0.62845
# Poissons Ratio (z) = 0.09207 0.24478
#
# Static dielectric constant tensor:
#      x y z
#    x 3.589590 0.000000 -0.198530 
#    y 0.000000 3.173400 0.000000 
#    z -0.198530 0.000000 3.521760 
# 
# 
# High freq. dielectric constant tensor:
#      x y z
#    x 1.770920 0.000000 0.002130 
#    y 0.000000 1.722030 0.000000 
#    z 0.002130 0.000000 1.768920 
# 
# From -- ./inp_files/28445.got.cif
#   From: 2010.06.25/outbox.cif.g09.slc.cpg/sg11_15_cif.got.tgz:28445.got - 2010.06.27 23:14:04.
