data_PCOD8074281
_publ_section_title
;
Structure prediction by ZEFSAII (Michael W. Deem and Ramdas Pophale) SiO2 
 PCOD8074281
Probable space group: P 21/M
;
_chemical_formula_sum "Si O2"
_cell_formula_units_Z 24
_cell_length_a 24.665102
_cell_length_b 9.027354
_cell_length_c 12.127349
_cell_angle_alpha 90.000000
_cell_angle_beta 151.666254
_cell_angle_gamma 90.000000
_cell_volume 1281.572378
_symmetry_space_group_name_H-M "P 21/M"
_symmetry_group_IT_number 11
_symmetry_cell_setting 'monoclinic'
loop_
_space_group_symop_operation_xyz
x,y,z
-x,1/2+y,-z
-x,-y,-z
x,1/2-y,z
loop_
_atom_site_type_symbol
_atom_site_label
_atom_site_fract_x
_atom_site_fract_y
_atom_site_fract_z
Si Si1 0.830733 0.420991 0.699172
Si Si2 0.428902 0.575909 0.778377
Si Si3 0.673973 0.076473 0.831469
Si Si4 0.979768 0.922036 0.138642
Si Si5 0.498672 0.424410 0.331412
Si Si6 0.936270 0.425935 0.284589
O O1 0.837511 0.250000 0.749435
O O2 0.702676 0.469366 0.442358
O O3 0.904107 0.449435 0.721053
O O4 0.873361 0.519479 0.877147
O O5 0.445133 0.750000 0.817329
O O6 0.474065 0.517793 0.741796
O O7 0.500000 0.500000 0.000000
O O8 0.665935 0.250000 0.837333
O O9 0.604804 0.027696 0.598622
O O10 0.619004 0.998183 0.839456
O O11 0.804079 0.025136 0.051015
O O12 0.960644 0.750000 0.131308
O O13 0.992371 0.013376 0.273356
O O14 0.481608 0.250000 0.303791
O O15 0.950807 0.250000 0.315718
O O16 0.000000 0.500000 0.500000
#
# Coordination Sequence:
#
# PCOD8074281 Si02
#       6
#     4   4   4   4   4   4
#     4   9  19  37  58  79 108 144 178 218 268 319
#     4  10  21  36  53  76 109 145 178 214 262 316
#     4   9  19  36  57  78 102 136 175 216 265 316
#     4  10  20  35  58  85 108 136 179 224 266 316
#     4   9  18  34  56  80 104 133 173 219 263 309
#     4  11  23  38  55  77 110 147 180 218 267 320
#
# _framework density 18.726994999999999
#
# number of rings (size 3 to 8) (size 9 to 14) (size 15 to 20)
#    0.000    2.333    0.000    2.000    0.000    7.333 
#    0.000    8.333    0.000    0.000    0.000    0.000 
#    0.000    0.000    0.000    0.000    0.000    0.000 
#
# Total GULP energy -297688.712859 kJ/mol
# GULP energy per Si atom -12403.696369 kJ/mol
# Density = 1.868437 g / cm^3
# Si number density = 18.726995 Si / 1000 Ang^3
#
#
#
# Elastic Constant Matrix: (Units=GPa)
#
#
# Indices 1 2 3 4 5 6 
#
# 1 143.3970 53.2072 77.1410 0.0000 -13.3021 0.0000
# 2 53.2072 60.7520 43.6622 0.0000 -6.8204 0.0000
# 3 77.1410 43.6622 98.1059 0.0000 -14.5267 0.0000
# 4 0.0000 0.0000 0.0000 34.5845 0.0000 -3.3403
# 5 -13.3021 -6.8204 -14.5267 0.0000 23.4261 0.0000
# 6 0.0000 0.0000 0.0000 -3.3403 0.0000 35.8774
#
#
#
# Elastic Compliance Matrix: (Units=1/GPa)
#
#
# Indices 1 2 3 4 5 6 
#
# 1 0.013517 -0.006165 -0.007723 0.000000 0.001091 0.000000
# 2 -0.006165 0.027017 -0.007190 0.000000 -0.000094 0.000000
# 3 -0.007723 -0.007190 0.020377 0.000000 0.006157 0.000000
# 4 0.000000 0.000000 0.000000 0.029177 0.000000 0.002716
# 5 0.001091 -0.000094 0.006157 0.000000 0.047098 0.000000
# 6 0.000000 0.000000 0.000000 0.002716 0.000000 0.028126
#
#
# Mechanical properties :
#
#
# Convention : Reuss Voigt Hill
#
# Bulk Modulus (GPa) = 53.32000 72.25284 62.78642
# Shear Modulus (GPa) = 23.39499 27.32723 25.36111
#
# Velocity S-wave (km/s) = 3.53833 3.82415 3.68401
# Velocity P-wave (km/s) = 6.72511 7.62658 7.18999
#
# Compressibility (1/GPa) = 0.01875469
#
# Stress axis : x y z
#
# Youngs Moduli (GPa) = 73.97961 37.01377 49.07394
#
# Poissons Ratio (x) = 0.22821 0.37900
# Poissons Ratio (y) = 0.45612 0.35284
# Poissons Ratio (z) = 0.57135 0.26613
#
# Static dielectric constant tensor:
#      x y z
#    x 3.644220 0.000000 0.061220 
#    y 0.000000 3.388470 0.000000 
#    z 0.061220 0.000000 3.420860 
# 
# 
# High freq. dielectric constant tensor:
#      x y z
#    x 1.739140 0.000000 0.004100 
#    y 0.000000 1.724530 0.000000 
#    z 0.004100 0.000000 1.723550 
# 
# From -- ./inp_files/43889.got.cif
#   From: 2010.06.25/outbox.cif.g09.slc.cpg/sg11_22_cif.got.tgz:43889.got - 2010.06.27 23:14:04.
