data_PCOD8074832
_publ_section_title
;
Structure prediction by ZEFSAII (Michael W. Deem and Ramdas Pophale) SiO2 
 PCOD8074832
Probable space group: P 21/M
;
_chemical_formula_sum "Si O2"
_cell_formula_units_Z 24
_cell_length_a 9.085808
_cell_length_b 8.702704
_cell_length_c 15.900308
_cell_angle_alpha 90.000000
_cell_angle_beta 106.137057
_cell_angle_gamma 90.000000
_cell_volume 1207.718458
_symmetry_space_group_name_H-M "P 21/M"
_symmetry_group_IT_number 11
_symmetry_cell_setting 'monoclinic'
loop_
_space_group_symop_operation_xyz
x,y,z
-x,1/2+y,-z
-x,-y,-z
x,1/2-y,z
loop_
_atom_site_type_symbol
_atom_site_label
_atom_site_fract_x
_atom_site_fract_y
_atom_site_fract_z
Si Si1 0.535242 0.929038 0.742449
Si Si2 0.208014 0.072448 0.084681
Si Si3 0.044562 0.931109 0.418475
Si Si4 0.222326 0.070383 0.749149
Si Si5 0.876591 0.427325 0.096886
Si Si6 0.623363 0.430991 0.581838
O O1 0.545683 0.750000 0.721765
O O2 0.645388 0.972240 0.837141
O O3 0.364010 0.971302 0.739925
O O4 0.587560 0.025359 0.671098
O O5 0.209422 0.250000 0.057234
O O6 0.056272 0.036479 0.114622
O O7 0.213682 0.967928 0.002736
O O8 0.049287 0.750000 0.428572
O O9 0.209652 0.995766 0.416572
O O10 0.922473 0.981843 0.329106
O O11 0.000000 0.000000 0.500000
O O12 0.258920 0.250000 0.744633
O O13 0.188064 0.034141 0.840279
O O14 0.846882 0.250000 0.114617
O O15 0.500000 0.500000 0.500000
O O16 0.618179 0.250000 0.571764
#
# Coordination Sequence:
#
# PCOD8074832 Si02
#       6
#     4   4   4   4   4   4
#     4  11  23  39  59  85 116 151 191 235 284 337
#     4   9  20  38  59  84 115 150 189 235 287 341
#     4  10  23  40  60  85 114 149 188 231 279 333
#     4  11  23  39  58  83 116 153 191 233 283 337
#     4  10  20  36  60  87 113 147 191 237 285 338
#     4  11  23  40  61  87 117 150 189 233 283 337
#
# _framework density 19.87218
#
# number of rings (size 3 to 8) (size 9 to 14) (size 15 to 20)
#    0.000    1.667    0.000    4.000    0.000    8.000 
#    0.000    0.000    0.000    0.000    0.000    0.000 
#    0.000    0.000    0.000    0.000    0.000    0.000 
#
# Total GULP energy -297750.282799 kJ/mol
# GULP energy per Si atom -12406.261783 kJ/mol
# Density = 1.982695 g / cm^3
# Si number density = 19.872180 Si / 1000 Ang^3
#
#
#
# Elastic Constant Matrix: (Units=GPa)
#
#
# Indices 1 2 3 4 5 6 
#
# 1 146.6112 27.5538 71.4826 0.0000 11.0449 0.0000
# 2 27.5538 41.2339 30.6781 0.0000 8.7988 0.0000
# 3 71.4826 30.6781 111.3484 0.0000 2.2907 0.0000
# 4 0.0000 0.0000 0.0000 40.4133 0.0000 -3.4548
# 5 11.0449 8.7988 2.2907 0.0000 38.7107 0.0000
# 6 0.0000 0.0000 0.0000 -3.4548 0.0000 32.5234
#
#
#
# Elastic Compliance Matrix: (Units=1/GPa)
#
#
# Indices 1 2 3 4 5 6 
#
# 1 0.010282 -0.001932 -0.006025 0.000000 -0.002138 0.000000
# 2 -0.001932 0.032563 -0.007599 0.000000 -0.006400 0.000000
# 3 -0.006025 -0.007599 0.014889 0.000000 0.002565 0.000000
# 4 0.000000 0.000000 0.000000 0.024971 0.000000 0.002653
# 5 -0.002138 -0.006400 0.002565 0.000000 0.027746 0.000000
# 6 0.000000 0.000000 0.000000 0.002653 0.000000 0.031029
#
#
# Mechanical properties :
#
#
# Convention : Reuss Voigt Hill
#
# Bulk Modulus (GPa) = 37.56303 62.06916 49.81609
# Shear Modulus (GPa) = 27.55323 33.62808 30.59066
#
# Velocity S-wave (km/s) = 3.72764 4.11812 3.92774
# Velocity P-wave (km/s) = 6.12131 7.34261 6.75960
#
# Compressibility (1/GPa) = 0.02662192
#
# Stress axis : x y z
#
# Youngs Moduli (GPa) = 97.25358 30.70986 67.16196
#
# Poissons Ratio (x) = 0.05935 0.40462
# Poissons Ratio (y) = 0.18794 0.51038
# Poissons Ratio (z) = 0.58591 0.23337
#
# Static dielectric constant tensor:
#      x y z
#    x 4.096150 0.000000 0.145070 
#    y 0.000000 3.524510 0.000000 
#    z 0.145070 0.000000 3.800350 
# 
# 
# High freq. dielectric constant tensor:
#      x y z
#    x 1.784860 0.000000 0.002510 
#    y 0.000000 1.777970 0.000000 
#    z 0.002510 0.000000 1.787570 
# 
# From -- ./inp_files/25754.got.cif
#   From: 2010.06.25/outbox.cif.g09.slc.cpg/sg11_13_cif.got.tgz:25754.got - 2010.06.27 23:14:04.
