data_PCOD8074528
_publ_section_title
;
Structure prediction by ZEFSAII (Michael W. Deem and Ramdas Pophale) SiO2 
 PCOD8074528
Probable space group: P 21/M
;
_chemical_formula_sum "Si O2"
_cell_formula_units_Z 28
_cell_length_a 9.512124
_cell_length_b 13.424389
_cell_length_c 20.994854
_cell_angle_alpha 90.000000
_cell_angle_beta 147.132175
_cell_angle_gamma 90.000000
_cell_volume 1454.946441
_symmetry_space_group_name_H-M "P 21/M"
_symmetry_group_IT_number 11
_symmetry_cell_setting 'monoclinic'
loop_
_space_group_symop_operation_xyz
x,y,z
-x,1/2+y,-z
-x,-y,-z
x,1/2-y,z
loop_
_atom_site_type_symbol
_atom_site_label
_atom_site_fract_x
_atom_site_fract_y
_atom_site_fract_z
Si Si1 0.467688 0.134402 0.423362
Si Si2 0.599811 0.862936 0.744999
Si Si3 0.405263 0.135276 0.883098
Si Si4 0.900198 0.470734 0.031029
Si Si5 0.906901 0.488181 0.654908
Si Si6 0.764229 0.135700 0.281691
Si Si7 0.607805 0.639925 0.977431
O O1 0.405513 0.250000 0.417994
O O2 0.539372 0.127315 0.376053
O O3 0.223363 0.062391 0.343311
O O4 0.711162 0.096031 0.556128
O O5 0.657906 0.750000 0.786047
O O6 0.417235 0.906675 0.731042
O O7 0.875663 0.915090 0.846063
O O8 0.347933 0.250000 0.844256
O O9 0.496919 0.120967 0.991136
O O10 0.639049 0.096005 0.927691
O O11 0.148677 0.070348 0.776232
O O12 0.845935 0.569479 0.050857
O O13 0.000000 0.500000 0.000000
O O14 0.991733 0.560979 0.628701
O O15 0.850624 0.250000 0.327654
O O16 0.627060 0.124865 0.160935
O O17 0.724485 0.750000 0.015987
#
# Coordination Sequence:
#
# PCOD8074528 Si02
#       7
#     4   4   4   4   4   4   4
#     4  10  23  39  60  83 108 146 192 238 282 333
#     4  10  21  37  56  83 115 150 190 231 275 333
#     4  11  23  36  56  85 116 151 186 230 284 338
#     4  12  21  35  56  84 119 149 186 228 283 335
#     4  11  21  39  59  82 112 145 188 238 285 334
#     4  10  20  36  56  82 113 147 187 230 278 336
#     4  10  21  35  52  80 115 150 187 227 277 337
#
# _framework density 19.244693999999999
#
# number of rings (size 3 to 8) (size 9 to 14) (size 15 to 20)
#    0.000    1.429    2.857    2.571    2.000    1.143 
#    0.000    0.000    0.000    0.857    0.000    0.000 
#    0.000    0.000    0.000    0.000    0.000    0.000 
#
# Total GULP energy -347154.128097 kJ/mol
# GULP energy per Si atom -12398.361718 kJ/mol
# Density = 1.920089 g / cm^3
# Si number density = 19.244694 Si / 1000 Ang^3
#
#
#
# Elastic Constant Matrix: (Units=GPa)
#
#
# Indices 1 2 3 4 5 6 
#
# 1 112.0276 51.0276 35.8255 0.0000 9.0556 0.0000
# 2 51.0276 125.4940 34.1034 0.0000 9.0245 0.0000
# 3 35.8255 34.1034 49.3454 0.0000 0.8175 0.0000
# 4 0.0000 0.0000 0.0000 22.7347 0.0000 5.3208
# 5 9.0556 9.0245 0.8175 0.0000 25.1099 0.0000
# 6 0.0000 0.0000 0.0000 5.3208 0.0000 32.9224
#
#
#
# Elastic Compliance Matrix: (Units=1/GPa)
#
#
# Indices 1 2 3 4 5 6 
#
# 1 0.012882 -0.003045 -0.007193 0.000000 -0.003317 0.000000
# 2 -0.003045 0.010813 -0.005219 0.000000 -0.002618 0.000000
# 3 -0.007193 -0.005219 0.029036 0.000000 0.003525 0.000000
# 4 0.000000 0.000000 0.000000 0.045715 0.000000 -0.007388
# 5 -0.003317 -0.002618 0.003525 0.000000 0.041847 0.000000
# 6 0.000000 0.000000 0.000000 -0.007388 0.000000 0.031568
#
#
# Mechanical properties :
#
#
# Convention : Reuss Voigt Hill
#
# Bulk Modulus (GPa) = 45.83567 58.75334 52.29451
# Shear Modulus (GPa) = 23.80405 27.21412 25.50908
#
# Velocity S-wave (km/s) = 3.52080 3.76455 3.64471
# Velocity P-wave (km/s) = 6.35586 7.03503 6.70405
#
# Compressibility (1/GPa) = 0.02181707
#
# Stress axis : x y z
#
# Youngs Moduli (GPa) = 77.63031 92.48022 34.43944
#
# Poissons Ratio (x) = 0.28156 0.24773
# Poissons Ratio (y) = 0.23635 0.17975
# Poissons Ratio (z) = 0.55841 0.48269
#
# Static dielectric constant tensor:
#      x y z
#    x 3.606510 0.000000 0.098340 
#    y 0.000000 3.879070 0.000000 
#    z 0.098340 0.000000 3.288760 
# 
# 
# High freq. dielectric constant tensor:
#      x y z
#    x 1.754190 0.000000 0.005350 
#    y 0.000000 1.768640 0.000000 
#    z 0.005350 0.000000 1.722980 
# 
# From -- ./inp_files/22124.got.cif
#   From: 2010.06.25/outbox.cif.g09.slc.cpg/sg11_12_cif.got.tgz:22124.got - 2010.06.27 23:14:04.
