data_PCOD8074347
_publ_section_title
;
Structure prediction by ZEFSAII (Michael W. Deem and Ramdas Pophale) SiO2 
 PCOD8074347
Probable space group: P 21/M
;
_chemical_formula_sum "Si O2"
_cell_formula_units_Z 28
_cell_length_a 10.311167
_cell_length_b 13.780591
_cell_length_c 13.247768
_cell_angle_alpha 90.000000
_cell_angle_beta 48.190950
_cell_angle_gamma 90.000000
_cell_volume 1403.106708
_symmetry_space_group_name_H-M "P 21/M"
_symmetry_group_IT_number 11
_symmetry_cell_setting 'monoclinic'
loop_
_space_group_symop_operation_xyz
x,y,z
-x,1/2+y,-z
-x,-y,-z
x,1/2-y,z
loop_
_atom_site_type_symbol
_atom_site_label
_atom_site_fract_x
_atom_site_fract_y
_atom_site_fract_z
Si Si1 0.447453 0.359677 0.345908
Si Si2 0.975289 0.008987 0.681410
Si Si3 0.395653 0.137331 0.781724
Si Si4 0.159857 0.862571 0.916810
Si Si5 0.869377 0.544630 0.940902
Si Si6 0.747946 0.861057 0.355466
Si Si7 0.751499 0.457897 0.614672
O O1 0.402720 0.250000 0.334123
O O2 0.647119 0.385279 0.222607
O O3 0.413040 0.372554 0.483271
O O4 0.323747 0.432218 0.347720
O O5 0.083272 0.086297 0.689682
O O6 0.838762 0.061549 0.677975
O O7 0.104486 0.942410 0.547596
O O8 0.868251 0.946786 0.819779
O O9 0.358069 0.250000 0.810067
O O10 0.311432 0.095289 0.721867
O O11 0.601508 0.120028 0.674111
O O12 0.311743 0.084381 0.921258
O O13 0.137591 0.750000 0.960136
O O14 0.028005 0.888708 0.895796
O O15 0.111791 0.931278 0.036319
O O16 0.800353 0.750000 0.314231
#
# Coordination Sequence:
#
# PCOD8074347 Si02
#       7
#     4   4   4   4   4   4   4
#     4   9  18  35  60  87 115 151 195 244 291 346
#     4  10  23  38  62  85 119 159 194 240 294 348
#     4  11  23  40  61  88 121 154 194 246 295 345
#     4  10  20  35  58  90 120 153 195 241 297 352
#     4  11  22  37  57  87 123 156 188 245 294 350
#     4   9  19  35  60  89 117 151 196 243 293 345
#     4  10  22  42  60  87 117 155 200 242 287 346
#
# _framework density 19.955718000000001
#
# number of rings (size 3 to 8) (size 9 to 14) (size 15 to 20)
#    0.000    2.000    1.429    2.143    2.000    4.000 
#    0.000    4.286    0.000    0.000    0.000    0.000 
#    0.000    0.000    0.000    0.000    0.000    0.000 
#
# Total GULP energy -347184.850404 kJ/mol
# GULP energy per Si atom -12399.458943 kJ/mol
# Density = 1.991030 g / cm^3
# Si number density = 19.955718 Si / 1000 Ang^3
#
#
#
# Elastic Constant Matrix: (Units=GPa)
#
#
# Indices 1 2 3 4 5 6 
#
# 1 112.4686 24.9418 61.5876 0.0000 8.5785 0.0000
# 2 24.9418 71.4438 33.6095 0.0000 2.5225 0.0000
# 3 61.5876 33.6095 125.9165 0.0000 14.0788 0.0000
# 4 0.0000 0.0000 0.0000 22.5819 0.0000 -3.3512
# 5 8.5785 2.5225 14.0788 0.0000 27.7112 0.0000
# 6 0.0000 0.0000 0.0000 -3.3512 0.0000 13.4905
#
#
#
# Elastic Compliance Matrix: (Units=1/GPa)
#
#
# Indices 1 2 3 4 5 6 
#
# 1 0.012337 -0.001697 -0.005483 0.000000 -0.000879 0.000000
# 2 -0.001697 0.016255 -0.003607 0.000000 0.000878 0.000000
# 3 -0.005483 -0.003607 0.012044 0.000000 -0.004093 0.000000
# 4 0.000000 0.000000 0.000000 0.045978 0.000000 0.011421
# 5 -0.000879 0.000878 -0.004093 0.000000 0.038358 0.000000
# 6 0.000000 0.000000 0.000000 0.011421 0.000000 0.076964
#
#
# Mechanical properties :
#
#
# Convention : Reuss Voigt Hill
#
# Bulk Modulus (GPa) = 52.45830 61.12296 56.79063
# Shear Modulus (GPa) = 21.75188 25.40270 23.57729
#
# Velocity S-wave (km/s) = 3.30511 3.57172 3.44100
# Velocity P-wave (km/s) = 6.39605 6.90691 6.65638
#
# Compressibility (1/GPa) = 0.01906276
#
# Stress axis : x y z
#
# Youngs Moduli (GPa) = 81.05533 61.51857 83.02753
#
# Poissons Ratio (x) = 0.10437 0.45526
# Poissons Ratio (y) = 0.13752 0.29950
# Poissons Ratio (z) = 0.44444 0.22191
#
# Static dielectric constant tensor:
#      x y z
#    x 3.475540 0.000000 -0.071850 
#    y 0.000000 3.562630 0.000000 
#    z -0.071850 0.000000 3.854490 
# 
# 
# High freq. dielectric constant tensor:
#      x y z
#    x 1.760550 0.000000 -0.013760 
#    y 0.000000 1.768460 0.000000 
#    z -0.013760 0.000000 1.794170 
# 
# From -- ./inp_files/31783.got.cif
#   From: 2010.06.25/outbox.cif.g09.slc.cpg/sg11_16_cif.got.tgz:31783.got - 2010.06.27 23:14:04.
