data_PCOD8074629
_publ_section_title
;
Structure prediction by ZEFSAII (Michael W. Deem and Ramdas Pophale) SiO2 
 PCOD8074629
Probable space group: P 21/M
;
_chemical_formula_sum "Si O2"
_cell_formula_units_Z 28
_cell_length_a 18.318101
_cell_length_b 8.954608
_cell_length_c 14.699277
_cell_angle_alpha 90.000000
_cell_angle_beta 145.980713
_cell_angle_gamma 90.000000
_cell_volume 1348.966966
_symmetry_space_group_name_H-M "P 21/M"
_symmetry_group_IT_number 11
_symmetry_cell_setting 'monoclinic'
loop_
_space_group_symop_operation_xyz
x,y,z
-x,1/2+y,-z
-x,-y,-z
x,1/2-y,z
loop_
_atom_site_type_symbol
_atom_site_label
_atom_site_fract_x
_atom_site_fract_y
_atom_site_fract_z
Si Si1 0.979584 0.427026 0.807373
Si Si2 0.922728 0.419160 0.550091
Si Si3 0.804427 0.581818 0.268951
Si Si4 0.554882 0.426613 0.965679
Si Si5 0.503032 0.425272 0.276301
Si Si6 0.263365 0.426097 0.153676
Si Si7 0.275371 0.925380 0.353380
O O1 0.991125 0.250000 0.810415
O O2 0.870519 0.474881 0.767734
O O3 0.935573 0.489226 0.663695
O O4 0.120639 0.492729 0.981155
O O5 0.867695 0.250000 0.495911
O O6 0.063101 0.421832 0.649258
O O7 0.822472 0.520090 0.389865
O O8 0.749138 0.750000 0.218739
O O9 0.704840 0.477848 0.111008
O O10 0.543072 0.250000 0.959354
O O11 0.478275 0.485085 0.797980
O O12 0.500000 0.500000 0.000000
O O13 0.507896 0.250000 0.259671
O O14 0.365864 0.469689 0.181350
O O15 0.621753 0.473932 0.463699
O O16 0.256948 0.250000 0.159875
O O17 0.313016 0.494169 0.299270
O O18 0.283172 0.750000 0.344748
#
# Coordination Sequence:
#
# PCOD8074629 Si02
#       7
#     4   4   4   4   4   4   4
#     4   9  18  33  55  82 113 153 195 239 294 348
#     4   9  18  34  58  84 115 158 201 244 295 354
#     4  10  20  36  57  85 119 153 198 247 295 353
#     4  12  26  42  62  87 118 155 197 245 300 360
#     4  10  22  40  61  86 116 155 197 243 297 356
#     4  10  20  37  60  84 117 157 197 240 294 353
#     4  10  21  36  57  86 118 151 196 245 296 351
#
# _framework density 20.756623000000001
#
# number of rings (size 3 to 8) (size 9 to 14) (size 15 to 20)
#    0.000    2.000    0.000    3.429    2.000    4.000 
#    0.000    1.429    0.000    0.000    0.000    0.000 
#    0.000    0.000    0.000    0.000    0.000    0.000 
#
# Total GULP energy -347270.618686 kJ/mol
# GULP energy per Si atom -12402.522096 kJ/mol
# Density = 2.070938 g / cm^3
# Si number density = 20.756623 Si / 1000 Ang^3
#
#
#
# Elastic Constant Matrix: (Units=GPa)
#
#
# Indices 1 2 3 4 5 6 
#
# 1 88.5720 37.7679 37.8806 0.0000 -19.3008 0.0000
# 2 37.7679 74.7898 30.8620 0.0000 -11.8866 0.0000
# 3 37.8806 30.8620 96.8606 0.0000 -10.8505 0.0000
# 4 0.0000 0.0000 0.0000 31.3737 0.0000 -7.3424
# 5 -19.3008 -11.8866 -10.8505 0.0000 42.6856 0.0000
# 6 0.0000 0.0000 0.0000 -7.3424 0.0000 23.5869
#
#
#
# Elastic Compliance Matrix: (Units=1/GPa)
#
#
# Indices 1 2 3 4 5 6 
#
# 1 0.016615 -0.005947 -0.004062 0.000000 0.004824 0.000000
# 2 -0.005947 0.017941 -0.003224 0.000000 0.001487 0.000000
# 3 -0.004062 -0.003224 0.013004 0.000000 0.000571 0.000000
# 4 0.000000 0.000000 0.000000 0.034378 0.000000 0.010702
# 5 0.004824 0.001487 0.000571 0.000000 0.026168 0.000000
# 6 0.000000 0.000000 0.000000 0.010702 0.000000 0.045728
#
#
# Mechanical properties :
#
#
# Convention : Reuss Voigt Hill
#
# Bulk Modulus (GPa) = 47.41024 52.58259 49.99642
# Shear Modulus (GPa) = 26.69066 29.77669 28.23367
#
# Velocity S-wave (km/s) = 3.58982 3.79167 3.69212
# Velocity P-wave (km/s) = 6.33032 6.67510 6.50500
#
# Compressibility (1/GPa) = 0.02109249
#
# Stress axis : x y z
#
# Youngs Moduli (GPa) = 60.18724 55.73886 76.89923
#
# Poissons Ratio (x) = 0.33149 0.31240
# Poissons Ratio (y) = 0.35795 0.24791
# Poissons Ratio (z) = 0.24451 0.17969
#
# Static dielectric constant tensor:
#      x y z
#    x 3.765860 0.000000 0.033680 
#    y 0.000000 3.590870 0.000000 
#    z 0.033680 0.000000 4.027910 
# 
# 
# High freq. dielectric constant tensor:
#      x y z
#    x 1.819010 0.000000 -0.001680 
#    y 0.000000 1.784280 0.000000 
#    z -0.001680 0.000000 1.826500 
# 
# From -- ./inp_files/54616.got.cif
#   From: 2010.06.25/outbox.cif.g09.slc.cpg/sg11_28_cif.got.tgz:54616.got - 2010.06.27 23:14:04.
