data_PCOD8074675
_publ_section_title
;
Structure prediction by ZEFSAII (Michael W. Deem and Ramdas Pophale) SiO2 
 PCOD8074675
Probable space group: P 21/M
;
_chemical_formula_sum "Si O2"
_cell_formula_units_Z 20
_cell_length_a 12.418765
_cell_length_b 10.811701
_cell_length_c 15.547646
_cell_angle_alpha 90.000000
_cell_angle_beta 29.602598
_cell_angle_gamma 90.000000
_cell_volume 1031.211105
_symmetry_space_group_name_H-M "P 21/M"
_symmetry_group_IT_number 11
_symmetry_cell_setting 'monoclinic'
loop_
_space_group_symop_operation_xyz
x,y,z
-x,1/2+y,-z
-x,-y,-z
x,1/2-y,z
loop_
_atom_site_type_symbol
_atom_site_label
_atom_site_fract_x
_atom_site_fract_y
_atom_site_fract_z
Si Si1 0.791486 0.889341 0.311295
Si Si2 0.419503 0.887010 0.443725
Si Si3 0.912747 0.387857 0.666793
Si Si4 0.662941 0.464934 0.681897
Si Si5 0.740569 0.109393 0.964345
O O1 0.742077 0.750000 0.382927
O O2 0.665361 0.906882 0.308714
O O3 0.050581 0.902577 0.117114
O O4 0.723901 0.997705 0.424388
O O5 0.333771 0.750000 0.533654
O O6 0.420459 0.883167 0.339765
O O7 0.980009 0.250000 0.646085
O O8 0.741390 0.382643 0.707429
O O9 0.802070 0.449854 0.828202
O O10 0.134063 0.453941 0.488271
O O11 0.461656 0.545234 0.851899
O O12 0.668564 0.250000 0.000576
#
# Coordination Sequence:
#
# PCOD8074675 Si02
#       5
#     4   4   4   4   4
#     4   9  19  37  60  84 116 153 190 234 283 341
#     4  10  20  36  58  86 118 151 189 236 289 338
#     4  10  21  37  54  79 114 151 191 237 282 336
#     4  11  21  34  58  82 113 149 191 232 289 337
#     4  10  20  36  58  84 111 147 195 238 279 339
#
# _framework density 19.394670999999999
#
# number of rings (size 3 to 8) (size 9 to 14) (size 15 to 20)
#    0.000    2.000    2.000    1.800    0.000    1.600 
#    0.000    2.000    0.000    0.000    0.000    0.000 
#    0.000    0.000    0.000    0.000    0.000    0.000 
#
# Total GULP energy -247803.063505 kJ/mol
# GULP energy per Si atom -12390.153175 kJ/mol
# Density = 1.935053 g / cm^3
# Si number density = 19.394671 Si / 1000 Ang^3
#
#
#
# Elastic Constant Matrix: (Units=GPa)
#
#
# Indices 1 2 3 4 5 6 
#
# 1 131.4100 21.9143 32.5812 0.0000 -7.1060 0.0000
# 2 21.9143 94.6657 44.1514 0.0000 -2.7224 0.0000
# 3 32.5812 44.1514 99.1844 0.0000 -10.8445 0.0000
# 4 0.0000 0.0000 0.0000 25.5927 0.0000 1.7167
# 5 -7.1060 -2.7224 -10.8445 0.0000 17.2628 0.0000
# 6 0.0000 0.0000 0.0000 1.7167 0.0000 22.5553
#
#
#
# Elastic Compliance Matrix: (Units=1/GPa)
#
#
# Indices 1 2 3 4 5 6 
#
# 1 0.008397 -0.000885 -0.002149 0.000000 0.001967 0.000000
# 2 -0.000885 0.013474 -0.005921 0.000000 -0.001959 0.000000
# 3 -0.002149 -0.005921 0.014201 0.000000 0.007102 0.000000
# 4 0.000000 0.000000 0.000000 0.039274 0.000000 -0.002989
# 5 0.001967 -0.001959 0.007102 0.000000 0.062890 0.000000
# 6 0.000000 0.000000 0.000000 -0.002989 0.000000 0.044563
#
#
# Mechanical properties :
#
#
# Convention : Reuss Voigt Hill
#
# Bulk Modulus (GPa) = 55.06582 58.06153 56.56368
# Shear Modulus (GPa) = 24.18236 28.18969 26.18602
#
# Velocity S-wave (km/s) = 3.53492 3.81658 3.67845
# Velocity P-wave (km/s) = 6.71675 7.03019 6.87526
#
# Compressibility (1/GPa) = 0.01816008
#
# Stress axis : x y z
#
# Youngs Moduli (GPa) = 119.09645 74.21922 70.41945
#
# Poissons Ratio (x) = 0.06567 0.15136
# Poissons Ratio (y) = 0.10537 0.41697
# Poissons Ratio (z) = 0.25598 0.43947
#
# Static dielectric constant tensor:
#      x y z
#    x 4.033770 0.000000 -0.074160 
#    y 0.000000 3.539490 0.000000 
#    z -0.074160 0.000000 3.262160 
# 
# 
# High freq. dielectric constant tensor:
#      x y z
#    x 1.779470 0.000000 -0.013190 
#    y 0.000000 1.752090 0.000000 
#    z -0.013190 0.000000 1.727180 
# 
# From -- ./inp_files/7622.got.cif
#   From: 2010.06.25/outbox.cif.g09.slc.cpg/sg11_4_cif.got.tgz:7622.got - 2010.06.27 23:14:04.
