data_PCOD8074879
_publ_section_title
;
Structure prediction by ZEFSAII (Michael W. Deem and Ramdas Pophale) SiO2 
 PCOD8074879
Probable space group: P 21/M
;
_chemical_formula_sum "Si O2"
_cell_formula_units_Z 32
_cell_length_a 22.865236
_cell_length_b 8.750221
_cell_length_c 14.026477
_cell_angle_alpha 90.000000
_cell_angle_beta 143.175318
_cell_angle_gamma 90.000000
_cell_volume 1682.043477
_symmetry_space_group_name_H-M "P 21/M"
_symmetry_group_IT_number 11
_symmetry_cell_setting 'monoclinic'
loop_
_space_group_symop_operation_xyz
x,y,z
-x,1/2+y,-z
-x,-y,-z
x,1/2-y,z
loop_
_atom_site_type_symbol
_atom_site_label
_atom_site_fract_x
_atom_site_fract_y
_atom_site_fract_z
Si Si1 0.930097 0.071795 0.032345
Si Si2 0.396765 0.075053 0.382168
Si Si3 0.396468 0.570308 0.893959
Si Si4 0.463148 0.079770 0.667757
Si Si5 0.129946 0.927918 0.254885
Si Si6 0.238415 0.927546 0.048042
Si Si7 0.649083 0.572820 0.964716
Si Si8 0.700660 0.926038 0.401341
O O1 0.958120 0.250000 0.063813
O O2 0.871658 0.026552 0.859323
O O3 0.866824 0.034186 0.043919
O O4 0.027237 0.972405 0.168680
O O5 0.390439 0.250000 0.336189
O O6 0.384065 0.066538 0.479877
O O7 0.500000 0.000000 0.500000
O O8 0.315614 0.971389 0.229231
O O9 0.408734 0.750000 0.905874
O O10 0.308682 0.518239 0.709452
O O11 0.500000 0.500000 0.000000
O O12 0.361642 0.522458 0.953196
O O13 0.509557 0.250000 0.728220
O O14 0.404814 0.049791 0.688185
O O15 0.552630 0.960316 0.774432
O O16 0.148840 0.750000 0.293541
O O17 0.214629 0.015604 0.419922
O O18 0.248358 0.750000 0.037439
O O19 0.256479 0.020825 0.973640
O O20 0.657956 0.750000 0.000909
O O21 0.721299 0.750000 0.405197
#
# Coordination Sequence:
#
# PCOD8074879 Si02
#       8
#     4   4   4   4   4   4   4   4
#     4   9  20  38  60  86 118 156 194 236 288 346
#     4  11  21  32  48  74 109 149 190 229 276 333
#     4  12  24  40  60  84 115 151 195 242 291 344
#     4  10  21  35  52  75 110 151 190 232 279 335
#     4  10  20  36  60  90 120 151 192 242 291 343
#     4  11  22  37  56  79 113 154 195 238 287 345
#     4  12  24  37  56  80 110 150 193 237 285 341
#     4  11  22  37  59  85 115 151 192 239 291 345
#
# _framework density 19.024477999999998
#
# number of rings (size 3 to 8) (size 9 to 14) (size 15 to 20)
#    0.000    1.250    2.500    4.500    0.000    2.500 
#    0.000    0.000    0.000    0.750    0.000    0.000 
#    0.000    0.000    0.000    0.000    0.000    0.000 
#
# Total GULP energy -396815.303038 kJ/mol
# GULP energy per Si atom -12400.478220 kJ/mol
# Density = 1.898118 g / cm^3
# Si number density = 19.024478 Si / 1000 Ang^3
#
#
#
# Elastic Constant Matrix: (Units=GPa)
#
#
# Indices 1 2 3 4 5 6 
#
# 1 106.7142 43.7728 25.7655 0.0000 -4.2346 0.0000
# 2 43.7728 113.3721 33.8843 0.0000 0.5797 0.0000
# 3 25.7655 33.8843 54.2190 0.0000 -6.0727 0.0000
# 4 0.0000 0.0000 0.0000 33.4420 0.0000 -1.2691
# 5 -4.2346 0.5797 -6.0727 0.0000 20.8581 0.0000
# 6 0.0000 0.0000 0.0000 -1.2691 0.0000 29.4662
#
#
#
# Elastic Compliance Matrix: (Units=1/GPa)
#
#
# Indices 1 2 3 4 5 6 
#
# 1 0.011654 -0.003571 -0.003132 0.000000 0.001553 0.000000
# 2 -0.003571 0.012054 -0.006155 0.000000 -0.002852 0.000000
# 3 -0.003132 -0.006155 0.024527 0.000000 0.006676 0.000000
# 4 0.000000 0.000000 0.000000 0.029951 0.000000 0.001290
# 5 0.001553 -0.002852 0.006676 0.000000 0.050281 0.000000
# 6 0.000000 0.000000 0.000000 0.001290 0.000000 0.033993
#
#
# Mechanical properties :
#
#
# Convention : Reuss Voigt Hill
#
# Bulk Modulus (GPa) = 44.41174 53.46117 48.93645
# Shear Modulus (GPa) = 25.55164 28.14544 26.84854
#
# Velocity S-wave (km/s) = 3.66880 3.85051 3.76075
# Velocity P-wave (km/s) = 6.42977 6.92321 6.68105
#
# Compressibility (1/GPa) = 0.02251657
#
# Stress axis : x y z
#
# Youngs Moduli (GPa) = 85.81059 82.96258 40.77204
#
# Poissons Ratio (x) = 0.29628 0.12770
# Poissons Ratio (y) = 0.30645 0.25096
# Poissons Ratio (z) = 0.26877 0.51066
#
# Static dielectric constant tensor:
#      x y z
#    x 3.649840 0.000000 -0.210440 
#    y 0.000000 3.592930 0.000000 
#    z -0.210440 0.000000 3.318150 
# 
# 
# High freq. dielectric constant tensor:
#      x y z
#    x 1.743140 0.000000 -0.010220 
#    y 0.000000 1.750540 0.000000 
#    z -0.010220 0.000000 1.713260 
# 
# From -- ./inp_files/55682.got.cif
#   From: 2010.06.25/outbox.cif.g09.slc.cpg/sg11_28_cif.got.tgz:55682.got - 2010.06.27 23:14:04.
