data_PCOD8074064
_publ_section_title
;
Structure prediction by ZEFSAII (Michael W. Deem and Ramdas Pophale) SiO2 
 PCOD8074064
Probable space group: P 21/M
;
_chemical_formula_sum "Si O2"
_cell_formula_units_Z 32
_cell_length_a 15.608579
_cell_length_b 8.943889
_cell_length_c 25.279473
_cell_angle_alpha 90.000000
_cell_angle_beta 29.736482
_cell_angle_gamma 90.000000
_cell_volume 1750.449810
_symmetry_space_group_name_H-M "P 21/M"
_symmetry_group_IT_number 11
_symmetry_cell_setting 'monoclinic'
loop_
_space_group_symop_operation_xyz
x,y,z
-x,1/2+y,-z
-x,-y,-z
x,1/2-y,z
loop_
_atom_site_type_symbol
_atom_site_label
_atom_site_fract_x
_atom_site_fract_y
_atom_site_fract_z
Si Si1 0.194833 0.922646 0.945187
Si Si2 0.346253 0.074637 0.650157
Si Si3 0.591185 0.075315 0.902108
Si Si4 0.268877 0.575512 0.586217
Si Si5 0.015707 0.920150 0.328219
Si Si6 0.852917 0.424529 0.149842
Si Si7 0.111290 0.924922 0.395336
Si Si8 0.543027 0.925499 0.819039
O O1 0.144462 0.750000 0.979255
O O2 0.209052 0.965026 0.875941
O O3 0.375958 0.961586 0.874168
O O4 0.048311 0.018663 0.053157
O O5 0.315227 0.250000 0.667740
O O6 0.547829 0.031861 0.537796
O O7 0.242251 0.009202 0.655907
O O8 0.277258 0.005727 0.741095
O O9 0.547399 0.250000 0.923092
O O10 0.795882 0.048819 0.797055
O O11 0.514709 0.998202 0.891216
O O12 0.500000 0.000000 0.000000
O O13 0.257423 0.750000 0.604180
O O14 0.119443 0.530869 0.625864
O O15 0.958676 0.750000 0.347847
O O16 0.018161 0.953297 0.389351
O O17 0.846192 0.250000 0.165366
O O18 0.134175 0.750000 0.394058
O O19 0.298082 0.000396 0.296627
O O20 0.000000 0.000000 0.500000
O O21 0.576658 0.750000 0.807475
#
# Coordination Sequence:
#
# PCOD8074064 Si02
#       8
#     4   4   4   4   4   4   4   4
#     4   9  20  37  55  78 109 142 175 216 267 316
#     4  10  21  37  55  77 108 141 173 216 267 314
#     4  10  21  37  56  80 108 141 180 220 266 317
#     4  10  21  36  56  81 105 136 179 220 260 312
#     4   9  20  37  55  77 108 142 174 216 268 315
#     4  10  20  35  56  80 106 139 179 219 259 311
#     4  10  21  37  56  80 110 143 180 220 264 315
#     4  10  20  36  57  80 108 142 178 219 269 319
#
# _framework density 18.281015
#
# number of rings (size 3 to 8) (size 9 to 14) (size 15 to 20)
#    0.000    2.250    0.000    3.000    0.000    8.000 
#    0.000    5.000    0.000    0.000    0.000    0.000 
#    0.000    0.000    0.000    0.000    0.000    0.000 
#
# Total GULP energy -396936.224380 kJ/mol
# GULP energy per Si atom -12404.257012 kJ/mol
# Density = 1.823941 g / cm^3
# Si number density = 18.281015 Si / 1000 Ang^3
#
#
#
# Elastic Constant Matrix: (Units=GPa)
#
#
# Indices 1 2 3 4 5 6 
#
# 1 106.2891 61.3481 70.8116 0.0000 -6.9202 0.0000
# 2 61.3481 111.7777 68.2392 0.0000 1.3234 0.0000
# 3 70.8116 68.2392 126.0747 0.0000 19.2289 0.0000
# 4 0.0000 0.0000 0.0000 38.7736 0.0000 1.9938
# 5 -6.9202 1.3234 19.2289 0.0000 28.5781 0.0000
# 6 0.0000 0.0000 0.0000 1.9938 0.0000 35.5171
#
#
#
# Elastic Compliance Matrix: (Units=1/GPa)
#
#
# Indices 1 2 3 4 5 6 
#
# 1 0.019858 -0.004642 -0.010483 0.000000 0.012077 0.000000
# 2 -0.004642 0.015047 -0.005861 0.000000 0.002123 0.000000
# 3 -0.010483 -0.005861 0.019320 0.000000 -0.015267 0.000000
# 4 0.000000 0.000000 0.000000 0.025865 0.000000 -0.001452
# 5 0.012077 0.002123 -0.015267 0.000000 0.048090 0.000000
# 6 0.000000 0.000000 0.000000 -0.001452 0.000000 0.028237
#
#
# Mechanical properties :
#
#
# Convention : Reuss Voigt Hill
#
# Bulk Modulus (GPa) = 81.60781 82.77104 82.18943
# Shear Modulus (GPa) = 24.69463 30.15659 27.42561
#
# Velocity S-wave (km/s) = 3.67936 4.06595 3.87747
# Velocity P-wave (km/s) = 7.92388 8.21084 8.06864
#
# Compressibility (1/GPa) = 0.01225373
#
# Stress axis : x y z
#
# Youngs Moduli (GPa) = 50.35832 66.45903 51.75920
#
# Poissons Ratio (x) = 0.30851 0.54258
# Poissons Ratio (y) = 0.23377 0.30335
# Poissons Ratio (z) = 0.52789 0.38950
#
# Static dielectric constant tensor:
#      x y z
#    x 3.345730 0.000000 0.042450 
#    y 0.000000 3.492260 0.000000 
#    z 0.042450 0.000000 3.398140 
# 
# 
# High freq. dielectric constant tensor:
#      x y z
#    x 1.708640 0.000000 0.002980 
#    y 0.000000 1.723510 0.000000 
#    z 0.002980 0.000000 1.711940 
# 
# From -- ./inp_files/69061.got.cif
#   From: 2010.06.25/outbox.cif.g09.slc.cpg/sg11_35_cif.got.tgz:69061.got - 2010.06.27 23:14:04.
