data_PCOD8074522
_publ_section_title
;
Structure prediction by ZEFSAII (Michael W. Deem and Ramdas Pophale) SiO2 
 PCOD8074522
Probable space group: P 21/M
;
_chemical_formula_sum "Si O2"
_cell_formula_units_Z 32
_cell_length_a 15.930559
_cell_length_b 8.981137
_cell_length_c 24.248671
_cell_angle_alpha 90.000000
_cell_angle_beta 27.269933
_cell_angle_gamma 90.000000
_cell_volume 1589.605708
_symmetry_space_group_name_H-M "P 21/M"
_symmetry_group_IT_number 11
_symmetry_cell_setting 'monoclinic'
loop_
_space_group_symop_operation_xyz
x,y,z
-x,1/2+y,-z
-x,-y,-z
x,1/2-y,z
loop_
_atom_site_type_symbol
_atom_site_label
_atom_site_fract_x
_atom_site_fract_y
_atom_site_fract_z
Si Si1 0.686043 0.924493 0.370993
Si Si2 0.405405 0.077579 0.282309
Si Si3 0.794422 0.078869 0.694628
Si Si4 0.814718 0.582692 0.485814
Si Si5 0.770896 0.922788 0.084057
Si Si6 0.134997 0.078438 0.847087
Si Si7 0.673834 0.574946 0.871927
Si Si8 0.068100 0.576182 0.686640
O O1 0.667212 0.750000 0.392552
O O2 0.722648 0.959911 0.285068
O O3 0.500000 0.000000 0.500000
O O4 0.860339 0.986415 0.302546
O O5 0.397482 0.250000 0.270271
O O6 0.360676 0.054434 0.373203
O O7 0.255098 0.987796 0.335559
O O8 0.605903 0.013598 0.153077
O O9 0.733008 0.250000 0.733878
O O10 0.010072 0.059872 0.577414
O O11 0.684448 0.986310 0.804252
O O12 0.813704 0.750000 0.461776
O O13 0.811809 0.467551 0.437075
O O14 0.743644 0.750000 0.087030
O O15 0.770398 0.955507 0.149741
O O16 0.955852 0.976223 0.946344
O O17 0.072132 0.250000 0.880480
O O18 0.645787 0.750000 0.886186
O O19 0.856398 0.532990 0.799911
O O20 0.500000 0.500000 0.000000
O O21 0.095197 0.750000 0.681611
#
# Coordination Sequence:
#
# PCOD8074522 Si02
#       8
#     4   4   4   4   4   4   4   4
#     4  11  24  41  63  91 122 157 200 248 301 357
#     4  11  22  35  55  85 117 150 192 236 287 347
#     4  10  20  36  56  81 114 150 192 239 288 341
#     4   9  20  37  57  82 115 154 193 236 286 343
#     4  10  21  38  61  87 114 151 196 241 294 350
#     4   9  21  42  62  83 116 153 192 242 296 349
#     4  10  21  38  60  85 116 156 198 243 293 350
#     4  10  22  39  59  86 118 154 197 243 296 353
#
# _framework density 20.130777999999999
#
# number of rings (size 3 to 8) (size 9 to 14) (size 15 to 20)
#    0.000    2.000    0.000    2.625    1.750    5.500 
#    0.000    2.500    0.000    0.000    0.000    0.000 
#    0.000    0.000    0.000    0.000    0.000    0.000 
#
# Total GULP energy -396907.287539 kJ/mol
# GULP energy per Si atom -12403.352736 kJ/mol
# Density = 2.008496 g / cm^3
# Si number density = 20.130778 Si / 1000 Ang^3
#
#
#
# Elastic Constant Matrix: (Units=GPa)
#
#
# Indices 1 2 3 4 5 6 
#
# 1 64.1417 33.7010 20.2626 0.0000 5.9079 0.0000
# 2 33.7010 96.9145 43.8583 0.0000 1.4854 0.0000
# 3 20.2626 43.8583 97.8885 0.0000 9.0629 0.0000
# 4 0.0000 0.0000 0.0000 35.3533 0.0000 -0.2651
# 5 5.9079 1.4854 9.0629 0.0000 24.0215 0.0000
# 6 0.0000 0.0000 0.0000 -0.2651 0.0000 37.0692
#
#
#
# Elastic Compliance Matrix: (Units=1/GPa)
#
#
# Indices 1 2 3 4 5 6 
#
# 1 0.019577 -0.006376 -0.000815 0.000000 -0.004113 0.000000
# 2 -0.006376 0.015067 -0.005689 0.000000 0.002783 0.000000
# 3 -0.000815 -0.005689 0.013348 0.000000 -0.004484 0.000000
# 4 0.000000 0.000000 0.000000 0.028287 0.000000 0.000202
# 5 -0.004113 0.002783 -0.004484 0.000000 0.044161 0.000000
# 6 0.000000 0.000000 0.000000 0.000202 0.000000 0.026978
#
#
# Mechanical properties :
#
#
# Convention : Reuss Voigt Hill
#
# Bulk Modulus (GPa) = 44.97702 50.50984 47.74343
# Shear Modulus (GPa) = 27.68738 30.03034 28.85886
#
# Velocity S-wave (km/s) = 3.71263 3.86652 3.79036
# Velocity P-wave (km/s) = 6.38507 6.71407 6.55163
#
# Compressibility (1/GPa) = 0.02223358
#
# Stress axis : x y z
#
# Youngs Moduli (GPa) = 51.08127 66.36941 74.91614
#
# Poissons Ratio (x) = 0.42316 0.06105
# Poissons Ratio (y) = 0.32568 0.42617
# Poissons Ratio (z) = 0.04163 0.37755
#
# Static dielectric constant tensor:
#      x y z
#    x 3.595600 0.000000 0.012210 
#    y 0.000000 3.718750 0.000000 
#    z 0.012210 0.000000 3.549680 
# 
# 
# High freq. dielectric constant tensor:
#      x y z
#    x 1.780880 0.000000 -0.000100 
#    y 0.000000 1.796290 0.000000 
#    z -0.000100 0.000000 1.784870 
# 
# From -- ./inp_files/55616.got.cif
#   From: 2010.06.25/outbox.cif.g09.slc.cpg/sg11_28_cif.got.tgz:55616.got - 2010.06.27 23:14:04.
