data_PCOD8074591
_publ_section_title
;
Structure prediction by ZEFSAII (Michael W. Deem and Ramdas Pophale) SiO2 
 PCOD8074591
Probable space group: P 21/M
;
_chemical_formula_sum "Si O2"
_cell_formula_units_Z 32
_cell_length_a 14.274064
_cell_length_b 9.350951
_cell_length_c 12.557194
_cell_angle_alpha 90.000000
_cell_angle_beta 94.075628
_cell_angle_gamma 90.000000
_cell_volume 1671.846302
_symmetry_space_group_name_H-M "P 21/M"
_symmetry_group_IT_number 11
_symmetry_cell_setting 'monoclinic'
loop_
_space_group_symop_operation_xyz
x,y,z
-x,1/2+y,-z
-x,-y,-z
x,1/2-y,z
loop_
_atom_site_type_symbol
_atom_site_label
_atom_site_fract_x
_atom_site_fract_y
_atom_site_fract_z
Si Si1 0.035681 0.918348 0.400543
Si Si2 0.592576 0.417449 0.473995
Si Si3 0.904647 0.582946 0.005348
Si Si4 0.136994 0.086048 0.757230
Si Si5 0.316495 0.583877 0.739709
Si Si6 0.757651 0.083275 0.635851
Si Si7 0.592674 0.084422 0.033998
Si Si8 0.248629 0.585777 0.123667
O O1 0.038530 0.750000 0.424943
O O2 0.138355 0.980031 0.377416
O O3 0.964919 0.953207 0.298075
O O4 0.000000 0.000000 0.500000
O O5 0.500000 0.500000 0.500000
O O6 0.577643 0.250000 0.496198
O O7 0.612439 0.445967 0.351286
O O8 0.679941 0.480494 0.549361
O O9 0.921542 0.750000 0.986606
O O10 0.862820 0.552197 0.117979
O O11 0.833764 0.521620 0.912939
O O12 0.000000 0.500000 0.000000
O O13 0.161333 0.250000 0.736236
O O14 0.218102 0.993679 0.708322
O O15 0.292226 0.750000 0.748491
O O16 0.363247 0.525839 0.852261
O O17 0.764909 0.250000 0.614559
O O18 0.723664 0.050792 0.752866
O O19 0.566926 0.250000 0.044401
O O20 0.662274 0.056368 0.942332
O O21 0.500000 0.000000 0.000000
O O22 0.213535 0.750000 0.109166
#
# Coordination Sequence:
#
# PCOD8074591 Si02
#       8
#     4   4   4   4   4   4   4   4
#     4  10  20  36  57  82 111 146 187 230 276 330
#     4  10  22  39  60  84 111 149 192 234 285 336
#     4  11  22  36  56  84 116 153 192 231 280 336
#     4  10  21  36  57  85 114 147 187 232 281 336
#     4  10  21  39  60  85 115 148 188 236 287 336
#     4   9  19  37  59  81 111 151 188 225 277 341
#     4  10  22  37  58  86 115 150 189 235 289 343
#     4  10  20  38  60  83 114 151 191 233 282 341
#
# _framework density 19.140515000000001
#
# number of rings (size 3 to 8) (size 9 to 14) (size 15 to 20)
#    0.000    2.000    1.250    1.875    1.750    5.500 
#    0.000    3.125    0.000    0.000    0.000    0.000 
#    0.000    0.000    0.000    0.000    0.000    0.000 
#
# Total GULP energy -396883.827159 kJ/mol
# GULP energy per Si atom -12402.619599 kJ/mol
# Density = 1.909695 g / cm^3
# Si number density = 19.140515 Si / 1000 Ang^3
#
#
#
# Elastic Constant Matrix: (Units=GPa)
#
#
# Indices 1 2 3 4 5 6 
#
# 1 153.3622 54.2331 62.9905 0.0000 1.8425 0.0000
# 2 54.2331 58.3227 32.9456 0.0000 -4.5077 0.0000
# 3 62.9905 32.9456 126.2969 0.0000 -0.5313 0.0000
# 4 0.0000 0.0000 0.0000 26.5588 0.0000 -0.0704
# 5 1.8425 -4.5077 -0.5313 0.0000 31.9413 0.0000
# 6 0.0000 0.0000 0.0000 -0.0704 0.0000 39.5801
#
#
#
# Elastic Compliance Matrix: (Units=1/GPa)
#
#
# Indices 1 2 3 4 5 6 
#
# 1 0.010837 -0.008402 -0.003221 0.000000 -0.001864 0.000000
# 2 -0.008402 0.026867 -0.002800 0.000000 0.004230 0.000000
# 3 -0.003221 -0.002800 0.010255 0.000000 -0.000039 0.000000
# 4 0.000000 0.000000 0.000000 0.037652 0.000000 0.000067
# 5 -0.001864 0.004230 -0.000039 0.000000 0.032011 0.000000
# 6 0.000000 0.000000 0.000000 0.000067 0.000000 0.025265
#
#
# Mechanical properties :
#
#
# Convention : Reuss Voigt Hill
#
# Bulk Modulus (GPa) = 52.32155 70.92448 61.62302
# Shear Modulus (GPa) = 28.07327 32.13688 30.10507
#
# Velocity S-wave (km/s) = 3.83390 4.10200 3.97021
# Velocity P-wave (km/s) = 6.85516 7.71818 7.29944
#
# Compressibility (1/GPa) = 0.01911258
#
# Stress axis : x y z
#
# Youngs Moduli (GPa) = 92.27681 37.21996 97.51570
#
# Poissons Ratio (x) = 0.31271 0.31411
# Poissons Ratio (y) = 0.77527 0.27309
# Poissons Ratio (z) = 0.29724 0.10423
#
# Static dielectric constant tensor:
#      x y z
#    x 3.627650 0.000000 0.086500 
#    y 0.000000 3.372730 0.000000 
#    z 0.086500 0.000000 3.798020 
# 
# 
# High freq. dielectric constant tensor:
#      x y z
#    x 1.751010 0.000000 0.000240 
#    y 0.000000 1.724530 0.000000 
#    z 0.000240 0.000000 1.757830 
# 
# From -- ./inp_files/38075.got.cif
#   From: 2010.06.25/outbox.cif.g09.slc.cpg/sg11_20_cif.got.tgz:38075.got - 2010.06.27 23:14:04.
