data_PCOD8074042
_publ_section_title
;
Structure prediction by ZEFSAII (Michael W. Deem and Ramdas Pophale) SiO2 
 PCOD8074042
Probable space group: P 21/M
;
_chemical_formula_sum "Si O2"
_cell_formula_units_Z 28
_cell_length_a 21.023774
_cell_length_b 8.684980
_cell_length_c 14.474943
_cell_angle_alpha 90.000000
_cell_angle_beta 150.073643
_cell_angle_gamma 90.000000
_cell_volume 1318.554525
_symmetry_space_group_name_H-M "P 21/M"
_symmetry_group_IT_number 11
_symmetry_cell_setting 'monoclinic'
loop_
_space_group_symop_operation_xyz
x,y,z
-x,1/2+y,-z
-x,-y,-z
x,1/2-y,z
loop_
_atom_site_type_symbol
_atom_site_label
_atom_site_fract_x
_atom_site_fract_y
_atom_site_fract_z
Si Si1 0.385063 0.427951 0.302458
Si Si2 0.480267 0.429789 0.228306
Si Si3 0.896525 0.568693 0.441668
Si Si4 0.937947 0.073905 0.683547
Si Si5 0.390473 0.931231 0.929287
Si Si6 0.135772 0.431914 0.082096
Si Si7 0.239620 0.924362 0.385990
O O1 0.500000 0.500000 0.500000
O O2 0.390445 0.250000 0.331356
O O3 0.383051 0.456390 0.189921
O O4 0.258790 0.500669 0.185734
O O5 0.486499 0.250000 0.205480
O O6 0.617087 0.489012 0.438295
O O7 0.435124 0.536823 0.089006
O O8 0.886510 0.750000 0.410936
O O9 0.952441 0.534727 0.613467
O O10 0.753088 0.499215 0.259685
O O11 0.000000 0.500000 0.500000
O O12 0.972611 0.250000 0.698796
O O13 0.797360 0.063684 0.551806
O O14 0.022031 0.009519 0.874181
O O15 0.381410 0.750000 0.898649
O O16 0.500000 0.000000 0.000000
O O17 0.129769 0.250000 0.078795
O O18 0.138643 0.491101 0.191230
O O19 0.236231 0.750000 0.347461
#
# Coordination Sequence:
#
# PCOD8074042 Si02
#       7
#     4   4   4   4   4   4   4
#     4  10  20  35  55  83 119 162 206 256 313 372
#     4  10  21  37  60  90 124 165 211 264 324 383
#     4  12  27  48  72 100 133 174 223 280 339 401
#     4  10  22  40  62  89 123 165 212 263 321 383
#     4  12  26  46  72 103 134 173 223 279 338 400
#     4  10  21  35  56  87 123 163 206 255 312 376
#     4  10  20  36  59  88 124 165 207 257 315 377
#
# _framework density 21.235374
#
# number of rings (size 3 to 8) (size 9 to 14) (size 15 to 20)
#    0.000    1.429    1.429    3.857    2.000    3.429 
#    0.000    0.000    0.000    0.000    0.000    0.000 
#    0.000    0.000    0.000    0.000    0.000    0.000 
#
# Total GULP energy -347007.803220 kJ/mol
# GULP energy per Si atom -12393.135829 kJ/mol
# Density = 2.118704 g / cm^3
# Si number density = 21.235374 Si / 1000 Ang^3
#
#
#
# Elastic Constant Matrix: (Units=GPa)
#
#
# Indices 1 2 3 4 5 6 
#
# 1 129.8915 46.7077 51.6165 0.0000 -3.3788 0.0000
# 2 46.7077 94.0078 42.8606 0.0000 -0.5533 0.0000
# 3 51.6165 42.8606 99.6819 0.0000 -4.3387 0.0000
# 4 0.0000 0.0000 0.0000 34.6577 0.0000 -7.9592
# 5 -3.3788 -0.5533 -4.3387 0.0000 37.3884 0.0000
# 6 0.0000 0.0000 0.0000 -7.9592 0.0000 33.0710
#
#
#
# Elastic Compliance Matrix: (Units=1/GPa)
#
#
# Indices 1 2 3 4 5 6 
#
# 1 0.010510 -0.003417 -0.003954 0.000000 0.000440 0.000000
# 2 -0.003417 0.014350 -0.004428 0.000000 -0.000610 0.000000
# 3 -0.003954 -0.004428 0.014036 0.000000 0.001206 0.000000
# 4 0.000000 0.000000 0.000000 0.030542 0.000000 0.007350
# 5 0.000440 -0.000610 0.001206 0.000000 0.026917 0.000000
# 6 0.000000 0.000000 0.000000 0.007350 0.000000 0.032007
#
#
# Mechanical properties :
#
#
# Convention : Reuss Voigt Hill
#
# Bulk Modulus (GPa) = 65.36235 67.32786 66.34511
# Shear Modulus (GPa) = 31.83554 33.18316 32.50935
#
# Velocity S-wave (km/s) = 3.87612 3.95731 3.91692
# Velocity P-wave (km/s) = 7.13296 7.25636 7.19492
#
# Compressibility (1/GPa) = 0.01529933
#
# Stress axis : x y z
#
# Youngs Moduli (GPa) = 95.14749 69.68655 71.24763
#
# Poissons Ratio (x) = 0.23809 0.28171
# Poissons Ratio (y) = 0.32508 0.31545
# Poissons Ratio (z) = 0.37621 0.30854
#
# Static dielectric constant tensor:
#      x y z
#    x -146.057540 0.000000 77.679840 
#    y 0.000000 3.721900 0.000000 
#    z 77.679840 0.000000 -35.773510 
# 
# 
# High freq. dielectric constant tensor:
#      x y z
#    x 1.854420 0.000000 0.005180 
#    y 0.000000 1.813500 0.000000 
#    z 0.005180 0.000000 1.839780 
# 
# From -- ./inp_files/54635.got.cif
#   From: 2010.06.25/outbox.cif.g09.slc.cpg/sg11_28_cif.got.tgz:54635.got - 2010.06.27 23:14:04.
