data_PCOD8074657
_publ_section_title
;
Structure prediction by ZEFSAII (Michael W. Deem and Ramdas Pophale) SiO2 
 PCOD8074657
Probable space group: P 21/M
;
_chemical_formula_sum "Si O2"
_cell_formula_units_Z 24
_cell_length_a 12.603309
_cell_length_b 8.726784
_cell_length_c 24.163508
_cell_angle_alpha 90.000000
_cell_angle_beta 29.133363
_cell_angle_gamma 90.000000
_cell_volume 1293.864204
_symmetry_space_group_name_H-M "P 21/M"
_symmetry_group_IT_number 11
_symmetry_cell_setting 'monoclinic'
loop_
_space_group_symop_operation_xyz
x,y,z
-x,1/2+y,-z
-x,-y,-z
x,1/2-y,z
loop_
_atom_site_type_symbol
_atom_site_label
_atom_site_fract_x
_atom_site_fract_y
_atom_site_fract_z
Si Si1 0.332089 0.931195 0.212975
Si Si2 0.101978 0.931084 0.634886
Si Si3 0.766743 0.431545 0.619402
Si Si4 0.539981 0.430841 0.614235
Si Si5 0.368860 0.930051 0.008906
Si Si6 0.878838 0.930328 0.258080
O O1 0.350146 0.750000 0.201293
O O2 0.317709 0.989976 0.282727
O O3 0.546048 0.004025 0.088004
O O4 0.123972 0.984160 0.273218
O O5 0.066870 0.750000 0.645915
O O6 0.280876 0.994832 0.510369
O O7 0.180754 0.975630 0.659978
O O8 0.790543 0.250000 0.608310
O O9 0.595870 0.489493 0.650615
O O10 0.000000 0.500000 0.500000
O O11 0.556066 0.250000 0.605173
O O12 0.297272 0.482863 0.707806
O O13 0.404016 0.750000 0.994425
O O14 0.115966 0.975622 0.127748
O O15 0.500000 0.000000 0.000000
O O16 0.861802 0.750000 0.278836
#
# Coordination Sequence:
#
# PCOD8074657 Si02
#       6
#     4   4   4   4   4   4
#     4  11  22  35  55  83 113 145 184 228 274 327
#     4  11  20  32  56  84 113 144 178 227 278 330
#     4  10  20  36  58  82 110 145 184 227 273 326
#     4   9  19  36  56  81 112 146 181 223 279 333
#     4  11  22  36  57  81 110 146 186 232 275 325
#     4  10  21  37  56  79 111 147 183 225 278 334
#
# _framework density 18.549088000000001
#
# number of rings (size 3 to 8) (size 9 to 14) (size 15 to 20)
#    0.000    1.667    3.333    2.000    0.000    1.333 
#    0.000    2.500    0.000    0.000    0.000    0.000 
#    0.000    0.000    0.000    0.000    0.000    0.000 
#
# Total GULP energy -297643.376246 kJ/mol
# GULP energy per Si atom -12401.807344 kJ/mol
# Density = 1.850687 g / cm^3
# Si number density = 18.549088 Si / 1000 Ang^3
#
#
#
# Elastic Constant Matrix: (Units=GPa)
#
#
# Indices 1 2 3 4 5 6 
#
# 1 144.8369 19.7126 60.6005 0.0000 5.7057 0.0000
# 2 19.7126 40.2474 24.8593 0.0000 4.7389 0.0000
# 3 60.6005 24.8593 115.1417 0.0000 8.0040 0.0000
# 4 0.0000 0.0000 0.0000 26.6665 0.0000 4.3195
# 5 5.7057 4.7389 8.0040 0.0000 36.6305 0.0000
# 6 0.0000 0.0000 0.0000 4.3195 0.0000 20.1447
#
#
#
# Elastic Compliance Matrix: (Units=1/GPa)
#
#
# Indices 1 2 3 4 5 6 
#
# 1 0.008956 -0.001682 -0.004334 0.000000 -0.000230 0.000000
# 2 -0.001682 0.029194 -0.005253 0.000000 -0.002367 0.000000
# 3 -0.004334 -0.005253 0.012191 0.000000 -0.001309 0.000000
# 4 0.000000 0.000000 0.000000 0.038850 0.000000 -0.008330
# 5 -0.000230 -0.002367 -0.001309 0.000000 0.027928 0.000000
# 6 0.000000 0.000000 0.000000 -0.008330 0.000000 0.051427
#
#
# Mechanical properties :
#
#
# Convention : Reuss Voigt Hill
#
# Bulk Modulus (GPa) = 35.96928 56.73010 46.34969
# Shear Modulus (GPa) = 24.95614 29.69192 27.32403
#
# Velocity S-wave (km/s) = 3.67196 4.00524 3.84222
# Velocity P-wave (km/s) = 6.11647 7.21384 6.68770
#
# Compressibility (1/GPa) = 0.02780150
#
# Stress axis : x y z
#
# Youngs Moduli (GPa) = 111.65871 34.25419 82.02541
#
# Poissons Ratio (x) = 0.05762 0.35553
# Poissons Ratio (y) = 0.18783 0.43088
# Poissons Ratio (z) = 0.48397 0.17994
#
# Static dielectric constant tensor:
#      x y z
#    x 3.751030 0.000000 0.102880 
#    y 0.000000 3.293410 0.000000 
#    z 0.102880 0.000000 3.583070 
# 
# 
# High freq. dielectric constant tensor:
#      x y z
#    x 1.722570 0.000000 0.004060 
#    y 0.000000 1.708470 0.000000 
#    z 0.004060 0.000000 1.722040 
# 
# From -- ./inp_files/33679.got.cif
#   From: 2010.06.25/outbox.cif.g09.slc.cpg/sg11_17_cif.got.tgz:33679.got - 2010.06.27 23:14:04.
