data_PCOD8074261
_publ_section_title
;
Structure prediction by ZEFSAII (Michael W. Deem and Ramdas Pophale) SiO2 
 PCOD8074261
Probable space group: P 21/M
;
_chemical_formula_sum "Si O2"
_cell_formula_units_Z 32
_cell_length_a 11.405680
_cell_length_b 15.105388
_cell_length_c 17.465815
_cell_angle_alpha 90.000000
_cell_angle_beta 148.194450
_cell_angle_gamma 90.000000
_cell_volume 1585.929767
_symmetry_space_group_name_H-M "P 21/M"
_symmetry_group_IT_number 11
_symmetry_cell_setting 'monoclinic'
loop_
_space_group_symop_operation_xyz
x,y,z
-x,1/2+y,-z
-x,-y,-z
x,1/2-y,z
loop_
_atom_site_type_symbol
_atom_site_label
_atom_site_fract_x
_atom_site_fract_y
_atom_site_fract_z
Si Si1 0.785593 0.150084 0.796106
Si Si2 0.203909 0.436389 0.946245
Si Si3 0.197290 0.852989 0.519272
Si Si4 0.664208 0.351911 0.229102
Si Si5 0.061394 0.498853 0.705276
Si Si6 0.930902 0.427499 0.021479
Si Si7 0.369612 0.152934 0.327929
Si Si8 0.396092 0.075919 0.493860
O O1 0.766805 0.250000 0.758065
O O2 0.822920 0.149328 0.909312
O O3 0.553949 0.099903 0.652301
O O4 0.976583 0.105743 0.851030
O O5 0.188478 0.454794 0.847427
O O6 0.401057 0.369032 0.075902
O O7 0.238816 0.530657 0.010161
O O8 0.138652 0.750000 0.467559
O O9 0.253994 0.864326 0.639224
O O10 0.407028 0.887910 0.585545
O O11 0.993065 0.917983 0.383539
O O12 0.711709 0.250000 0.228810
O O13 0.783254 0.425938 0.244428
O O14 0.842940 0.551095 0.607814
O O15 0.000000 0.500000 0.000000
O O16 0.153589 0.401987 0.188181
O O17 0.342215 0.250000 0.277276
O O18 0.383364 0.158235 0.427706
O O19 0.500000 0.000000 0.500000
#
# Coordination Sequence:
#
# PCOD8074261 Si02
#       8
#     4   4   4   4   4   4   4   4
#     4  11  22  36  60  94 128 163 207 260 317 377
#     4  11  22  41  65  89 123 168 217 261 317 375
#     4  10  22  40  66  97 125 166 218 263 312 377
#     4  11  26  45  65  92 124 168 226 270 315 376
#     4  12  24  42  68  92 129 172 209 262 326 374
#     4  10  20  35  57  88 125 163 203 255 314 378
#     4  11  20  35  60  91 126 162 203 256 314 379
#     4  12  21  38  60  92 129 161 199 251 320 389
#
# _framework density 20.177439
#
# number of rings (size 3 to 8) (size 9 to 14) (size 15 to 20)
#    0.000    1.000    3.750    4.125    1.750    4.000 
#    0.000    0.000    0.000    0.750    0.000    0.000 
#    0.000    0.000    0.000    0.000    0.000    0.000 
#
# Total GULP energy -396674.146399 kJ/mol
# GULP energy per Si atom -12396.067075 kJ/mol
# Density = 2.013151 g / cm^3
# Si number density = 20.177439 Si / 1000 Ang^3
#
#
#
# Elastic Constant Matrix: (Units=GPa)
#
#
# Indices 1 2 3 4 5 6 
#
# 1 55.1659 29.5081 29.9568 0.0000 -10.8757 0.0000
# 2 29.5081 100.5427 41.7807 0.0000 -7.1198 0.0000
# 3 29.9568 41.7807 101.3340 0.0000 -19.0341 0.0000
# 4 0.0000 0.0000 0.0000 34.9823 0.0000 0.1321
# 5 -10.8757 -7.1198 -19.0341 0.0000 30.2489 0.0000
# 6 0.0000 0.0000 0.0000 0.1321 0.0000 31.1711
#
#
#
# Elastic Compliance Matrix: (Units=1/GPa)
#
#
# Indices 1 2 3 4 5 6 
#
# 1 0.023990 -0.004983 -0.004125 0.000000 0.004857 0.000000
# 2 -0.004983 0.013040 -0.004155 0.000000 -0.001336 0.000000
# 3 -0.004125 -0.004155 0.013992 0.000000 0.006344 0.000000
# 4 0.000000 0.000000 0.000000 0.028586 0.000000 -0.000121
# 5 0.004857 -0.001336 0.006344 0.000000 0.038482 0.000000
# 6 0.000000 0.000000 0.000000 -0.000121 0.000000 0.032082
#
#
# Mechanical properties :
#
#
# Convention : Reuss Voigt Hill
#
# Bulk Modulus (GPa) = 40.82058 51.05931 45.93994
# Shear Modulus (GPa) = 27.04695 29.66693 28.35694
#
# Velocity S-wave (km/s) = 3.66519 3.83861 3.75290
# Velocity P-wave (km/s) = 6.17950 6.70870 6.44953
#
# Compressibility (1/GPa) = 0.02449745
#
# Stress axis : x y z
#
# Youngs Moduli (GPa) = 41.68411 76.68622 71.46702
#
# Poissons Ratio (x) = 0.38209 0.29483
# Poissons Ratio (y) = 0.20769 0.29692
# Poissons Ratio (z) = 0.17197 0.31860
#
# Static dielectric constant tensor:
#      x y z
#    x 3.920050 0.000000 -0.412040 
#    y 0.000000 4.201730 0.000000 
#    z -0.412040 0.000000 4.082680 
# 
# 
# High freq. dielectric constant tensor:
#      x y z
#    x 1.768890 0.000000 -0.018130 
#    y 0.000000 1.797890 0.000000 
#    z -0.018130 0.000000 1.797160 
# 
# From -- ./inp_files/59480.got.cif
#   From: 2010.06.25/outbox.cif.g09.slc.cpg/sg11_30_cif.got.tgz:59480.got - 2010.06.27 23:14:04.
