data_PCOD8074692
_publ_section_title
;
Structure prediction by ZEFSAII (Michael W. Deem and Ramdas Pophale) SiO2 
 PCOD8074692
Probable space group: P 21/M
;
_chemical_formula_sum "Si O2"
_cell_formula_units_Z 28
_cell_length_a 17.992107
_cell_length_b 10.567206
_cell_length_c 21.648069
_cell_angle_alpha 90.000000
_cell_angle_beta 159.601769
_cell_angle_gamma 90.000000
_cell_volume 1434.557178
_symmetry_space_group_name_H-M "P 21/M"
_symmetry_group_IT_number 11
_symmetry_cell_setting 'monoclinic'
loop_
_space_group_symop_operation_xyz
x,y,z
-x,1/2+y,-z
-x,-y,-z
x,1/2-y,z
loop_
_atom_site_type_symbol
_atom_site_label
_atom_site_fract_x
_atom_site_fract_y
_atom_site_fract_z
Si Si1 0.957480 0.964444 0.569573
Si Si2 0.212192 0.893144 0.292591
Si Si3 0.738048 0.607103 0.099963
Si Si4 0.724285 0.389309 0.280625
Si Si5 0.463486 0.389752 0.700703
Si Si6 0.244860 0.109136 0.026207
Si Si7 0.457555 0.393311 0.552854
O O1 0.786105 0.885555 0.475359
O O2 0.113740 0.878218 0.650514
O O3 0.831111 0.051897 0.423670
O O4 0.103506 0.038613 0.730846
O O5 0.260005 0.750000 0.355082
O O6 0.318185 0.911041 0.308034
O O7 0.294045 0.000588 0.402776
O O8 0.958699 0.912966 0.088175
O O9 0.722292 0.750000 0.112321
O O10 0.499368 0.543358 0.913297
O O11 0.835317 0.600406 0.106897
O O12 0.656636 0.250000 0.249325
O O13 0.557203 0.250000 0.789813
O O14 0.580264 0.501179 0.828015
O O15 0.496992 0.417933 0.655080
O O16 0.341394 0.250000 0.114254
O O17 0.368022 0.250000 0.472054
#
# Coordination Sequence:
#
# PCOD8074692 Si02
#       7
#     4   4   4   4   4   4   4
#     4  11  21  36  60  80 113 153 192 230 294 346
#     4   9  18  35  57  83 111 146 193 240 282 338
#     4  10  20  36  58  85 112 146 192 242 291 340
#     4  10  21  37  56  83 114 145 191 245 286 340
#     4  11  23  38  55  82 118 152 190 235 290 348
#     4  10  21  37  57  82 115 149 194 244 282 334
#     4   9  19  35  56  81 114 150 187 235 290 343
#
# _framework density 19.518218000000001
#
# number of rings (size 3 to 8) (size 9 to 14) (size 15 to 20)
#    0.000    2.000    1.429    2.143    0.000    2.286 
#    0.000    1.429    0.000    0.000    0.000    0.000 
#    0.000    0.000    0.000    0.000    0.000    0.000 
#
# Total GULP energy -347005.320398 kJ/mol
# GULP energy per Si atom -12393.047157 kJ/mol
# Density = 1.947379 g / cm^3
# Si number density = 19.518218 Si / 1000 Ang^3
#
#
#
# Elastic Constant Matrix: (Units=GPa)
#
#
# Indices 1 2 3 4 5 6 
#
# 1 93.4291 34.2969 43.2351 0.0000 6.8053 0.0000
# 2 34.2969 103.0633 51.1543 0.0000 -7.0466 0.0000
# 3 43.2351 51.1543 103.7279 0.0000 2.8274 0.0000
# 4 0.0000 0.0000 0.0000 27.4904 0.0000 0.3344
# 5 6.8053 -7.0466 2.8274 0.0000 35.6593 0.0000
# 6 0.0000 0.0000 0.0000 0.3344 0.0000 23.1852
#
#
#
# Elastic Compliance Matrix: (Units=1/GPa)
#
#
# Indices 1 2 3 4 5 6 
#
# 1 0.013924 -0.002627 -0.004431 0.000000 -0.002825 0.000000
# 2 -0.002627 0.013683 -0.005752 0.000000 0.003661 0.000000
# 3 -0.004431 -0.005752 0.014363 0.000000 -0.001430 0.000000
# 4 0.000000 0.000000 0.000000 0.036383 0.000000 -0.000525
# 5 -0.002825 0.003661 -0.001430 0.000000 0.029419 0.000000
# 6 0.000000 0.000000 0.000000 -0.000525 0.000000 0.043139
#
#
# Mechanical properties :
#
#
# Convention : Reuss Voigt Hill
#
# Bulk Modulus (GPa) = 61.16804 61.95475 61.56140
# Shear Modulus (GPa) = 27.47536 28.70258 28.08897
#
# Velocity S-wave (km/s) = 3.75597 3.83894 3.79768
# Velocity P-wave (km/s) = 7.08638 7.17362 7.13013
#
# Compressibility (1/GPa) = 0.01634841
#
# Stress axis : x y z
#
# Youngs Moduli (GPa) = 71.81802 73.08584 69.62212
#
# Poissons Ratio (x) = 0.19203 0.30849
# Poissons Ratio (y) = 0.18870 0.40049
# Poissons Ratio (z) = 0.31822 0.42041
#
# Static dielectric constant tensor:
#      x y z
#    x 3.755990 0.000000 0.271060 
#    y 0.000000 3.579630 0.000000 
#    z 0.271060 0.000000 3.380870 
# 
# 
# High freq. dielectric constant tensor:
#      x y z
#    x 1.776840 0.000000 0.019450 
#    y 0.000000 1.759700 0.000000 
#    z 0.019450 0.000000 1.742960 
# 
# From -- ./inp_files/61459.got.cif
#   From: 2010.06.25/outbox.cif.g09.slc.cpg/sg11_31_cif.got.tgz:61459.got - 2010.06.27 23:14:04.
