data_PCOD8074797
_publ_section_title
;
Structure prediction by ZEFSAII (Michael W. Deem and Ramdas Pophale) SiO2 
 PCOD8074797
Probable space group: P 21/M
;
_chemical_formula_sum "Si O2"
_cell_formula_units_Z 28
_cell_length_a 11.158037
_cell_length_b 8.606876
_cell_length_c 16.223327
_cell_angle_alpha 90.000000
_cell_angle_beta 119.585234
_cell_angle_gamma 90.000000
_cell_volume 1354.889515
_symmetry_space_group_name_H-M "P 21/M"
_symmetry_group_IT_number 11
_symmetry_cell_setting 'monoclinic'
loop_
_space_group_symop_operation_xyz
x,y,z
-x,1/2+y,-z
-x,-y,-z
x,1/2-y,z
loop_
_atom_site_type_symbol
_atom_site_label
_atom_site_fract_x
_atom_site_fract_y
_atom_site_fract_z
Si Si1 0.399102 0.068494 0.033454
Si Si2 0.831722 0.069813 0.588764
Si Si3 0.829582 0.931377 0.759750
Si Si4 0.875439 0.428462 0.328060
Si Si5 0.321093 0.429632 0.607682
Si Si6 0.142776 0.928213 0.867949
Si Si7 0.601421 0.068344 0.790283
O O1 0.425696 0.250000 0.051969
O O2 0.435705 0.986256 0.131156
O O3 0.500000 0.000000 0.000000
O O4 0.241072 0.037710 0.954788
O O5 0.869444 0.250000 0.598839
O O6 0.780155 0.025018 0.662401
O O7 0.710399 0.032207 0.483383
O O8 0.964727 0.971066 0.607651
O O9 0.819919 0.750000 0.735969
O O10 0.986330 0.975977 0.835728
O O11 0.735243 0.976220 0.804653
O O12 0.856641 0.250000 0.348589
O O13 0.785022 0.537104 0.354945
O O14 0.826797 0.455160 0.218073
O O15 0.309721 0.250000 0.580113
O O16 0.474219 0.473628 0.688167
O O17 0.171573 0.750000 0.901996
O O18 0.633884 0.250000 0.801392
#
# Coordination Sequence:
#
# PCOD8074797 Si02
#       7
#     4   4   4   4   4   4   4
#     4  12  25  41  64  92 123 157 193 239 293 350
#     4  11  22  37  60  87 118 157 198 243 294 351
#     4  10  22  42  65  89 119 154 196 245 293 345
#     4  10  20  36  59  88 121 155 195 245 297 351
#     4  11  23  38  57  84 118 157 200 246 297 350
#     4   9  20  39  63  89 119 156 196 241 293 349
#     4  11  25  43  63  87 118 156 199 246 292 347
#
# _framework density 20.665890000000001
#
# number of rings (size 3 to 8) (size 9 to 14) (size 15 to 20)
#    0.000    1.429    0.000    6.429    0.000    9.143 
#    0.000    0.000    0.000    0.000    0.000    0.000 
#    0.000    0.000    0.000    0.000    0.000    0.000 
#
# Total GULP energy -347409.234580 kJ/mol
# GULP energy per Si atom -12407.472664 kJ/mol
# Density = 2.061885 g / cm^3
# Si number density = 20.665890 Si / 1000 Ang^3
#
#
#
# Elastic Constant Matrix: (Units=GPa)
#
#
# Indices 1 2 3 4 5 6 
#
# 1 93.4393 17.0515 26.7014 0.0000 -5.1695 0.0000
# 2 17.0515 64.4702 46.6652 0.0000 10.5449 0.0000
# 3 26.7014 46.6652 67.5242 0.0000 13.7043 0.0000
# 4 0.0000 0.0000 0.0000 36.9441 0.0000 -3.2077
# 5 -5.1695 10.5449 13.7043 0.0000 25.4494 0.0000
# 6 0.0000 0.0000 0.0000 -3.2077 0.0000 34.8030
#
#
#
# Elastic Compliance Matrix: (Units=1/GPa)
#
#
# Indices 1 2 3 4 5 6 
#
# 1 0.012835 0.000359 -0.006537 0.000000 0.005979 0.000000
# 2 0.000359 0.031095 -0.021367 0.000000 -0.001306 0.000000
# 3 -0.006537 -0.021367 0.034392 0.000000 -0.010995 0.000000
# 4 0.000000 0.000000 0.000000 0.027286 0.000000 0.002515
# 5 0.005979 -0.001306 -0.010995 0.000000 0.046970 0.000000
# 6 0.000000 0.000000 0.000000 0.002515 0.000000 0.028965
#
#
# Mechanical properties :
#
#
# Convention : Reuss Voigt Hill
#
# Bulk Modulus (GPa) = 43.04126 45.14112 44.09119
# Shear Modulus (GPa) = 20.46013 28.44033 24.45023
#
# Velocity S-wave (km/s) = 3.14991 3.71374 3.44338
# Velocity P-wave (km/s) = 5.83966 6.34664 6.09842
#
# Compressibility (1/GPa) = 0.02323352
#
# Stress axis : x y z
#
# Youngs Moduli (GPa) = 77.90932 32.15912 29.07642
#
# Poissons Ratio (x) = -0.01155 0.19008
# Poissons Ratio (y) = -0.02797 0.62127
# Poissons Ratio (z) = 0.50930 0.68713
#
# Static dielectric constant tensor:
#      x y z
#    x 3.666660 0.000000 0.053820 
#    y 0.000000 3.747830 0.000000 
#    z 0.053820 0.000000 3.792210 
# 
# 
# High freq. dielectric constant tensor:
#      x y z
#    x 1.806450 0.000000 0.002370 
#    y 0.000000 1.816340 0.000000 
#    z 0.002370 0.000000 1.814170 
# 
# From -- ./inp_files/49453.got.cif
#   From: 2010.06.25/outbox.cif.g09.slc.cpg/sg11_25_cif.got.tgz:49453.got - 2010.06.27 23:14:04.
