data_PCOD8074241
_publ_section_title
;
Structure prediction by ZEFSAII (Michael W. Deem and Ramdas Pophale) SiO2 
 PCOD8074241
Probable space group: P 21/M
;
_chemical_formula_sum "Si O2"
_cell_formula_units_Z 28
_cell_length_a 25.921391
_cell_length_b 8.994039
_cell_length_c 10.002208
_cell_angle_alpha 90.000000
_cell_angle_beta 38.186345
_cell_angle_gamma 90.000000
_cell_volume 1441.626532
_symmetry_space_group_name_H-M "P 21/M"
_symmetry_group_IT_number 11
_symmetry_cell_setting 'monoclinic'
loop_
_space_group_symop_operation_xyz
x,y,z
-x,1/2+y,-z
-x,-y,-z
x,1/2-y,z
loop_
_atom_site_type_symbol
_atom_site_label
_atom_site_fract_x
_atom_site_fract_y
_atom_site_fract_z
Si Si1 0.052367 0.422942 0.778832
Si Si2 0.764728 0.920087 0.486654
Si Si3 0.753635 0.425639 0.969517
Si Si4 0.521078 0.423149 0.818960
Si Si5 0.350718 0.077345 0.040872
Si Si6 0.298379 0.925984 0.634767
Si Si7 0.940027 0.427280 0.514616
O O1 0.027625 0.250000 0.815939
O O2 0.148873 0.443746 0.614470
O O3 0.031757 0.508090 0.684620
O O4 0.000000 0.500000 0.000000
O O5 0.749853 0.750000 0.476302
O O6 0.762976 0.015391 0.355264
O O7 0.693361 0.977382 0.732813
O O8 0.746554 0.250000 0.979797
O O9 0.845460 0.477934 0.738458
O O10 0.682996 0.488214 0.016300
O O11 0.734617 0.487313 0.156519
O O12 0.527845 0.250000 0.836855
O O13 0.449180 0.454240 0.855743
O O14 0.607574 0.484820 0.582217
O O15 0.500000 0.500000 0.000000
O O16 0.330301 0.250000 0.059433
O O17 0.295038 0.750000 0.640020
O O18 0.949739 0.250000 0.496063
O O19 0.000000 0.500000 0.500000
#
# Coordination Sequence:
#
# PCOD8074241 Si02
#       7
#     4   4   4   4   4   4   4
#     4  11  24  42  63  91 122 155 198 248 298 356
#     4  10  21  38  60  87 118 153 195 240 289 348
#     4  10  23  41  59  85 119 155 196 238 291 353
#     4  10  20  35  57  85 118 152 194 242 292 342
#     4  10  20  37  60  85 116 155 196 241 290 345
#     4  10  22  38  58  87 120 155 195 243 291 345
#     4  11  24  42  63  88 120 160 199 245 301 359
#
# _framework density 19.422504
#
# number of rings (size 3 to 8) (size 9 to 14) (size 15 to 20)
#    0.000    1.714    2.857    0.857    2.000    4.000 
#    0.000    0.000    0.000    0.000    0.000    0.000 
#    0.000    0.000    0.000    0.000    0.000    0.000 
#
# Total GULP energy -347310.672886 kJ/mol
# GULP energy per Si atom -12403.952603 kJ/mol
# Density = 1.937830 g / cm^3
# Si number density = 19.422504 Si / 1000 Ang^3
#
#
#
# Elastic Constant Matrix: (Units=GPa)
#
#
# Indices 1 2 3 4 5 6 
#
# 1 117.0344 40.7385 42.3312 0.0000 21.1361 0.0000
# 2 40.7385 50.2963 38.9168 0.0000 3.3936 0.0000
# 3 42.3312 38.9168 110.3895 0.0000 22.3654 0.0000
# 4 0.0000 0.0000 0.0000 27.6298 0.0000 5.4842
# 5 21.1361 3.3936 22.3654 0.0000 35.5677 0.0000
# 6 0.0000 0.0000 0.0000 5.4842 0.0000 39.7262
#
#
#
# Elastic Compliance Matrix: (Units=1/GPa)
#
#
# Indices 1 2 3 4 5 6 
#
# 1 0.013429 -0.010329 -0.000104 0.000000 -0.006929 0.000000
# 2 -0.010329 0.035779 -0.010548 0.000000 0.009357 0.000000
# 3 -0.000104 -0.010548 0.014441 0.000000 -0.008012 0.000000
# 4 0.000000 0.000000 0.000000 0.037212 0.000000 -0.005137
# 5 -0.006929 0.009357 -0.008012 0.000000 0.036378 0.000000
# 6 0.000000 0.000000 0.000000 -0.005137 0.000000 0.025881
#
#
# Mechanical properties :
#
#
# Convention : Reuss Voigt Hill
#
# Bulk Modulus (GPa) = 46.11427 57.96591 52.04009
# Shear Modulus (GPa) = 23.55019 30.96700 27.25859
#
# Velocity S-wave (km/s) = 3.48590 3.99731 3.75033
# Velocity P-wave (km/s) = 6.32426 7.15641 6.75316
#
# Compressibility (1/GPa) = 0.02168526
#
# Stress axis : x y z
#
# Youngs Moduli (GPa) = 74.46588 27.94959 69.24757
#
# Poissons Ratio (x) = 0.28868 0.00724
# Poissons Ratio (y) = 0.76914 0.73046
# Poissons Ratio (z) = 0.00778 0.29483
#
# Static dielectric constant tensor:
#      x y z
#    x 3.631750 0.000000 -0.151210 
#    y 0.000000 3.560660 0.000000 
#    z -0.151210 0.000000 3.773730 
# 
# 
# High freq. dielectric constant tensor:
#      x y z
#    x 1.767070 0.000000 -0.001780 
#    y 0.000000 1.749610 0.000000 
#    z -0.001780 0.000000 1.762410 
# 
# From -- ./inp_files/28378.got.cif
#   From: 2010.06.25/outbox.cif.g09.slc.cpg/sg11_15_cif.got.tgz:28378.got - 2010.06.27 23:14:04.
