data_PCOD8074526
_publ_section_title
;
Structure prediction by ZEFSAII (Michael W. Deem and Ramdas Pophale) SiO2 
 PCOD8074526
Probable space group: P 21/M
;
_chemical_formula_sum "Si O2"
_cell_formula_units_Z 24
_cell_length_a 8.993911
_cell_length_b 8.608762
_cell_length_c 31.118349
_cell_angle_alpha 90.000000
_cell_angle_beta 29.979352
_cell_angle_gamma 90.000000
_cell_volume 1203.939446
_symmetry_space_group_name_H-M "P 21/M"
_symmetry_group_IT_number 11
_symmetry_cell_setting 'monoclinic'
loop_
_space_group_symop_operation_xyz
x,y,z
-x,1/2+y,-z
-x,-y,-z
x,1/2-y,z
loop_
_atom_site_type_symbol
_atom_site_label
_atom_site_fract_x
_atom_site_fract_y
_atom_site_fract_z
Si Si1 0.172053 0.065373 0.582453
Si Si2 0.845895 0.565878 0.243436
Si Si3 0.171470 0.433059 0.080486
Si Si4 0.163216 0.566810 0.418117
Si Si5 0.158565 0.065697 0.918807
Si Si6 0.169196 0.565890 0.248975
O O1 0.183492 0.250000 0.580433
O O2 0.997083 0.003817 0.584518
O O3 0.004361 0.998930 0.666343
O O4 0.500000 0.000000 0.500000
O O5 0.877706 0.750000 0.227685
O O6 0.504472 0.512840 0.331838
O O7 0.997737 0.474076 0.167048
O O8 0.005169 0.510067 0.247046
O O9 0.187878 0.250000 0.069872
O O10 0.002349 0.508295 0.083242
O O11 0.500000 0.500000 0.000000
O O12 0.144081 0.750000 0.425454
O O13 0.000000 0.500000 0.500000
O O14 0.150810 0.250000 0.922145
O O15 0.495509 0.001847 0.834373
O O16 0.000000 0.000000 0.000000
O O17 0.170966 0.750000 0.250765
#
# Coordination Sequence:
#
# PCOD8074526 Si02
#       6
#     4   4   4   4   4   4
#     4  10  20  36  56  82 112 149 192 235 284 341
#     4  10  20  38  62  87 114 150 193 242 296 352
#     4  12  25  41  61  87 118 155 196 243 296 355
#     4  10  21  36  58  85 117 154 195 241 293 351
#     4  11  22  39  62  89 120 155 194 240 291 351
#     4   9  19  36  60  84 111 147 188 231 286 348
#
# _framework density 19.934557999999999
#
# number of rings (size 3 to 8) (size 9 to 14) (size 15 to 20)
#    0.000    1.667    0.000    5.000    0.000    6.667 
#    0.000    5.000    0.000    0.000    0.000    0.000 
#    0.000    0.000    0.000    0.000    0.000    0.000 
#
# Total GULP energy -297692.891487 kJ/mol
# GULP energy per Si atom -12403.870479 kJ/mol
# Density = 1.988919 g / cm^3
# Si number density = 19.934558 Si / 1000 Ang^3
#
#
#
# Elastic Constant Matrix: (Units=GPa)
#
#
# Indices 1 2 3 4 5 6 
#
# 1 207.1101 29.3188 108.8287 0.0000 -6.5493 0.0000
# 2 29.3188 47.9123 35.6793 0.0000 -3.3027 0.0000
# 3 108.8287 35.6793 206.1216 0.0000 -3.9671 0.0000
# 4 0.0000 0.0000 0.0000 36.2533 0.0000 3.1820
# 5 -6.5493 -3.3027 -3.9671 0.0000 49.8274 0.0000
# 6 0.0000 0.0000 0.0000 3.1820 0.0000 30.7059
#
#
#
# Elastic Compliance Matrix: (Units=1/GPa)
#
#
# Indices 1 2 3 4 5 6 
#
# 1 0.006815 -0.001679 -0.003298 0.000000 0.000522 0.000000
# 2 -0.001679 0.024453 -0.003325 0.000000 0.001135 0.000000
# 3 -0.003298 -0.003325 0.007167 0.000000 -0.000083 0.000000
# 4 0.000000 0.000000 0.000000 0.027837 0.000000 -0.002885
# 5 0.000522 0.001135 -0.000083 0.000000 0.020207 0.000000
# 6 0.000000 0.000000 0.000000 -0.002885 0.000000 0.032866
#
#
# Mechanical properties :
#
#
# Convention : Reuss Voigt Hill
#
# Bulk Modulus (GPa) = 45.80320 89.86639 67.83480
# Shear Modulus (GPa) = 34.91046 42.51178 38.71112
#
# Velocity S-wave (km/s) = 4.18934 4.62298 4.41149
# Velocity P-wave (km/s) = 6.81377 8.58339 7.74926
#
# Compressibility (1/GPa) = 0.02183254
#
# Stress axis : x y z
#
# Youngs Moduli (GPa) = 146.72757 40.89531 139.53749
#
# Poissons Ratio (x) = 0.06865 0.46016
# Poissons Ratio (y) = 0.24632 0.46390
# Poissons Ratio (z) = 0.48387 0.13596
#
# Static dielectric constant tensor:
#      x y z
#    x 3.915690 0.000000 -0.059580 
#    y 0.000000 3.452350 0.000000 
#    z -0.059580 0.000000 3.811540 
# 
# 
# High freq. dielectric constant tensor:
#      x y z
#    x 1.801770 0.000000 -0.000470 
#    y 0.000000 1.755730 0.000000 
#    z -0.000470 0.000000 1.799830 
# 
# From -- ./inp_files/20479.got.cif
#   From: 2010.06.25/outbox.cif.g09.slc.cpg/sg11_11_cif.got.tgz:20479.got - 2010.06.27 23:14:04.
