data_PCOD8074576
_publ_section_title
;
Structure prediction by ZEFSAII (Michael W. Deem and Ramdas Pophale) SiO2 
 PCOD8074576
Probable space group: P 21/M
;
_chemical_formula_sum "Si O2"
_cell_formula_units_Z 32
_cell_length_a 25.902502
_cell_length_b 9.160145
_cell_length_c 20.903381
_cell_angle_alpha 90.000000
_cell_angle_beta 20.602433
_cell_angle_gamma 90.000000
_cell_volume 1745.247031
_symmetry_space_group_name_H-M "P 21/M"
_symmetry_group_IT_number 11
_symmetry_cell_setting 'monoclinic'
loop_
_space_group_symop_operation_xyz
x,y,z
-x,1/2+y,-z
-x,-y,-z
x,1/2-y,z
loop_
_atom_site_type_symbol
_atom_site_label
_atom_site_fract_x
_atom_site_fract_y
_atom_site_fract_z
Si Si1 0.761092 0.580203 0.934974
Si Si2 0.131110 0.579154 0.312123
Si Si3 0.138256 0.083888 0.812930
Si Si4 0.550950 0.419395 0.003818
Si Si5 0.352124 0.084660 0.682051
Si Si6 0.853092 0.576735 0.967797
Si Si7 0.832022 0.421060 0.349483
Si Si8 0.550702 0.417130 0.758455
O O1 0.803473 0.750000 0.877793
O O2 0.852488 0.488637 0.777330
O O3 0.804736 0.519742 0.954205
O O4 0.587236 0.555646 0.128275
O O5 0.096723 0.750000 0.345190
O O6 0.277425 0.550888 0.183471
O O7 0.000000 0.500000 0.500000
O O8 0.092919 0.250000 0.850858
O O9 0.265251 0.076284 0.717212
O O10 0.198322 0.008118 0.679845
O O11 0.000000 0.000000 0.000000
O O12 0.516448 0.250000 0.036265
O O13 0.500000 0.500000 0.000000
O O14 0.456199 0.479490 0.172394
O O15 0.391862 0.250000 0.653998
O O16 0.500000 0.000000 0.500000
O O17 0.256790 0.014272 0.850513
O O18 0.847609 0.750000 0.976152
O O19 0.017907 0.523612 0.791721
O O20 0.839874 0.250000 0.323896
O O21 0.698973 0.458380 0.550516
O O22 0.552520 0.250000 0.780050
#
# Coordination Sequence:
#
# PCOD8074576 Si02
#       8
#     4   4   4   4   4   4   4   4
#     4   9  18  34  55  78 107 146 186 226 269 321
#     4  10  21  37  57  83 113 147 184 225 273 325
#     4  11  22  38  58  81 111 146 186 232 281 330
#     4  10  21  37  58  83 115 149 184 228 275 325
#     4  10  22  38  56  81 111 144 185 231 278 330
#     4   9  18  35  55  77 109 143 180 225 272 323
#     4  10  20  36  57  81 111 146 184 227 275 331
#     4   9  19  34  55  81 108 145 188 224 271 329
#
# _framework density 18.335512999999999
#
# number of rings (size 3 to 8) (size 9 to 14) (size 15 to 20)
#    0.000    2.250    1.250    1.125    1.750    4.000 
#    0.000    3.750    0.000    0.000    0.000    0.000 
#    0.000    0.000    0.000    0.000    0.000    0.000 
#
# Total GULP energy -396875.420695 kJ/mol
# GULP energy per Si atom -12402.356897 kJ/mol
# Density = 1.829378 g / cm^3
# Si number density = 18.335513 Si / 1000 Ang^3
#
#
#
# Elastic Constant Matrix: (Units=GPa)
#
#
# Indices 1 2 3 4 5 6 
#
# 1 140.4742 62.8585 70.3199 0.0000 20.6720 0.0000
# 2 62.8585 95.3867 69.9470 0.0000 11.5419 0.0000
# 3 70.3199 69.9470 166.1573 0.0000 12.6361 0.0000
# 4 0.0000 0.0000 0.0000 32.2351 0.0000 4.2763
# 5 20.6720 11.5419 12.6361 0.0000 20.8237 0.0000
# 6 0.0000 0.0000 0.0000 4.2763 0.0000 31.7728
#
#
#
# Elastic Compliance Matrix: (Units=1/GPa)
#
#
# Indices 1 2 3 4 5 6 
#
# 1 0.011596 -0.005156 -0.002179 0.000000 -0.007331 0.000000
# 2 -0.005156 0.017920 -0.005237 0.000000 -0.001636 0.000000
# 3 -0.002179 -0.005237 0.009184 0.000000 -0.000507 0.000000
# 4 0.000000 0.000000 0.000000 0.031586 0.000000 -0.004251
# 5 -0.007331 -0.001636 -0.000507 0.000000 0.056514 0.000000
# 6 0.000000 0.000000 0.000000 -0.004251 0.000000 0.032046
#
#
# Mechanical properties :
#
#
# Convention : Reuss Voigt Hill
#
# Bulk Modulus (GPa) = 73.77849 89.80765 81.79307
# Shear Modulus (GPa) = 26.52399 30.22584 28.37491
#
# Velocity S-wave (km/s) = 3.80753 4.06456 3.93814
# Velocity P-wave (km/s) = 7.72367 8.43291 8.08607
#
# Compressibility (1/GPa) = 0.01355409
#
# Stress axis : x y z
#
# Youngs Moduli (GPa) = 86.23797 55.80394 108.88612
#
# Poissons Ratio (x) = 0.28774 0.23730
# Poissons Ratio (y) = 0.44467 0.57025
# Poissons Ratio (z) = 0.18794 0.29225
#
# Static dielectric constant tensor:
#      x y z
#    x 3.426930 0.000000 0.085900 
#    y 0.000000 3.352800 0.000000 
#    z 0.085900 0.000000 3.414030 
# 
# 
# High freq. dielectric constant tensor:
#      x y z
#    x 1.717600 0.000000 0.002690 
#    y 0.000000 1.700380 0.000000 
#    z 0.002690 0.000000 1.717730 
# 
# From -- ./inp_files/66952.got.cif
#   From: 2010.06.25/outbox.cif.g09.slc.cpg/sg11_34_cif.got.tgz:66952.got - 2010.06.27 23:14:04.
