data_PCOD8074887
_publ_section_title
;
Structure prediction by ZEFSAII (Michael W. Deem and Ramdas Pophale) SiO2 
 PCOD8074887
Probable space group: P 21/M
;
_chemical_formula_sum "Si O2"
_cell_formula_units_Z 32
_cell_length_a 13.200417
_cell_length_b 13.494067
_cell_length_c 16.694714
_cell_angle_alpha 90.000000
_cell_angle_beta 33.056798
_cell_angle_gamma 90.000000
_cell_volume 1622.110693
_symmetry_space_group_name_H-M "P 21/M"
_symmetry_group_IT_number 11
_symmetry_cell_setting 'monoclinic'
loop_
_space_group_symop_operation_xyz
x,y,z
-x,1/2+y,-z
-x,-y,-z
x,1/2-y,z
loop_
_atom_site_type_symbol
_atom_site_label
_atom_site_fract_x
_atom_site_fract_y
_atom_site_fract_z
Si Si1 0.026346 0.635517 0.405184
Si Si2 0.637356 0.135813 0.572959
Si Si3 0.720425 0.003191 0.668477
Si Si4 0.712410 0.025251 0.368233
Si Si5 0.690948 0.455465 0.065989
Si Si6 0.171924 0.637057 0.866425
Si Si7 0.010913 0.363762 0.757548
Si Si8 0.764007 0.860307 0.108035
O O1 0.052549 0.750000 0.411864
O O2 0.212156 0.574110 0.303924
O O3 0.981843 0.623979 0.341800
O O4 0.856292 0.590262 0.568393
O O5 0.687640 0.250000 0.556087
O O6 0.733852 0.102729 0.426819
O O7 0.412957 0.120147 0.717136
O O8 0.718818 0.068991 0.589524
O O9 0.521000 0.957565 0.822859
O O10 0.788937 0.073403 0.237438
O O11 0.500000 0.000000 0.500000
O O12 0.823909 0.924921 0.311836
O O13 0.703852 0.399407 0.142527
O O14 0.762237 0.567759 0.032217
O O15 0.810427 0.401389 0.919640
O O16 0.224481 0.750000 0.813299
O O17 0.953090 0.624213 0.033844
O O18 0.037192 0.250000 0.766535
O O19 0.757095 0.750000 0.076305
#
# Coordination Sequence:
#
# PCOD8074887 Si02
#       8
#     4   4   4   4   4   4   4   4
#     4  10  22  42  66  92 122 155 196 252 315 370
#     4  10  20  36  60  91 120 156 201 250 301 361
#     4  10  21  40  67  93 118 155 198 253 308 372
#     4  12  24  39  56  87 126 166 207 250 299 353
#     4  11  22  40  61  88 123 160 208 252 302 362
#     4  11  23  38  59  87 122 165 207 250 297 353
#     4  11  25  42  62  89 125 164 206 253 304 360
#     4   9  19  35  57  84 118 159 202 244 294 350
#
# _framework density 19.727383
#
# number of rings (size 3 to 8) (size 9 to 14) (size 15 to 20)
#    0.000    1.500    2.500    3.000    1.750    3.000 
#    0.000    0.000    0.000    0.000    0.000    0.000 
#    0.000    0.000    0.000    0.000    0.000    0.000 
#
# Total GULP energy -396874.684715 kJ/mol
# GULP energy per Si atom -12402.333897 kJ/mol
# Density = 1.968248 g / cm^3
# Si number density = 19.727383 Si / 1000 Ang^3
#
#
#
# Elastic Constant Matrix: (Units=GPa)
#
#
# Indices 1 2 3 4 5 6 
#
# 1 71.2690 43.3401 29.2287 0.0000 -27.3453 0.0000
# 2 43.3401 134.9394 52.5019 0.0000 -9.8533 0.0000
# 3 29.2287 52.5019 78.6631 0.0000 -16.3384 0.0000
# 4 0.0000 0.0000 0.0000 31.4945 0.0000 -0.0821
# 5 -27.3453 -9.8533 -16.3384 0.0000 32.9317 0.0000
# 6 0.0000 0.0000 0.0000 -0.0821 0.0000 25.1781
#
#
#
# Elastic Compliance Matrix: (Units=1/GPa)
#
#
# Indices 1 2 3 4 5 6 
#
# 1 0.025621 -0.006309 -0.001430 0.000000 0.018678 0.000000
# 2 -0.006309 0.011567 -0.006406 0.000000 -0.004956 0.000000
# 3 -0.001430 -0.006406 0.018813 0.000000 0.006230 0.000000
# 4 0.000000 0.000000 0.000000 0.031752 0.000000 0.000104
# 5 0.018678 -0.004956 0.006230 0.000000 0.047483 0.000000
# 6 0.000000 0.000000 0.000000 0.000104 0.000000 0.039717
#
#
# Mechanical properties :
#
#
# Convention : Reuss Voigt Hill
#
# Bulk Modulus (GPa) = 36.08454 59.44587 47.76520
# Shear Modulus (GPa) = 23.53171 28.57423 26.05297
#
# Velocity S-wave (km/s) = 3.45751 3.80999 3.63802
# Velocity P-wave (km/s) = 5.85410 7.03944 6.47396
#
# Compressibility (1/GPa) = 0.02771270
#
# Stress axis : x y z
#
# Youngs Moduli (GPa) = 39.03102 86.44997 53.15501
#
# Poissons Ratio (x) = 0.54539 0.07600
# Poissons Ratio (y) = 0.24624 0.34049
# Poissons Ratio (z) = 0.05581 0.55376
#
# Static dielectric constant tensor:
#      x y z
#    x 3.390840 0.000000 -0.042980 
#    y 0.000000 3.645410 0.000000 
#    z -0.042980 0.000000 3.548030 
# 
# 
# High freq. dielectric constant tensor:
#      x y z
#    x 1.758770 0.000000 -0.010320 
#    y 0.000000 1.789030 0.000000 
#    z -0.010320 0.000000 1.761870 
# 
# From -- ./inp_files/50375.got.cif
#   From: 2010.06.25/outbox.cif.g09.slc.cpg/sg11_26_cif.got.tgz:50375.got - 2010.06.27 23:14:04.
