data_PCOD8074718
_publ_section_title
;
Structure prediction by ZEFSAII (Michael W. Deem and Ramdas Pophale) SiO2 
 PCOD8074718
Probable space group: P 21/M
;
_chemical_formula_sum "Si O2"
_cell_formula_units_Z 32
_cell_length_a 10.781551
_cell_length_b 14.576117
_cell_length_c 14.451594
_cell_angle_alpha 90.000000
_cell_angle_beta 43.702884
_cell_angle_gamma 90.000000
_cell_volume 1569.155018
_symmetry_space_group_name_H-M "P 21/M"
_symmetry_group_IT_number 11
_symmetry_cell_setting 'monoclinic'
loop_
_space_group_symop_operation_xyz
x,y,z
-x,1/2+y,-z
-x,-y,-z
x,1/2-y,z
loop_
_atom_site_type_symbol
_atom_site_label
_atom_site_fract_x
_atom_site_fract_y
_atom_site_fract_z
Si Si1 0.170141 0.644636 0.185488
Si Si2 0.625871 0.648396 0.752427
Si Si3 0.359117 0.970778 0.792339
Si Si4 0.198983 0.855236 0.722578
Si Si5 0.590091 0.646982 0.978855
Si Si6 0.855751 0.979886 0.932733
Si Si7 0.385704 0.541590 0.478263
Si Si8 0.910259 0.932541 0.474467
O O1 0.129531 0.750000 0.178423
O O2 0.378606 0.629603 0.092395
O O3 0.110341 0.577843 0.134311
O O4 0.064972 0.620177 0.335839
O O5 0.542955 0.750000 0.785621
O O6 0.476516 0.573492 0.810000
O O7 0.799699 0.640834 0.593910
O O8 0.679594 0.632871 0.829900
O O9 0.327421 0.890751 0.734655
O O10 0.470898 0.054510 0.683132
O O11 0.175792 0.006026 0.939358
O O12 0.149913 0.750000 0.764387
O O13 0.295886 0.866618 0.569635
O O14 0.021351 0.915486 0.821698
O O15 0.631260 0.750000 0.992774
O O16 0.675418 0.570881 0.997959
O O17 0.500000 0.500000 0.500000
O O18 0.223023 0.479121 0.528081
O O19 0.000000 0.000000 0.500000
#
# Coordination Sequence:
#
# PCOD8074718 Si02
#       8
#     4   4   4   4   4   4   4   4
#     4  11  23  38  59  91 127 163 205 254 316 373
#     4  10  20  36  58  89 119 155 205 254 302 367
#     4  10  22  38  66  86 121 160 210 253 309 363
#     4  11  23  42  65  91 121 164 212 257 309 370
#     4  10  22  38  59  90 125 163 203 247 313 379
#     4  12  22  39  63  90 127 166 200 256 311 370
#     4   9  21  42  63  87 120 163 207 253 314 376
#     4  11  22  37  62  91 122 161 208 262 317 367
#
# _framework density 20.393142000000001
#
# number of rings (size 3 to 8) (size 9 to 14) (size 15 to 20)
#    0.000    1.500    2.500    2.625    3.500    0.500 
#    0.000    2.500    0.000    0.000    0.000    0.000 
#    0.000    0.000    0.000    0.000    0.000    0.000 
#
# Total GULP energy -396608.556546 kJ/mol
# GULP energy per Si atom -12394.017392 kJ/mol
# Density = 2.034673 g / cm^3
# Si number density = 20.393142 Si / 1000 Ang^3
#
#
#
# Elastic Constant Matrix: (Units=GPa)
#
#
# Indices 1 2 3 4 5 6 
#
# 1 58.8756 25.5555 14.1467 0.0000 1.3625 0.0000
# 2 25.5555 107.3943 47.5033 0.0000 3.7125 0.0000
# 3 14.1467 47.5033 142.3516 0.0000 8.4995 0.0000
# 4 0.0000 0.0000 0.0000 29.7274 0.0000 -0.5809
# 5 1.3625 3.7125 8.4995 0.0000 22.0413 0.0000
# 6 0.0000 0.0000 0.0000 -0.5809 0.0000 23.4675
#
#
#
# Elastic Compliance Matrix: (Units=1/GPa)
#
#
# Indices 1 2 3 4 5 6 
#
# 1 0.018967 -0.004314 -0.000429 0.000000 -0.000281 0.000000
# 2 -0.004314 0.011909 -0.003523 0.000000 -0.000381 0.000000
# 3 -0.000429 -0.003523 0.008399 0.000000 -0.002619 0.000000
# 4 0.000000 0.000000 0.000000 0.033655 0.000000 0.000833
# 5 -0.000281 -0.000381 -0.002619 0.000000 0.046461 0.000000
# 6 0.000000 0.000000 0.000000 0.000833 0.000000 0.042633
#
#
# Mechanical properties :
#
#
# Convention : Reuss Voigt Hill
#
# Bulk Modulus (GPa) = 43.96569 53.67028 48.81798
# Shear Modulus (GPa) = 26.86190 29.80830 28.33510
#
# Velocity S-wave (km/s) = 3.63327 3.82734 3.73157
# Velocity P-wave (km/s) = 6.26152 6.77542 6.52354
#
# Compressibility (1/GPa) = 0.02274501
#
# Stress axis : x y z
#
# Youngs Moduli (GPa) = 52.72313 83.96692 119.05632
#
# Poissons Ratio (x) = 0.36225 0.05102
# Poissons Ratio (y) = 0.22746 0.41941
# Poissons Ratio (z) = 0.02259 0.29580
#
# Static dielectric constant tensor:
#      x y z
#    x 3.903940 0.000000 0.376560 
#    y 0.000000 3.667420 0.000000 
#    z 0.376560 0.000000 4.553670 
# 
# 
# High freq. dielectric constant tensor:
#      x y z
#    x 1.790460 0.000000 0.000530 
#    y 0.000000 1.780150 0.000000 
#    z 0.000530 0.000000 1.821440 
# 
# From -- ./inp_files/50384.got.cif
#   From: 2010.06.25/outbox.cif.g09.slc.cpg/sg11_26_cif.got.tgz:50384.got - 2010.06.27 23:14:04.
