data_PCOD8074246
_publ_section_title
;
Structure prediction by ZEFSAII (Michael W. Deem and Ramdas Pophale) SiO2 
 PCOD8074246
Probable space group: P 21/M
;
_chemical_formula_sum "Si O2"
_cell_formula_units_Z 32
_cell_length_a 25.860608
_cell_length_b 8.997812
_cell_length_c 20.019993
_cell_angle_alpha 90.000000
_cell_angle_beta 21.401077
_cell_angle_gamma 90.000000
_cell_volume 1699.834460
_symmetry_space_group_name_H-M "P 21/M"
_symmetry_group_IT_number 11
_symmetry_cell_setting 'monoclinic'
loop_
_space_group_symop_operation_xyz
x,y,z
-x,1/2+y,-z
-x,-y,-z
x,1/2-y,z
loop_
_atom_site_type_symbol
_atom_site_label
_atom_site_fract_x
_atom_site_fract_y
_atom_site_fract_z
Si Si1 0.704551 0.923378 0.997136
Si Si2 0.648179 0.575847 0.809629
Si Si3 0.794113 0.576628 0.496655
Si Si4 0.696375 0.423333 0.218091
Si Si5 0.581748 0.077020 0.497954
Si Si6 0.849574 0.924916 0.685605
Si Si7 0.409046 0.424312 0.380826
Si Si8 0.091539 0.076206 0.125657
O O1 0.665281 0.750000 0.044109
O O2 0.563302 0.016186 0.177387
O O3 0.771869 0.975084 0.846549
O O4 0.816469 0.962302 0.920010
O O5 0.624445 0.750000 0.844507
O O6 0.705934 0.530631 0.667829
O O7 0.757741 0.518992 0.733541
O O8 0.500000 0.500000 0.000000
O O9 0.835349 0.750000 0.448426
O O10 0.699838 0.535090 0.546410
O O11 0.933796 0.478532 0.327623
O O12 0.685783 0.250000 0.213722
O O13 0.571960 0.507071 0.329010
O O14 0.684894 0.451536 0.311258
O O15 0.845017 0.489864 0.014675
O O16 0.557922 0.250000 0.540302
O O17 0.650381 0.000937 0.480311
O O18 0.873044 0.750000 0.655917
O O19 0.000000 0.000000 0.500000
O O20 0.419241 0.250000 0.380456
O O21 0.090449 0.250000 0.111082
#
# Coordination Sequence:
#
# PCOD8074246 Si02
#       8
#     4   4   4   4   4   4   4   4
#     4  10  21  36  55  82 114 143 183 237 285 338
#     4  10  21  38  59  82 110 148 192 236 283 338
#     4  10  23  40  56  80 116 152 192 238 284 340
#     4  10  20  35  58  86 116 150 185 227 279 332
#     4  10  20  35  57  86 117 147 185 232 278 330
#     4  10  21  36  55  81 111 145 184 231 286 338
#     4  11  22  36  57  84 111 148 191 233 284 335
#     4  11  22  36  57  85 115 152 192 232 284 338
#
# _framework density 18.825361999999998
#
# number of rings (size 3 to 8) (size 9 to 14) (size 15 to 20)
#    0.000    1.750    1.250    3.000    0.000    4.500 
#    0.000    0.625    0.000    0.000    0.000    0.000 
#    0.000    0.000    0.000    0.000    0.000    0.000 
#
# Total GULP energy -396959.042470 kJ/mol
# GULP energy per Si atom -12404.970077 kJ/mol
# Density = 1.878251 g / cm^3
# Si number density = 18.825362 Si / 1000 Ang^3
#
#
#
# Elastic Constant Matrix: (Units=GPa)
#
#
# Indices 1 2 3 4 5 6 
#
# 1 133.6671 56.3620 54.5963 0.0000 9.1725 0.0000
# 2 56.3620 81.1715 47.8599 0.0000 -0.0648 0.0000
# 3 54.5963 47.8599 85.8112 0.0000 0.6760 0.0000
# 4 0.0000 0.0000 0.0000 36.7713 0.0000 2.0065
# 5 9.1725 -0.0648 0.6760 0.0000 33.6441 0.0000
# 6 0.0000 0.0000 0.0000 2.0065 0.0000 26.3383
#
#
#
# Elastic Compliance Matrix: (Units=1/GPa)
#
#
# Indices 1 2 3 4 5 6 
#
# 1 0.011873 -0.005673 -0.004365 0.000000 -0.003160 0.000000
# 2 -0.005673 0.021068 -0.008155 0.000000 0.001751 0.000000
# 3 -0.004365 -0.008155 0.018973 0.000000 0.000793 0.000000
# 4 0.000000 0.000000 0.000000 0.027309 0.000000 -0.002080
# 5 -0.003160 0.001751 0.000793 0.000000 0.030572 0.000000
# 6 0.000000 0.000000 0.000000 -0.002080 0.000000 0.038126
#
#
# Mechanical properties :
#
#
# Convention : Reuss Voigt Hill
#
# Bulk Modulus (GPa) = 64.39973 68.69848 66.54910
# Shear Modulus (GPa) = 26.38753 28.80618 27.59686
#
# Velocity S-wave (km/s) = 3.74799 3.91599 3.83291
# Velocity P-wave (km/s) = 7.28102 7.55105 7.41726
#
# Compressibility (1/GPa) = 0.01552801
#
# Stress axis : x y z
#
# Youngs Moduli (GPa) = 84.22355 47.46461 52.70664
#
# Poissons Ratio (x) = 0.26926 0.23008
# Poissons Ratio (y) = 0.47779 0.42982
# Poissons Ratio (z) = 0.36766 0.38708
#
# Static dielectric constant tensor:
#      x y z
#    x 3.835530 0.000000 0.199810 
#    y 0.000000 3.490720 0.000000 
#    z 0.199810 0.000000 3.397690 
# 
# 
# High freq. dielectric constant tensor:
#      x y z
#    x 1.740970 0.000000 0.014520 
#    y 0.000000 1.735790 0.000000 
#    z 0.014520 0.000000 1.732080 
# 
# From -- ./inp_files/66962.got.cif
#   From: 2010.06.25/outbox.cif.g09.slc.cpg/sg11_34_cif.got.tgz:66962.got - 2010.06.27 23:14:04.
