data_PCOD8074220
_publ_section_title
;
Structure prediction by ZEFSAII (Michael W. Deem and Ramdas Pophale) SiO2 
 PCOD8074220
Probable space group: P 21/M
;
_chemical_formula_sum "Si O2"
_cell_formula_units_Z 32
_cell_length_a 16.131636
_cell_length_b 10.285542
_cell_length_c 9.459202
_cell_angle_alpha 90.000000
_cell_angle_beta 89.116487
_cell_angle_gamma 90.000000
_cell_volume 1569.308979
_symmetry_space_group_name_H-M "P 21/M"
_symmetry_group_IT_number 11
_symmetry_cell_setting 'monoclinic'
loop_
_space_group_symop_operation_xyz
x,y,z
-x,1/2+y,-z
-x,-y,-z
x,1/2-y,z
loop_
_atom_site_type_symbol
_atom_site_label
_atom_site_fract_x
_atom_site_fract_y
_atom_site_fract_z
Si Si1 0.962002 0.388888 0.851637
Si Si2 0.377097 0.897101 0.217963
Si Si3 0.561566 0.601427 0.239793
Si Si4 0.618204 0.403241 0.449276
Si Si5 0.791089 0.100910 0.342107
Si Si6 0.068248 0.602657 0.462203
Si Si7 0.135032 0.033480 0.913881
Si Si8 0.689630 0.604830 0.992473
O O1 0.943231 0.250000 0.922752
O O2 0.915598 0.398372 0.704248
O O3 0.062471 0.396398 0.825249
O O4 0.918451 0.494294 0.949091
O O5 0.343386 0.750000 0.190869
O O6 0.472389 0.907205 0.164460
O O7 0.373560 0.928598 0.384669
O O8 0.321061 0.999727 0.132606
O O9 0.575219 0.750000 0.295210
O O10 0.553957 0.501003 0.373058
O O11 0.632258 0.561969 0.125543
O O12 0.597573 0.250000 0.420105
O O13 0.700976 0.458542 0.370206
O O14 0.778528 0.250000 0.370812
O O15 0.851247 0.046958 0.461600
O O16 0.826986 0.079698 0.184334
O O17 0.045552 0.750000 0.514738
O O18 0.000000 0.500000 0.500000
O O19 0.213869 0.116582 0.962436
O O20 0.663782 0.750000 0.941940
#
# Coordination Sequence:
#
# PCOD8074220 Si02
#       8
#     4   4   4   4   4   4   4   4
#     4  10  22  37  59  85 113 153 196 243 293 349
#     4  10  23  40  62  90 124 161 201 245 296 357
#     4  10  21  40  63  91 122 158 200 247 300 355
#     4  10  21  38  61  91 120 155 199 247 296 355
#     4  10  20  35  57  84 116 149 195 243 291 353
#     4  10  20  37  58  84 114 149 191 238 295 350
#     4  11  21  38  59  81 119 151 201 239 300 347
#     4  11  24  40  60  87 123 160 202 252 298 353
#
# _framework density 20.39114
#
# number of rings (size 3 to 8) (size 9 to 14) (size 15 to 20)
#    0.000    1.750    2.500    1.500    1.750    2.500 
#    0.000    1.250    0.000    0.000    0.000    0.000 
#    0.000    0.000    0.000    0.000    0.000    0.000 
#
# Total GULP energy -396454.840577 kJ/mol
# GULP energy per Si atom -12389.213768 kJ/mol
# Density = 2.034473 g / cm^3
# Si number density = 20.391140 Si / 1000 Ang^3
#
#
#
# Elastic Constant Matrix: (Units=GPa)
#
#
# Indices 1 2 3 4 5 6 
#
# 1 71.9643 11.3099 20.8230 0.0000 -3.6288 0.0000
# 2 11.3099 86.0726 39.0341 0.0000 10.1656 0.0000
# 3 20.8230 39.0341 81.3778 0.0000 3.7382 0.0000
# 4 0.0000 0.0000 0.0000 30.6735 0.0000 2.1047
# 5 -3.6288 10.1656 3.7382 0.0000 33.3065 0.0000
# 6 0.0000 0.0000 0.0000 2.1047 0.0000 21.4300
#
#
#
# Elastic Compliance Matrix: (Units=1/GPa)
#
#
# Indices 1 2 3 4 5 6 
#
# 1 0.015173 -0.000577 -0.003709 0.000000 0.002245 0.000000
# 2 -0.000577 0.015351 -0.007034 0.000000 -0.003959 0.000000
# 3 -0.003709 -0.007034 0.016617 0.000000 -0.000122 0.000000
# 4 0.000000 0.000000 0.000000 0.032823 0.000000 -0.003224
# 5 0.002245 -0.003959 -0.000122 0.000000 0.031491 0.000000
# 6 0.000000 0.000000 0.000000 -0.003224 0.000000 0.046980
#
#
# Mechanical properties :
#
#
# Convention : Reuss Voigt Hill
#
# Bulk Modulus (GPa) = 40.81370 42.41651 41.61510
# Shear Modulus (GPa) = 26.42122 28.29851 27.35987
#
# Velocity S-wave (km/s) = 3.60352 3.72934 3.66697
# Velocity P-wave (km/s) = 6.11332 6.27619 6.19529
#
# Compressibility (1/GPa) = 0.02450158
#
# Stress axis : x y z
#
# Youngs Moduli (GPa) = 65.90726 65.14050 60.17932
#
# Poissons Ratio (x) = 0.03758 0.22320
# Poissons Ratio (y) = 0.03802 0.42331
# Poissons Ratio (z) = 0.24444 0.45820
#
# Static dielectric constant tensor:
#      x y z
#    x 2.689980 0.000000 -0.909170 
#    y 0.000000 3.528500 0.000000 
#    z -0.909170 0.000000 2.838750 
# 
# 
# High freq. dielectric constant tensor:
#      x y z
#    x 1.805790 0.000000 0.000820 
#    y 0.000000 1.787980 0.000000 
#    z 0.000820 0.000000 1.790850 
# 
# From -- ./inp_files/21537.got.cif
#   From: 2010.06.25/outbox.cif.g09.slc.cpg/sg11_11_cif.got.tgz:21537.got - 2010.06.27 23:14:04.
