data_PCOD8074614
_publ_section_title
;
Structure prediction by ZEFSAII (Michael W. Deem and Ramdas Pophale) SiO2 
 PCOD8074614
Probable space group: P 21/M
;
_chemical_formula_sum "Si O2"
_cell_formula_units_Z 24
_cell_length_a 9.098643
_cell_length_b 8.551708
_cell_length_c 20.530176
_cell_angle_alpha 90.000000
_cell_angle_beta 131.010523
_cell_angle_gamma 90.000000
_cell_volume 1205.404127
_symmetry_space_group_name_H-M "P 21/M"
_symmetry_group_IT_number 11
_symmetry_cell_setting 'monoclinic'
loop_
_space_group_symop_operation_xyz
x,y,z
-x,1/2+y,-z
-x,-y,-z
x,1/2-y,z
loop_
_atom_site_type_symbol
_atom_site_label
_atom_site_fract_x
_atom_site_fract_y
_atom_site_fract_z
Si Si1 0.983997 0.433782 0.923453
Si Si2 0.701734 0.422380 0.421226
Si Si3 0.968285 0.578448 0.590703
Si Si4 0.745276 0.931428 0.234075
Si Si5 0.704489 0.434239 0.082526
Si Si6 0.577679 0.565348 0.769620
O O1 0.031129 0.250000 0.935905
O O2 0.769906 0.463721 0.833249
O O3 0.137893 0.528999 0.926219
O O4 0.000000 0.500000 0.000000
O O5 0.652326 0.250000 0.432790
O O6 0.758917 0.524280 0.501061
O O7 0.516935 0.488187 0.327027
O O8 0.881690 0.414694 0.424608
O O9 0.940914 0.750000 0.613742
O O10 0.049321 0.463344 0.669928
O O11 0.692343 0.750000 0.224207
O O12 0.771346 0.980390 0.167405
O O13 0.570783 0.031118 0.214710
O O14 0.689743 0.250000 0.089854
O O15 0.500000 0.500000 0.000000
O O16 0.623599 0.750000 0.783751
#
# Coordination Sequence:
#
# PCOD8074614 Si02
#       6
#     4   4   4   4   4   4
#     4  12  25  42  62  86 114 147 186 228 278 334
#     4   8  15  27  46  74 109 146 185 229 275 324
#     4   9  16  27  46  75 110 147 187 231 277 325
#     4  11  21  35  56  84 116 151 190 233 281 332
#     4  12  25  43  63  85 113 146 185 230 280 334
#     4  10  20  36  57  84 116 151 190 233 281 331
#
# _framework density 19.910336000000001
#
# number of rings (size 3 to 8) (size 9 to 14) (size 15 to 20)
#    0.000    1.667    0.000    7.500    0.000    4.667 
#    0.000    0.000    0.000    1.000    0.000    0.000 
#    0.000    0.000    0.000    0.000    0.000    0.000 
#
# Total GULP energy -297591.988587 kJ/mol
# GULP energy per Si atom -12399.666191 kJ/mol
# Density = 1.986502 g / cm^3
# Si number density = 19.910336 Si / 1000 Ang^3
#
#
#
# Elastic Constant Matrix: (Units=GPa)
#
#
# Indices 1 2 3 4 5 6 
#
# 1 57.6952 0.9015 40.9368 0.0000 -1.9485 0.0000
# 2 0.9015 99.0819 36.2524 0.0000 -1.9390 0.0000
# 3 40.9368 36.2524 149.2390 0.0000 6.6038 0.0000
# 4 0.0000 0.0000 0.0000 39.8681 0.0000 0.4003
# 5 -1.9485 -1.9390 6.6038 0.0000 24.3275 0.0000
# 6 0.0000 0.0000 0.0000 0.4003 0.0000 26.2068
#
#
#
# Elastic Compliance Matrix: (Units=1/GPa)
#
#
# Indices 1 2 3 4 5 6 
#
# 1 0.022296 0.002384 -0.006865 0.000000 0.003839 0.000000
# 2 0.002384 0.011397 -0.003513 0.000000 0.002053 0.000000
# 3 -0.006865 -0.003513 0.009589 0.000000 -0.003433 0.000000
# 4 0.000000 0.000000 0.000000 0.025087 0.000000 -0.000383
# 5 0.003839 0.002053 -0.003433 0.000000 0.042509 0.000000
# 6 0.000000 0.000000 0.000000 -0.000383 0.000000 0.038164
#
#
# Mechanical properties :
#
#
# Convention : Reuss Voigt Hill
#
# Bulk Modulus (GPa) = 36.63903 51.35529 43.99716
# Shear Modulus (GPa) = 28.71479 33.27548 30.99513
#
# Velocity S-wave (km/s) = 3.80176 4.09255 3.94983
# Velocity P-wave (km/s) = 6.14110 6.94127 6.55341
#
# Compressibility (1/GPa) = 0.02729330
#
# Stress axis : x y z
#
# Youngs Moduli (GPa) = 44.85169 87.74579 104.28613
#
# Poissons Ratio (x) = -0.20918 0.71590
# Poissons Ratio (y) = -0.10693 0.36638
# Poissons Ratio (z) = 0.30790 0.30827
#
# Static dielectric constant tensor:
#      x y z
#    x 3.085230 0.000000 0.097710 
#    y 0.000000 3.828780 0.000000 
#    z 0.097710 0.000000 4.000780 
# 
# 
# High freq. dielectric constant tensor:
#      x y z
#    x 1.729780 0.000000 0.001440 
#    y 0.000000 1.788690 0.000000 
#    z 0.001440 0.000000 1.800020 
# 
# From -- ./inp_files/63294.got.cif
#   From: 2010.06.25/outbox.cif.g09.slc.cpg/sg11_32_cif.got.tgz:63294.got - 2010.06.27 23:14:04.
