data_PCOD8074006
_publ_section_title
;
Structure prediction by ZEFSAII (Michael W. Deem and Ramdas Pophale) SiO2 
 PCOD8074006
Probable space group: P 21/M
;
_chemical_formula_sum "Si O2"
_cell_formula_units_Z 22
_cell_length_a 9.089444
_cell_length_b 8.027714
_cell_length_c 16.220019
_cell_angle_alpha 90.000000
_cell_angle_beta 85.452120
_cell_angle_gamma 90.000000
_cell_volume 1179.807087
_symmetry_space_group_name_H-M "P 21/M"
_symmetry_group_IT_number 11
_symmetry_cell_setting 'monoclinic'
loop_
_space_group_symop_operation_xyz
x,y,z
-x,1/2+y,-z
-x,-y,-z
x,1/2-y,z
loop_
_atom_site_type_symbol
_atom_site_label
_atom_site_fract_x
_atom_site_fract_y
_atom_site_fract_z
Si Si1 0.291573 0.430256 0.308703
Si Si2 0.479459 0.750000 0.112044
Si Si3 0.185719 0.250000 0.665093
Si Si4 0.979258 0.750000 0.160466
Si Si5 0.231127 0.002189 0.131661
Si Si6 0.215485 0.250000 0.991820
Si Si7 0.981745 0.054197 0.407410
Si Si8 0.509492 0.250000 0.698681
O O1 0.348983 0.250000 0.340981
O O2 0.275418 0.398419 0.211550
O O3 0.399057 0.582673 0.326569
O O4 0.135254 0.474671 0.354915
O O5 0.376546 0.905600 0.097294
O O6 0.617003 0.750000 0.045661
O O7 0.533973 0.750000 0.203683
O O8 0.140606 0.250000 0.762539
O O9 0.133994 0.423133 0.626024
O O10 0.362855 0.250000 0.650600
O O11 0.898494 0.750000 0.076964
O O12 0.085787 0.905518 0.165276
O O13 0.183502 0.096361 0.052168
O O14 0.930777 0.250000 0.401947
O O15 0.000000 0.000000 0.500000
#
# Coordination Sequence:
#
# PCOD8074006 Si02
#       8
#     4   2   2   2   4   2   4   2
#     4  10  20  39  64  89 118 162 210 244 297 370
#     4   9  20  35  54  80 110 155 202 243 297 357
#     4  12  22  42  64  91 130 159 199 259 308 363
#     4  11  22  37  54  81 121 157 197 252 314 354
#     4  10  20  35  55  80 112 158 199 249 300 350
#     4  12  20  34  55  83 116 151 205 252 301 357
#     4  11  23  40  71  98 119 157 206 251 299 367
#     4  10  22  38  63  87 125 168 195 248 318 357
#
# _framework density 18.647114999999999
#
# number of rings (size 3 to 8) (size 9 to 14) (size 15 to 20)
#    0.000    1.455    4.545    2.182    0.000    0.727 
#    0.000    0.909    0.000    0.000    0.000    0.000 
#    0.000    0.000    0.000    0.000    0.000    0.000 
#
# Total GULP energy -272576.459922 kJ/mol
# GULP energy per Si atom -12389.839087 kJ/mol
# Density = 1.860467 g / cm^3
# Si number density = 18.647115 Si / 1000 Ang^3
#
#
#
# Elastic Constant Matrix: (Units=GPa)
#
#
# Indices 1 2 3 4 5 6 
#
# 1 107.5964 64.3245 22.6931 0.0000 12.0010 0.0000
# 2 64.3245 152.6052 32.2986 0.0000 12.7829 0.0000
# 3 22.6931 32.2986 64.0659 0.0000 8.4710 0.0000
# 4 0.0000 0.0000 0.0000 10.8745 0.0000 12.7654
# 5 12.0010 12.7829 8.4710 0.0000 17.6109 0.0000
# 6 0.0000 0.0000 0.0000 12.7654 0.0000 9.9434
#
#
#
# Elastic Compliance Matrix: (Units=1/GPa)
#
#
# Indices 1 2 3 4 5 6 
#
# 1 0.012986 -0.004748 -0.001593 0.000000 -0.004637 0.000000
# 2 -0.004748 0.009316 -0.002722 0.000000 -0.002217 0.000000
# 3 -0.001593 -0.002722 0.018305 0.000000 -0.005744 0.000000
# 4 0.000000 0.000000 0.000000 -0.181363 0.000000 0.232835
# 5 -0.004637 -0.002217 -0.005744 0.000000 0.064315 0.000000
# 6 0.000000 0.000000 0.000000 0.232835 0.000000 -0.198346
#
#
# Mechanical properties :
#
#
# Convention : Reuss Voigt Hill
#
# Bulk Modulus (GPa) = 44.48171 62.54441 53.51306
# Shear Modulus (GPa) = -20.06671 21.34918 0.64123
#
# Velocity S-wave (km/s) = -3.28400 3.38732 0.58705
# Velocity P-wave (km/s) = 3.08654 6.99374 5.40551
#
# Compressibility (1/GPa) = 0.02248115
#
# Stress axis : x y z
#
# Youngs Moduli (GPa) = 77.00822 107.34274 54.63073
#
# Poissons Ratio (x) = 0.50967 0.08702
# Poissons Ratio (y) = 0.36564 0.14868
# Poissons Ratio (z) = 0.12267 0.29214
#
# Static dielectric constant tensor:
#      x y z
#    x 3.240540 0.000000 -0.050910 
#    y 0.000000 3.543140 0.000000 
#    z -0.050910 0.000000 3.429720 
# 
# 
# High freq. dielectric constant tensor:
#      x y z
#    x 1.711930 0.000000 -0.009290 
#    y 0.000000 1.737550 0.000000 
#    z -0.009290 0.000000 1.728800 
# 
# From -- ./inp_files/20464.got.cif
#   From: 2010.06.25/outbox.cif.g09.slc.cpg/sg11_11_cif.got.tgz:20464.got - 2010.06.27 23:14:04.
