data_PCOD8074902
_publ_section_title
;
Structure prediction by ZEFSAII (Michael W. Deem and Ramdas Pophale) SiO2 
 PCOD8074902
Probable space group: P 21/M
;
_chemical_formula_sum "Si O2"
_cell_formula_units_Z 28
_cell_length_a 14.746875
_cell_length_b 11.250041
_cell_length_c 9.471462
_cell_angle_alpha 90.000000
_cell_angle_beta 120.175092
_cell_angle_gamma 90.000000
_cell_volume 1358.416054
_symmetry_space_group_name_H-M "P 21/M"
_symmetry_group_IT_number 11
_symmetry_cell_setting 'monoclinic'
loop_
_space_group_symop_operation_xyz
x,y,z
-x,1/2+y,-z
-x,-y,-z
x,1/2-y,z
loop_
_atom_site_type_symbol
_atom_site_label
_atom_site_fract_x
_atom_site_fract_y
_atom_site_fract_z
Si Si1 0.973315 0.616449 0.153558
Si Si2 0.844569 0.539293 0.796959
Si Si3 0.207592 0.115432 0.800544
Si Si4 0.658451 0.381940 0.750752
Si Si5 0.407922 0.617969 0.607770
Si Si6 0.723168 0.618121 0.445850
Si Si7 0.572580 0.521860 0.921896
O O1 0.001552 0.750000 0.218437
O O2 0.894905 0.555795 0.207448
O O3 0.083385 0.549345 0.237421
O O4 0.916743 0.615765 0.956807
O O5 0.757744 0.468885 0.819158
O O6 0.787985 0.624241 0.640944
O O7 0.208886 0.250000 0.856515
O O8 0.197808 0.105892 0.624286
O O9 0.315149 0.059479 0.936100
O O10 0.704358 0.250000 0.797828
O O11 0.582767 0.395267 0.554238
O O12 0.589001 0.405946 0.836049
O O13 0.356580 0.750000 0.599917
O O14 0.348378 0.500425 0.619040
O O15 0.520113 0.618738 0.775050
O O16 0.665848 0.750000 0.388996
O O17 0.500000 0.500000 0.000000
#
# Coordination Sequence:
#
# PCOD8074902 Si02
#       7
#     4   4   4   4   4   4   4
#     4  10  20  36  61  88 116 154 198 250 309 361
#     4  10  20  37  62  88 117 152 200 251 303 364
#     4  10  21  38  57  85 122 158 201 250 300 357
#     4  10  22  39  59  86 121 159 204 257 307 361
#     4  10  22  40  61  90 126 163 207 254 305 360
#     4  10  21  39  62  90 125 163 204 247 297 364
#     4  12  22  38  59  86 122 162 207 251 299 362
#
# _framework density 20.612241000000001
#
# number of rings (size 3 to 8) (size 9 to 14) (size 15 to 20)
#    0.000    1.714    2.857    1.714    0.000    2.857 
#    0.000    2.143    0.000    0.000    0.000    0.000 
#    0.000    0.000    0.000    0.000    0.000    0.000 
#
# Total GULP energy -346894.581945 kJ/mol
# GULP energy per Si atom -12389.092212 kJ/mol
# Density = 2.056533 g / cm^3
# Si number density = 20.612241 Si / 1000 Ang^3
#
#
#
# Elastic Constant Matrix: (Units=GPa)
#
#
# Indices 1 2 3 4 5 6 
#
# 1 115.2327 37.8231 20.0502 0.0000 -22.7886 0.0000
# 2 37.8231 104.5870 13.7243 0.0000 -6.3458 0.0000
# 3 20.0502 13.7243 58.8008 0.0000 -13.6693 0.0000
# 4 0.0000 0.0000 0.0000 6.8744 0.0000 -4.4030
# 5 -22.7886 -6.3458 -13.6693 0.0000 29.9800 0.0000
# 6 0.0000 0.0000 0.0000 -4.4030 0.0000 28.2201
#
#
#
# Elastic Compliance Matrix: (Units=1/GPa)
#
#
# Indices 1 2 3 4 5 6 
#
# 1 0.011545 -0.003544 -0.001391 0.000000 0.007391 0.000000
# 2 -0.003544 0.010988 -0.001613 0.000000 -0.001104 0.000000
# 3 -0.001391 -0.001613 0.019611 0.000000 0.007543 0.000000
# 4 0.000000 0.000000 0.000000 0.161617 0.000000 0.025216
# 5 0.007391 -0.001104 0.007543 0.000000 0.042179 0.000000
# 6 0.000000 0.000000 0.000000 0.025216 0.000000 0.039370
#
#
# Mechanical properties :
#
#
# Convention : Reuss Voigt Hill
#
# Bulk Modulus (GPa) = 34.42626 46.86840 40.64733
# Shear Modulus (GPa) = 16.22908 26.81643 21.52275
#
# Velocity S-wave (km/s) = 2.80902 3.61084 3.23487
# Velocity P-wave (km/s) = 5.22101 6.33812 5.80649
#
# Compressibility (1/GPa) = 0.02904760
#
# Stress axis : x y z
#
# Youngs Moduli (GPa) = 86.61607 91.01005 50.99241
#
# Poissons Ratio (x) = 0.32256 0.07095
# Poissons Ratio (y) = 0.30698 0.08223
# Poissons Ratio (z) = 0.12051 0.14676
#
# Static dielectric constant tensor:
#      x y z
#    x 3.895470 0.000000 -0.190550 
#    y 0.000000 3.741030 0.000000 
#    z -0.190550 0.000000 3.824110 
# 
# 
# High freq. dielectric constant tensor:
#      x y z
#    x 1.796320 0.000000 -0.012150 
#    y 0.000000 1.801320 0.000000 
#    z -0.012150 0.000000 1.809870 
# 
# From -- ./inp_files/21630.got.cif
#   From: 2010.06.25/outbox.cif.g09.slc.cpg/sg11_11_cif.got.tgz:21630.got - 2010.06.27 23:14:04.
