data_PCOD8074179
_publ_section_title
;
Structure prediction by ZEFSAII (Michael W. Deem and Ramdas Pophale) SiO2 
 PCOD8074179
Probable space group: P 21/M
;
_chemical_formula_sum "Si O2"
_cell_formula_units_Z 28
_cell_length_a 17.936357
_cell_length_b 13.718169
_cell_length_c 10.684604
_cell_angle_alpha 90.000000
_cell_angle_beta 33.080198
_cell_angle_gamma 90.000000
_cell_volume 1434.934972
_symmetry_space_group_name_H-M "P 21/M"
_symmetry_group_IT_number 11
_symmetry_cell_setting 'monoclinic'
loop_
_space_group_symop_operation_xyz
x,y,z
-x,1/2+y,-z
-x,-y,-z
x,1/2-y,z
loop_
_atom_site_type_symbol
_atom_site_label
_atom_site_fract_x
_atom_site_fract_y
_atom_site_fract_z
Si Si1 0.842990 0.501038 0.762086
Si Si2 0.119352 0.860067 0.079259
Si Si3 0.376103 0.438444 0.120322
Si Si4 0.237544 0.499633 0.713605
Si Si5 0.459484 0.643971 0.323908
Si Si6 0.829068 0.640897 0.401081
Si Si7 0.290780 0.139789 0.860884
O O1 0.814836 0.406629 0.889072
O O2 0.738971 0.496358 0.790657
O O3 0.000000 0.500000 0.500000
O O4 0.813827 0.595519 0.889397
O O5 0.175042 0.750000 0.989595
O O6 0.955278 0.863798 0.320260
O O7 0.154720 0.917458 0.902588
O O8 0.307802 0.380269 0.329631
O O9 0.500000 0.500000 0.000000
O O10 0.440256 0.360704 0.935657
O O11 0.355274 0.554392 0.469986
O O12 0.147592 0.439605 0.740157
O O13 0.296385 0.420365 0.725508
O O14 0.385569 0.750000 0.424590
O O15 0.552757 0.636760 0.315499
O O16 0.819079 0.750000 0.357036
O O17 0.241283 0.250000 0.905131
#
# Coordination Sequence:
#
# PCOD8074179 Si02
#       7
#     4   4   4   4   4   4   4
#     4  10  20  37  63  86 114 152 197 242 290 348
#     4  10  22  39  60  88 118 156 199 242 294 353
#     4  11  21  39  61  86 119 152 193 244 299 346
#     4  11  20  36  58  84 119 152 195 246 296 339
#     4  10  20  35  57  82 113 156 194 236 295 357
#     4  11  22  37  61  85 117 160 200 240 293 359
#     4   9  20  35  56  85 115 151 198 240 289 354
#
# _framework density 19.513079999999999
#
# number of rings (size 3 to 8) (size 9 to 14) (size 15 to 20)
#    0.000    1.714    2.857    2.143    0.000    1.143 
#    0.000    1.429    0.000    0.857    0.000    0.000 
#    0.000    0.000    0.000    0.000    0.000    0.000 
#
# Total GULP energy -347109.850414 kJ/mol
# GULP energy per Si atom -12396.780372 kJ/mol
# Density = 1.946867 g / cm^3
# Si number density = 19.513080 Si / 1000 Ang^3
#
#
#
# Elastic Constant Matrix: (Units=GPa)
#
#
# Indices 1 2 3 4 5 6 
#
# 1 90.7492 46.8887 13.2433 0.0000 -3.7759 0.0000
# 2 46.8887 153.2715 34.2011 0.0000 -0.3207 0.0000
# 3 13.2433 34.2011 69.0964 0.0000 -1.3672 0.0000
# 4 0.0000 0.0000 0.0000 26.6725 0.0000 -2.9368
# 5 -3.7759 -0.3207 -1.3672 0.0000 28.1441 0.0000
# 6 0.0000 0.0000 0.0000 -2.9368 0.0000 25.3910
#
#
#
# Elastic Compliance Matrix: (Units=1/GPa)
#
#
# Indices 1 2 3 4 5 6 
#
# 1 0.013190 -0.003906 -0.000561 0.000000 0.001698 0.000000
# 2 -0.003906 0.008492 -0.003466 0.000000 -0.000596 0.000000
# 3 -0.000561 -0.003466 0.016309 0.000000 0.000678 0.000000
# 4 0.000000 0.000000 0.000000 0.037975 0.000000 0.004392
# 5 0.001698 -0.000596 0.000678 0.000000 0.035785 0.000000
# 6 0.000000 0.000000 0.000000 0.004392 0.000000 0.039892
#
#
# Mechanical properties :
#
#
# Convention : Reuss Voigt Hill
#
# Bulk Modulus (GPa) = 45.19999 55.75372 50.47685
# Shear Modulus (GPa) = 28.59010 30.62712 29.60861
#
# Velocity S-wave (km/s) = 3.83191 3.96608 3.89957
# Velocity P-wave (km/s) = 6.54158 7.04326 6.79705
#
# Compressibility (1/GPa) = 0.02212390
#
# Stress axis : x y z
#
# Youngs Moduli (GPa) = 75.81339 117.76293 61.31526
#
# Poissons Ratio (x) = 0.46003 0.03439
# Poissons Ratio (y) = 0.29616 0.21253
# Poissons Ratio (z) = 0.04252 0.40819
#
# Static dielectric constant tensor:
#      x y z
#    x 3.564830 0.000000 0.071660 
#    y 0.000000 3.647310 0.000000 
#    z 0.071660 0.000000 3.486270 
# 
# 
# High freq. dielectric constant tensor:
#      x y z
#    x 1.752110 0.000000 0.007710 
#    y 0.000000 1.763850 0.000000 
#    z 0.007710 0.000000 1.759980 
# 
# From -- ./inp_files/17777.got.cif
#   From: 2010.06.25/outbox.cif.g09.slc.cpg/sg11_9_cif.got.tgz:17777.got - 2010.06.27 23:14:04.
