data_PCOD8074930
_publ_section_title
;
Structure prediction by ZEFSAII (Michael W. Deem and Ramdas Pophale) SiO2 
 PCOD8074930
Probable space group: P 21/M
;
_chemical_formula_sum "Si O2"
_cell_formula_units_Z 28
_cell_length_a 22.094644
_cell_length_b 9.043030
_cell_length_c 24.326213
_cell_angle_alpha 90.000000
_cell_angle_beta 17.158799
_cell_angle_gamma 90.000000
_cell_volume 1433.931727
_symmetry_space_group_name_H-M "P 21/M"
_symmetry_group_IT_number 11
_symmetry_cell_setting 'monoclinic'
loop_
_space_group_symop_operation_xyz
x,y,z
-x,1/2+y,-z
-x,-y,-z
x,1/2-y,z
loop_
_atom_site_type_symbol
_atom_site_label
_atom_site_fract_x
_atom_site_fract_y
_atom_site_fract_z
Si Si1 0.885631 0.421455 0.026801
Si Si2 0.292689 0.924337 0.701648
Si Si3 0.848280 0.925859 0.842841
Si Si4 0.058211 0.912596 0.503639
Si Si5 0.371994 0.409010 0.068061
Si Si6 0.216927 0.421648 0.463826
Si Si7 0.678026 0.080998 0.093289
O O1 0.949085 0.250000 0.974246
O O2 0.746007 0.463405 0.200639
O O3 0.748878 0.459551 0.092837
O O4 0.094787 0.515191 0.840692
O O5 0.312783 0.750000 0.674364
O O6 0.500000 0.000000 0.500000
O O7 0.877727 0.750000 0.814172
O O8 0.657441 0.975681 0.967899
O O9 0.057826 0.003941 0.643361
O O10 0.796577 0.974315 0.948975
O O11 0.149392 0.750000 0.409798
O O12 0.857891 0.890544 0.712926
O O13 0.218303 0.004284 0.401810
O O14 0.000000 0.000000 0.500000
O O15 0.482182 0.250000 0.969460
O O16 0.500000 0.500000 0.000000
O O17 0.161208 0.250000 0.504869
O O18 0.436430 0.446610 0.300613
O O19 0.731727 0.250000 0.031431
#
# Coordination Sequence:
#
# PCOD8074930 Si02
#       7
#     4   4   4   4   4   4   4
#     4   9  20  39  59  85 120 156 199 244 282 336
#     4  10  20  36  61  91 124 160 196 239 288 338
#     4  10  22  39  56  81 114 148 188 239 295 349
#     4  10  21  36  53  77 106 139 181 232 290 350
#     4   9  20  35  51  74 102 134 176 225 282 344
#     4  10  21  38  58  82 111 148 193 238 289 352
#     4  10  22  39  61  85 113 155 199 239 288 345
#
# _framework density 19.526731999999999
#
# number of rings (size 3 to 8) (size 9 to 14) (size 15 to 20)
#    0.000    2.286    0.000    2.571    2.000    6.857 
#    0.000    2.857    0.000    0.000    0.000    0.000 
#    0.000    0.000    0.000    0.000    0.000    0.000 
#
# Total GULP energy -347085.858947 kJ/mol
# GULP energy per Si atom -12395.923534 kJ/mol
# Density = 1.948229 g / cm^3
# Si number density = 19.526732 Si / 1000 Ang^3
#
#
#
# Elastic Constant Matrix: (Units=GPa)
#
#
# Indices 1 2 3 4 5 6 
#
# 1 154.5453 66.5818 60.5504 0.0000 -17.1692 0.0000
# 2 66.5818 122.1473 60.9045 0.0000 -7.9201 0.0000
# 3 60.5504 60.9045 111.3274 0.0000 -5.9849 0.0000
# 4 0.0000 0.0000 0.0000 27.8061 0.0000 0.1881
# 5 -17.1692 -7.9201 -5.9849 0.0000 29.1121 0.0000
# 6 0.0000 0.0000 0.0000 0.1881 0.0000 33.9091
#
#
#
# Elastic Compliance Matrix: (Units=1/GPa)
#
#
# Indices 1 2 3 4 5 6 
#
# 1 0.009631 -0.003413 -0.003151 0.000000 0.004104 0.000000
# 2 -0.003413 0.012563 -0.004996 0.000000 0.000378 0.000000
# 3 -0.003151 -0.004996 0.013405 0.000000 -0.000462 0.000000
# 4 0.000000 0.000000 0.000000 0.035965 0.000000 -0.000199
# 5 0.004104 0.000378 -0.000462 0.000000 0.036778 0.000000
# 6 0.000000 0.000000 0.000000 -0.000199 0.000000 0.029492
#
#
# Mechanical properties :
#
#
# Convention : Reuss Voigt Hill
#
# Bulk Modulus (GPa) = 80.13355 84.89929 82.51642
# Shear Modulus (GPa) = 30.28229 31.49768 30.88998
#
# Velocity S-wave (km/s) = 3.94231 4.02064 3.98167
# Velocity P-wave (km/s) = 7.86444 8.07013 7.96795
#
# Compressibility (1/GPa) = 0.01247917
#
# Stress axis : x y z
#
# Youngs Moduli (GPa) = 103.82804 79.59936 74.60075
#
# Poissons Ratio (x) = 0.27166 0.23504
# Poissons Ratio (y) = 0.35435 0.37273
# Poissons Ratio (z) = 0.32713 0.39770
#
# Static dielectric constant tensor:
#      x y z
#    x 4.780960 0.000000 -0.043710 
#    y 0.000000 4.337210 0.000000 
#    z -0.043710 0.000000 3.465470 
# 
# 
# High freq. dielectric constant tensor:
#      x y z
#    x 1.763720 0.000000 0.000640 
#    y 0.000000 1.767290 0.000000 
#    z 0.000640 0.000000 1.758820 
# 
# From -- ./inp_files/69786.got.cif
#   From: 2010.06.25/outbox.cif.g09.slc.cpg/sg11_35_cif.got.tgz:69786.got - 2010.06.27 23:14:04.
