data_PCOD8074199
_publ_section_title
;
Structure prediction by ZEFSAII (Michael W. Deem and Ramdas Pophale) SiO2 
 PCOD8074199
Probable space group: P 21/M
;
_chemical_formula_sum "Si O2"
_cell_formula_units_Z 32
_cell_length_a 9.504889
_cell_length_b 13.325949
_cell_length_c 24.594193
_cell_angle_alpha 90.000000
_cell_angle_beta 149.999845
_cell_angle_gamma 90.000000
_cell_volume 1557.578029
_symmetry_space_group_name_H-M "P 21/M"
_symmetry_group_IT_number 11
_symmetry_cell_setting 'monoclinic'
loop_
_space_group_symop_operation_xyz
x,y,z
-x,1/2+y,-z
-x,-y,-z
x,1/2-y,z
loop_
_atom_site_type_symbol
_atom_site_label
_atom_site_fract_x
_atom_site_fract_y
_atom_site_fract_z
Si Si1 0.651101 0.633816 0.255073
Si Si2 0.672919 0.641541 0.546399
Si Si3 0.107219 0.946841 0.330997
Si Si4 0.773892 0.046921 0.965076
Si Si5 0.571344 0.000355 0.332476
Si Si6 0.044735 0.136545 0.162179
Si Si7 0.665839 0.469419 0.108811
Si Si8 0.083382 0.361516 0.483141
O O1 0.691532 0.750000 0.285744
O O2 0.410213 0.627400 0.129100
O O3 0.551828 0.565043 0.271562
O O4 0.942515 0.588561 0.329973
O O5 0.667893 0.750000 0.574345
O O6 0.759179 0.558235 0.618627
O O7 0.372225 0.626907 0.415235
O O8 0.910901 0.642477 0.579873
O O9 0.898350 0.948884 0.208740
O O10 0.567125 0.958239 0.920742
O O11 0.904921 0.110572 0.057696
O O12 0.000000 0.000000 0.000000
O O13 0.281146 0.052957 0.250477
O O14 0.794392 0.089420 0.404568
O O15 0.649954 0.925410 0.407231
O O16 0.160700 0.250000 0.198507
O O17 0.832494 0.129145 0.143378
O O18 0.500000 0.500000 0.000000
O O19 0.096715 0.250000 0.512952
#
# Coordination Sequence:
#
# PCOD8074199 Si02
#       8
#     4   4   4   4   4   4   4   4
#     4  11  21  36  59  88 118 156 204 251 307 370
#     4  10  20  35  57  83 116 157 201 249 308 370
#     4  10  20  37  58  86 119 160 199 257 309 368
#     4  10  20  40  65  89 123 162 199 257 309 361
#     4  11  21  36  58  83 120 161 198 260 300 362
#     4  11  22  39  62  90 125 167 206 248 310 371
#     4   9  21  39  63  86 121 162 203 254 309 367
#     4  10  21  37  55  82 115 157 203 249 310 368
#
# _framework density 20.544716999999999
#
# number of rings (size 3 to 8) (size 9 to 14) (size 15 to 20)
#    0.000    1.750    2.500    2.250    0.000    0.500 
#    0.000    1.875    0.000    1.500    0.000    0.000 
#    0.000    0.000    0.000    0.000    0.000    0.000 
#
# Total GULP energy -396454.901320 kJ/mol
# GULP energy per Si atom -12389.215666 kJ/mol
# Density = 2.049796 g / cm^3
# Si number density = 20.544717 Si / 1000 Ang^3
#
#
#
# Elastic Constant Matrix: (Units=GPa)
#
#
# Indices 1 2 3 4 5 6 
#
# 1 96.0478 35.0788 15.5607 0.0000 12.5694 0.0000
# 2 35.0788 142.5101 34.5772 0.0000 8.6953 0.0000
# 3 15.5607 34.5772 93.5147 0.0000 1.5860 0.0000
# 4 0.0000 0.0000 0.0000 16.5394 0.0000 1.0878
# 5 12.5694 8.6953 1.5860 0.0000 27.4813 0.0000
# 6 0.0000 0.0000 0.0000 1.0878 0.0000 23.3264
#
#
#
# Elastic Compliance Matrix: (Units=1/GPa)
#
#
# Indices 1 2 3 4 5 6 
#
# 1 0.012083 -0.002438 -0.001030 0.000000 -0.004696 0.000000
# 2 -0.002438 0.008345 -0.002657 0.000000 -0.001372 0.000000
# 3 -0.001030 -0.002657 0.011837 0.000000 0.000628 0.000000
# 4 0.000000 0.000000 0.000000 0.060648 0.000000 -0.002828
# 5 -0.004696 -0.001372 0.000628 0.000000 0.038934 0.000000
# 6 0.000000 0.000000 0.000000 -0.002828 0.000000 0.043002
#
#
# Mechanical properties :
#
#
# Convention : Reuss Voigt Hill
#
# Bulk Modulus (GPa) = 49.95856 55.83399 52.89627
# Shear Modulus (GPa) = 25.80385 29.92649 27.86517
#
# Velocity S-wave (km/s) = 3.54783 3.82075 3.68682
# Velocity P-wave (km/s) = 6.41503 6.83374 6.62769
#
# Compressibility (1/GPa) = 0.02001659
#
# Stress axis : x y z
#
# Youngs Moduli (GPa) = 82.75957 119.82518 84.48424
#
# Poissons Ratio (x) = 0.29213 0.08698
# Poissons Ratio (y) = 0.20176 0.22446
# Poissons Ratio (z) = 0.08520 0.31835
#
# Static dielectric constant tensor:
#      x y z
#    x 3.837530 0.000000 0.096810 
#    y 0.000000 3.659750 0.000000 
#    z 0.096810 0.000000 3.882690 
# 
# 
# High freq. dielectric constant tensor:
#      x y z
#    x 1.805450 0.000000 0.003470 
#    y 0.000000 1.785910 0.000000 
#    z 0.003470 0.000000 1.812560 
# 
# From -- ./inp_files/68150.got.cif
#   From: 2010.06.25/outbox.cif.g09.slc.cpg/sg11_35_cif.got.tgz:68150.got - 2010.06.27 23:14:04.
