data_PCOD8074332
_publ_section_title
;
Structure prediction by ZEFSAII (Michael W. Deem and Ramdas Pophale) SiO2 
 PCOD8074332
Probable space group: P 21/M
;
_chemical_formula_sum "Si O2"
_cell_formula_units_Z 32
_cell_length_a 25.320543
_cell_length_b 8.958063
_cell_length_c 23.910236
_cell_angle_alpha 90.000000
_cell_angle_beta 17.185108
_cell_angle_gamma 90.000000
_cell_volume 1602.394019
_symmetry_space_group_name_H-M "P 21/M"
_symmetry_group_IT_number 11
_symmetry_cell_setting 'monoclinic'
loop_
_space_group_symop_operation_xyz
x,y,z
-x,1/2+y,-z
-x,-y,-z
x,1/2-y,z
loop_
_atom_site_type_symbol
_atom_site_label
_atom_site_fract_x
_atom_site_fract_y
_atom_site_fract_z
Si Si1 0.325845 0.926218 0.801697
Si Si2 0.973377 0.075554 0.715372
Si Si3 0.314925 0.921625 0.691603
Si Si4 0.288986 0.925277 0.596750
Si Si5 0.017048 0.427034 0.178642
Si Si6 0.686355 0.577602 0.702455
Si Si7 0.188756 0.075657 0.304633
Si Si8 0.336103 0.425742 0.036858
O O1 0.327198 0.750000 0.812270
O O2 0.231975 0.965670 0.836019
O O3 0.528922 0.985225 0.599349
O O4 0.208412 0.007456 0.967138
O O5 0.949121 0.250000 0.751871
O O6 0.121595 0.043641 0.518548
O O7 0.035801 0.992904 0.708123
O O8 0.786846 0.008389 0.883468
O O9 0.361708 0.750000 0.646720
O O10 0.209832 0.958814 0.740081
O O11 0.500000 0.000000 0.500000
O O12 0.330140 0.750000 0.547894
O O13 0.137601 0.979764 0.707339
O O14 0.032112 0.250000 0.166378
O O15 0.633242 0.750000 0.748312
O O16 0.693018 0.532419 0.761088
O O17 0.539410 0.476124 0.820342
O O18 0.152086 0.250000 0.340385
O O19 0.287281 0.021756 0.148959
O O20 0.000000 0.000000 0.500000
O O21 0.316412 0.250000 0.047946
#
# Coordination Sequence:
#
# PCOD8074332 Si02
#       8
#     4   4   4   4   4   4   4   4
#     4  10  20  35  58  87 118 151 189 236 289 348
#     4  11  24  43  63  82 112 153 197 246 292 340
#     4   8  15  30  53  82 114 148 187 230 283 345
#     4   9  19  37  59  83 115 154 193 238 290 342
#     4  11  24  40  59  83 113 151 196 243 290 344
#     4  10  22  40  62  88 119 157 197 237 289 346
#     4  10  20  36  60  91 124 158 192 234 288 343
#     4  11  23  38  62  93 122 154 193 238 289 346
#
# _framework density 19.970120000000001
#
# number of rings (size 3 to 8) (size 9 to 14) (size 15 to 20)
#    0.000    2.000    1.250    1.875    0.000    5.000 
#    0.000    2.500    0.000    0.000    0.000    0.000 
#    0.000    0.000    0.000    0.000    0.000    0.000 
#
# Total GULP energy -396681.940068 kJ/mol
# GULP energy per Si atom -12396.310627 kJ/mol
# Density = 1.992467 g / cm^3
# Si number density = 19.970120 Si / 1000 Ang^3
#
#
#
# Elastic Constant Matrix: (Units=GPa)
#
#
# Indices 1 2 3 4 5 6 
#
# 1 109.7903 35.7412 20.7568 0.0000 -9.5431 0.0000
# 2 35.7412 64.8023 29.9556 0.0000 -6.5142 0.0000
# 3 20.7568 29.9556 64.8324 0.0000 -14.8733 0.0000
# 4 0.0000 0.0000 0.0000 30.1107 0.0000 -2.4231
# 5 -9.5431 -6.5142 -14.8733 0.0000 31.1098 0.0000
# 6 0.0000 0.0000 0.0000 -2.4231 0.0000 31.6158
#
#
#
# Elastic Compliance Matrix: (Units=1/GPa)
#
#
# Indices 1 2 3 4 5 6 
#
# 1 0.011257 -0.005791 -0.000466 0.000000 0.002018 0.000000
# 2 -0.005791 0.022603 -0.008886 0.000000 -0.001292 0.000000
# 3 -0.000466 -0.008886 0.021587 0.000000 0.008317 0.000000
# 4 0.000000 0.000000 0.000000 0.033417 0.000000 0.002561
# 5 0.002018 -0.001292 0.008317 0.000000 0.036469 0.000000
# 6 0.000000 0.000000 0.000000 0.002561 0.000000 0.031826
#
#
# Mechanical properties :
#
#
# Convention : Reuss Voigt Hill
#
# Bulk Modulus (GPa) = 39.74120 45.81470 42.77795
# Shear Modulus (GPa) = 25.53217 28.76534 27.14875
#
# Velocity S-wave (km/s) = 3.57952 3.79940 3.69110
# Velocity P-wave (km/s) = 6.08502 6.49913 6.29548
#
# Compressibility (1/GPa) = 0.02516280
#
# Stress axis : x y z
#
# Youngs Moduli (GPa) = 88.83572 44.24161 46.32349
#
# Poissons Ratio (x) = 0.25618 0.02156
# Poissons Ratio (y) = 0.51440 0.41164
# Poissons Ratio (z) = 0.04135 0.39314
#
# Static dielectric constant tensor:
#      x y z
#    x 4.162240 0.000000 0.129730 
#    y 0.000000 3.597830 0.000000 
#    z 0.129730 0.000000 3.370250 
# 
# 
# High freq. dielectric constant tensor:
#      x y z
#    x 1.790560 0.000000 0.001380 
#    y 0.000000 1.781610 0.000000 
#    z 0.001380 0.000000 1.766470 
# 
# From -- ./inp_files/69938.got.cif
#   From: 2010.06.25/outbox.cif.g09.slc.cpg/sg11_35_cif.got.tgz:69938.got - 2010.06.27 23:14:04.
