data_PCOD8074698
_publ_section_title
;
Structure prediction by ZEFSAII (Michael W. Deem and Ramdas Pophale) SiO2 
 PCOD8074698
Probable space group: P 21/M
;
_chemical_formula_sum "Si O2"
_cell_formula_units_Z 24
_cell_length_a 10.163313
_cell_length_b 16.201344
_cell_length_c 10.166606
_cell_angle_alpha 90.000000
_cell_angle_beta 44.432469
_cell_angle_gamma 90.000000
_cell_volume 1171.932597
_symmetry_space_group_name_H-M "P 21/M"
_symmetry_group_IT_number 11
_symmetry_cell_setting 'monoclinic'
loop_
_space_group_symop_operation_xyz
x,y,z
-x,1/2+y,-z
-x,-y,-z
x,1/2-y,z
loop_
_atom_site_type_symbol
_atom_site_label
_atom_site_fract_x
_atom_site_fract_y
_atom_site_fract_z
Si Si1 0.085804 0.412582 0.781024
Si Si2 0.841806 0.843374 0.786994
Si Si3 0.063055 0.652593 0.381422
Si Si4 0.886873 0.393833 0.184043
Si Si5 0.492647 0.405889 0.545780
Si Si6 0.524884 0.347490 0.813517
O O1 0.101071 0.509925 0.790306
O O2 0.292552 0.369789 0.639279
O O3 0.989043 0.395537 0.712304
O O4 0.957055 0.373840 0.987453
O O5 0.803071 0.750000 0.775347
O O6 0.932779 0.884585 0.591922
O O7 0.986592 0.844640 0.803897
O O8 0.641327 0.881998 0.972722
O O9 0.034465 0.750000 0.382532
O O10 0.278681 0.632119 0.258675
O O11 0.671712 0.361030 0.350381
O O12 0.500000 0.500000 0.500000
O O13 0.507985 0.398001 0.691352
O O14 0.502115 0.250000 0.800070
#
# Coordination Sequence:
#
# PCOD8074698 Si02
#       6
#     4   4   4   4   4   4
#     4  10  22  37  56  85 119 147 186 242 282 327
#     4  10  20  36  59  82 109 149 193 231 280 345
#     4  10  22  39  57  84 117 147 186 238 287 336
#     4  10  20  37  59  81 116 151 191 229 280 340
#     4  10  20  36  58  85 116 150 190 235 278 340
#     4  10  20  37  60  83 113 152 192 233 285 345
#
# _framework density 20.478992999999999
#
# number of rings (size 3 to 8) (size 9 to 14) (size 15 to 20)
#    0.000    2.000    3.333    0.000    0.000    3.333 
#    0.000    0.833    0.000    0.000    0.000    0.000 
#    0.000    0.000    0.000    0.000    0.000    0.000 
#
# Total GULP energy -297523.515005 kJ/mol
# GULP energy per Si atom -12396.813125 kJ/mol
# Density = 2.043238 g / cm^3
# Si number density = 20.478993 Si / 1000 Ang^3
#
#
#
# Elastic Constant Matrix: (Units=GPa)
#
#
# Indices 1 2 3 4 5 6 
#
# 1 157.3175 23.5170 98.7060 0.0000 -1.7967 0.0000
# 2 23.5170 19.3907 22.6419 0.0000 1.9425 0.0000
# 3 98.7060 22.6419 214.4260 0.0000 -12.9959 0.0000
# 4 0.0000 0.0000 0.0000 14.8374 0.0000 2.2145
# 5 -1.7967 1.9425 -12.9959 0.0000 48.3592 0.0000
# 6 0.0000 0.0000 0.0000 2.2145 0.0000 25.1595
#
#
#
# Elastic Compliance Matrix: (Units=1/GPa)
#
#
# Indices 1 2 3 4 5 6 
#
# 1 0.009829 -0.007504 -0.003753 0.000000 -0.000342 0.000000
# 2 -0.007504 0.065363 -0.003683 0.000000 -0.003894 0.000000
# 3 -0.003753 -0.003683 0.006893 0.000000 0.001861 0.000000
# 4 0.000000 0.000000 0.000000 0.068295 0.000000 -0.006011
# 5 -0.000342 -0.003894 0.001861 0.000000 0.021322 0.000000
# 6 0.000000 0.000000 0.000000 -0.006011 0.000000 0.040276
#
#
# Mechanical properties :
#
#
# Convention : Reuss Voigt Hill
#
# Bulk Modulus (GPa) = 19.15564 75.65157 47.40361
# Shear Modulus (GPa) = 19.28557 34.08916 26.68737
#
# Velocity S-wave (km/s) = 3.07208 4.08437 3.61384
# Velocity P-wave (km/s) = 4.68590 7.69831 6.37266
#
# Compressibility (1/GPa) = 0.05220395
#
# Stress axis : x y z
#
# Youngs Moduli (GPa) = 101.73766 15.29907 145.07604
#
# Poissons Ratio (x) = 0.11481 0.54446
# Poissons Ratio (y) = 0.76348 0.53439
# Poissons Ratio (z) = 0.38182 0.05635
#
# Static dielectric constant tensor:
#      x y z
#    x 3.785840 0.000000 -0.426840 
#    y 0.000000 3.348840 0.000000 
#    z -0.426840 0.000000 4.446320 
# 
# 
# High freq. dielectric constant tensor:
#      x y z
#    x 1.798980 0.000000 -0.013480 
#    y 0.000000 1.765970 0.000000 
#    z -0.013480 0.000000 1.825980 
# 
# From -- ./inp_files/14220.got.cif
#   From: 2010.06.25/outbox.cif.g09.slc.cpg/sg11_8_cif.got.tgz:14220.got - 2010.06.27 23:14:04.
