data_PCOD8074372
_publ_section_title
;
Structure prediction by ZEFSAII (Michael W. Deem and Ramdas Pophale) SiO2 
 PCOD8074372
Probable space group: P 21/M
;
_chemical_formula_sum "Si O2"
_cell_formula_units_Z 20
_cell_length_a 9.476400
_cell_length_b 18.941264
_cell_length_c 9.699707
_cell_angle_alpha 90.000000
_cell_angle_beta 143.012161
_cell_angle_gamma 90.000000
_cell_volume 1047.494206
_symmetry_space_group_name_H-M "P 21/M"
_symmetry_group_IT_number 11
_symmetry_cell_setting 'monoclinic'
loop_
_space_group_symop_operation_xyz
x,y,z
-x,1/2+y,-z
-x,-y,-z
x,1/2-y,z
loop_
_atom_site_type_symbol
_atom_site_label
_atom_site_fract_x
_atom_site_fract_y
_atom_site_fract_z
Si Si1 0.183412 0.574050 0.291993
Si Si2 0.445705 0.576815 0.119937
Si Si3 0.328208 0.423424 0.415714
Si Si4 0.141660 0.462008 0.731347
Si Si5 0.076152 0.667849 0.952881
O O1 0.178957 0.490761 0.245376
O O2 0.458725 0.595985 0.522603
O O3 0.039219 0.585478 0.321295
O O4 0.066968 0.623530 0.086724
O O5 0.559851 0.551602 0.351942
O O6 0.653709 0.588028 0.171213
O O7 0.260129 0.518974 0.924202
O O8 0.302303 0.649299 0.035155
O O9 0.163853 0.355158 0.311024
O O10 0.000000 0.500000 0.500000
O O11 0.076206 0.750000 0.985372
#
# Coordination Sequence:
#
# PCOD8074372 Si02
#       5
#     4   4   4   4   4
#     4  10  21  34  60  88 116 144 196 246 293 340
#     4  10  21  35  60  89 117 149 193 238 297 350
#     4  10  20  35  59  88 117 149 193 249 289 340
#     4  11  20  35  59  93 119 145 185 250 300 341
#     4  11  23  39  57  82 119 160 195 238 292 354
#
# _framework density 19.093183
#
# number of rings (size 3 to 8) (size 9 to 14) (size 15 to 20)
#    0.000    1.600    4.000    0.600    5.600    3.200 
#    0.000    1.000    0.000    1.200    0.000    0.000 
#    0.000    0.000    0.000    0.000    0.000    0.000 
#
# Total GULP energy -247853.058544 kJ/mol
# GULP energy per Si atom -12392.652927 kJ/mol
# Density = 1.904973 g / cm^3
# Si number density = 19.093183 Si / 1000 Ang^3
#
#
#
# Elastic Constant Matrix: (Units=GPa)
#
#
# Indices 1 2 3 4 5 6 
#
# 1 179.4576 43.5849 45.1153 0.0000 20.1697 0.0000
# 2 43.5849 105.5510 49.1570 0.0000 0.5248 0.0000
# 3 45.1153 49.1570 105.9755 0.0000 -1.8044 0.0000
# 4 0.0000 0.0000 0.0000 16.1569 0.0000 4.2958
# 5 20.1697 0.5248 -1.8044 0.0000 29.2668 0.0000
# 6 0.0000 0.0000 0.0000 4.2958 0.0000 21.6932
#
#
#
# Elastic Compliance Matrix: (Units=1/GPa)
#
#
# Indices 1 2 3 4 5 6 
#
# 1 0.007165 -0.001879 -0.002265 0.000000 -0.005044 0.000000
# 2 -0.001879 0.012587 -0.005026 0.000000 0.000759 0.000000
# 3 -0.002265 -0.005026 0.012773 0.000000 0.002438 0.000000
# 4 0.000000 0.000000 0.000000 0.065333 0.000000 -0.012937
# 5 -0.005044 0.000759 0.002438 0.000000 0.037781 0.000000
# 6 0.000000 0.000000 0.000000 -0.012937 0.000000 0.048659
#
#
# Mechanical properties :
#
#
# Convention : Reuss Voigt Hill
#
# Bulk Modulus (GPa) = 70.49006 74.07763 72.28384
# Shear Modulus (GPa) = 24.11218 30.29851 27.20535
#
# Velocity S-wave (km/s) = 3.55754 3.98788 3.77884
# Velocity P-wave (km/s) = 7.33989 7.75155 7.54852
#
# Compressibility (1/GPa) = 0.01418640
#
# Stress axis : x y z
#
# Youngs Moduli (GPa) = 139.57040 79.44933 78.29119
#
# Poissons Ratio (x) = 0.14927 0.17729
# Poissons Ratio (y) = 0.26223 0.39346
# Poissons Ratio (z) = 0.31606 0.39928
#
# Static dielectric constant tensor:
#      x y z
#    x 3.914990 0.000000 0.301100 
#    y 0.000000 2.990040 0.000000 
#    z 0.301100 0.000000 3.656990 
# 
# 
# High freq. dielectric constant tensor:
#      x y z
#    x 1.759050 0.000000 0.021800 
#    y 0.000000 1.680970 0.000000 
#    z 0.021800 0.000000 1.754520 
# 
# From -- ./inp_files/1887.got.cif
#   From: 2010.06.25/outbox.cif.g09.slc.cpg/sg11_1_cif.got.tgz:1887.got - 2010.06.27 23:14:04.
