data_PCOD8074566
_publ_section_title
;
Structure prediction by ZEFSAII (Michael W. Deem and Ramdas Pophale) SiO2 
 PCOD8074566
Probable space group: P 21/M
;
_chemical_formula_sum "Si O2"
_cell_formula_units_Z 20
_cell_length_a 14.010787
_cell_length_b 9.609276
_cell_length_c 19.215707
_cell_angle_alpha 90.000000
_cell_angle_beta 157.741885
_cell_angle_gamma 90.000000
_cell_volume 979.932729
_symmetry_space_group_name_H-M "P 21/M"
_symmetry_group_IT_number 11
_symmetry_cell_setting 'monoclinic'
loop_
_space_group_symop_operation_xyz
x,y,z
-x,1/2+y,-z
-x,-y,-z
x,1/2-y,z
loop_
_atom_site_type_symbol
_atom_site_label
_atom_site_fract_x
_atom_site_fract_y
_atom_site_fract_z
Si Si1 0.524136 0.958943 0.335838
Si Si2 0.741108 0.250000 0.490097
Si Si3 0.469716 0.250000 0.543115
Si Si4 0.878233 0.250000 0.151271
Si Si5 0.711922 0.515853 0.960405
Si Si6 0.056385 0.250000 0.418858
Si Si7 0.698434 0.250000 0.306448
Si Si8 0.922353 0.250000 0.756440
O O1 0.446324 0.882448 0.354061
O O2 0.773850 0.888184 0.471669
O O3 0.568386 0.117083 0.386643
O O4 0.306829 0.953996 0.130386
O O5 0.840239 0.250000 0.477306
O O6 0.956602 0.250000 0.695252
O O7 0.626879 0.250000 0.577873
O O8 0.171790 0.250000 0.325249
O O9 0.858601 0.250000 0.221650
O O10 0.734000 0.386982 0.027750
O O11 0.468737 0.610654 0.814540
O O12 0.957854 0.611329 0.131034
O O13 0.914866 0.250000 0.395901
#
# Coordination Sequence:
#
# PCOD8074566 Si02
#       8
#     4   2   2   2   4   2   2   2
#     4   9  20  39  58  81 114 148 185 228 275 336
#     4  10  20  36  57  80 112 148 186 226 272 330
#     4  10  22  38  59  83 110 150 189 223 279 339
#     4  10  20  36  59  86 114 144 184 236 276 322
#     4  10  21  38  57  82 117 146 182 234 279 322
#     4  10  20  38  61  83 112 150 189 223 273 339
#     4   9  22  40  58  82 113 153 187 221 278 337
#     4  11  22  38  58  82 113 147 187 235 278 325
#
# _framework density 20.409564
#
# number of rings (size 3 to 8) (size 9 to 14) (size 15 to 20)
#    0.000    2.400    0.000    4.200    0.000    8.000 
#    0.000   11.000    0.000    0.000    0.000    0.000 
#    0.000    0.000    0.000    0.000    0.000    0.000 
#
# Total GULP energy -247925.926953 kJ/mol
# GULP energy per Si atom -12396.296348 kJ/mol
# Density = 2.036311 g / cm^3
# Si number density = 20.409564 Si / 1000 Ang^3
#
#
#
# Elastic Constant Matrix: (Units=GPa)
#
#
# Indices 1 2 3 4 5 6 
#
# 1 101.2568 36.6281 48.2915 0.0000 -6.7922 0.0000
# 2 36.6281 151.5642 34.0350 0.0000 -16.0469 0.0000
# 3 48.2915 34.0350 86.6121 0.0000 -28.4203 0.0000
# 4 0.0000 0.0000 0.0000 225.0303 0.0000 178.4059
# 5 -6.7922 -16.0469 -28.4203 0.0000 42.7349 0.0000
# 6 0.0000 0.0000 0.0000 178.4059 0.0000 208.3873
#
#
#
# Elastic Compliance Matrix: (Units=1/GPa)
#
#
# Indices 1 2 3 4 5 6 
#
# 1 0.014439 -0.001993 -0.008647 0.000000 -0.004204 0.000000
# 2 -0.001993 0.007549 -0.001316 0.000000 0.001642 0.000000
# 3 -0.008647 -0.001316 0.020813 0.000000 0.011973 0.000000
# 4 0.000000 0.000000 0.000000 0.013833 0.000000 -0.011843
# 5 -0.004204 0.001642 0.011973 0.000000 0.031311 0.000000
# 6 0.000000 0.000000 0.000000 -0.011843 0.000000 0.014937
#
#
# Mechanical properties :
#
#
# Convention : Reuss Voigt Hill
#
# Bulk Modulus (GPa) = 52.94234 64.14914 58.54574
# Shear Modulus (GPa) = 37.56881 109.92906 73.74894
#
# Velocity S-wave (km/s) = 4.29505 7.34700 6.01772
# Velocity P-wave (km/s) = 7.11286 10.17204 8.77677
#
# Compressibility (1/GPa) = 0.01888847
#
# Stress axis : x y z
#
# Youngs Moduli (GPa) = 69.25920 132.46887 48.04753
#
# Poissons Ratio (x) = 0.26397 0.41545
# Poissons Ratio (y) = 0.13801 0.06325
# Poissons Ratio (z) = 0.59886 0.17439
#
# Static dielectric constant tensor:
#      x y z
#    x 3.511440 0.000000 -0.456340 
#    y 0.000000 3.962010 0.000000 
#    z -0.456340 0.000000 3.642360 
# 
# 
# High freq. dielectric constant tensor:
#      x y z
#    x 1.779100 0.000000 -0.035750 
#    y 0.000000 1.820370 0.000000 
#    z -0.035750 0.000000 1.783950 
# 
# From -- ./inp_files/23871.got.cif
#   From: 2010.06.25/outbox.cif.g09.slc.cpg/sg11_12_cif.got.tgz:23871.got - 2010.06.27 23:14:04.
