data_PCOD8074470
_publ_section_title
;
Structure prediction by ZEFSAII (Michael W. Deem and Ramdas Pophale) SiO2 
 PCOD8074470
Probable space group: P 21/M
;
_chemical_formula_sum "Si O2"
_cell_formula_units_Z 28
_cell_length_a 12.398413
_cell_length_b 19.587108
_cell_length_c 11.716350
_cell_angle_alpha 90.000000
_cell_angle_beta 146.285936
_cell_angle_gamma 90.000000
_cell_volume 1579.282360
_symmetry_space_group_name_H-M "P 21/M"
_symmetry_group_IT_number 11
_symmetry_cell_setting 'monoclinic'
loop_
_space_group_symop_operation_xyz
x,y,z
-x,1/2+y,-z
-x,-y,-z
x,1/2-y,z
loop_
_atom_site_type_symbol
_atom_site_label
_atom_site_fract_x
_atom_site_fract_y
_atom_site_fract_z
Si Si1 0.394823 0.428634 0.086133
Si Si2 0.171748 0.587386 0.596504
Si Si3 0.949089 0.827503 0.236004
Si Si4 0.925702 0.027237 0.262809
Si Si5 0.788013 0.169055 0.749369
Si Si6 0.442390 0.428609 0.392840
Si Si7 0.975600 0.568647 0.903243
O O1 0.595592 0.413875 0.198834
O O2 0.431937 0.443910 0.250397
O O3 0.256661 0.364265 0.946404
O O4 0.286601 0.493290 0.935722
O O5 0.097412 0.585568 0.661748
O O6 0.085202 0.655642 0.464286
O O7 0.090262 0.525017 0.449408
O O8 0.891770 0.750000 0.192390
O O9 0.066176 0.845808 0.225352
O O10 0.997779 0.055961 0.206709
O O11 0.762351 0.250000 0.751379
O O12 0.583245 0.134953 0.539531
O O13 0.873508 0.128541 0.932763
O O14 0.500000 0.500000 0.500000
O O15 0.239182 0.403016 0.264787
O O16 0.000000 0.500000 0.000000
#
# Coordination Sequence:
#
# PCOD8074470 Si02
#       7
#     4   4   4   4   4   4   4
#     4  11  19  33  55  83 110 138 183 230 281 328
#     4  10  20  36  55  81 111 142 180 231 281 330
#     4  10  21  36  55  80 111 145 186 232 277 335
#     4  10  21  35  56  82 112 142 182 231 280 329
#     4  11  23  38  55  85 120 149 188 240 288 339
#     4  12  21  32  59  86 114 148 191 232 284 342
#     4  12  20  37  59  84 114 149 190 234 283 337
#
# _framework density 17.729572999999998
#
# number of rings (size 3 to 8) (size 9 to 14) (size 15 to 20)
#    0.000    1.143    5.714    2.143    0.000    1.714 
#    0.000    0.714    0.000    1.714    0.000    0.000 
#    0.000    0.000    0.000    0.000    0.000    0.000 
#
# Total GULP energy -347200.557862 kJ/mol
# GULP energy per Si atom -12400.019924 kJ/mol
# Density = 1.768922 g / cm^3
# Si number density = 17.729573 Si / 1000 Ang^3
#
#
#
# Elastic Constant Matrix: (Units=GPa)
#
#
# Indices 1 2 3 4 5 6 
#
# 1 103.6244 26.1763 32.5816 0.0000 -12.1848 0.0000
# 2 26.1763 68.4838 32.3326 0.0000 -5.1627 0.0000
# 3 32.5816 32.3326 98.0696 0.0000 9.6838 0.0000
# 4 0.0000 0.0000 0.0000 18.2459 0.0000 -3.8840
# 5 -12.1848 -5.1627 9.6838 0.0000 36.0684 0.0000
# 6 0.0000 0.0000 0.0000 -3.8840 0.0000 20.3386
#
#
#
# Elastic Compliance Matrix: (Units=1/GPa)
#
#
# Indices 1 2 3 4 5 6 
#
# 1 0.011967 -0.002522 -0.003603 0.000000 0.004649 0.000000
# 2 -0.002522 0.018441 -0.005566 0.000000 0.003282 0.000000
# 3 -0.003603 -0.005566 0.013794 0.000000 -0.005717 0.000000
# 4 0.000000 0.000000 0.000000 0.057129 0.000000 0.010910
# 5 0.004649 0.003282 -0.005717 0.000000 0.031300 0.000000
# 6 0.000000 0.000000 0.000000 0.010910 0.000000 0.051251
#
#
# Mechanical properties :
#
#
# Convention : Reuss Voigt Hill
#
# Bulk Modulus (GPa) = 48.03402 50.26209 49.14806
# Shear Modulus (GPa) = 23.34210 26.86975 25.10592
#
# Velocity S-wave (km/s) = 3.63238 3.89721 3.76712
# Velocity P-wave (km/s) = 6.68907 6.97580 6.83394
#
# Compressibility (1/GPa) = 0.02081858
#
# Stress axis : x y z
#
# Youngs Moduli (GPa) = 83.56289 54.22597 72.49776
#
# Poissons Ratio (x) = 0.13678 0.26123
# Poissons Ratio (y) = 0.21079 0.40352
# Poissons Ratio (z) = 0.30110 0.30182
#
# Static dielectric constant tensor:
#      x y z
#    x 3.312260 0.000000 -0.012810 
#    y 0.000000 3.125680 0.000000 
#    z -0.012810 0.000000 3.585690 
# 
# 
# High freq. dielectric constant tensor:
#      x y z
#    x 1.682720 0.000000 0.003150 
#    y 0.000000 1.665120 0.000000 
#    z 0.003150 0.000000 1.706630 
# 
# From -- ./inp_files/29972.got.cif
#   From: 2010.06.25/outbox.cif.g09.slc.cpg/sg11_15_cif.got.tgz:29972.got - 2010.06.27 23:14:04.
