data_PCOD8074403
_publ_section_title
;
Structure prediction by ZEFSAII (Michael W. Deem and Ramdas Pophale) SiO2 
 PCOD8074403
Probable space group: P 21/M
;
_chemical_formula_sum "Si O2"
_cell_formula_units_Z 32
_cell_length_a 14.953828
_cell_length_b 8.862002
_cell_length_c 12.234000
_cell_angle_alpha 90.000000
_cell_angle_beta 88.445385
_cell_angle_gamma 90.000000
_cell_volume 1620.663368
_symmetry_space_group_name_H-M "P 21/M"
_symmetry_group_IT_number 11
_symmetry_cell_setting 'monoclinic'
loop_
_space_group_symop_operation_xyz
x,y,z
-x,1/2+y,-z
-x,-y,-z
x,1/2-y,z
loop_
_atom_site_type_symbol
_atom_site_label
_atom_site_fract_x
_atom_site_fract_y
_atom_site_fract_z
Si Si1 0.934006 0.570687 0.089868
Si Si2 0.746637 0.426966 0.112264
Si Si3 0.446764 0.427360 0.262840
Si Si4 0.865323 0.427089 0.525605
Si Si5 0.635014 0.571918 0.295500
Si Si6 0.318555 0.074711 0.461758
Si Si7 0.411066 0.926604 0.049806
Si Si8 0.968736 0.927069 0.335714
O O1 0.933543 0.750000 0.077852
O O2 0.836551 0.505285 0.067792
O O3 0.965184 0.520255 0.210218
O O4 0.000000 0.500000 0.000000
O O5 0.762377 0.250000 0.128684
O O6 0.718092 0.501460 0.227665
O O7 0.671816 0.461749 0.025120
O O8 0.457926 0.250000 0.245153
O O9 0.544035 0.500720 0.254937
O O10 0.397917 0.468241 0.376955
O O11 0.388438 0.497720 0.166929
O O12 0.863732 0.250000 0.511450
O O13 0.769319 0.483342 0.569024
O O14 0.888846 0.497139 0.406915
O O15 0.936549 0.477324 0.615651
O O16 0.632744 0.750000 0.277296
O O17 0.647110 0.526772 0.420748
O O18 0.294233 0.250000 0.456594
O O19 0.427126 0.750000 0.063829
O O20 0.500000 0.000000 0.000000
O O21 0.953531 0.750000 0.345612
#
# Coordination Sequence:
#
# PCOD8074403 Si02
#       8
#     4   4   4   4   4   4   4   4
#     4  11  24  42  63  88 122 160 199 248 301 359
#     4  11  24  41  63  91 121 156 200 251 302 358
#     4  11  23  39  59  85 119 157 199 247 298 354
#     4  10  20  35  60  89 114 149 195 242 291 352
#     4  11  22  38  61  86 117 157 200 244 297 357
#     4  10  23  39  55  83 122 158 193 240 298 357
#     4  11  23  40  63  88 119 156 200 252 301 355
#     4   9  20  39  60  84 117 153 191 239 296 352
#
# _framework density 19.745000999999998
#
# number of rings (size 3 to 8) (size 9 to 14) (size 15 to 20)
#    0.000    1.500    1.250    3.375    0.000    9.000 
#    0.000    3.750    0.000    0.000    0.000    0.000 
#    0.000    0.000    0.000    0.000    0.000    0.000 
#
# Total GULP energy -396994.984236 kJ/mol
# GULP energy per Si atom -12406.093257 kJ/mol
# Density = 1.970006 g / cm^3
# Si number density = 19.745001 Si / 1000 Ang^3
#
#
#
# Elastic Constant Matrix: (Units=GPa)
#
#
# Indices 1 2 3 4 5 6 
#
# 1 117.0871 51.6563 57.9795 0.0000 -11.7017 0.0000
# 2 51.6563 79.5115 54.2267 0.0000 -0.8403 0.0000
# 3 57.9795 54.2267 133.1316 0.0000 -5.8982 0.0000
# 4 0.0000 0.0000 0.0000 33.8911 0.0000 -2.4818
# 5 -11.7017 -0.8403 -5.8982 0.0000 29.8856 0.0000
# 6 0.0000 0.0000 0.0000 -2.4818 0.0000 38.3441
#
#
#
# Elastic Compliance Matrix: (Units=1/GPa)
#
#
# Indices 1 2 3 4 5 6 
#
# 1 0.013363 -0.006647 -0.002914 0.000000 0.004470 0.000000
# 2 -0.006647 0.020745 -0.005695 0.000000 -0.003143 0.000000
# 3 -0.002914 -0.005695 0.011140 0.000000 0.000897 0.000000
# 4 0.000000 0.000000 0.000000 0.029647 0.000000 0.001919
# 5 0.004470 -0.003143 0.000897 0.000000 0.035300 0.000000
# 6 0.000000 0.000000 0.000000 0.001919 0.000000 0.026204
#
#
# Mechanical properties :
#
#
# Convention : Reuss Voigt Hill
#
# Bulk Modulus (GPa) = 67.85599 73.05059 70.45329
# Shear Modulus (GPa) = 29.09988 31.48199 30.29094
#
# Velocity S-wave (km/s) = 3.84316 3.99736 3.92102
# Velocity P-wave (km/s) = 7.35757 7.64085 7.50055
#
# Compressibility (1/GPa) = 0.01473709
#
# Stress axis : x y z
#
# Youngs Moduli (GPa) = 74.83411 48.20337 89.76860
#
# Poissons Ratio (x) = 0.32040 0.26161
# Poissons Ratio (y) = 0.49740 0.51119
# Poissons Ratio (z) = 0.21808 0.27449
#
# Static dielectric constant tensor:
#      x y z
#    x 3.771360 0.000000 0.055210 
#    y 0.000000 3.646150 0.000000 
#    z 0.055210 0.000000 3.861500 
# 
# 
# High freq. dielectric constant tensor:
#      x y z
#    x 1.773700 0.000000 0.003700 
#    y 0.000000 1.778480 0.000000 
#    z 0.003700 0.000000 1.779030 
# 
# From -- ./inp_files/38290.got.cif
#   From: 2010.06.25/outbox.cif.g09.slc.cpg/sg11_20_cif.got.tgz:38290.got - 2010.06.27 23:14:04.
