data_PCOD8074272
_publ_section_title
;
Structure prediction by ZEFSAII (Michael W. Deem and Ramdas Pophale) SiO2 
 PCOD8074272
Probable space group: P 21/M
;
_chemical_formula_sum "Si O2"
_cell_formula_units_Z 32
_cell_length_a 21.161874
_cell_length_b 9.009973
_cell_length_c 27.135263
_cell_angle_alpha 90.000000
_cell_angle_beta 161.129159
_cell_angle_gamma 90.000000
_cell_volume 1673.400383
_symmetry_space_group_name_H-M "P 21/M"
_symmetry_group_IT_number 11
_symmetry_cell_setting 'monoclinic'
loop_
_space_group_symop_operation_xyz
x,y,z
-x,1/2+y,-z
-x,-y,-z
x,1/2-y,z
loop_
_atom_site_type_symbol
_atom_site_label
_atom_site_fract_x
_atom_site_fract_y
_atom_site_fract_z
Si Si1 0.422355 0.076049 0.581972
Si Si2 0.805882 0.576289 0.224065
Si Si3 0.151592 0.913859 0.079924
Si Si4 0.531481 0.423032 0.949388
Si Si5 0.049341 0.582406 0.891640
Si Si6 0.459415 0.925458 0.155586
Si Si7 0.654875 0.074186 0.577553
Si Si8 0.787009 0.575696 0.472530
O O1 0.418265 0.250000 0.565166
O O2 0.631806 0.020329 0.755985
O O3 0.270265 0.042124 0.513350
O O4 0.374686 0.977666 0.499871
O O5 0.832341 0.750000 0.235754
O O6 0.662133 0.537813 0.163045
O O7 0.011496 0.505688 0.390131
O O8 0.718416 0.508852 0.109156
O O9 0.155863 0.750000 0.105375
O O10 0.085075 0.912827 0.975384
O O11 0.000000 0.000000 0.000000
O O12 0.583084 0.250000 0.990116
O O13 0.491017 0.473839 0.863544
O O14 0.000859 0.750000 0.836643
O O15 0.873093 0.470929 0.752636
O O16 0.242475 0.515504 0.008134
O O17 0.454659 0.750000 0.159244
O O18 0.623251 0.988660 0.313925
O O19 0.629325 0.250000 0.562584
O O20 0.500000 0.000000 0.500000
O O21 0.815319 0.750000 0.484587
#
# Coordination Sequence:
#
# PCOD8074272 Si02
#       8
#     4   4   4   4   4   4   4   4
#     4  10  21  39  60  84 114 149 189 234 283 342
#     4  10  21  36  55  85 123 154 190 239 285 335
#     4  10  20  35  58  84 110 142 184 230 281 334
#     4   9  19  37  60  85 114 155 198 235 283 339
#     4  10  20  38  61  86 114 146 188 239 287 336
#     4   9  18  36  62  87 111 147 196 239 278 340
#     4  12  26  42  59  84 116 151 192 237 287 342
#     4  10  20  37  61  86 114 152 194 233 281 344
#
# _framework density 19.12274
#
# number of rings (size 3 to 8) (size 9 to 14) (size 15 to 20)
#    0.000    2.000    1.250    2.250    1.750    4.500 
#    0.000    1.250    0.000    0.000    0.000    0.000 
#    0.000    0.000    0.000    0.000    0.000    0.000 
#
# Total GULP energy -396814.713196 kJ/mol
# GULP energy per Si atom -12400.459787 kJ/mol
# Density = 1.907922 g / cm^3
# Si number density = 19.122740 Si / 1000 Ang^3
#
#
#
# Elastic Constant Matrix: (Units=GPa)
#
#
# Indices 1 2 3 4 5 6 
#
# 1 116.5081 47.9279 59.6802 0.0000 -2.0025 0.0000
# 2 47.9279 77.0552 54.9011 0.0000 -0.2749 0.0000
# 3 59.6802 54.9011 151.0274 0.0000 5.8841 0.0000
# 4 0.0000 0.0000 0.0000 34.7219 0.0000 1.5008
# 5 -2.0025 -0.2749 5.8841 0.0000 33.0688 0.0000
# 6 0.0000 0.0000 0.0000 1.5008 0.0000 27.5207
#
#
#
# Elastic Compliance Matrix: (Units=1/GPa)
#
#
# Indices 1 2 3 4 5 6 
#
# 1 0.012414 -0.005652 -0.002898 0.000000 0.001220 0.000000
# 2 -0.005652 0.020142 -0.005117 0.000000 0.000736 0.000000
# 3 -0.002898 -0.005117 0.009703 0.000000 -0.001944 0.000000
# 4 0.000000 0.000000 0.000000 0.028868 0.000000 -0.001574
# 5 0.001220 0.000736 -0.001944 0.000000 0.030666 0.000000
# 6 0.000000 0.000000 0.000000 -0.001574 0.000000 0.036422
#
#
# Mechanical properties :
#
#
# Convention : Reuss Voigt Hill
#
# Bulk Modulus (GPa) = 67.00970 74.40100 70.70535
# Shear Modulus (GPa) = 29.32144 31.20103 30.26123
#
# Velocity S-wave (km/s) = 3.92002 4.04371 3.98235
# Velocity P-wave (km/s) = 7.45699 7.79703 7.62891
#
# Compressibility (1/GPa) = 0.01492321
#
# Stress axis : x y z
#
# Youngs Moduli (GPa) = 80.55575 49.64838 103.06514
#
# Poissons Ratio (x) = 0.28060 0.29873
# Poissons Ratio (y) = 0.45529 0.52740
# Poissons Ratio (z) = 0.23349 0.25406
#
# Static dielectric constant tensor:
#      x y z
#    x 3.089380 0.000000 0.385670 
#    y 0.000000 3.305710 0.000000 
#    z 0.385670 0.000000 3.335870 
# 
# 
# High freq. dielectric constant tensor:
#      x y z
#    x 1.753100 0.000000 0.001100 
#    y 0.000000 1.720950 0.000000 
#    z 0.001100 0.000000 1.756650 
# 
# From -- ./inp_files/72160.got.cif
#   From: 2010.06.25/outbox.cif.g09.slc.cpg/sg11_37_cif.got.tgz:72160.got - 2010.06.27 23:14:04.
