data_PCOD8074366
_publ_section_title
;
Structure prediction by ZEFSAII (Michael W. Deem and Ramdas Pophale) SiO2 
 PCOD8074366
Probable space group: P 21/M
;
_chemical_formula_sum "Si O2"
_cell_formula_units_Z 28
_cell_length_a 11.987521
_cell_length_b 8.826480
_cell_length_c 14.088143
_cell_angle_alpha 90.000000
_cell_angle_beta 69.863832
_cell_angle_gamma 90.000000
_cell_volume 1399.521046
_symmetry_space_group_name_H-M "P 21/M"
_symmetry_group_IT_number 11
_symmetry_cell_setting 'monoclinic'
loop_
_space_group_symop_operation_xyz
x,y,z
-x,1/2+y,-z
-x,-y,-z
x,1/2-y,z
loop_
_atom_site_type_symbol
_atom_site_label
_atom_site_fract_x
_atom_site_fract_y
_atom_site_fract_z
Si Si1 0.563372 0.923393 0.699768
Si Si2 0.380257 0.928426 0.500251
Si Si3 0.733267 0.075249 0.772614
Si Si4 0.167299 0.930353 0.688960
Si Si5 0.376660 0.573925 0.004020
Si Si6 0.300647 0.923368 0.825645
Si Si7 0.039028 0.069641 0.386992
O O1 0.603713 0.750000 0.684647
O O2 0.421769 0.937526 0.728684
O O3 0.638485 0.017208 0.601075
O O4 0.605100 0.002501 0.784587
O O5 0.389653 0.750000 0.504349
O O6 0.270926 0.993013 0.591582
O O7 0.500000 0.000000 0.500000
O O8 0.743606 0.250000 0.739747
O O9 0.730285 0.056830 0.887741
O O10 0.833018 0.983162 0.686415
O O11 0.171276 0.750000 0.691745
O O12 0.194857 0.992553 0.789007
O O13 0.045956 0.985790 0.675270
O O14 0.407199 0.750000 0.976436
O O15 0.500000 0.500000 0.000000
O O16 0.322338 0.499397 0.922469
O O17 0.268280 0.750000 0.854872
O O18 0.034945 0.250000 0.399927
O O19 0.000000 0.000000 0.500000
#
# Coordination Sequence:
#
# PCOD8074366 Si02
#       7
#     4   4   4   4   4   4   4
#     4  11  20  33  56  83 113 152 195 241 295 353
#     4  11  20  32  51  81 117 150 187 235 296 362
#     4  11  23  38  57  86 122 156 195 244 298 357
#     4   9  19  36  57  80 110 150 194 241 291 345
#     4  10  20  35  59  87 118 155 193 243 298 353
#     4   9  17  33  56  83 113 146 187 237 295 352
#     4  11  23  41  65  87 114 156 202 248 294 352
#
# _framework density 20.006844999999998
#
# number of rings (size 3 to 8) (size 9 to 14) (size 15 to 20)
#    0.000    1.714    2.857    2.571    0.000    1.714 
#    0.000    2.857    0.000    0.000    0.000    0.000 
#    0.000    0.000    0.000    0.000    0.000    0.000 
#
# Total GULP energy -346871.753155 kJ/mol
# GULP energy per Si atom -12388.276898 kJ/mol
# Density = 1.996131 g / cm^3
# Si number density = 20.006845 Si / 1000 Ang^3
#
#
#
# Elastic Constant Matrix: (Units=GPa)
#
#
# Indices 1 2 3 4 5 6 
#
# 1 101.8509 26.2525 37.5014 0.0000 26.7229 0.0000
# 2 26.2525 62.2399 24.5309 0.0000 2.5453 0.0000
# 3 37.5014 24.5309 97.3123 0.0000 16.6053 0.0000
# 4 0.0000 0.0000 0.0000 23.3121 0.0000 1.7000
# 5 26.7229 2.5453 16.6053 0.0000 37.1273 0.0000
# 6 0.0000 0.0000 0.0000 1.7000 0.0000 25.1677
#
#
#
# Elastic Compliance Matrix: (Units=1/GPa)
#
#
# Indices 1 2 3 4 5 6 
#
# 1 0.014345 -0.004554 -0.002892 0.000000 -0.008719 0.000000
# 2 -0.004554 0.019310 -0.003731 0.000000 0.003623 0.000000
# 3 -0.002892 -0.003731 0.012918 0.000000 -0.003440 0.000000
# 4 0.000000 0.000000 0.000000 0.043108 0.000000 -0.002912
# 5 -0.008719 0.003623 -0.003440 0.000000 0.034500 0.000000
# 6 0.000000 0.000000 0.000000 -0.002912 0.000000 0.039930
#
#
# Mechanical properties :
#
#
# Convention : Reuss Voigt Hill
#
# Bulk Modulus (GPa) = 41.29044 48.66363 44.97704
# Shear Modulus (GPa) = 25.70175 28.66264 27.18219
#
# Velocity S-wave (km/s) = 3.58809 3.78913 3.68998
# Velocity P-wave (km/s) = 6.15214 6.59694 6.37842
#
# Compressibility (1/GPa) = 0.02421868
#
# Stress axis : x y z
#
# Youngs Moduli (GPa) = 69.71248 51.78636 77.40935
#
# Poissons Ratio (x) = 0.23584 0.22388
# Poissons Ratio (y) = 0.31747 0.28881
# Poissons Ratio (z) = 0.20162 0.19321
#
# Static dielectric constant tensor:
#      x y z
#    x 3.791910 0.000000 0.425150 
#    y 0.000000 3.105080 0.000000 
#    z 0.425150 0.000000 4.085850 
# 
# 
# High freq. dielectric constant tensor:
#      x y z
#    x 1.775720 0.000000 0.023170 
#    y 0.000000 1.753110 0.000000 
#    z 0.023170 0.000000 1.790510 
# 
# From -- ./inp_files/48907.got.cif
#   From: 2010.06.25/outbox.cif.g09.slc.cpg/sg11_25_cif.got.tgz:48907.got - 2010.06.27 23:14:04.
