data_PCOD8074626
_publ_section_title
;
Structure prediction by ZEFSAII (Michael W. Deem and Ramdas Pophale) SiO2 
 PCOD8074626
Probable space group: P 21/M
;
_chemical_formula_sum "Si O2"
_cell_formula_units_Z 28
_cell_length_a 14.414135
_cell_length_b 8.615072
_cell_length_c 13.170067
_cell_angle_alpha 90.000000
_cell_angle_beta 123.133938
_cell_angle_gamma 90.000000
_cell_volume 1369.512167
_symmetry_space_group_name_H-M "P 21/M"
_symmetry_group_IT_number 11
_symmetry_cell_setting 'monoclinic'
loop_
_space_group_symop_operation_xyz
x,y,z
-x,1/2+y,-z
-x,-y,-z
x,1/2-y,z
loop_
_atom_site_type_symbol
_atom_site_label
_atom_site_fract_x
_atom_site_fract_y
_atom_site_fract_z
Si Si1 0.042210 0.432834 0.288000
Si Si2 0.379672 0.567628 0.565627
Si Si3 0.398313 0.932693 0.002114
Si Si4 0.188053 0.428931 0.562428
Si Si5 0.239170 0.933679 0.292501
Si Si6 0.387605 0.433994 0.218892
Si Si7 0.179233 0.429884 0.787417
O O1 0.023608 0.250000 0.270999
O O2 0.095842 0.486415 0.427263
O O3 0.120306 0.488321 0.242593
O O4 0.924121 0.517035 0.205811
O O5 0.386020 0.750000 0.566504
O O6 0.302831 0.519147 0.614002
O O7 0.327462 0.504109 0.429343
O O8 0.502904 0.501967 0.657602
O O9 0.414262 0.750000 0.026467
O O10 0.392871 0.016711 0.106259
O O11 0.500000 0.000000 0.000000
O O12 0.285273 0.966561 0.875312
O O13 0.214456 0.250000 0.558725
O O14 0.145893 0.460716 0.650523
O O15 0.225076 0.750000 0.288406
O O16 0.281073 0.987449 0.207542
O O17 0.376496 0.250000 0.219359
O O18 0.206434 0.250000 0.824593
#
# Coordination Sequence:
#
# PCOD8074626 Si02
#       7
#     4   4   4   4   4   4   4
#     4  10  20  36  57  85 118 153 190 234 284 339
#     4   9  19  33  54  84 118 152 189 232 283 338
#     4  12  26  44  63  86 115 150 190 236 284 336
#     4   9  19  33  54  84 118 152 189 232 283 338
#     4  10  20  36  57  85 118 153 190 234 284 339
#     4  11  22  38  59  85 115 152 194 238 285 338
#     4  11  22  38  59  85 115 152 194 238 285 338
#
# _framework density 20.445238
#
# number of rings (size 3 to 8) (size 9 to 14) (size 15 to 20)
#    0.000    1.714    0.000    4.714    0.000    5.714 
#    0.000    0.714    0.000    0.000    0.000    0.000 
#    0.000    0.000    0.000    0.000    0.000    0.000 
#
# Total GULP energy -347302.502062 kJ/mol
# GULP energy per Si atom -12403.660788 kJ/mol
# Density = 2.039870 g / cm^3
# Si number density = 20.445238 Si / 1000 Ang^3
#
#
#
# Elastic Constant Matrix: (Units=GPa)
#
#
# Indices 1 2 3 4 5 6 
#
# 1 147.3123 17.0981 38.1236 0.0000 -0.6156 0.0000
# 2 17.0981 43.5748 7.4227 0.0000 3.0088 0.0000
# 3 38.1236 7.4227 49.3847 0.0000 -2.6816 0.0000
# 4 0.0000 0.0000 0.0000 28.0271 0.0000 -0.6616
# 5 -0.6156 3.0088 -2.6816 0.0000 34.0766 0.0000
# 6 0.0000 0.0000 0.0000 -0.6616 0.0000 39.3543
#
#
#
# Elastic Compliance Matrix: (Units=1/GPa)
#
#
# Indices 1 2 3 4 5 6 
#
# 1 0.008709 -0.002320 -0.006382 0.000000 -0.000140 0.000000
# 2 -0.002320 0.024362 -0.001998 0.000000 -0.002350 0.000000
# 3 -0.006382 -0.001998 0.025589 0.000000 0.002075 0.000000
# 4 0.000000 0.000000 0.000000 0.035694 0.000000 0.000600
# 5 -0.000140 -0.002350 0.002075 0.000000 0.029714 0.000000
# 6 0.000000 0.000000 0.000000 0.000600 0.000000 0.025420
#
#
# Mechanical properties :
#
#
# Convention : Reuss Voigt Hill
#
# Bulk Modulus (GPa) = 26.83902 40.61785 33.72843
# Shear Modulus (GPa) = 27.27661 32.13342 29.70502
#
# Velocity S-wave (km/s) = 3.65654 3.96875 3.81584
# Velocity P-wave (km/s) = 5.56622 6.39617 5.99557
#
# Compressibility (1/GPa) = 0.03725919
#
# Stress axis : x y z
#
# Youngs Moduli (GPa) = 114.82955 41.04729 39.07990
#
# Poissons Ratio (x) = 0.09525 0.24939
# Poissons Ratio (y) = 0.26645 0.07808
# Poissons Ratio (z) = 0.73280 0.08202
#
# Static dielectric constant tensor:
#      x y z
#    x 3.783700 0.000000 0.037090 
#    y 0.000000 3.636300 0.000000 
#    z 0.037090 0.000000 3.662310 
# 
# 
# High freq. dielectric constant tensor:
#      x y z
#    x 1.811750 0.000000 -0.001200 
#    y 0.000000 1.802310 0.000000 
#    z -0.001200 0.000000 1.779120 
# 
# From -- ./inp_files/38404.got.cif
#   From: 2010.06.25/outbox.cif.g09.slc.cpg/sg11_20_cif.got.tgz:38404.got - 2010.06.27 23:14:04.
