data_PCOD8074134
_publ_section_title
;
Structure prediction by ZEFSAII (Michael W. Deem and Ramdas Pophale) SiO2 
 PCOD8074134
Probable space group: P 21/M
;
_chemical_formula_sum "Si O2"
_cell_formula_units_Z 28
_cell_length_a 10.000948
_cell_length_b 8.771410
_cell_length_c 33.722272
_cell_angle_alpha 90.000000
_cell_angle_beta 32.339566
_cell_angle_gamma 90.000000
_cell_volume 1582.446993
_symmetry_space_group_name_H-M "P 21/M"
_symmetry_group_IT_number 11
_symmetry_cell_setting 'monoclinic'
loop_
_space_group_symop_operation_xyz
x,y,z
-x,1/2+y,-z
-x,-y,-z
x,1/2-y,z
loop_
_atom_site_type_symbol
_atom_site_label
_atom_site_fract_x
_atom_site_fract_y
_atom_site_fract_z
Si Si1 0.563288 0.570811 0.442437
Si Si2 0.882787 0.069615 0.715260
Si Si3 0.929910 0.070999 0.476110
Si Si4 0.657202 0.077785 0.926560
Si Si5 0.680064 0.929709 0.687698
Si Si6 0.802191 0.922696 0.225903
Si Si7 0.843250 0.930354 0.807168
O O1 0.500000 0.500000 0.500000
O O2 0.564267 0.750000 0.448226
O O3 0.352332 0.521134 0.463732
O O4 0.831664 0.512183 0.360552
O O5 0.864472 0.250000 0.724547
O O6 0.722271 0.017665 0.717991
O O7 0.767874 0.990004 0.782780
O O8 0.956627 0.250000 0.473564
O O9 0.115747 0.012278 0.395193
O O10 0.000000 0.000000 0.500000
O O11 0.560688 0.250000 0.944513
O O12 0.953005 0.077420 0.864170
O O13 0.628443 0.984941 0.892214
O O14 0.500000 0.000000 0.000000
O O15 0.700356 0.750000 0.690014
O O16 0.406648 0.971089 0.740650
O O17 0.703027 0.750000 0.257499
O O18 0.890501 0.994027 0.246135
O O19 0.866442 0.750000 0.801588
#
# Coordination Sequence:
#
# PCOD8074134 Si02
#       7
#     4   4   4   4   4   4   4
#     4  10  21  38  56  76 103 140 184 231 281 334
#     4  11  22  36  56  80 109 148 188 232 283 336
#     4  10  23  38  52  76 105 137 181 231 280 333
#     4   9  18  33  57  87 117 147 182 223 269 322
#     4  11  22  37  55  78 108 144 185 230 280 332
#     4   9  20  36  55  81 112 143 180 222 268 325
#     4  10  20  35  56  84 113 145 184 228 272 322
#
# _framework density 17.694115
#
# number of rings (size 3 to 8) (size 9 to 14) (size 15 to 20)
#    0.857    1.143    1.429    2.571    2.000    2.286 
#    0.000    0.000    0.000    0.857    0.000    0.000 
#    0.000    0.000    0.000    0.000    0.000    0.000 
#
# Total GULP energy -347105.044086 kJ/mol
# GULP energy per Si atom -12396.608717 kJ/mol
# Density = 1.765384 g / cm^3
# Si number density = 17.694115 Si / 1000 Ang^3
#
#
#
# Elastic Constant Matrix: (Units=GPa)
#
#
# Indices 1 2 3 4 5 6 
#
# 1 90.5920 20.8172 18.9460 0.0000 22.3140 0.0000
# 2 20.8172 81.3301 25.5339 0.0000 13.4643 0.0000
# 3 18.9460 25.5339 63.4470 0.0000 24.9480 0.0000
# 4 0.0000 0.0000 0.0000 28.1297 0.0000 5.1950
# 5 22.3140 13.4643 24.9480 0.0000 30.7482 0.0000
# 6 0.0000 0.0000 0.0000 5.1950 0.0000 34.5450
#
#
#
# Elastic Compliance Matrix: (Units=1/GPa)
#
#
# Indices 1 2 3 4 5 6 
#
# 1 0.013748 -0.002099 0.000442 0.000000 -0.009416 0.000000
# 2 -0.002099 0.014506 -0.004864 0.000000 -0.000882 0.000000
# 3 0.000442 -0.004864 0.024782 0.000000 -0.018298 0.000000
# 4 0.000000 0.000000 0.000000 0.036565 0.000000 -0.005499
# 5 -0.009416 -0.000882 -0.018298 0.000000 0.054588 0.000000
# 6 0.000000 0.000000 0.000000 -0.005499 0.000000 0.029775
#
#
# Mechanical properties :
#
#
# Convention : Reuss Voigt Hill
#
# Bulk Modulus (GPa) = 25.00416 40.66260 32.83338
# Shear Modulus (GPa) = 24.95804 30.02272 27.49038
#
# Velocity S-wave (km/s) = 3.75977 4.12365 3.94591
# Velocity P-wave (km/s) = 5.74542 6.76043 6.27349
#
# Compressibility (1/GPa) = 0.03999335
#
# Stress axis : x y z
#
# Youngs Moduli (GPa) = 72.73952 68.93716 40.35243
#
# Poissons Ratio (x) = 0.14468 -0.01784
# Poissons Ratio (y) = 0.15266 0.19628
# Poissons Ratio (z) = -0.03215 0.33533
#
# Static dielectric constant tensor:
#      x y z
#    x 3.494990 0.000000 -1.390060 
#    y 0.000000 3.269560 0.000000 
#    z -1.390060 0.000000 9.003560 
# 
# 
# High freq. dielectric constant tensor:
#      x y z
#    x 1.675100 0.000000 0.009260 
#    y 0.000000 1.695970 0.000000 
#    z 0.009260 0.000000 1.669070 
# 
# From -- ./inp_files/72723.got.cif
#   From: 2010.06.25/outbox.cif.g09.slc.cpg/sg11_37_cif.got.tgz:72723.got - 2010.06.27 23:14:04.
