data_PCOD8074209
_publ_section_title
;
Structure prediction by ZEFSAII (Michael W. Deem and Ramdas Pophale) SiO2 
 PCOD8074209
Probable space group: P 21/M
;
_chemical_formula_sum "Si O2"
_cell_formula_units_Z 32
_cell_length_a 27.930344
_cell_length_b 8.861765
_cell_length_c 21.534598
_cell_angle_alpha 90.000000
_cell_angle_beta 19.009539
_cell_angle_gamma 90.000000
_cell_volume 1736.141549
_symmetry_space_group_name_H-M "P 21/M"
_symmetry_group_IT_number 11
_symmetry_cell_setting 'monoclinic'
loop_
_space_group_symop_operation_xyz
x,y,z
-x,1/2+y,-z
-x,-y,-z
x,1/2-y,z
loop_
_atom_site_type_symbol
_atom_site_label
_atom_site_fract_x
_atom_site_fract_y
_atom_site_fract_z
Si Si1 0.686967 0.071997 0.139440
Si Si2 0.585986 0.427930 0.950729
Si Si3 0.833681 0.923673 0.850112
Si Si4 0.916140 0.075189 0.547127
Si Si5 0.551422 0.576581 0.119023
Si Si6 0.341372 0.427356 0.701147
Si Si7 0.404000 0.927447 0.426568
Si Si8 0.159140 0.072502 0.802020
O O1 0.671016 0.250000 0.165161
O O2 0.738063 0.000946 0.141924
O O3 0.529514 0.004767 0.313861
O O4 0.811511 0.029980 0.936650
O O5 0.578122 0.250000 0.953862
O O6 0.752569 0.490301 0.741380
O O7 0.500000 0.500000 0.000000
O O8 0.515663 0.476060 0.102800
O O9 0.810684 0.750000 0.898799
O O10 0.996046 0.954193 0.624606
O O11 0.714159 0.964273 0.943998
O O12 0.909486 0.250000 0.571208
O O13 0.000000 0.000000 0.500000
O O14 0.542536 0.750000 0.109424
O O15 0.432985 0.540785 0.318144
O O16 0.500000 0.500000 0.500000
O O17 0.358895 0.250000 0.689097
O O18 0.242818 0.466491 0.762821
O O19 0.406269 0.750000 0.437895
O O20 0.247475 0.998535 0.636308
O O21 0.145741 0.250000 0.807113
O O22 0.000000 0.000000 0.000000
#
# Coordination Sequence:
#
# PCOD8074209 Si02
#       8
#     4   4   4   4   4   4   4   4
#     4  11  21  33  54  86 118 149 190 239 290 342
#     4  11  23  37  56  83 115 153 192 234 283 340
#     4   9  18  34  55  81 114 148 184 234 292 344
#     4  10  20  35  57  84 111 144 186 232 286 338
#     4   9  18  34  57  83 111 146 186 231 286 341
#     4  11  22  37  59  86 115 150 191 235 286 341
#     4  10  20  36  59  84 115 152 191 236 287 341
#     4  11  24  40  60  87 118 154 196 238 289 346
#
# _framework density 18.431678000000002
#
# number of rings (size 3 to 8) (size 9 to 14) (size 15 to 20)
#    0.000    1.750    2.500    3.375    0.000    5.000 
#    0.000    1.250    0.000    3.000    0.000    0.000 
#    0.000    0.000    0.000    0.000    0.000    0.000 
#
# Total GULP energy -396888.458231 kJ/mol
# GULP energy per Si atom -12402.764320 kJ/mol
# Density = 1.838973 g / cm^3
# Si number density = 18.431678 Si / 1000 Ang^3
#
#
#
# Elastic Constant Matrix: (Units=GPa)
#
#
# Indices 1 2 3 4 5 6 
#
# 1 120.8700 64.0686 65.1506 0.0000 8.5004 0.0000
# 2 64.0686 104.4379 56.3308 0.0000 2.9106 0.0000
# 3 65.1506 56.3308 126.9691 0.0000 4.4553 0.0000
# 4 0.0000 0.0000 0.0000 31.1456 0.0000 5.1837
# 5 8.5004 2.9106 4.4553 0.0000 25.9294 0.0000
# 6 0.0000 0.0000 0.0000 5.1837 0.0000 33.1811
#
#
#
# Elastic Compliance Matrix: (Units=1/GPa)
#
#
# Indices 1 2 3 4 5 6 
#
# 1 0.014170 -0.006235 -0.004393 0.000000 -0.003191 0.000000
# 2 -0.006235 0.015335 -0.003638 0.000000 0.000948 0.000000
# 3 -0.004393 -0.003638 0.011750 0.000000 -0.000170 0.000000
# 4 0.000000 0.000000 0.000000 0.032964 0.000000 -0.005150
# 5 -0.003191 0.000948 -0.000170 0.000000 0.039535 0.000000
# 6 0.000000 0.000000 0.000000 -0.005150 0.000000 0.030942
#
#
# Mechanical properties :
#
#
# Convention : Reuss Voigt Hill
#
# Bulk Modulus (GPa) = 78.58650 80.37522 79.48086
# Shear Modulus (GPa) = 28.17368 29.16635 28.67002
#
# Velocity S-wave (km/s) = 3.91390 3.98226 3.94823
# Velocity P-wave (km/s) = 7.94695 8.05272 8.00001
#
# Compressibility (1/GPa) = 0.01272483
#
# Stress axis : x y z
#
# Youngs Moduli (GPa) = 70.56958 65.20831 85.10547
#
# Poissons Ratio (x) = 0.40654 0.37388
# Poissons Ratio (y) = 0.43997 0.30960
# Poissons Ratio (z) = 0.31003 0.23722
#
# Static dielectric constant tensor:
#      x y z
#    x 3.404880 0.000000 0.185060 
#    y 0.000000 3.442260 0.000000 
#    z 0.185060 0.000000 3.408280 
# 
# 
# High freq. dielectric constant tensor:
#      x y z
#    x 1.704620 0.000000 0.022790 
#    y 0.000000 1.722690 0.000000 
#    z 0.022790 0.000000 1.711620 
# 
# From -- ./inp_files/66924.got.cif
#   From: 2010.06.25/outbox.cif.g09.slc.cpg/sg11_34_cif.got.tgz:66924.got - 2010.06.27 23:14:04.
