data_PCOD8074130
_publ_section_title
;
Structure prediction by ZEFSAII (Michael W. Deem and Ramdas Pophale) SiO2 
 PCOD8074130
Probable space group: P 21/M
;
_chemical_formula_sum "Si O2"
_cell_formula_units_Z 32
_cell_length_a 21.638792
_cell_length_b 8.836445
_cell_length_c 28.053747
_cell_angle_alpha 90.000000
_cell_angle_beta 18.897513
_cell_angle_gamma 90.000000
_cell_volume 1737.323546
_symmetry_space_group_name_H-M "P 21/M"
_symmetry_group_IT_number 11
_symmetry_cell_setting 'monoclinic'
loop_
_space_group_symop_operation_xyz
x,y,z
-x,1/2+y,-z
-x,-y,-z
x,1/2-y,z
loop_
_atom_site_type_symbol
_atom_site_label
_atom_site_fract_x
_atom_site_fract_y
_atom_site_fract_z
Si Si1 0.456372 0.571327 0.082535
Si Si2 0.911566 0.926631 0.906105
Si Si3 0.384594 0.929411 0.942311
Si Si4 0.199318 0.927658 0.841437
Si Si5 0.966375 0.427802 0.575628
Si Si6 0.691779 0.072173 0.341731
Si Si7 0.637124 0.922487 0.191797
Si Si8 0.670460 0.074143 0.659469
O O1 0.490685 0.750000 0.056073
O O2 0.599163 0.497146 0.016633
O O3 0.240249 0.529666 0.253887
O O4 0.500000 0.500000 0.000000
O O5 0.880428 0.750000 0.917304
O O6 0.133556 0.969650 0.750273
O O7 0.806427 0.967244 0.032200
O O8 0.820729 0.022693 0.929393
O O9 0.399841 0.750000 0.933084
O O10 0.555404 0.994675 0.785836
O O11 0.171620 0.750000 0.859256
O O12 0.267374 0.991165 0.740873
O O13 0.355485 0.971522 0.767275
O O14 0.000000 0.000000 0.000000
O O15 0.996724 0.250000 0.549898
O O16 0.000000 0.500000 0.500000
O O17 0.122432 0.499104 0.497517
O O18 0.663868 0.250000 0.360262
O O19 0.500000 0.000000 0.500000
O O20 0.662353 0.750000 0.190067
O O21 0.434229 0.948013 0.314526
O O22 0.687262 0.250000 0.661106
#
# Coordination Sequence:
#
# PCOD8074130 Si02
#       8
#     4   4   4   4   4   4   4   4
#     4  11  24  41  60  85 118 156 195 238 289 343
#     4   9  18  36  57  79 114 150 186 234 287 341
#     4  11  21  34  57  87 115 147 193 240 287 343
#     4  11  21  35  56  83 113 145 185 233 284 337
#     4  11  22  36  59  87 116 149 190 235 287 342
#     4  10  22  39  57  82 115 152 191 235 285 340
#     4   9  18  34  55  82 114 147 186 234 286 337
#     4  10  20  35  56  83 118 153 190 237 288 340
#
# _framework density 18.419136000000002
#
# number of rings (size 3 to 8) (size 9 to 14) (size 15 to 20)
#    0.000    1.750    2.500    3.375    0.000    5.500 
#    0.000    1.250    0.000    3.000    0.000    0.000 
#    0.000    0.000    0.000    0.000    0.000    0.000 
#
# Total GULP energy -396880.731575 kJ/mol
# GULP energy per Si atom -12402.522862 kJ/mol
# Density = 1.837721 g / cm^3
# Si number density = 18.419136 Si / 1000 Ang^3
#
#
#
# Elastic Constant Matrix: (Units=GPa)
#
#
# Indices 1 2 3 4 5 6 
#
# 1 141.7022 63.4614 69.4676 0.0000 -3.3100 0.0000
# 2 63.4614 98.5546 55.4010 0.0000 -0.5800 0.0000
# 3 69.4676 55.4010 119.0359 0.0000 -8.1921 0.0000
# 4 0.0000 0.0000 0.0000 31.3279 0.0000 -3.5985
# 5 -3.3100 -0.5800 -8.1921 0.0000 29.7123 0.0000
# 6 0.0000 0.0000 0.0000 -3.5985 0.0000 36.7103
#
#
#
# Elastic Compliance Matrix: (Units=1/GPa)
#
#
# Indices 1 2 3 4 5 6 
#
# 1 0.011384 -0.004868 -0.004380 0.000000 -0.000034 0.000000
# 2 -0.004868 0.015892 -0.004660 0.000000 -0.001517 0.000000
# 3 -0.004380 -0.004660 0.013339 0.000000 0.003099 0.000000
# 4 0.000000 0.000000 0.000000 0.032284 0.000000 0.003165
# 5 -0.000034 -0.001517 0.003099 0.000000 0.034477 0.000000
# 6 0.000000 0.000000 0.000000 0.003165 0.000000 0.027551
#
#
# Mechanical properties :
#
#
# Convention : Reuss Voigt Hill
#
# Bulk Modulus (GPa) = 78.13330 81.77252 79.95291
# Shear Modulus (GPa) = 29.93868 30.94759 30.44314
#
# Velocity S-wave (km/s) = 4.03601 4.10346 4.06987
# Velocity P-wave (km/s) = 8.01442 8.18187 8.09858
#
# Compressibility (1/GPa) = 0.01279864
#
# Stress axis : x y z
#
# Youngs Moduli (GPa) = 87.84457 62.92520 74.96906
#
# Poissons Ratio (x) = 0.30634 0.32836
# Poissons Ratio (y) = 0.42765 0.34933
# Poissons Ratio (z) = 0.38476 0.29321
#
# Static dielectric constant tensor:
#      x y z
#    x 3.757530 0.000000 -0.250060 
#    y 0.000000 3.442070 0.000000 
#    z -0.250060 0.000000 3.363580 
# 
# 
# High freq. dielectric constant tensor:
#      x y z
#    x 1.722890 0.000000 -0.020630 
#    y 0.000000 1.720100 0.000000 
#    z -0.020630 0.000000 1.694590 
# 
# From -- ./inp_files/72050.got.cif
#   From: 2010.06.25/outbox.cif.g09.slc.cpg/sg11_37_cif.got.tgz:72050.got - 2010.06.27 23:14:04.
