data_PCOD8074735
_publ_section_title
;
Structure prediction by ZEFSAII (Michael W. Deem and Ramdas Pophale) SiO2 
 PCOD8074735
Probable space group: P 21/M
;
_chemical_formula_sum "Si O2"
_cell_formula_units_Z 32
_cell_length_a 30.718149
_cell_length_b 8.936941
_cell_length_c 11.780309
_cell_angle_alpha 90.000000
_cell_angle_beta 149.267904
_cell_angle_gamma 90.000000
_cell_volume 1652.655551
_symmetry_space_group_name_H-M "P 21/M"
_symmetry_group_IT_number 11
_symmetry_cell_setting 'monoclinic'
loop_
_space_group_symop_operation_xyz
x,y,z
-x,1/2+y,-z
-x,-y,-z
x,1/2-y,z
loop_
_atom_site_type_symbol
_atom_site_label
_atom_site_fract_x
_atom_site_fract_y
_atom_site_fract_z
Si Si1 0.897781 0.924575 0.886613
Si Si2 0.469627 0.426320 0.547061
Si Si3 0.069543 0.424035 0.297891
Si Si4 0.591013 0.577635 0.202645
Si Si5 0.708111 0.421417 0.836239
Si Si6 0.613026 0.578982 0.995711
Si Si7 0.228972 0.074370 0.805392
Si Si8 0.258207 0.578781 0.340706
O O1 0.889244 0.750000 0.890378
O O2 0.895684 0.964094 0.748871
O O3 0.818911 0.003873 0.767318
O O4 0.985370 0.982318 0.138486
O O5 0.500000 0.500000 0.500000
O O6 0.470384 0.250000 0.534858
O O7 0.375439 0.479122 0.363572
O O8 0.532200 0.475102 0.788292
O O9 0.046095 0.250000 0.252511
O O10 0.140925 0.469752 0.548275
O O11 0.579207 0.750000 0.210825
O O12 0.652619 0.500492 0.431166
O O13 0.500000 0.500000 0.000000
O O14 0.634733 0.562821 0.176942
O O15 0.682996 0.250000 0.806190
O O16 0.759336 0.434024 0.833197
O O17 0.767383 0.483938 0.069342
O O18 0.589323 0.750000 0.912562
O O19 0.693782 0.525551 0.103545
O O20 0.233548 0.250000 0.841236
O O21 0.265345 0.750000 0.395477
#
# Coordination Sequence:
#
# PCOD8074735 Si02
#       8
#     4   4   4   4   4   4   4   4
#     4  10  20  37  63  92 118 151 191 233 285 347
#     4  12  23  36  56  82 112 151 195 238 286 340
#     4   9  19  37  61  91 123 150 181 232 293 346
#     4  11  23  39  59  85 118 153 193 240 289 345
#     4  11  24  40  57  81 114 153 197 245 290 337
#     4  10  21  37  57  83 115 149 188 239 292 339
#     4  10  20  36  59  84 112 149 188 233 292 345
#     4  11  24  41  60  83 117 158 197 240 291 345
#
# _framework density 19.362777000000001
#
# number of rings (size 3 to 8) (size 9 to 14) (size 15 to 20)
#    0.000    1.500    1.250    4.125    0.000    9.000 
#    0.000    1.875    0.000    0.000    0.000    0.000 
#    0.000    0.000    0.000    0.000    0.000    0.000 
#
# Total GULP energy -396968.911894 kJ/mol
# GULP energy per Si atom -12405.278497 kJ/mol
# Density = 1.931871 g / cm^3
# Si number density = 19.362777 Si / 1000 Ang^3
#
#
#
# Elastic Constant Matrix: (Units=GPa)
#
#
# Indices 1 2 3 4 5 6 
#
# 1 84.1526 47.6276 52.6484 0.0000 4.3296 0.0000
# 2 47.6276 124.7160 68.1679 0.0000 6.0698 0.0000
# 3 52.6484 68.1679 133.8598 0.0000 -2.6160 0.0000
# 4 0.0000 0.0000 0.0000 36.8685 0.0000 0.9126
# 5 4.3296 6.0698 -2.6160 0.0000 29.2171 0.0000
# 6 0.0000 0.0000 0.0000 0.9126 0.0000 32.5702
#
#
#
# Elastic Compliance Matrix: (Units=1/GPa)
#
#
# Indices 1 2 3 4 5 6 
#
# 1 0.017192 -0.003796 -0.004872 0.000000 -0.002195 0.000000
# 2 -0.003796 0.012186 -0.004759 0.000000 -0.002395 0.000000
# 3 -0.004872 -0.004759 0.011865 0.000000 0.002773 0.000000
# 4 0.000000 0.000000 0.000000 0.027142 0.000000 -0.000760
# 5 -0.002195 -0.002395 0.002773 0.000000 0.035298 0.000000
# 6 0.000000 0.000000 0.000000 -0.000760 0.000000 0.030724
#
#
# Mechanical properties :
#
#
# Convention : Reuss Voigt Hill
#
# Bulk Modulus (GPa) = 69.49985 75.51291 72.50638
# Shear Modulus (GPa) = 30.11006 31.35015 30.73010
#
# Velocity S-wave (km/s) = 3.94769 4.02816 3.98813
# Velocity P-wave (km/s) = 7.53329 7.79220 7.66384
#
# Compressibility (1/GPa) = 0.01438852
#
# Stress axis : x y z
#
# Youngs Moduli (GPa) = 58.16518 82.06234 84.28450
#
# Poissons Ratio (x) = 0.31150 0.41062
# Poissons Ratio (y) = 0.22079 0.40115
# Poissons Ratio (z) = 0.28337 0.39057
#
# Static dielectric constant tensor:
#      x y z
#    x 3.608760 0.000000 -0.070270 
#    y 0.000000 3.600830 0.000000 
#    z -0.070270 0.000000 3.677190 
# 
# 
# High freq. dielectric constant tensor:
#      x y z
#    x 1.752230 0.000000 -0.005290 
#    y 0.000000 1.761660 0.000000 
#    z -0.005290 0.000000 1.753510 
# 
# From -- ./inp_files/45284.got.cif
#   From: 2010.06.25/outbox.cif.g09.slc.cpg/sg11_23_cif.got.tgz:45284.got - 2010.06.27 23:14:04.
