data_PCOD8074398
_publ_section_title
;
Structure prediction by ZEFSAII (Michael W. Deem and Ramdas Pophale) SiO2 
 PCOD8074398
Probable space group: P 21/M
;
_chemical_formula_sum "Si O2"
_cell_formula_units_Z 28
_cell_length_a 6.577453
_cell_length_b 31.364155
_cell_length_c 8.630216
_cell_angle_alpha 90.000000
_cell_angle_beta 52.238356
_cell_angle_gamma 90.000000
_cell_volume 1407.507345
_symmetry_space_group_name_H-M "P 21/M"
_symmetry_group_IT_number 11
_symmetry_cell_setting 'monoclinic'
loop_
_space_group_symop_operation_xyz
x,y,z
-x,1/2+y,-z
-x,-y,-z
x,1/2-y,z
loop_
_atom_site_type_symbol
_atom_site_label
_atom_site_fract_x
_atom_site_fract_y
_atom_site_fract_z
Si Si1 0.111416 0.840251 0.979166
Si Si2 0.837324 0.008303 0.426922
Si Si3 0.140046 0.701419 0.659148
Si Si4 0.925509 0.583472 0.864023
Si Si5 0.660762 0.551614 0.276086
Si Si6 0.317925 0.351480 0.249073
Si Si7 0.364875 0.356472 0.587454
O O1 0.085300 0.801652 0.869007
O O2 0.097557 0.883965 0.884831
O O3 0.390767 0.837337 0.930484
O O4 0.886968 0.837064 0.210637
O O5 0.894591 0.052605 0.315927
O O6 0.550631 0.014450 0.625313
O O7 0.872520 0.967161 0.297857
O O8 0.000000 0.000000 0.500000
O O9 0.193942 0.750000 0.587702
O O10 0.391872 0.674062 0.495913
O O11 0.886534 0.685999 0.686540
O O12 0.742223 0.607985 0.829490
O O13 0.759646 0.554136 0.055271
O O14 0.563680 0.598048 0.373610
O O15 0.300035 0.362716 0.438121
#
# Coordination Sequence:
#
# PCOD8074398 Si02
#       7
#     4   4   4   4   4   4   4
#     4   9  21  39  61  83 112 151 191 232 281 341
#     4  11  22  35  54  82 113 150 193 240 282 327
#     4  10  22  39  58  85 119 148 180 230 286 341
#     4  10  21  37  56  81 114 150 187 236 289 336
#     4  10  22  37  55  80 113 151 194 234 279 334
#     4  10  20  35  60  87 111 145 190 235 283 340
#     4  10  21  40  62  83 112 153 193 231 279 339
#
# _framework density 19.893322999999999
#
# number of rings (size 3 to 8) (size 9 to 14) (size 15 to 20)
#    0.000    2.000    0.000    3.857    0.000   11.429 
#    0.000    0.000    0.000    0.000    0.000    0.000 
#    0.000    0.000    0.000    0.000    0.000    0.000 
#
# Total GULP energy -347132.030618 kJ/mol
# GULP energy per Si atom -12397.572522 kJ/mol
# Density = 1.984805 g / cm^3
# Si number density = 19.893323 Si / 1000 Ang^3
#
#
#
# Elastic Constant Matrix: (Units=GPa)
#
#
# Indices 1 2 3 4 5 6 
#
# 1 121.3943 27.4591 49.8200 0.0000 -8.7227 0.0000
# 2 27.4591 69.9928 18.3096 0.0000 -6.6959 0.0000
# 3 49.8200 18.3096 102.6133 0.0000 -6.6263 0.0000
# 4 0.0000 0.0000 0.0000 23.9430 0.0000 -1.3922
# 5 -8.7227 -6.6959 -6.6263 0.0000 28.6527 0.0000
# 6 0.0000 0.0000 0.0000 -1.3922 0.0000 18.6129
#
#
#
# Elastic Compliance Matrix: (Units=1/GPa)
#
#
# Indices 1 2 3 4 5 6 
#
# 1 0.010933 -0.002913 -0.004687 0.000000 0.001563 0.000000
# 2 -0.002913 0.016009 -0.001277 0.000000 0.002559 0.000000
# 3 -0.004687 -0.001277 0.012321 0.000000 0.001124 0.000000
# 4 0.000000 0.000000 0.000000 0.041948 0.000000 0.003138
# 5 0.001563 0.002559 0.001124 0.000000 0.036235 0.000000
# 6 0.000000 0.000000 0.000000 0.003138 0.000000 0.053961
#
#
# Mechanical properties :
#
#
# Convention : Reuss Voigt Hill
#
# Bulk Modulus (GPa) = 46.49345 53.90862 50.20103
# Shear Modulus (GPa) = 25.46724 27.46916 26.46820
#
# Velocity S-wave (km/s) = 3.58186 3.71997 3.65157
# Velocity P-wave (km/s) = 6.36619 6.75342 6.56266
#
# Compressibility (1/GPa) = 0.02150841
#
# Stress axis : x y z
#
# Youngs Moduli (GPa) = 91.47032 62.46515 81.15973
#
# Poissons Ratio (x) = 0.18198 0.38040
# Poissons Ratio (y) = 0.26648 0.10363
# Poissons Ratio (z) = 0.42873 0.07976
#
# Static dielectric constant tensor:
#      x y z
#    x 3.746460 0.000000 -0.126170 
#    y 0.000000 4.993420 0.000000 
#    z -0.126170 0.000000 3.985910 
# 
# 
# High freq. dielectric constant tensor:
#      x y z
#    x 1.779300 0.000000 -0.000400 
#    y 0.000000 1.765900 0.000000 
#    z -0.000400 0.000000 1.782530 
# 
# From -- ./inp_files/10786.got.cif
#   From: 2010.06.25/outbox.cif.g09.slc.cpg/sg11_6_cif.got.tgz:10786.got - 2010.06.27 23:14:04.
