data_PCOD8074160
_publ_section_title
;
Structure prediction by ZEFSAII (Michael W. Deem and Ramdas Pophale) SiO2 
 PCOD8074160
Probable space group: P 21/M
;
_chemical_formula_sum "Si O2"
_cell_formula_units_Z 32
_cell_length_a 19.335351
_cell_length_b 9.319092
_cell_length_c 26.876837
_cell_angle_alpha 90.000000
_cell_angle_beta 160.816335
_cell_angle_gamma 90.000000
_cell_volume 1591.358138
_symmetry_space_group_name_H-M "P 21/M"
_symmetry_group_IT_number 11
_symmetry_cell_setting 'monoclinic'
loop_
_space_group_symop_operation_xyz
x,y,z
-x,1/2+y,-z
-x,-y,-z
x,1/2-y,z
loop_
_atom_site_type_symbol
_atom_site_label
_atom_site_fract_x
_atom_site_fract_y
_atom_site_fract_z
Si Si1 0.772317 0.591046 0.133858
Si Si2 0.432011 0.587945 0.082166
Si Si3 0.205835 0.587756 0.370239
Si Si4 0.599095 0.916411 0.408594
Si Si5 0.144199 0.919857 0.059055
Si Si6 0.179068 0.591456 0.644084
Si Si7 0.990451 0.087067 0.142286
Si Si8 0.035628 0.593252 0.658530
O O1 0.672558 0.750000 0.069839
O O2 0.981342 0.594374 0.243438
O O3 0.823402 0.531719 0.222676
O O4 0.606264 0.481901 0.997651
O O5 0.513534 0.750000 0.130825
O O6 0.609124 0.490293 0.227206
O O7 0.226771 0.581982 0.975962
O O8 0.290243 0.750000 0.417966
O O9 0.367189 0.504905 0.516809
O O10 0.170089 0.507338 0.292605
O O11 0.587079 0.750000 0.415963
O O12 0.386294 0.963887 0.235319
O O13 0.788314 0.945366 0.497853
O O14 0.116596 0.750000 0.045423
O O15 0.065452 0.970734 0.950894
O O16 0.000000 0.000000 0.000000
O O17 0.194317 0.750000 0.630923
O O18 0.000000 0.500000 0.500000
O O19 0.117094 0.602843 0.658869
O O20 0.075883 0.250000 0.198286
O O21 0.070785 0.750000 0.708266
#
# Coordination Sequence:
#
# PCOD8074160 Si02
#       8
#     4   4   4   4   4   4   4   4
#     4   9  17  31  53  80 111 138 176 228 277 323
#     4  10  20  35  57  80 107 144 185 226 272 324
#     4   9  17  31  54  86 117 143 180 232 280 324
#     4   9  18  35  60  83 109 147 188 226 272 333
#     4  10  22  39  60  86 115 145 182 229 277 334
#     4  11  24  38  52  74 108 145 186 233 276 321
#     4   9  19  36  60  84 111 150 191 226 273 337
#     4   9  19  35  56  78 104 142 185 224 268 323
#
# _framework density 20.108609999999999
#
# number of rings (size 3 to 8) (size 9 to 14) (size 15 to 20)
#    0.000    2.500    0.000    1.500    1.750    6.000 
#    0.000    0.625    0.000    0.000    0.000    0.000 
#    0.000    0.000    0.000    0.000    0.000    0.000 
#
# Total GULP energy -396561.124603 kJ/mol
# GULP energy per Si atom -12392.535144 kJ/mol
# Density = 2.006284 g / cm^3
# Si number density = 20.108610 Si / 1000 Ang^3
#
#
#
# Elastic Constant Matrix: (Units=GPa)
#
#
# Indices 1 2 3 4 5 6 
#
# 1 41.0931 24.8352 8.6262 0.0000 -15.8040 0.0000
# 2 24.8352 123.0528 25.7615 0.0000 -14.7780 0.0000
# 3 8.6262 25.7615 45.9308 0.0000 -17.7613 0.0000
# 4 0.0000 0.0000 0.0000 34.0709 0.0000 -1.4591
# 5 -15.8040 -14.7780 -17.7613 0.0000 30.3483 0.0000
# 6 0.0000 0.0000 0.0000 -1.4591 0.0000 25.1699
#
#
#
# Elastic Compliance Matrix: (Units=1/GPa)
#
#
# Indices 1 2 3 4 5 6 
#
# 1 0.033304 -0.005397 0.003183 0.000000 0.016578 0.000000
# 2 -0.005397 0.010167 -0.004991 0.000000 -0.000781 0.000000
# 3 0.003183 -0.004991 0.030599 0.000000 0.017136 0.000000
# 4 0.000000 0.000000 0.000000 0.029424 0.000000 0.001706
# 5 0.016578 -0.000781 0.017136 0.000000 0.051232 0.000000
# 6 0.000000 0.000000 0.000000 0.001706 0.000000 0.039829
#
#
# Mechanical properties :
#
#
# Convention : Reuss Voigt Hill
#
# Bulk Modulus (GPa) = 16.76127 36.50249 26.63188
# Shear Modulus (GPa) = 21.84814 27.97473 24.91144
#
# Velocity S-wave (km/s) = 3.29980 3.73390 3.52354
# Velocity P-wave (km/s) = 4.78243 6.06477 5.46137
#
# Compressibility (1/GPa) = 0.05966135
#
# Stress axis : x y z
#
# Youngs Moduli (GPa) = 30.02603 98.35822 32.68028
#
# Poissons Ratio (x) = 0.53085 -0.10402
# Poissons Ratio (y) = 0.16205 0.16309
# Poissons Ratio (z) = -0.09557 0.49086
#
# Static dielectric constant tensor:
#      x y z
#    x 3.312980 0.000000 -0.143700 
#    y 0.000000 4.037000 0.000000 
#    z -0.143700 0.000000 3.630370 
# 
# 
# High freq. dielectric constant tensor:
#      x y z
#    x 1.762340 0.000000 -0.007780 
#    y 0.000000 1.792270 0.000000 
#    z -0.007780 0.000000 1.784460 
# 
# From -- ./inp_files/72117.got.cif
#   From: 2010.06.25/outbox.cif.g09.slc.cpg/sg11_37_cif.got.tgz:72117.got - 2010.06.27 23:14:04.
