data_PCOD8074570
_publ_section_title
;
Structure prediction by ZEFSAII (Michael W. Deem and Ramdas Pophale) SiO2 
 PCOD8074570
Probable space group: P 21/M
;
_chemical_formula_sum "Si O2"
_cell_formula_units_Z 24
_cell_length_a 29.100822
_cell_length_b 9.221230
_cell_length_c 7.749546
_cell_angle_alpha 90.000000
_cell_angle_beta 143.717126
_cell_angle_gamma 90.000000
_cell_volume 1230.622842
_symmetry_space_group_name_H-M "P 21/M"
_symmetry_group_IT_number 11
_symmetry_cell_setting 'monoclinic'
loop_
_space_group_symop_operation_xyz
x,y,z
-x,1/2+y,-z
-x,-y,-z
x,1/2-y,z
loop_
_atom_site_type_symbol
_atom_site_label
_atom_site_fract_x
_atom_site_fract_y
_atom_site_fract_z
Si Si1 0.192939 0.580661 0.393520
Si Si2 0.652989 0.910545 0.752551
Si Si3 0.197933 0.580475 0.806133
Si Si4 0.080758 0.580131 0.752398
Si Si5 0.339970 0.092331 0.828072
Si Si6 0.495281 0.577288 0.805601
O O1 0.205371 0.750000 0.412668
O O2 0.174884 0.538044 0.538488
O O3 0.272441 0.513181 0.557987
O O4 0.124138 0.528282 0.058852
O O5 0.641475 0.750000 0.631496
O O6 0.577215 0.009880 0.512981
O O7 0.671905 0.888403 0.007103
O O8 0.727037 0.993167 0.896306
O O9 0.218502 0.750000 0.879136
O O10 0.128081 0.539383 0.722523
O O11 0.064678 0.750000 0.711049
O O12 0.000000 0.500000 0.500000
O O13 0.330683 0.250000 0.709458
O O14 0.425700 0.031104 0.051317
O O15 0.485025 0.750000 0.788455
O O16 0.500000 0.500000 0.000000
#
# Coordination Sequence:
#
# PCOD8074570 Si02
#       6
#     4   4   4   4   4   4
#     4   9  19  36  58  82 110 146 185 226 276 333
#     4  10  20  36  57  81 108 143 186 231 279 331
#     4   9  19  37  58  81 112 147 184 228 276 330
#     4  10  22  38  57  84 112 143 181 224 278 337
#     4   9  20  37  56  79 108 143 186 231 277 328
#     4  11  23  36  51  78 113 149 188 231 276 325
#
# _framework density 19.502319
#
# number of rings (size 3 to 8) (size 9 to 14) (size 15 to 20)
#    0.000    2.333    0.000    1.500    2.333    4.000 
#    0.000    0.000    0.000    0.000    0.000    0.000 
#    0.000    0.000    0.000    0.000    0.000    0.000 
#
# Total GULP energy -297482.327990 kJ/mol
# GULP energy per Si atom -12395.097000 kJ/mol
# Density = 1.945793 g / cm^3
# Si number density = 19.502319 Si / 1000 Ang^3
#
#
#
# Elastic Constant Matrix: (Units=GPa)
#
#
# Indices 1 2 3 4 5 6 
#
# 1 104.3566 44.7030 60.0392 0.0000 21.8905 0.0000
# 2 44.7030 81.4913 63.3675 0.0000 16.6263 0.0000
# 3 60.0392 63.3675 147.9076 0.0000 26.3042 0.0000
# 4 0.0000 0.0000 0.0000 38.9603 0.0000 7.8345
# 5 21.8905 16.6263 26.3042 0.0000 35.5626 0.0000
# 6 0.0000 0.0000 0.0000 7.8345 0.0000 23.3727
#
#
#
# Elastic Compliance Matrix: (Units=1/GPa)
#
#
# Indices 1 2 3 4 5 6 
#
# 1 0.014188 -0.004525 -0.003044 0.000000 -0.004366 0.000000
# 2 -0.004525 0.020165 -0.006473 0.000000 -0.001855 0.000000
# 3 -0.003044 -0.006473 0.011398 0.000000 -0.003530 0.000000
# 4 0.000000 0.000000 0.000000 0.027522 0.000000 -0.009226
# 5 -0.004366 -0.001855 -0.003530 0.000000 0.034286 0.000000
# 6 0.000000 0.000000 0.000000 -0.009226 0.000000 0.045877
#
#
# Mechanical properties :
#
#
# Convention : Reuss Voigt Hill
#
# Bulk Modulus (GPa) = 56.60225 74.44167 65.52196
# Shear Modulus (GPa) = 26.67965 30.62215 28.65090
#
# Velocity S-wave (km/s) = 3.70269 3.96685 3.83705
# Velocity P-wave (km/s) = 6.88232 7.69641 7.30072
#
# Compressibility (1/GPa) = 0.01766714
#
# Stress axis : x y z
#
# Youngs Moduli (GPa) = 70.48096 49.59082 87.73845
#
# Poissons Ratio (x) = 0.22441 0.26709
# Poissons Ratio (y) = 0.31894 0.56789
# Poissons Ratio (z) = 0.21455 0.32098
#
# Static dielectric constant tensor:
#      x y z
#    x 3.585000 0.000000 -0.234020 
#    y 0.000000 4.006580 0.000000 
#    z -0.234020 0.000000 3.887170 
# 
# 
# High freq. dielectric constant tensor:
#      x y z
#    x 1.760890 0.000000 -0.000330 
#    y 0.000000 1.760310 0.000000 
#    z -0.000330 0.000000 1.757380 
# 
# From -- ./inp_files/20587.got.cif
#   From: 2010.06.25/outbox.cif.g09.slc.cpg/sg11_11_cif.got.tgz:20587.got - 2010.06.27 23:14:04.
