data_PCOD8074666
_publ_section_title
;
Structure prediction by ZEFSAII (Michael W. Deem and Ramdas Pophale) SiO2 
 PCOD8074666
Probable space group: P 21/M
;
_chemical_formula_sum "Si O2"
_cell_formula_units_Z 32
_cell_length_a 14.637337
_cell_length_b 16.452907
_cell_length_c 20.821154
_cell_angle_alpha 90.000000
_cell_angle_beta 160.530995
_cell_angle_gamma 90.000000
_cell_volume 1671.247429
_symmetry_space_group_name_H-M "P 21/M"
_symmetry_group_IT_number 11
_symmetry_cell_setting 'monoclinic'
loop_
_space_group_symop_operation_xyz
x,y,z
-x,1/2+y,-z
-x,-y,-z
x,1/2-y,z
loop_
_atom_site_type_symbol
_atom_site_label
_atom_site_fract_x
_atom_site_fract_y
_atom_site_fract_z
Si Si1 0.941028 0.015130 0.809978
Si Si2 0.261462 0.343280 0.529561
Si Si3 0.416319 0.015097 0.547538
Si Si4 0.652804 0.345449 0.152835
Si Si5 0.701662 0.075781 0.402937
Si Si6 0.507430 0.075935 0.805866
Si Si7 0.666038 0.843292 0.934111
Si Si8 0.709381 0.846699 0.209473
O O1 0.711625 0.004739 0.711717
O O2 0.053500 0.106880 0.885574
O O3 0.825404 0.000102 0.662741
O O4 0.176568 0.950651 0.983329
O O5 0.245277 0.250000 0.497369
O O6 0.380999 0.393122 0.549092
O O7 0.462824 0.353054 0.723935
O O8 0.960728 0.379641 0.348640
O O9 0.402831 0.950728 0.596409
O O10 0.677503 0.250000 0.177587
O O11 0.511859 0.379662 0.124086
O O12 0.472227 0.369738 0.972170
O O13 0.508065 0.146917 0.246645
O O14 0.000956 0.111740 0.608610
O O15 0.685106 0.999929 0.342461
O O16 0.433088 0.112193 0.824817
O O17 0.746329 0.750000 0.998307
O O18 0.738659 0.750000 0.238414
#
# Coordination Sequence:
#
# PCOD8074666 Si02
#       8
#     4   4   4   4   4   4   4   4
#     4  10  22  40  59  79 108 147 189 231 275 327
#     4  10  20  36  58  83 113 146 184 229 276 327
#     4  10  22  40  59  79 108 147 189 231 275 327
#     4   9  19  33  52  80 111 142 174 217 272 324
#     4  10  21  35  55  82 110 144 182 224 277 334
#     4  10  21  35  55  82 110 144 182 224 277 334
#     4  10  20  36  58  83 113 146 184 229 276 327
#     4  11  20  33  55  82 113 144 181 227 273 326
#
# _framework density 19.147373999999999
#
# number of rings (size 3 to 8) (size 9 to 14) (size 15 to 20)
#    0.000    2.000    0.000    3.375    0.000    9.000 
#    0.000    7.500    0.000    5.250    0.000    0.000 
#    0.000    0.000    0.000    0.000    0.000    0.000 
#
# Total GULP energy -396817.751183 kJ/mol
# GULP energy per Si atom -12400.554724 kJ/mol
# Density = 1.910379 g / cm^3
# Si number density = 19.147374 Si / 1000 Ang^3
#
#
#
# Elastic Constant Matrix: (Units=GPa)
#
#
# Indices 1 2 3 4 5 6 
#
# 1 64.9509 47.6940 128.3820 0.0000 10.7325 0.0000
# 2 47.6940 75.7634 51.6111 0.0000 1.7987 0.0000
# 3 128.3820 51.6111 93.2018 0.0000 -27.9746 0.0000
# 4 0.0000 0.0000 0.0000 24.2544 0.0000 -8.7885
# 5 10.7325 1.7987 -27.9746 0.0000 16.8487 0.0000
# 6 0.0000 0.0000 0.0000 -8.7885 0.0000 17.6309
#
#
#
# Elastic Compliance Matrix: (Units=1/GPa)
#
#
# Indices 1 2 3 4 5 6 
#
# 1 -0.000587 -0.006167 0.009037 0.000000 0.016036 0.000000
# 2 -0.006167 0.019819 -0.003859 0.000000 -0.004594 0.000000
# 3 0.009037 -0.003859 -0.002364 0.000000 -0.009269 0.000000
# 4 0.000000 0.000000 0.000000 0.050318 0.000000 0.025082
# 5 0.016036 -0.004594 -0.009269 0.000000 0.034238 0.000000
# 6 0.000000 0.000000 0.000000 0.025082 0.000000 0.069221
#
#
# Mechanical properties :
#
#
# Convention : Reuss Voigt Hill
#
# Bulk Modulus (GPa) = 67.15774 76.58780 71.87277
# Shear Modulus (GPa) = 28.15501 12.16207 20.15854
#
# Velocity S-wave (km/s) = 3.83879 2.52302 3.24822
# Velocity P-wave (km/s) = 7.40261 6.96946 7.18930
#
# Compressibility (1/GPa) = 0.01489032
#
# Stress axis : x y z
#
# Youngs Moduli (GPa) = -1704.17174 50.45690 -423.09804
#
# Poissons Ratio (x) = 0.31118 3.82339
# Poissons Ratio (y) = -10.51000 -1.63256
# Poissons Ratio (z) = 15.40002 0.19469
#
# Static dielectric constant tensor:
#      x y z
#    x 3.536010 0.000000 -0.146560 
#    y 0.000000 3.456930 0.000000 
#    z -0.146560 0.000000 3.651240 
# 
# 
# High freq. dielectric constant tensor:
#      x y z
#    x 1.745600 0.000000 -0.012800 
#    y 0.000000 1.741090 0.000000 
#    z -0.012800 0.000000 1.755750 
# 
# From -- ./inp_files/65855.got.cif
#   From: 2010.06.25/outbox.cif.g09.slc.cpg/sg11_33_cif.got.tgz:65855.got - 2010.06.27 23:14:04.
