data_PCOD8074174
_publ_section_title
;
Structure prediction by ZEFSAII (Michael W. Deem and Ramdas Pophale) SiO2 
 PCOD8074174
Probable space group: P 21/M
;
_chemical_formula_sum "Si O2"
_cell_formula_units_Z 24
_cell_length_a 12.099626
_cell_length_b 21.946869
_cell_length_c 11.219871
_cell_angle_alpha 90.000000
_cell_angle_beta 24.837041
_cell_angle_gamma 90.000000
_cell_volume 1251.474066
_symmetry_space_group_name_H-M "P 21/M"
_symmetry_group_IT_number 11
_symmetry_cell_setting 'monoclinic'
loop_
_space_group_symop_operation_xyz
x,y,z
-x,1/2+y,-z
-x,-y,-z
x,1/2-y,z
loop_
_atom_site_type_symbol
_atom_site_label
_atom_site_fract_x
_atom_site_fract_y
_atom_site_fract_z
Si Si1 0.244049 0.881131 0.887292
Si Si2 0.351812 0.909292 0.510394
Si Si3 0.767486 0.821770 0.470770
Si Si4 0.593085 0.177790 0.757833
Si Si5 0.120256 0.486792 0.010266
Si Si6 0.110560 0.322071 0.384718
O O1 0.283267 0.883654 0.707358
O O2 0.499763 0.854743 0.699303
O O3 0.186758 0.947557 0.002227
O O4 0.995905 0.837518 0.153640
O O5 0.393408 0.851743 0.385096
O O6 0.614392 0.948694 0.260497
O O7 0.108336 0.949727 0.696339
O O8 0.715328 0.750000 0.521270
O O9 0.852896 0.846469 0.517178
O O10 0.592575 0.250000 0.738810
O O11 0.832638 0.155951 0.606184
O O12 0.335362 0.153002 0.076870
O O13 0.000000 0.500000 0.000000
O O14 0.128073 0.250000 0.370719
#
# Coordination Sequence:
#
# PCOD8074174 Si02
#       6
#     4   4   4   4   4   4
#     4  11  21  36  57  83 111 143 180 224 274 322
#     4  11  21  36  58  84 111 142 180 226 274 322
#     4  11  22  36  57  83 112 144 179 224 274 324
#     4  10  20  35  57  82 109 142 180 225 273 322
#     4  10  20  37  57  78 108 149 191 216 254 328
#     4   9  19  36  55  76 105 148 190 214 254 328
#
# _framework density 19.177385000000001
#
# number of rings (size 3 to 8) (size 9 to 14) (size 15 to 20)
#    0.000    1.667    0.000    7.500    0.000    4.000 
#    0.000    1.667    0.000   20.000    0.000    0.000 
#    0.000    0.000    0.000    0.000    0.000    0.000 
#
# Total GULP energy -297594.955256 kJ/mol
# GULP energy per Si atom -12399.789802 kJ/mol
# Density = 1.913374 g / cm^3
# Si number density = 19.177385 Si / 1000 Ang^3
#
#
#
# Elastic Constant Matrix: (Units=GPa)
#
#
# Indices 1 2 3 4 5 6 
#
# 1 202.6248 -77.4509 29.0354 0.0000 -19.2120 0.0000
# 2 -77.4509 191.6657 32.8700 0.0000 14.3170 0.0000
# 3 29.0354 32.8700 123.8797 0.0000 -13.2889 0.0000
# 4 0.0000 0.0000 0.0000 30.3661 0.0000 -10.2999
# 5 -19.2120 14.3170 -13.2889 0.0000 29.9023 0.0000
# 6 0.0000 0.0000 0.0000 -10.2999 0.0000 15.2711
#
#
#
# Elastic Compliance Matrix: (Units=1/GPa)
#
#
# Indices 1 2 3 4 5 6 
#
# 1 0.006497 0.002840 -0.002073 0.000000 0.001894 0.000000
# 2 0.002840 0.007063 -0.002842 0.000000 -0.002820 0.000000
# 3 -0.002073 -0.002842 0.009782 0.000000 0.004376 0.000000
# 4 0.000000 0.000000 0.000000 0.042700 0.000000 0.028800
# 5 0.001894 -0.002820 0.004376 0.000000 0.037954 0.000000
# 6 0.000000 0.000000 0.000000 0.028800 0.000000 0.084908
#
#
# Mechanical properties :
#
#
# Convention : Reuss Voigt Hill
#
# Bulk Modulus (GPa) = 52.10906 54.11992 53.11449
# Shear Modulus (GPa) = 25.06862 50.68894 37.87878
#
# Velocity S-wave (km/s) = 3.61944 5.14675 4.44912
# Velocity P-wave (km/s) = 6.68568 7.97500 7.35863
#
# Compressibility (1/GPa) = 0.01919052
#
# Stress axis : x y z
#
# Youngs Moduli (GPa) = 153.91137 141.58325 102.23035
#
# Poissons Ratio (x) = -0.40204 0.21194
# Poissons Ratio (y) = -0.43705 0.29056
# Poissons Ratio (z) = 0.31909 0.40241
#
# Static dielectric constant tensor:
#      x y z
#    x 3.486630 0.000000 -0.137320 
#    y 0.000000 3.352740 0.000000 
#    z -0.137320 0.000000 3.441330 
# 
# 
# High freq. dielectric constant tensor:
#      x y z
#    x 1.733450 0.000000 -0.011350 
#    y 0.000000 1.734210 0.000000 
#    z -0.011350 0.000000 1.771240 
# 
# From -- ./inp_files/4826.got.cif
#   From: 2010.06.25/outbox.cif.g09.slc.cpg/sg11_3_cif.got.tgz:4826.got - 2010.06.27 23:14:04.
