data_PCOD8074751
_publ_section_title
;
Structure prediction by ZEFSAII (Michael W. Deem and Ramdas Pophale) SiO2 
 PCOD8074751
Probable space group: P 21/M
;
_chemical_formula_sum "Si O2"
_cell_formula_units_Z 20
_cell_length_a 9.566871
_cell_length_b 15.459630
_cell_length_c 9.203224
_cell_angle_alpha 90.000000
_cell_angle_beta 131.726402
_cell_angle_gamma 90.000000
_cell_volume 1015.876269
_symmetry_space_group_name_H-M "P 21/M"
_symmetry_group_IT_number 11
_symmetry_cell_setting 'monoclinic'
loop_
_space_group_symop_operation_xyz
x,y,z
-x,1/2+y,-z
-x,-y,-z
x,1/2-y,z
loop_
_atom_site_type_symbol
_atom_site_label
_atom_site_fract_x
_atom_site_fract_y
_atom_site_fract_z
Si Si1 0.626259 0.153521 0.634263
Si Si2 0.142599 0.501102 0.322754
Si Si3 0.433189 0.064884 0.750767
Si Si4 0.744127 0.653607 0.787989
Si Si5 0.258750 0.433543 0.925243
O O1 0.713353 0.250000 0.690678
O O2 0.788608 0.083198 0.724749
O O3 0.521636 0.141448 0.716273
O O4 0.474034 0.140990 0.401849
O O5 0.279262 0.487311 0.552473
O O6 0.132451 0.417198 0.211530
O O7 0.936677 0.518391 0.241026
O O8 0.335369 0.104867 0.826353
O O9 0.597165 0.000905 0.908011
O O10 0.812182 0.750000 0.791148
O O11 0.767823 0.643331 0.977582
#
# Coordination Sequence:
#
# PCOD8074751 Si02
#       5
#     4   4   4   4   4
#     4  10  20  37  60  82 114 154 191 234 284 336
#     4  11  20  39  59  86 111 152 192 236 278 339
#     4  10  21  38  56  83 117 147 185 233 287 340
#     4  10  20  36  59  85 115 149 190 238 282 334
#     4  11  21  35  60  85 111 149 187 235 287 335
#
# _framework density 19.687436999999999
#
# number of rings (size 3 to 8) (size 9 to 14) (size 15 to 20)
#    0.000    1.600    4.000    2.400    0.000    1.600 
#    0.000    0.000    0.000    4.800    0.000    0.000 
#    0.000    0.000    0.000    0.000    0.000    0.000 
#
# Total GULP energy -248003.351602 kJ/mol
# GULP energy per Si atom -12400.167580 kJ/mol
# Density = 1.964263 g / cm^3
# Si number density = 19.687437 Si / 1000 Ang^3
#
#
#
# Elastic Constant Matrix: (Units=GPa)
#
#
# Indices 1 2 3 4 5 6 
#
# 1 88.9436 28.0605 49.1812 0.0000 -6.7211 0.0000
# 2 28.0605 101.3938 26.2658 0.0000 -5.5511 0.0000
# 3 49.1812 26.2658 79.7550 0.0000 -1.1224 0.0000
# 4 0.0000 0.0000 0.0000 12.7196 0.0000 -6.2911
# 5 -6.7211 -5.5511 -1.1224 0.0000 25.7213 0.0000
# 6 0.0000 0.0000 0.0000 -6.2911 0.0000 10.8670
#
#
#
# Elastic Compliance Matrix: (Units=1/GPa)
#
#
# Indices 1 2 3 4 5 6 
#
# 1 0.017868 -0.002075 -0.010282 0.000000 0.003773 0.000000
# 2 -0.002075 0.011146 -0.002367 0.000000 0.001760 0.000000
# 3 -0.010282 -0.002367 0.019625 0.000000 -0.002341 0.000000
# 4 0.000000 0.000000 0.000000 0.110162 0.000000 0.063775
# 5 0.003773 0.001760 -0.002341 0.000000 0.040142 0.000000
# 6 0.000000 0.000000 0.000000 0.063775 0.000000 0.128942
#
#
# Mechanical properties :
#
#
# Convention : Reuss Voigt Hill
#
# Bulk Modulus (GPa) = 52.10315 53.01192 52.55754
# Shear Modulus (GPa) = 13.74647 20.96724 17.35686
#
# Velocity S-wave (km/s) = 2.64528 3.26698 2.97243
# Velocity P-wave (km/s) = 5.98771 6.41998 6.20761
#
# Compressibility (1/GPa) = 0.01919270
#
# Stress axis : x y z
#
# Youngs Moduli (GPa) = 55.96529 89.71698 50.95462
#
# Poissons Ratio (x) = 0.18615 0.52392
# Poissons Ratio (y) = 0.11612 0.12059
# Poissons Ratio (z) = 0.57544 0.21232
#
# Static dielectric constant tensor:
#      x y z
#    x 3.610830 0.000000 -0.139280 
#    y 0.000000 3.451530 0.000000 
#    z -0.139280 0.000000 3.707250 
# 
# 
# High freq. dielectric constant tensor:
#      x y z
#    x 1.758050 0.000000 -0.001230 
#    y 0.000000 1.749650 0.000000 
#    z -0.001230 0.000000 1.779070 
# 
# From -- ./inp_files/12225.got.cif
#   From: 2010.06.25/outbox.cif.g09.slc.cpg/sg11_7_cif.got.tgz:12225.got - 2010.06.27 23:14:04.
