data_PCOD8074404
_publ_section_title
;
Structure prediction by ZEFSAII (Michael W. Deem and Ramdas Pophale) SiO2 
 PCOD8074404
Probable space group: P 21/M
;
_chemical_formula_sum "Si O2"
_cell_formula_units_Z 28
_cell_length_a 10.218115
_cell_length_b 18.426343
_cell_length_c 16.881760
_cell_angle_alpha 90.000000
_cell_angle_beta 153.928852
_cell_angle_gamma 90.000000
_cell_volume 1396.926624
_symmetry_space_group_name_H-M "P 21/M"
_symmetry_group_IT_number 11
_symmetry_cell_setting 'monoclinic'
loop_
_space_group_symop_operation_xyz
x,y,z
-x,1/2+y,-z
-x,-y,-z
x,1/2-y,z
loop_
_atom_site_type_symbol
_atom_site_label
_atom_site_fract_x
_atom_site_fract_y
_atom_site_fract_z
Si Si1 0.806160 0.068996 0.481819
Si Si2 0.497474 0.832885 0.372990
Si Si3 0.301469 0.544140 0.165934
Si Si4 0.472605 0.044326 0.876671
Si Si5 0.233188 0.667322 0.391563
Si Si6 0.397745 0.111228 0.995029
Si Si7 0.117054 0.667859 0.629792
O O1 0.693538 0.118012 0.493283
O O2 0.841723 0.116129 0.422410
O O3 0.119196 0.030958 0.672702
O O4 0.566927 0.006893 0.339569
O O5 0.409894 0.750000 0.304609
O O6 0.264310 0.886864 0.203389
O O7 0.484885 0.844768 0.461044
O O8 0.823466 0.853614 0.518976
O O9 0.377089 0.576015 0.120359
O O10 0.000000 0.500000 0.000000
O O11 0.629627 0.968296 0.981424
O O12 0.525790 0.102667 0.975236
O O13 0.227432 0.750000 0.418111
O O14 0.921677 0.648476 0.180726
O O15 0.608873 0.162288 0.161008
O O16 0.096402 0.750000 0.587109
#
# Coordination Sequence:
#
# PCOD8074404 Si02
#       7
#     4   4   4   4   4   4   4
#     4  11  22  39  63  88 121 159 207 256 298 365
#     4  10  23  40  59  85 125 162 196 247 314 368
#     4  12  23  38  62  92 123 158 209 251 306 359
#     4  10  20  37  59  86 122 155 198 255 303 353
#     4  10  22  41  60  87 124 161 199 250 307 363
#     4  10  20  35  60  89 115 156 202 250 302 356
#     4  11  21  37  62  90 119 161 207 250 307 366
#
# _framework density 20.044003
#
# number of rings (size 3 to 8) (size 9 to 14) (size 15 to 20)
#    0.000    1.429    2.857    3.000    0.000    1.714 
#    0.000    1.429    0.000    0.000    0.000    0.000 
#    0.000    0.000    0.000    0.000    0.000    0.000 
#
# Total GULP energy -347275.552957 kJ/mol
# GULP energy per Si atom -12402.698320 kJ/mol
# Density = 1.999838 g / cm^3
# Si number density = 20.044003 Si / 1000 Ang^3
#
#
#
# Elastic Constant Matrix: (Units=GPa)
#
#
# Indices 1 2 3 4 5 6 
#
# 1 135.4474 54.0603 33.6862 0.0000 -15.5856 0.0000
# 2 54.0603 79.9675 17.1937 0.0000 -5.8420 0.0000
# 3 33.6862 17.1937 60.9433 0.0000 -12.7027 0.0000
# 4 0.0000 0.0000 0.0000 16.2274 0.0000 2.1138
# 5 -15.5856 -5.8420 -12.7027 0.0000 27.2156 0.0000
# 6 0.0000 0.0000 0.0000 2.1138 0.0000 26.0058
#
#
#
# Elastic Compliance Matrix: (Units=1/GPa)
#
#
# Indices 1 2 3 4 5 6 
#
# 1 0.011329 -0.006620 -0.003698 0.000000 0.003341 0.000000
# 2 -0.006620 0.017217 -0.001350 0.000000 -0.000725 0.000000
# 3 -0.003698 -0.001350 0.020307 0.000000 0.007071 0.000000
# 4 0.000000 0.000000 0.000000 0.062284 0.000000 -0.005062
# 5 0.003341 -0.000725 0.007071 0.000000 0.041802 0.000000
# 6 0.000000 0.000000 0.000000 -0.005062 0.000000 0.038864
#
#
# Mechanical properties :
#
#
# Convention : Reuss Voigt Hill
#
# Bulk Modulus (GPa) = 39.18644 54.02650 46.60647
# Shear Modulus (GPa) = 22.35688 25.31762 23.83725
#
# Velocity S-wave (km/s) = 3.34337 3.55787 3.45229
# Velocity P-wave (km/s) = 5.87340 6.62498 6.26048
#
# Compressibility (1/GPa) = 0.02551903
#
# Stress axis : x y z
#
# Youngs Moduli (GPa) = 88.26761 58.08096 49.24306
#
# Poissons Ratio (x) = 0.38447 0.18211
# Poissons Ratio (y) = 0.58430 0.06646
# Poissons Ratio (z) = 0.32644 0.07839
#
# Static dielectric constant tensor:
#      x y z
#    x 3.875070 0.000000 -0.134610 
#    y 0.000000 3.630540 0.000000 
#    z -0.134610 0.000000 3.599800 
# 
# 
# High freq. dielectric constant tensor:
#      x y z
#    x 1.796240 0.000000 -0.008680 
#    y 0.000000 1.784140 0.000000 
#    z -0.008680 0.000000 1.771830 
# 
# From -- ./inp_files/23245.got.cif
#   From: 2010.06.25/outbox.cif.g09.slc.cpg/sg11_12_cif.got.tgz:23245.got - 2010.06.27 23:14:04.
