data_PCOD8074760
_publ_section_title
;
Structure prediction by ZEFSAII (Michael W. Deem and Ramdas Pophale) SiO2 
 PCOD8074760
Probable space group: P 21/M
;
_chemical_formula_sum "Si O2"
_cell_formula_units_Z 28
_cell_length_a 29.144210
_cell_length_b 8.928453
_cell_length_c 9.334555
_cell_angle_alpha 90.000000
_cell_angle_beta 142.853313
_cell_angle_gamma 90.000000
_cell_volume 1466.752125
_symmetry_space_group_name_H-M "P 21/M"
_symmetry_group_IT_number 11
_symmetry_cell_setting 'monoclinic'
loop_
_space_group_symop_operation_xyz
x,y,z
-x,1/2+y,-z
-x,-y,-z
x,1/2-y,z
loop_
_atom_site_type_symbol
_atom_site_label
_atom_site_fract_x
_atom_site_fract_y
_atom_site_fract_z
Si Si1 0.934052 0.424338 0.746927
Si Si2 0.196098 0.076525 0.084045
Si Si3 0.628508 0.580131 0.490122
Si Si4 0.069259 0.927972 0.588270
Si Si5 0.362830 0.425252 0.815054
Si Si6 0.792751 0.425349 0.587872
Si Si7 0.503537 0.425701 0.356114
O O1 0.950715 0.250000 0.792551
O O2 0.934511 0.482705 0.585202
O O3 0.852784 0.462493 0.613457
O O4 0.000000 0.500000 0.000000
O O5 0.171545 0.250000 0.024577
O O6 0.283210 0.057232 0.254376
O O7 0.181775 0.012143 0.206378
O O8 0.147885 0.985593 0.849106
O O9 0.603310 0.750000 0.459833
O O10 0.612632 0.538936 0.285938
O O11 0.581012 0.469387 0.470410
O O12 0.065531 0.750000 0.592338
O O13 0.000000 0.000000 0.500000
O O14 0.343985 0.250000 0.785357
O O15 0.288246 0.518082 0.671862
O O16 0.430967 0.480291 0.084983
O O17 0.788514 0.250000 0.612716
O O18 0.500000 0.500000 0.500000
O O19 0.501970 0.250000 0.372093
#
# Coordination Sequence:
#
# PCOD8074760 Si02
#       7
#     4   4   4   4   4   4   4
#     4  10  23  39  56  81 112 144 182 227 274 325
#     4  10  21  38  59  85 115 147 183 227 277 331
#     4   9  19  37  59  82 110 143 184 230 277 330
#     4  11  23  39  58  83 114 148 188 233 279 330
#     4   9  20  38  58  82 111 145 184 228 277 331
#     4  10  20  36  59  86 112 142 182 228 276 330
#     4  11  23  37  55  81 114 149 187 231 280 331
#
# _framework density 19.089797000000001
#
# number of rings (size 3 to 8) (size 9 to 14) (size 15 to 20)
#    0.000    2.000    0.000    3.857    0.000    9.714 
#    0.000    2.857    0.000    0.000    0.000    0.000 
#    0.000    0.000    0.000    0.000    0.000    0.000 
#
# Total GULP energy -347325.871863 kJ/mol
# GULP energy per Si atom -12404.495424 kJ/mol
# Density = 1.904635 g / cm^3
# Si number density = 19.089797 Si / 1000 Ang^3
#
#
#
# Elastic Constant Matrix: (Units=GPa)
#
#
# Indices 1 2 3 4 5 6 
#
# 1 143.6634 58.3338 78.9635 0.0000 -4.3383 0.0000
# 2 58.3338 77.1327 53.1394 0.0000 0.2103 0.0000
# 3 78.9635 53.1394 147.0274 0.0000 -10.9615 0.0000
# 4 0.0000 0.0000 0.0000 37.5871 0.0000 2.8116
# 5 -4.3383 0.2103 -10.9615 0.0000 24.3093 0.0000
# 6 0.0000 0.0000 0.0000 2.8116 0.0000 35.0334
#
#
#
# Elastic Compliance Matrix: (Units=1/GPa)
#
#
# Indices 1 2 3 4 5 6 
#
# 1 0.011639 -0.006008 -0.004057 0.000000 0.000300 0.000000
# 2 -0.006008 0.020588 -0.004457 0.000000 -0.003260 0.000000
# 3 -0.004057 -0.004457 0.010907 0.000000 0.004233 0.000000
# 4 0.000000 0.000000 0.000000 0.026766 0.000000 -0.002148
# 5 0.000300 -0.003260 0.004233 0.000000 0.043127 0.000000
# 6 0.000000 0.000000 0.000000 -0.002148 0.000000 0.028717
#
#
# Mechanical properties :
#
#
# Convention : Reuss Voigt Hill
#
# Bulk Modulus (GPa) = 70.97741 83.18854 77.08298
# Shear Modulus (GPa) = 28.49234 31.21175 29.85204
#
# Velocity S-wave (km/s) = 3.86754 4.04790 3.95874
# Velocity P-wave (km/s) = 7.56342 8.09440 7.83341
#
# Compressibility (1/GPa) = 0.01408899
#
# Stress axis : x y z
#
# Youngs Moduli (GPa) = 85.91477 48.57126 91.68390
#
# Poissons Ratio (x) = 0.29183 0.37199
# Poissons Ratio (y) = 0.51620 0.40867
# Poissons Ratio (z) = 0.34858 0.21650
#
# Static dielectric constant tensor:
#      x y z
#    x 21.663720 0.000000 -4.740230 
#    y 0.000000 3.547520 0.000000 
#    z -4.740230 0.000000 5.088880 
# 
# 
# High freq. dielectric constant tensor:
#      x y z
#    x 1.745770 0.000000 0.003940 
#    y 0.000000 1.748150 0.000000 
#    z 0.003940 0.000000 1.752000 
# 
# From -- ./inp_files/28619.got.cif
#   From: 2010.06.25/outbox.cif.g09.slc.cpg/sg11_15_cif.got.tgz:28619.got - 2010.06.27 23:14:04.
