data_PCOD8074774
_publ_section_title
;
Structure prediction by ZEFSAII (Michael W. Deem and Ramdas Pophale) SiO2 
 PCOD8074774
Probable space group: P 21/M
;
_chemical_formula_sum "Si O2"
_cell_formula_units_Z 32
_cell_length_a 11.811649
_cell_length_b 9.023304
_cell_length_c 15.028131
_cell_angle_alpha 90.000000
_cell_angle_beta 91.565895
_cell_angle_gamma 90.000000
_cell_volume 1601.101558
_symmetry_space_group_name_H-M "P 21/M"
_symmetry_group_IT_number 11
_symmetry_cell_setting 'monoclinic'
loop_
_space_group_symop_operation_xyz
x,y,z
-x,1/2+y,-z
-x,-y,-z
x,1/2-y,z
loop_
_atom_site_type_symbol
_atom_site_label
_atom_site_fract_x
_atom_site_fract_y
_atom_site_fract_z
Si Si1 0.338856 0.425968 0.894004
Si Si2 0.833153 0.575435 0.556831
Si Si3 0.891481 0.581359 0.191152
Si Si4 0.463272 0.573768 0.232331
Si Si5 0.319165 0.081289 0.090983
Si Si6 0.956912 0.917974 0.384224
Si Si7 0.425628 0.071897 0.420054
Si Si8 0.052478 0.416707 0.083081
O O1 0.332592 0.250000 0.891508
O O2 0.218238 0.489965 0.858754
O O3 0.432477 0.481831 0.826489
O O4 0.366106 0.477027 0.996010
O O5 0.835198 0.750000 0.568095
O O6 0.876505 0.520875 0.461033
O O7 0.705090 0.519873 0.570825
O O8 0.925111 0.507112 0.626966
O O9 0.907340 0.750000 0.159418
O O10 0.877222 0.570711 0.296589
O O11 0.004480 0.491347 0.170877
O O12 0.462579 0.750000 0.248336
O O13 0.354397 0.524619 0.172930
O O14 0.469348 0.490616 0.326708
O O15 0.359818 0.250000 0.110260
O O16 0.185681 0.073180 0.083700
O O17 0.992806 0.750000 0.405193
O O18 0.437486 0.250000 0.423052
O O19 0.500000 0.000000 0.500000
O O20 0.009574 0.250000 0.078656
O O21 0.000000 0.500000 0.000000
#
# Coordination Sequence:
#
# PCOD8074774 Si02
#       8
#     4   4   4   4   4   4   4   4
#     4   9  19  38  62  86 118 160 201 247 302 353
#     4   9  20  39  61  84 116 154 191 236 296 353
#     4  10  20  36  59  86 118 154 195 242 295 353
#     4  11  24  40  64  92 118 156 204 248 296 356
#     4  10  21  40  62  85 121 161 198 246 301 353
#     4   9  19  35  61  90 114 148 192 241 290 349
#     4  11  25  44  65  89 121 159 198 246 300 355
#     4  11  22  37  58  84 118 157 195 238 293 350
#
# _framework density 19.986239999999999
#
# number of rings (size 3 to 8) (size 9 to 14) (size 15 to 20)
#    0.000    2.000    1.250    1.500    3.500    2.500 
#    0.000    1.875    0.000    0.000    0.000    0.000 
#    0.000    0.000    0.000    0.000    0.000    0.000 
#
# Total GULP energy -396705.558609 kJ/mol
# GULP energy per Si atom -12397.048707 kJ/mol
# Density = 1.994075 g / cm^3
# Si number density = 19.986240 Si / 1000 Ang^3
#
#
#
# Elastic Constant Matrix: (Units=GPa)
#
#
# Indices 1 2 3 4 5 6 
#
# 1 78.6892 35.6051 40.0916 0.0000 -3.8668 0.0000
# 2 35.6051 69.8469 40.5933 0.0000 0.0061 0.0000
# 3 40.0916 40.5933 126.9989 0.0000 3.9035 0.0000
# 4 0.0000 0.0000 0.0000 33.1411 0.0000 0.7022
# 5 -3.8668 0.0061 3.9035 0.0000 32.4923 0.0000
# 6 0.0000 0.0000 0.0000 0.7022 0.0000 30.7192
#
#
#
# Elastic Compliance Matrix: (Units=1/GPa)
#
#
# Indices 1 2 3 4 5 6 
#
# 1 0.017779 -0.007069 -0.003431 0.000000 0.002529 0.000000
# 2 -0.007069 0.020409 -0.004282 0.000000 -0.000331 0.000000
# 3 -0.003431 -0.004282 0.010376 0.000000 -0.001654 0.000000
# 4 0.000000 0.000000 0.000000 0.030189 0.000000 -0.000690
# 5 0.002529 -0.000331 -0.001654 0.000000 0.031276 0.000000
# 6 0.000000 0.000000 0.000000 -0.000690 0.000000 0.032569
#
#
# Mechanical properties :
#
#
# Convention : Reuss Voigt Hill
#
# Bulk Modulus (GPa) = 52.62805 56.45724 54.54265
# Shear Modulus (GPa) = 28.01185 29.88684 28.94935
#
# Velocity S-wave (km/s) = 3.74780 3.87120 3.81000
# Velocity P-wave (km/s) = 6.71694 6.94917 6.83404
#
# Compressibility (1/GPa) = 0.01900127
#
# Stress axis : x y z
#
# Youngs Moduli (GPa) = 56.24545 48.99766 96.37162
#
# Poissons Ratio (x) = 0.34639 0.33062
# Poissons Ratio (y) = 0.39763 0.41262
# Poissons Ratio (z) = 0.19296 0.20979
#
# Static dielectric constant tensor:
#      x y z
#    x 2.256560 0.000000 1.261960 
#    y 0.000000 3.838120 0.000000 
#    z 1.261960 0.000000 2.367560 
# 
# 
# High freq. dielectric constant tensor:
#      x y z
#    x 1.782670 0.000000 -0.002390 
#    y 0.000000 1.764730 0.000000 
#    z -0.002390 0.000000 1.790990 
# 
# From -- ./inp_files/49332.got.cif
#   From: 2010.06.25/outbox.cif.g09.slc.cpg/sg11_25_cif.got.tgz:49332.got - 2010.06.27 23:14:04.
