data_PCOD8074024
_publ_section_title
;
Structure prediction by ZEFSAII (Michael W. Deem and Ramdas Pophale) SiO2 
 PCOD8074024
Probable space group: P 21/M
;
_chemical_formula_sum "Si O2"
_cell_formula_units_Z 28
_cell_length_a 23.634530
_cell_length_b 8.706424
_cell_length_c 15.693646
_cell_angle_alpha 90.000000
_cell_angle_beta 26.969759
_cell_angle_gamma 90.000000
_cell_volume 1464.560213
_symmetry_space_group_name_H-M "P 21/M"
_symmetry_group_IT_number 11
_symmetry_cell_setting 'monoclinic'
loop_
_space_group_symop_operation_xyz
x,y,z
-x,1/2+y,-z
-x,-y,-z
x,1/2-y,z
loop_
_atom_site_type_symbol
_atom_site_label
_atom_site_fract_x
_atom_site_fract_y
_atom_site_fract_z
Si Si1 0.286122 0.431884 0.042887
Si Si2 0.184112 0.570768 0.732403
Si Si3 0.384802 0.568208 0.204379
Si Si4 0.056538 0.069559 0.243069
Si Si5 0.819373 0.568276 0.635926
Si Si6 0.561020 0.431022 0.679337
Si Si7 0.018387 0.928375 0.112091
O O1 0.293155 0.250000 0.040628
O O2 0.194744 0.480431 0.088696
O O3 0.233987 0.495237 0.202954
O O4 0.424846 0.501408 0.838507
O O5 0.167071 0.750000 0.732716
O O6 0.330258 0.521355 0.533354
O O7 0.110033 0.475537 0.760658
O O8 0.133401 0.534266 0.894498
O O9 0.387071 0.750000 0.193922
O O10 0.256003 0.504678 0.340935
O O11 0.395308 0.510938 0.287050
O O12 0.500000 0.500000 0.000000
O O13 0.035099 0.250000 0.282676
O O14 0.040213 0.025412 0.167163
O O15 0.961688 0.983089 0.433166
O O16 0.808880 0.750000 0.644936
O O17 0.545759 0.250000 0.701407
O O18 0.012229 0.750000 0.144546
#
# Coordination Sequence:
#
# PCOD8074024 Si02
#       7
#     4   4   4   4   4   4   4
#     4   9  19  35  54  76 105 143 183 223 268 321
#     4   9  18  34  60  85 106 137 176 219 271 329
#     4  11  20  32  53  80 112 144 177 217 265 323
#     4  11  22  36  55  77 104 144 188 222 266 328
#     4  11  21  36  56  79 108 140 181 232 278 318
#     4   9  17  33  55  78 105 139 177 217 264 318
#     4  10  20  35  55  82 112 138 172 224 276 318
#
# _framework density 19.118366000000002
#
# number of rings (size 3 to 8) (size 9 to 14) (size 15 to 20)
#    0.000    2.000    1.429    3.000    0.000    1.714 
#    0.000    3.571    0.000    0.000    0.000    0.000 
#    0.000    0.000    0.000    0.000    0.000    0.000 
#
# Total GULP energy -347174.713216 kJ/mol
# GULP energy per Si atom -12399.096901 kJ/mol
# Density = 1.907485 g / cm^3
# Si number density = 19.118366 Si / 1000 Ang^3
#
#
#
# Elastic Constant Matrix: (Units=GPa)
#
#
# Indices 1 2 3 4 5 6 
#
# 1 70.6615 11.4558 45.4212 0.0000 -11.5264 0.0000
# 2 11.4558 41.7142 14.5085 0.0000 -3.6973 0.0000
# 3 45.4212 14.5085 151.0729 0.0000 -10.8624 0.0000
# 4 0.0000 0.0000 0.0000 25.4412 0.0000 -1.0511
# 5 -11.5264 -3.6973 -10.8624 0.0000 28.0629 0.0000
# 6 0.0000 0.0000 0.0000 -1.0511 0.0000 20.0729
#
#
#
# Elastic Compliance Matrix: (Units=1/GPa)
#
#
# Indices 1 2 3 4 5 6 
#
# 1 0.018686 -0.002934 -0.004950 0.000000 0.005372 0.000000
# 2 -0.002934 0.025422 -0.001445 0.000000 0.001585 0.000000
# 3 -0.004950 -0.001445 0.008318 0.000000 0.000996 0.000000
# 4 0.000000 0.000000 0.000000 0.039392 0.000000 0.002063
# 5 0.005372 0.001585 0.000996 0.000000 0.038435 0.000000
# 6 0.000000 0.000000 0.000000 0.002063 0.000000 0.049927
#
#
# Mechanical properties :
#
#
# Convention : Reuss Voigt Hill
#
# Bulk Modulus (GPa) = 29.61468 45.13552 37.37510
# Shear Modulus (GPa) = 23.79904 27.51961 25.65932
#
# Velocity S-wave (km/s) = 3.53204 3.79810 3.66748
# Velocity P-wave (km/s) = 5.67076 6.54934 6.12582
#
# Compressibility (1/GPa) = 0.03376703
#
# Stress axis : x y z
#
# Youngs Moduli (GPa) = 53.51661 39.33675 120.22117
#
# Poissons Ratio (x) = 0.11540 0.59509
# Poissons Ratio (y) = 0.15701 0.17377
# Poissons Ratio (z) = 0.26491 0.05686
#
# Static dielectric constant tensor:
#      x y z
#    x 3.620020 0.000000 -0.164840 
#    y 0.000000 3.304740 0.000000 
#    z -0.164840 0.000000 3.877090 
# 
# 
# High freq. dielectric constant tensor:
#      x y z
#    x 1.733360 0.000000 -0.005180 
#    y 0.000000 1.723020 0.000000 
#    z -0.005180 0.000000 1.757480 
# 
# From -- ./inp_files/37900.got.cif
#   From: 2010.06.25/outbox.cif.g09.slc.cpg/sg11_19_cif.got.tgz:37900.got - 2010.06.27 23:14:04.
