data_PCOD8074194
_publ_section_title
;
Structure prediction by ZEFSAII (Michael W. Deem and Ramdas Pophale) SiO2 
 PCOD8074194
Probable space group: P 21/M
;
_chemical_formula_sum "Si O2"
_cell_formula_units_Z 28
_cell_length_a 27.630754
_cell_length_b 9.122199
_cell_length_c 7.784390
_cell_angle_alpha 90.000000
_cell_angle_beta 134.774885
_cell_angle_gamma 90.000000
_cell_volume 1392.840935
_symmetry_space_group_name_H-M "P 21/M"
_symmetry_group_IT_number 11
_symmetry_cell_setting 'monoclinic'
loop_
_space_group_symop_operation_xyz
x,y,z
-x,1/2+y,-z
-x,-y,-z
x,1/2-y,z
loop_
_atom_site_type_symbol
_atom_site_label
_atom_site_fract_x
_atom_site_fract_y
_atom_site_fract_z
Si Si1 0.067234 0.913509 0.620199
Si Si2 0.668111 0.082220 0.612884
Si Si3 0.800215 0.580344 0.452607
Si Si4 0.800215 0.919656 0.048469
Si Si5 0.668111 0.082220 0.227673
Si Si6 0.428245 0.577806 0.320613
Si Si7 0.067234 0.586491 0.215973
O O1 0.064438 0.750000 0.693305
O O2 0.073696 0.903822 0.434241
O O3 0.132963 0.998562 0.857565
O O4 0.000000 0.000000 0.500000
O O5 0.688463 0.250000 0.705473
O O6 0.637582 0.067802 0.343955
O O7 0.612400 0.027169 0.610719
O O8 0.734983 0.983632 0.789967
O O9 0.807917 0.750000 0.518705
O O10 0.791125 0.555096 0.227813
O O11 0.734983 0.516368 0.384949
O O12 0.867037 0.498562 0.692748
O O13 0.807917 0.750000 0.020879
O O14 0.688463 0.250000 0.236842
O O15 0.612400 0.027169 0.951283
O O16 0.500000 0.500000 0.500000
O O17 0.441125 0.750000 0.352813
O O18 0.064438 0.750000 0.128885
O O19 0.000000 0.500000 0.000000
#
# Coordination Sequence:
#
# PCOD8074194 Si02
#       7
#     4   4   4   4   4   4   4
#     4  10  21  36  55  79 110 150 194 241 293 347
#     4  10  21  38  61  88 117 154 198 240 288 347
#     4  10  20  35  57  83 112 149 193 242 296 351
#     4  10  20  35  57  83 112 149 193 242 296 351
#     4  10  21  38  61  88 117 154 198 240 288 347
#     4  10  22  40  62  88 122 158 194 240 292 350
#     4  10  21  36  55  79 110 150 194 241 293 347
#
# _framework density 20.102798
#
# number of rings (size 3 to 8) (size 9 to 14) (size 15 to 20)
#    0.000    2.000    1.429    1.714    0.000    6.286 
#    0.000    0.000    0.000    0.000    0.000    0.000 
#    0.000    0.000    0.000    0.000    0.000    0.000 
#
# Total GULP energy -347270.235289 kJ/mol
# GULP energy per Si atom -12402.508403 kJ/mol
# Density = 2.005704 g / cm^3
# Si number density = 20.102798 Si / 1000 Ang^3
#
#
#
# Elastic Constant Matrix: (Units=GPa)
#
#
# Indices 1 2 3 4 5 6 
#
# 1 113.7639 55.2038 68.8485 0.0000 18.4295 0.0000
# 2 55.2038 125.3847 60.2423 0.0000 16.4910 0.0000
# 3 68.8485 60.2423 126.0809 0.0000 21.8844 0.0000
# 4 0.0000 0.0000 0.0000 35.1652 0.0000 11.6067
# 5 18.4295 16.4910 21.8844 0.0000 36.5807 0.0000
# 6 0.0000 0.0000 0.0000 11.6067 0.0000 31.6190
#
#
#
# Elastic Compliance Matrix: (Units=1/GPa)
#
#
# Indices 1 2 3 4 5 6 
#
# 1 0.014241 -0.003149 -0.005884 0.000000 -0.002235 0.000000
# 2 -0.003149 0.011169 -0.003368 0.000000 -0.001434 0.000000
# 3 -0.005884 -0.003368 0.013363 0.000000 -0.003512 0.000000
# 4 0.000000 0.000000 0.000000 0.032358 0.000000 -0.011878
# 5 -0.002235 -0.001434 -0.003512 0.000000 0.031210 0.000000
# 6 0.000000 0.000000 0.000000 -0.011878 0.000000 0.035987
#
#
# Mechanical properties :
#
#
# Convention : Reuss Voigt Hill
#
# Bulk Modulus (GPa) = 71.57739 81.53543 76.55641
# Shear Modulus (GPa) = 29.79969 32.73530 31.26750
#
# Velocity S-wave (km/s) = 3.85433 4.03972 3.94811
# Velocity P-wave (km/s) = 7.44921 7.89977 7.67780
#
# Compressibility (1/GPa) = 0.01397089
#
# Stress axis : x y z
#
# Youngs Moduli (GPa) = 70.21853 89.53625 74.83158
#
# Poissons Ratio (x) = 0.28195 0.44031
# Poissons Ratio (y) = 0.22112 0.25204
# Poissons Ratio (z) = 0.41317 0.30156
#
# Static dielectric constant tensor:
#      x y z
#    x 3.280760 0.000000 0.081240 
#    y 0.000000 3.551550 0.000000 
#    z 0.081240 0.000000 3.305540 
# 
# 
# High freq. dielectric constant tensor:
#      x y z
#    x 1.781650 0.000000 -0.001570 
#    y 0.000000 1.790100 0.000000 
#    z -0.001570 0.000000 1.781170 
# 
# From -- ./inp_files/29112.got.cif
#   From: 2010.06.25/outbox.cif.g09.slc.cpg/sg11_15_cif.got.tgz:29112.got - 2010.06.27 23:14:04.
