data_PCOD8074922
_publ_section_title
;
Structure prediction by ZEFSAII (Michael W. Deem and Ramdas Pophale) SiO2 
 PCOD8074922
Probable space group: P 21/M
;
_chemical_formula_sum "Si O2"
_cell_formula_units_Z 32
_cell_length_a 17.074396
_cell_length_b 13.071677
_cell_length_c 13.803582
_cell_angle_alpha 90.000000
_cell_angle_beta 146.668777
_cell_angle_gamma 90.000000
_cell_volume 1692.851754
_symmetry_space_group_name_H-M "P 21/M"
_symmetry_group_IT_number 11
_symmetry_cell_setting 'monoclinic'
loop_
_space_group_symop_operation_xyz
x,y,z
-x,1/2+y,-z
-x,-y,-z
x,1/2-y,z
loop_
_atom_site_type_symbol
_atom_site_label
_atom_site_fract_x
_atom_site_fract_y
_atom_site_fract_z
Si Si1 0.575900 0.133112 0.232890
Si Si2 0.274356 0.365149 0.834848
Si Si3 0.224870 0.517532 0.247162
Si Si4 0.784394 0.965405 0.424097
Si Si5 0.585293 0.965166 0.385654
Si Si6 0.097875 0.016855 0.809099
Si Si7 0.032564 0.129820 0.930736
Si Si8 0.294424 0.630842 0.126597
O O1 0.617110 0.250000 0.297274
O O2 0.537157 0.077152 0.294942
O O3 0.711552 0.075865 0.324163
O O4 0.443671 0.123583 0.023407
O O5 0.225555 0.250000 0.808537
O O6 0.237744 0.387959 0.686340
O O7 0.192394 0.442066 0.819664
O O8 0.356362 0.476019 0.445541
O O9 0.286024 0.588531 0.226400
O O10 0.123916 0.583917 0.212897
O O11 0.142808 0.419503 0.120129
O O12 0.950391 0.978229 0.613475
O O13 0.706892 0.918776 0.439813
O O14 0.450949 0.890022 0.246113
O O15 0.076128 0.106010 0.865618
O O16 0.174194 0.920017 0.935995
O O17 0.032344 0.250000 0.948272
O O18 0.262168 0.750000 0.093988
#
# Coordination Sequence:
#
# PCOD8074922 Si02
#       8
#     4   4   4   4   4   4   4   4
#     4   9  20  38  62  88 117 156 200 248 298 351
#     4  11  22  39  61  89 123 159 200 250 303 356
#     4  10  21  38  58  90 123 158 197 251 297 354
#     4  10  22  38  63  89 120 154 200 254 298 358
#     4  10  21  41  61  86 122 156 203 247 295 357
#     4  11  21  41  61  88 124 156 205 249 301 356
#     4  10  20  36  61  90 121 160 199 244 301 354
#     4  11  24  40  61  87 122 162 199 246 305 362
#
# _framework density 18.903015
#
# number of rings (size 3 to 8) (size 9 to 14) (size 15 to 20)
#    0.750    1.000    2.500    1.875    0.000    4.500 
#    0.000    1.875    0.000    0.000    0.000    0.000 
#    0.000    0.000    0.000    0.000    0.000    0.000 
#
# Total GULP energy -396825.809584 kJ/mol
# GULP energy per Si atom -12400.806549 kJ/mol
# Density = 1.885999 g / cm^3
# Si number density = 18.903015 Si / 1000 Ang^3
#
#
#
# Elastic Constant Matrix: (Units=GPa)
#
#
# Indices 1 2 3 4 5 6 
#
# 1 77.3955 20.4079 26.3513 0.0000 -7.4855 0.0000
# 2 20.4079 58.8352 29.6496 0.0000 -2.5613 0.0000
# 3 26.3513 29.6496 119.5162 0.0000 -10.2354 0.0000
# 4 0.0000 0.0000 0.0000 12.9263 0.0000 -3.4935
# 5 -7.4855 -2.5613 -10.2354 0.0000 28.2677 0.0000
# 6 0.0000 0.0000 0.0000 -3.4935 0.0000 19.2439
#
#
#
# Elastic Compliance Matrix: (Units=1/GPa)
#
#
# Indices 1 2 3 4 5 6 
#
# 1 0.014958 -0.004029 -0.002054 0.000000 0.002852 0.000000
# 2 -0.004029 0.020510 -0.004264 0.000000 -0.000753 0.000000
# 3 -0.002054 -0.004264 0.010112 0.000000 0.002731 0.000000
# 4 0.000000 0.000000 0.000000 0.081353 0.000000 0.014769
# 5 0.002852 -0.000753 0.002731 0.000000 0.037052 0.000000
# 6 0.000000 0.000000 0.000000 0.014769 0.000000 0.054646
#
#
# Mechanical properties :
#
#
# Convention : Reuss Voigt Hill
#
# Bulk Modulus (GPa) = 40.18469 45.39607 42.79038
# Shear Modulus (GPa) = 20.19214 24.04347 22.11780
#
# Velocity S-wave (km/s) = 3.27187 3.57029 3.42434
# Velocity P-wave (km/s) = 5.96473 6.40807 6.19037
#
# Compressibility (1/GPa) = 0.02488510
#
# Stress axis : x y z
#
# Youngs Moduli (GPa) = 66.85234 48.75575 98.89471
#
# Poissons Ratio (x) = 0.19644 0.20316
# Poissons Ratio (y) = 0.26936 0.42172
# Poissons Ratio (z) = 0.13733 0.20791
#
# Static dielectric constant tensor:
#      x y z
#    x 3.436580 0.000000 0.026260 
#    y 0.000000 3.280240 0.000000 
#    z 0.026260 0.000000 3.459210 
# 
# 
# High freq. dielectric constant tensor:
#      x y z
#    x 1.734100 0.000000 0.000200 
#    y 0.000000 1.721530 0.000000 
#    z 0.000200 0.000000 1.745540 
# 
# From -- ./inp_files/53672.got.cif
#   From: 2010.06.25/outbox.cif.g09.slc.cpg/sg11_27_cif.got.tgz:53672.got - 2010.06.27 23:14:04.
