data_PCOD8074722
_publ_section_title
;
Structure prediction by ZEFSAII (Michael W. Deem and Ramdas Pophale) SiO2 
 PCOD8074722
Probable space group: P 21/M
;
_chemical_formula_sum "Si O2"
_cell_formula_units_Z 24
_cell_length_a 15.011158
_cell_length_b 9.128120
_cell_length_c 9.299351
_cell_angle_alpha 90.000000
_cell_angle_beta 91.564419
_cell_angle_gamma 90.000000
_cell_volume 1273.756077
_symmetry_space_group_name_H-M "P 21/M"
_symmetry_group_IT_number 11
_symmetry_cell_setting 'monoclinic'
loop_
_space_group_symop_operation_xyz
x,y,z
-x,1/2+y,-z
-x,-y,-z
x,1/2-y,z
loop_
_atom_site_type_symbol
_atom_site_label
_atom_site_fract_x
_atom_site_fract_y
_atom_site_fract_z
Si Si1 0.240728 0.918363 0.139498
Si Si2 0.910264 0.419796 0.653516
Si Si3 0.595376 0.081936 0.648413
Si Si4 0.110868 0.421837 0.633613
Si Si5 0.418596 0.920879 0.680815
Si Si6 0.267580 0.423452 0.846937
O O1 0.245346 0.750000 0.087377
O O2 0.144964 0.954920 0.205220
O O3 0.314793 0.950570 0.262523
O O4 0.254481 0.026767 0.008985
O O5 0.903000 0.250000 0.612985
O O6 0.867894 0.505439 0.518014
O O7 0.012529 0.467566 0.684882
O O8 0.564196 0.250000 0.662902
O O9 0.613809 0.045039 0.482371
O O10 0.518686 0.978545 0.708487
O O11 0.118627 0.250000 0.611660
O O12 0.182175 0.477906 0.752713
O O13 0.416124 0.750000 0.717424
O O14 0.356183 0.004479 0.789068
O O15 0.278285 0.250000 0.842598
#
# Coordination Sequence:
#
# PCOD8074722 Si02
#       6
#     4   4   4   4   4   4
#     4  10  21  36  54  77 107 142 177 214 259 312
#     4   9  18  35  58  81 105 136 176 219 261 309
#     4   9  19  36  57  81 106 133 171 219 266 311
#     4   9  19  35  55  80 108 138 174 217 263 309
#     4  10  20  36  59  82 103 134 176 218 263 314
#     4  11  23  36  51  76 111 145 176 214 260 310
#
# _framework density 18.841909999999999
#
# number of rings (size 3 to 8) (size 9 to 14) (size 15 to 20)
#    0.000    2.333    0.000    2.000    0.000    6.000 
#    0.000    0.000    0.000    0.000    0.000    0.000 
#    0.000    0.000    0.000    0.000    0.000    0.000 
#
# Total GULP energy -297687.802762 kJ/mol
# GULP energy per Si atom -12403.658448 kJ/mol
# Density = 1.879903 g / cm^3
# Si number density = 18.841910 Si / 1000 Ang^3
#
#
#
# Elastic Constant Matrix: (Units=GPa)
#
#
# Indices 1 2 3 4 5 6 
#
# 1 72.2757 27.4171 25.1710 0.0000 -19.0136 0.0000
# 2 27.4171 54.3767 23.9070 0.0000 -12.3402 0.0000
# 3 25.1710 23.9070 63.2677 0.0000 -20.7804 0.0000
# 4 0.0000 0.0000 0.0000 34.9023 0.0000 -2.4571
# 5 -19.0136 -12.3402 -20.7804 0.0000 27.0571 0.0000
# 6 0.0000 0.0000 0.0000 -2.4571 0.0000 23.8794
#
#
#
# Elastic Compliance Matrix: (Units=1/GPa)
#
#
# Indices 1 2 3 4 5 6 
#
# 1 0.019562 -0.006847 -0.002282 0.000000 0.008871 0.000000
# 2 -0.006847 0.024946 -0.006079 0.000000 0.001897 0.000000
# 3 -0.002282 -0.006079 0.023502 0.000000 0.013674 0.000000
# 4 0.000000 0.000000 0.000000 0.028861 0.000000 0.002970
# 5 0.008871 0.001897 0.013674 0.000000 0.054560 0.000000
# 6 0.000000 0.000000 0.000000 0.002970 0.000000 0.042183
#
#
# Mechanical properties :
#
#
# Convention : Reuss Voigt Hill
#
# Bulk Modulus (GPa) = 26.59984 38.10114 32.35049
# Shear Modulus (GPa) = 21.13639 24.72941 22.93290
#
# Velocity S-wave (km/s) = 3.35293 3.62673 3.49251
# Velocity P-wave (km/s) = 5.39792 6.14841 5.78535
#
# Compressibility (1/GPa) = 0.03759420
#
# Stress axis : x y z
#
# Youngs Moduli (GPa) = 51.12076 40.08719 42.54951
#
# Poissons Ratio (x) = 0.27446 0.09708
# Poissons Ratio (y) = 0.35001 0.25867
# Poissons Ratio (z) = 0.11663 0.24370
#
# Static dielectric constant tensor:
#      x y z
#    x 3.619070 0.000000 0.007990 
#    y 0.000000 3.423390 0.000000 
#    z 0.007990 0.000000 3.350530 
# 
# 
# High freq. dielectric constant tensor:
#      x y z
#    x 1.742550 0.000000 -0.003910 
#    y 0.000000 1.731280 0.000000 
#    z -0.003910 0.000000 1.723850 
# 
# From -- ./inp_files/20538.got.cif
#   From: 2010.06.25/outbox.cif.g09.slc.cpg/sg11_11_cif.got.tgz:20538.got - 2010.06.27 23:14:04.
