data_PCOD8074633
_publ_section_title
;
Structure prediction by ZEFSAII (Michael W. Deem and Ramdas Pophale) SiO2 
 PCOD8074633
Probable space group: P 21/M
;
_chemical_formula_sum "Si O2"
_cell_formula_units_Z 24
_cell_length_a 18.171996
_cell_length_b 15.120123
_cell_length_c 4.967294
_cell_angle_alpha 90.000000
_cell_angle_beta 107.010932
_cell_angle_gamma 90.000000
_cell_volume 1305.115042
_symmetry_space_group_name_H-M "P 21/M"
_symmetry_group_IT_number 11
_symmetry_cell_setting 'monoclinic'
loop_
_space_group_symop_operation_xyz
x,y,z
-x,1/2+y,-z
-x,-y,-z
x,1/2-y,z
loop_
_atom_site_type_symbol
_atom_site_label
_atom_site_fract_x
_atom_site_fract_y
_atom_site_fract_z
Si Si1 0.329267 0.998547 0.585110
Si Si2 0.231773 0.476725 0.001715
Si Si3 0.921597 0.949034 0.381132
Si Si4 0.548336 0.350750 0.166274
Si Si5 0.554324 0.851183 0.441732
Si Si6 0.127248 0.351040 0.135797
O O1 0.380363 0.913893 0.703816
O O2 0.270045 0.967186 0.285977
O O3 0.375999 0.081906 0.522400
O O4 0.288530 0.031445 0.811873
O O5 0.211922 0.379939 0.112817
O O6 0.148008 0.513335 0.807095
O O7 0.894582 0.908710 0.631316
O O8 0.934079 0.871645 0.170360
O O9 0.000000 0.000000 0.500000
O O10 0.578309 0.250000 0.219891
O O11 0.478851 0.367894 0.297689
O O12 0.514970 0.372265 0.837292
O O13 0.583047 0.750000 0.434808
O O14 0.127247 0.250000 0.220477
#
# Coordination Sequence:
#
# PCOD8074633 Si02
#       6
#     4   4   4   4   4   4
#     4  12  20  35  56  82 113 147 187 234 288 333
#     4  10  22  34  54  87 110 147 183 220 283 345
#     4  10  20  38  60  82 112 155 184 222 265 339
#     4  10  21  37  55  75 104 149 199 236 278 332
#     4  10  21  35  52  79 109 144 187 235 286 335
#     4  10  20  36  57  86 115 143 183 227 278 339
#
# _framework density 18.389185000000001
#
# number of rings (size 3 to 8) (size 9 to 14) (size 15 to 20)
#    1.000    0.667    1.667    4.000    0.000    1.333 
#    0.000    0.000    0.000    6.000    0.000    0.000 
#    0.000    0.000    0.000    0.000    0.000    0.000 
#
# Total GULP energy -297340.554896 kJ/mol
# GULP energy per Si atom -12389.189787 kJ/mol
# Density = 1.834733 g / cm^3
# Si number density = 18.389185 Si / 1000 Ang^3
#
#
#
# Elastic Constant Matrix: (Units=GPa)
#
#
# Indices 1 2 3 4 5 6 
#
# 1 87.4082 46.7771 41.3679 0.0000 2.5329 0.0000
# 2 46.7771 64.0976 24.0991 0.0000 3.6217 0.0000
# 3 41.3679 24.0991 95.6420 0.0000 -9.5110 0.0000
# 4 0.0000 0.0000 0.0000 21.7416 0.0000 1.0913
# 5 2.5329 3.6217 -9.5110 0.0000 33.0650 0.0000
# 6 0.0000 0.0000 0.0000 1.0913 0.0000 15.6159
#
#
#
# Elastic Compliance Matrix: (Units=1/GPa)
#
#
# Indices 1 2 3 4 5 6 
#
# 1 0.021516 -0.013276 -0.006156 0.000000 -0.001965 0.000000
# 2 -0.013276 0.025767 -0.000957 0.000000 -0.002081 0.000000
# 3 -0.006156 -0.000957 0.013812 0.000000 0.004549 0.000000
# 4 0.000000 0.000000 0.000000 0.046157 0.000000 -0.003226
# 5 -0.001965 -0.002081 0.004549 0.000000 0.031930 0.000000
# 6 0.000000 0.000000 0.000000 -0.003226 0.000000 0.064263
#
#
# Mechanical properties :
#
#
# Convention : Reuss Voigt Hill
#
# Bulk Modulus (GPa) = 49.22301 52.40399 50.81350
# Shear Modulus (GPa) = 19.92052 23.07809 21.49931
#
# Velocity S-wave (km/s) = 3.29488 3.54642 3.42296
# Velocity P-wave (km/s) = 6.42655 6.73264 6.58137
#
# Compressibility (1/GPa) = 0.02031570
#
# Stress axis : x y z
#
# Youngs Moduli (GPa) = 46.47675 38.80865 72.40021
#
# Poissons Ratio (x) = 0.51524 0.44573
# Poissons Ratio (y) = 0.61704 0.06930
# Poissons Ratio (z) = 0.28613 0.03715
#
# Static dielectric constant tensor:
#      x y z
#    x 3.348640 0.000000 -0.042490 
#    y 0.000000 3.298440 0.000000 
#    z -0.042490 0.000000 3.818870 
# 
# 
# High freq. dielectric constant tensor:
#      x y z
#    x 1.702540 0.000000 -0.012190 
#    y 0.000000 1.676680 0.000000 
#    z -0.012190 0.000000 1.745310 
# 
# From -- ./inp_files/7831.got.cif
#   From: 2010.06.25/outbox.cif.g09.slc.cpg/sg11_4_cif.got.tgz:7831.got - 2010.06.27 23:14:04.
