data_PCOD8074643
_publ_section_title
;
Structure prediction by ZEFSAII (Michael W. Deem and Ramdas Pophale) SiO2 
 PCOD8074643
Probable space group: P 21/M
;
_chemical_formula_sum "Si O2"
_cell_formula_units_Z 32
_cell_length_a 24.074858
_cell_length_b 8.523188
_cell_length_c 15.096794
_cell_angle_alpha 90.000000
_cell_angle_beta 150.065121
_cell_angle_gamma 90.000000
_cell_volume 1545.839701
_symmetry_space_group_name_H-M "P 21/M"
_symmetry_group_IT_number 11
_symmetry_cell_setting 'monoclinic'
loop_
_space_group_symop_operation_xyz
x,y,z
-x,1/2+y,-z
-x,-y,-z
x,1/2-y,z
loop_
_atom_site_type_symbol
_atom_site_label
_atom_site_fract_x
_atom_site_fract_y
_atom_site_fract_z
Si Si1 0.518482 0.434982 0.776087
Si Si2 0.076865 0.064241 0.267899
Si Si3 0.401914 0.935211 0.919962
Si Si4 0.182972 0.070046 0.594392
Si Si5 0.275615 0.563005 0.048523
Si Si6 0.118370 0.570997 0.679873
Si Si7 0.175604 0.563073 0.096396
Si Si8 0.730556 0.563933 0.595797
O O1 0.505917 0.250000 0.752047
O O2 0.392758 0.505931 0.596709
O O3 0.578832 0.481252 0.950737
O O4 0.599856 0.494785 0.808205
O O5 0.081019 0.250000 0.265388
O O6 0.101874 0.015174 0.403613
O O7 0.172179 0.993606 0.334222
O O8 0.952650 0.002187 0.075154
O O9 0.382132 0.750000 0.881005
O O10 0.309256 0.041112 0.741914
O O11 0.500000 0.000000 0.000000
O O12 0.157663 0.250000 0.585800
O O13 0.180796 0.951938 0.674214
O O14 0.273126 0.750000 0.040363
O O15 0.186110 0.492804 0.854522
O O16 0.238074 0.504418 0.093533
O O17 0.102861 0.750000 0.682744
O O18 0.000000 0.500000 0.500000
O O19 0.178619 0.750000 0.107304
O O20 0.243094 0.485180 0.268293
O O21 0.729895 0.750000 0.585809
#
# Coordination Sequence:
#
# PCOD8074643 Si02
#       8
#     4   4   4   4   4   4   4   4
#     4   9  18  35  57  78 107 150 190 224 277 352
#     4   9  19  36  56  80 112 151 187 222 283 361
#     4  11  21  36  57  83 115 153 194 234 281 342
#     4  11  21  36  58  86 115 149 192 234 282 343
#     4   9  18  35  57  78 107 150 190 224 277 352
#     4  11  21  36  57  83 115 153 194 234 281 342
#     4  10  20  36  58  80 106 143 188 236 284 339
#     4  10  20  36  58  80 106 143 188 236 284 339
#
# _framework density 20.700723
#
# number of rings (size 3 to 8) (size 9 to 14) (size 15 to 20)
#    0.000    2.000    1.250    3.000    0.000    4.500 
#    0.000    7.500    0.000    0.000    0.000    0.000 
#    0.000    0.000    0.000    0.000    0.000    0.000 
#
# Total GULP energy -396514.928956 kJ/mol
# GULP energy per Si atom -12391.091530 kJ/mol
# Density = 2.065361 g / cm^3
# Si number density = 20.700723 Si / 1000 Ang^3
#
#
#
# Elastic Constant Matrix: (Units=GPa)
#
#
# Indices 1 2 3 4 5 6 
#
# 1 110.9355 12.1549 27.5686 0.0000 8.6158 0.0000
# 2 12.1549 21.0759 16.1770 0.0000 -2.1399 0.0000
# 3 27.5686 16.1770 117.6410 0.0000 6.6432 0.0000
# 4 0.0000 0.0000 0.0000 25.0426 0.0000 -3.0858
# 5 8.6158 -2.1399 6.6432 0.0000 40.5715 0.0000
# 6 0.0000 0.0000 0.0000 -3.0858 0.0000 24.0794
#
#
#
# Elastic Compliance Matrix: (Units=1/GPa)
#
#
# Indices 1 2 3 4 5 6 
#
# 1 0.010103 -0.004829 -0.001583 0.000000 -0.002141 0.000000
# 2 -0.004829 0.056016 -0.006859 0.000000 0.005103 0.000000
# 3 -0.001583 -0.006859 0.009908 0.000000 -0.001648 0.000000
# 4 0.000000 0.000000 0.000000 0.040573 0.000000 0.005199
# 5 -0.002141 0.005103 -0.001648 0.000000 0.025642 0.000000
# 6 0.000000 0.000000 0.000000 0.005199 0.000000 0.042196
#
#
# Mechanical properties :
#
#
# Convention : Reuss Voigt Hill
#
# Bulk Modulus (GPa) = 20.20850 40.16147 30.18499
# Shear Modulus (GPa) = 21.98062 30.85548 26.41805
#
# Velocity S-wave (km/s) = 3.26211 3.86495 3.57626
# Velocity P-wave (km/s) = 4.89611 6.27378 5.62726
#
# Compressibility (1/GPa) = 0.04948413
#
# Stress axis : x y z
#
# Youngs Moduli (GPa) = 98.98109 17.85210 100.93249
#
# Poissons Ratio (x) = 0.08621 0.15974
# Poissons Ratio (y) = 0.47800 0.69233
# Poissons Ratio (z) = 0.15665 0.12245
#
# Static dielectric constant tensor:
#      x y z
#    x 3.715790 0.000000 0.554360 
#    y 0.000000 3.329860 0.000000 
#    z 0.554360 0.000000 3.115440 
# 
# 
# High freq. dielectric constant tensor:
#      x y z
#    x 1.825280 0.000000 0.012070 
#    y 0.000000 1.760760 0.000000 
#    z 0.012070 0.000000 1.824230 
# 
# From -- ./inp_files/55717.got.cif
#   From: 2010.06.25/outbox.cif.g09.slc.cpg/sg11_28_cif.got.tgz:55717.got - 2010.06.27 23:14:04.
