data_PCOD8074406
_publ_section_title
;
Structure prediction by ZEFSAII (Michael W. Deem and Ramdas Pophale) SiO2 
 PCOD8074406
Probable space group: P 21/M
;
_chemical_formula_sum "Si O2"
_cell_formula_units_Z 28
_cell_length_a 21.265079
_cell_length_b 8.872739
_cell_length_c 15.612023
_cell_angle_alpha 90.000000
_cell_angle_beta 28.426100
_cell_angle_gamma 90.000000
_cell_volume 1402.211516
_symmetry_space_group_name_H-M "P 21/M"
_symmetry_group_IT_number 11
_symmetry_cell_setting 'monoclinic'
loop_
_space_group_symop_operation_xyz
x,y,z
-x,1/2+y,-z
-x,-y,-z
x,1/2-y,z
loop_
_atom_site_type_symbol
_atom_site_label
_atom_site_fract_x
_atom_site_fract_y
_atom_site_fract_z
Si Si1 0.524028 0.428120 0.064289
Si Si2 0.102756 0.421542 0.683988
Si Si3 0.016437 0.076567 0.604461
Si Si4 0.105346 0.921102 0.932968
Si Si5 0.602872 0.073102 0.441349
Si Si6 0.361865 0.925428 0.409070
Si Si7 0.794209 0.923540 0.779857
O O1 0.512470 0.250000 0.067399
O O2 0.418964 0.480633 0.261212
O O3 0.500000 0.500000 0.000000
O O4 0.665686 0.473733 0.931115
O O5 0.154903 0.250000 0.628818
O O6 0.207752 0.530457 0.604631
O O7 0.089719 0.474297 0.602168
O O8 0.955564 0.434536 0.899171
O O9 0.971138 0.250000 0.661308
O O10 0.124489 0.046847 0.403096
O O11 0.885953 0.975297 0.748677
O O12 0.118259 0.750000 0.885827
O O13 0.251393 0.994034 0.755114
O O14 0.000000 0.000000 0.000000
O O15 0.599897 0.250000 0.427480
O O16 0.568529 0.038105 0.582583
O O17 0.500000 0.000000 0.500000
O O18 0.375665 0.750000 0.370790
O O19 0.752544 0.750000 0.841425
#
# Coordination Sequence:
#
# PCOD8074406 Si02
#       7
#     4   4   4   4   4   4   4
#     4  12  25  41  62  88 120 159 203 249 305 367
#     4  10  20  35  60  89 117 154 204 252 302 363
#     4   9  19  35  55  83 117 154 196 243 294 355
#     4  10  20  37  60  87 118 153 198 250 304 360
#     4  10  23  41  61  90 128 168 210 259 314 373
#     4  11  23  40  61  88 124 161 205 257 308 369
#     4  10  20  36  57  82 118 157 197 243 296 355
#
# _framework density 19.968456
#
# number of rings (size 3 to 8) (size 9 to 14) (size 15 to 20)
#    0.000    1.714    1.429    3.000    0.000    5.143 
#    0.000    1.429    0.000    0.000    0.000    0.000 
#    0.000    0.000    0.000    0.000    0.000    0.000 
#
# Total GULP energy -347187.619263 kJ/mol
# GULP energy per Si atom -12399.557831 kJ/mol
# Density = 1.992301 g / cm^3
# Si number density = 19.968456 Si / 1000 Ang^3
#
#
#
# Elastic Constant Matrix: (Units=GPa)
#
#
# Indices 1 2 3 4 5 6 
#
# 1 118.8773 43.1686 52.4120 0.0000 -5.6882 0.0000
# 2 43.1686 90.2262 46.0025 0.0000 -1.4271 0.0000
# 3 52.4120 46.0025 97.3123 0.0000 -10.1301 0.0000
# 4 0.0000 0.0000 0.0000 31.3155 0.0000 -5.4475
# 5 -5.6882 -1.4271 -10.1301 0.0000 31.2481 0.0000
# 6 0.0000 0.0000 0.0000 -5.4475 0.0000 36.3385
#
#
#
# Elastic Compliance Matrix: (Units=1/GPa)
#
#
# Indices 1 2 3 4 5 6 
#
# 1 0.011673 -0.003157 -0.004749 0.000000 0.000441 0.000000
# 2 -0.003157 0.015537 -0.005827 0.000000 -0.001754 0.000000
# 3 -0.004749 -0.005827 0.016011 0.000000 0.004060 0.000000
# 4 0.000000 0.000000 0.000000 0.032788 0.000000 0.004915
# 5 0.000441 -0.001754 0.004060 0.000000 0.033318 0.000000
# 6 0.000000 0.000000 0.000000 0.004915 0.000000 0.028256
#
#
# Mechanical properties :
#
#
# Convention : Reuss Voigt Hill
#
# Bulk Modulus (GPa) = 63.46912 65.50911 64.48912
# Shear Modulus (GPa) = 29.35976 30.76927 30.06451
#
# Velocity S-wave (km/s) = 3.83862 3.92968 3.88442
# Velocity P-wave (km/s) = 7.17637 7.31214 7.24457
#
# Compressibility (1/GPa) = 0.01575569
#
# Stress axis : x y z
#
# Youngs Moduli (GPa) = 85.66594 64.36307 62.45622
#
# Poissons Ratio (x) = 0.20318 0.29660
# Poissons Ratio (y) = 0.27043 0.36394
# Poissons Ratio (z) = 0.40682 0.37505
#
# Static dielectric constant tensor:
#      x y z
#    x 3.731840 0.000000 0.100710 
#    y 0.000000 3.564740 0.000000 
#    z 0.100710 0.000000 4.009890 
# 
# 
# High freq. dielectric constant tensor:
#      x y z
#    x 1.782960 0.000000 0.002800 
#    y 0.000000 1.774390 0.000000 
#    z 0.002800 0.000000 1.784660 
# 
# From -- ./inp_files/54522.got.cif
#   From: 2010.06.25/outbox.cif.g09.slc.cpg/sg11_28_cif.got.tgz:54522.got - 2010.06.27 23:14:04.
