data_PCOD8074654
_publ_section_title
;
Structure prediction by ZEFSAII (Michael W. Deem and Ramdas Pophale) SiO2 
 PCOD8074654
Probable space group: P 21/M
;
_chemical_formula_sum "Si O2"
_cell_formula_units_Z 32
_cell_length_a 25.291686
_cell_length_b 8.882979
_cell_length_c 15.747182
_cell_angle_alpha 90.000000
_cell_angle_beta 150.322397
_cell_angle_gamma 90.000000
_cell_volume 1751.656430
_symmetry_space_group_name_H-M "P 21/M"
_symmetry_group_IT_number 11
_symmetry_cell_setting 'monoclinic'
loop_
_space_group_symop_operation_xyz
x,y,z
-x,1/2+y,-z
-x,-y,-z
x,1/2-y,z
loop_
_atom_site_type_symbol
_atom_site_label
_atom_site_fract_x
_atom_site_fract_y
_atom_site_fract_z
Si Si1 0.279694 0.579780 0.027481
Si Si2 0.551644 0.423233 0.152102
Si Si3 0.010144 0.572536 0.256539
Si Si4 0.801762 0.424701 0.900408
Si Si5 0.305202 0.071976 0.409009
Si Si6 0.956934 0.426254 0.355175
Si Si7 0.518353 0.924180 0.761701
Si Si8 0.227893 0.926735 0.466534
O O1 0.316798 0.750000 0.060130
O O2 0.169418 0.544622 0.825639
O O3 0.265473 0.554769 0.107613
O O4 0.366824 0.464453 0.115107
O O5 0.554993 0.250000 0.134072
O O6 0.480517 0.456752 0.136048
O O7 0.672232 0.481627 0.336809
O O8 0.500000 0.500000 0.000000
O O9 0.991405 0.750000 0.237240
O O10 0.015665 0.503078 0.357902
O O11 0.120477 0.531642 0.365002
O O12 0.917468 0.499681 0.070930
O O13 0.818308 0.250000 0.901485
O O14 0.736816 0.507104 0.737382
O O15 0.298998 0.250000 0.397769
O O16 0.427581 0.021844 0.589755
O O17 0.230460 0.011849 0.380409
O O18 0.983330 0.250000 0.389990
O O19 0.000000 0.500000 0.500000
O O20 0.492959 0.750000 0.708291
O O21 0.238417 0.750000 0.461765
#
# Coordination Sequence:
#
# PCOD8074654 Si02
#       8
#     4   4   4   4   4   4   4   4
#     4   9  20  37  56  79 106 140 181 222 266 317
#     4   9  19  35  53  76 105 138 174 213 262 313
#     4  10  20  36  58  82 108 141 182 226 272 323
#     4  10  21  38  57  79 111 144 176 221 271 321
#     4  11  22  36  57  82 107 140 182 223 265 319
#     4  10  21  37  56  80 112 147 184 227 272 320
#     4  10  21  37  56  79 109 142 176 220 272 322
#     4   9  20  38  56  77 109 144 178 221 271 321
#
# _framework density 18.268422000000001
#
# number of rings (size 3 to 8) (size 9 to 14) (size 15 to 20)
#    0.000    2.250    0.000    4.125    0.000    8.500 
#    0.000    3.750    0.000    0.000    0.000    0.000 
#    0.000    0.000    0.000    0.000    0.000    0.000 
#
# Total GULP energy -396884.898625 kJ/mol
# GULP energy per Si atom -12402.653082 kJ/mol
# Density = 1.822684 g / cm^3
# Si number density = 18.268422 Si / 1000 Ang^3
#
#
#
# Elastic Constant Matrix: (Units=GPa)
#
#
# Indices 1 2 3 4 5 6 
#
# 1 105.3401 62.0469 70.7010 0.0000 5.4273 0.0000
# 2 62.0469 107.2525 54.8276 0.0000 -2.2757 0.0000
# 3 70.7010 54.8276 98.4818 0.0000 -15.4693 0.0000
# 4 0.0000 0.0000 0.0000 36.7240 0.0000 -2.6205
# 5 5.4273 -2.2757 -15.4693 0.0000 38.2375 0.0000
# 6 0.0000 0.0000 0.0000 -2.6205 0.0000 35.4196
#
#
#
# Elastic Compliance Matrix: (Units=1/GPa)
#
#
# Indices 1 2 3 4 5 6 
#
# 1 0.023932 -0.006255 -0.015261 0.000000 -0.009943 0.000000
# 2 -0.006255 0.014861 -0.003743 0.000000 0.000258 0.000000
# 3 -0.015261 -0.003743 0.025093 0.000000 0.012095 0.000000
# 4 0.000000 0.000000 0.000000 0.027375 0.000000 0.002025
# 5 -0.009943 0.000258 0.012095 0.000000 0.032472 0.000000
# 6 0.000000 0.000000 0.000000 0.002025 0.000000 0.028383
#
#
# Mechanical properties :
#
#
# Convention : Reuss Voigt Hill
#
# Bulk Modulus (GPa) = 74.79227 76.24729 75.51978
# Shear Modulus (GPa) = 24.14429 30.30946 27.22687
#
# Velocity S-wave (km/s) = 3.63938 4.07765 3.86473
# Velocity P-wave (km/s) = 7.66092 7.99984 7.83221
#
# Compressibility (1/GPa) = 0.01337037
#
# Stress axis : x y z
#
# Youngs Moduli (GPa) = 41.78540 67.29061 39.85108
#
# Poissons Ratio (x) = 0.42088 0.60815
# Poissons Ratio (y) = 0.26135 0.14915
# Poissons Ratio (z) = 0.63767 0.25185
#
# Static dielectric constant tensor:
#      x y z
#    x 3.387070 0.000000 -0.002790 
#    y 0.000000 3.289090 0.000000 
#    z -0.002790 0.000000 3.426390 
# 
# 
# High freq. dielectric constant tensor:
#      x y z
#    x 1.710450 0.000000 -0.002070 
#    y 0.000000 1.718240 0.000000 
#    z -0.002070 0.000000 1.711730 
# 
# From -- ./inp_files/55668.got.cif
#   From: 2010.06.25/outbox.cif.g09.slc.cpg/sg11_28_cif.got.tgz:55668.got - 2010.06.27 23:14:04.
