data_PCOD8074866
_publ_section_title
;
Structure prediction by ZEFSAII (Michael W. Deem and Ramdas Pophale) SiO2 
 PCOD8074866
Probable space group: P 21/M
;
_chemical_formula_sum "Si O2"
_cell_formula_units_Z 28
_cell_length_a 11.883821
_cell_length_b 9.130367
_cell_length_c 12.775960
_cell_angle_alpha 90.000000
_cell_angle_beta 112.024013
_cell_angle_gamma 90.000000
_cell_volume 1285.079977
_symmetry_space_group_name_H-M "P 21/M"
_symmetry_group_IT_number 11
_symmetry_cell_setting 'monoclinic'
loop_
_space_group_symop_operation_xyz
x,y,z
-x,1/2+y,-z
-x,-y,-z
x,1/2-y,z
loop_
_atom_site_type_symbol
_atom_site_label
_atom_site_fract_x
_atom_site_fract_y
_atom_site_fract_z
Si Si1 0.313796 0.081225 0.467212
Si Si2 0.508636 0.580306 0.659910
Si Si3 0.119425 0.088864 0.029590
Si Si4 0.032981 0.075945 0.402333
Si Si5 0.618299 0.089101 0.069518
Si Si6 0.667468 0.409638 0.853059
Si Si7 0.164079 0.414343 0.800941
O O1 0.332973 0.250000 0.505181
O O2 0.378856 0.048344 0.379342
O O3 0.171635 0.040476 0.417244
O O4 0.380444 0.981012 0.575971
O O5 0.492193 0.750000 0.678529
O O6 0.543364 0.494404 0.778540
O O7 0.101466 0.250000 0.071195
O O8 0.154074 0.100597 0.921045
O O9 0.219218 0.011544 0.138439
O O10 0.000000 0.000000 0.000000
O O11 0.011262 0.250000 0.402533
O O12 0.000000 0.000000 0.500000
O O13 0.947134 0.007096 0.283858
O O14 0.589312 0.250000 0.109085
O O15 0.708828 0.999234 0.178093
O O16 0.682229 0.115347 0.981116
O O17 0.500000 0.000000 0.000000
O O18 0.672472 0.250000 0.798646
O O19 0.168005 0.250000 0.752497
#
# Coordination Sequence:
#
# PCOD8074866 Si02
#       7
#     4   4   4   4   4   4   4
#     4   9  21  40  59  83 115 153 194 245 302 355
#     4  10  20  36  60  89 116 150 194 244 299 358
#     4  10  21  36  56  85 118 152 190 233 284 348
#     4  11  24  42  63  87 119 159 205 253 304 361
#     4  10  21  38  60  85 116 155 196 240 293 349
#     4  10  21  36  55  83 116 150 188 234 287 346
#     4  10  22  40  60  86 118 153 197 244 292 349
#
# _framework density 21.788526000000001
#
# number of rings (size 3 to 8) (size 9 to 14) (size 15 to 20)
#    0.000    2.000    0.000    2.571    2.000    6.286 
#    0.000    1.429    0.000    0.000    0.000    0.000 
#    0.000    0.000    0.000    0.000    0.000    0.000 
#
# Total GULP energy -347089.488944 kJ/mol
# GULP energy per Si atom -12396.053177 kJ/mol
# Density = 2.173893 g / cm^3
# Si number density = 21.788526 Si / 1000 Ang^3
#
#
#
# Elastic Constant Matrix: (Units=GPa)
#
#
# Indices 1 2 3 4 5 6 
#
# 1 81.2885 48.0099 20.5554 0.0000 41.1066 0.0000
# 2 48.0099 200.7976 56.3873 0.0000 44.4680 0.0000
# 3 20.5554 56.3873 92.2734 0.0000 39.1561 0.0000
# 4 0.0000 0.0000 0.0000 40.4721 0.0000 11.1901
# 5 41.1066 44.4680 39.1561 0.0000 45.4139 0.0000
# 6 0.0000 0.0000 0.0000 11.1901 0.0000 34.6124
#
#
#
# Elastic Compliance Matrix: (Units=1/GPa)
#
#
# Indices 1 2 3 4 5 6 
#
# 1 0.025453 -0.002072 0.007115 0.000000 -0.027145 0.000000
# 2 -0.002072 0.006761 -0.002613 0.000000 -0.002492 0.000000
# 3 0.007115 -0.002613 0.019706 0.000000 -0.020873 0.000000
# 4 0.000000 0.000000 0.000000 0.027134 0.000000 -0.008772
# 5 -0.027145 -0.002492 -0.020873 0.000000 0.067026 0.000000
# 6 0.000000 0.000000 0.000000 -0.008772 0.000000 0.031727
#
#
# Mechanical properties :
#
#
# Convention : Reuss Voigt Hill
#
# Bulk Modulus (GPa) = 17.61156 69.36274 43.48715
# Shear Modulus (GPa) = 26.05857 40.72680 33.39269
#
# Velocity S-wave (km/s) = 3.46204 4.32810 3.91907
# Velocity P-wave (km/s) = 4.90729 7.54190 6.36246
#
# Compressibility (1/GPa) = 0.05678087
#
# Stress axis : x y z
#
# Youngs Moduli (GPa) = 39.28746 147.90388 50.74527
#
# Poissons Ratio (x) = 0.30653 -0.36106
# Poissons Ratio (y) = 0.08142 0.13258
# Poissons Ratio (z) = -0.27953 0.38641
#
# Static dielectric constant tensor:
#      x y z
#    x 3.601190 0.000000 0.323160 
#    y 0.000000 4.380970 0.000000 
#    z 0.323160 0.000000 3.561130 
# 
# 
# High freq. dielectric constant tensor:
#      x y z
#    x 1.842920 0.000000 0.018920 
#    y 0.000000 1.878080 0.000000 
#    z 0.018920 0.000000 1.850820 
# 
# From -- ./inp_files/49449.got.cif
#   From: 2010.06.25/outbox.cif.g09.slc.cpg/sg11_25_cif.got.tgz:49449.got - 2010.06.27 23:14:04.
