data_PCOD8074329
_publ_section_title
;
Structure prediction by ZEFSAII (Michael W. Deem and Ramdas Pophale) SiO2 
 PCOD8074329
Probable space group: P 21/M
;
_chemical_formula_sum "Si O2"
_cell_formula_units_Z 28
_cell_length_a 14.102263
_cell_length_b 8.591948
_cell_length_c 17.271261
_cell_angle_alpha 90.000000
_cell_angle_beta 136.407269
_cell_angle_gamma 90.000000
_cell_volume 1442.966311
_symmetry_space_group_name_H-M "P 21/M"
_symmetry_group_IT_number 11
_symmetry_cell_setting 'monoclinic'
loop_
_space_group_symop_operation_xyz
x,y,z
-x,1/2+y,-z
-x,-y,-z
x,1/2-y,z
loop_
_atom_site_type_symbol
_atom_site_label
_atom_site_fract_x
_atom_site_fract_y
_atom_site_fract_z
Si Si1 0.613293 0.568613 0.346763
Si Si2 0.228786 0.930674 0.426116
Si Si3 0.323534 0.070091 0.169808
Si Si4 0.879474 0.429426 0.067242
Si Si5 0.937701 0.431104 0.275519
Si Si6 0.831118 0.069328 0.781201
Si Si7 0.861112 0.566118 0.382281
O O1 0.580239 0.750000 0.320865
O O2 0.656721 0.528437 0.460338
O O3 0.479690 0.472788 0.242976
O O4 0.733733 0.515936 0.360091
O O5 0.255774 0.750000 0.457527
O O6 0.241170 0.973897 0.342816
O O7 0.078153 0.973776 0.367722
O O8 0.310484 0.250000 0.183713
O O9 0.274392 0.968228 0.213344
O O10 0.233308 0.034678 0.040946
O O11 0.850467 0.250000 0.030727
O O12 0.867131 0.464064 0.151315
O O13 0.030804 0.470101 0.125298
O O14 0.972850 0.250000 0.306508
O O15 0.836223 0.490998 0.282779
O O16 0.872203 0.250000 0.806833
O O17 0.872057 0.750000 0.381964
O O18 0.000000 0.500000 0.500000
#
# Coordination Sequence:
#
# PCOD8074329 Si02
#       7
#     4   4   4   4   4   4   4
#     4  11  24  40  58  83 118 156 192 236 290 346
#     4  10  20  35  58  87 117 151 191 237 286 340
#     4  12  25  40  59  83 114 155 197 240 290 344
#     4  10  21  39  62  87 117 152 194 241 286 338
#     4  10  20  35  59  89 118 150 189 237 289 337
#     4  10  21  38  61  88 117 151 194 240 287 340
#     4  11  22  36  60  89 118 151 190 236 287 345
#
# _framework density 19.404471999999998
#
# number of rings (size 3 to 8) (size 9 to 14) (size 15 to 20)
#    0.000    1.429    1.429    4.286    0.000    5.714 
#    0.000    0.714    0.000    0.000    0.000    0.000 
#    0.000    0.000    0.000    0.000    0.000    0.000 
#
# Total GULP energy -347372.846945 kJ/mol
# GULP energy per Si atom -12406.173105 kJ/mol
# Density = 1.936031 g / cm^3
# Si number density = 19.404472 Si / 1000 Ang^3
#
#
#
# Elastic Constant Matrix: (Units=GPa)
#
#
# Indices 1 2 3 4 5 6 
#
# 1 105.1202 27.3917 60.2468 0.0000 -8.3731 0.0000
# 2 27.3917 56.3615 26.4682 0.0000 -4.0306 0.0000
# 3 60.2468 26.4682 81.5303 0.0000 0.6239 0.0000
# 4 0.0000 0.0000 0.0000 35.1719 0.0000 -1.3809
# 5 -8.3731 -4.0306 0.6239 0.0000 24.7253 0.0000
# 6 0.0000 0.0000 0.0000 -1.3809 0.0000 31.4535
#
#
#
# Elastic Compliance Matrix: (Units=1/GPa)
#
#
# Indices 1 2 3 4 5 6 
#
# 1 0.017669 -0.002374 -0.012331 0.000000 0.005908 0.000000
# 2 -0.002374 0.021576 -0.005272 0.000000 0.002846 0.000000
# 3 -0.012331 -0.005272 0.023132 0.000000 -0.005619 0.000000
# 4 0.000000 0.000000 0.000000 0.028481 0.000000 0.001250
# 5 0.005908 0.002846 -0.005619 0.000000 0.043051 0.000000
# 6 0.000000 0.000000 0.000000 0.001250 0.000000 0.031848
#
#
# Mechanical properties :
#
#
# Convention : Reuss Voigt Hill
#
# Bulk Modulus (GPa) = 44.59749 52.35837 48.47793
# Shear Modulus (GPa) = 23.45375 26.86384 25.15879
#
# Velocity S-wave (km/s) = 3.48038 3.72481 3.60466
# Velocity P-wave (km/s) = 6.25969 6.74834 6.50860
#
# Compressibility (1/GPa) = 0.02242279
#
# Stress axis : x y z
#
# Youngs Moduli (GPa) = 56.59477 46.34853 43.22987
#
# Poissons Ratio (x) = 0.11003 0.53308
# Poissons Ratio (y) = 0.13435 0.22791
# Poissons Ratio (z) = 0.69789 0.24435
#
# Static dielectric constant tensor:
#      x y z
#    x 3.584410 0.000000 -0.229810 
#    y 0.000000 3.597990 0.000000 
#    z -0.229810 0.000000 3.522470 
# 
# 
# High freq. dielectric constant tensor:
#      x y z
#    x 1.750020 0.000000 -0.016680 
#    y 0.000000 1.769630 0.000000 
#    z -0.016680 0.000000 1.750740 
# 
# From -- ./inp_files/60150.got.cif
#   From: 2010.06.25/outbox.cif.g09.slc.cpg/sg11_31_cif.got.tgz:60150.got - 2010.06.27 23:14:04.
