data_PCOD8074552
_publ_section_title
;
Structure prediction by ZEFSAII (Michael W. Deem and Ramdas Pophale) SiO2 
 PCOD8074552
Probable space group: P 21/M
;
_chemical_formula_sum "Si O2"
_cell_formula_units_Z 28
_cell_length_a 9.135461
_cell_length_b 9.349240
_cell_length_c 29.032492
_cell_angle_alpha 90.000000
_cell_angle_beta 37.924029
_cell_angle_gamma 90.000000
_cell_volume 1524.035233
_symmetry_space_group_name_H-M "P 21/M"
_symmetry_group_IT_number 11
_symmetry_cell_setting 'monoclinic'
loop_
_space_group_symop_operation_xyz
x,y,z
-x,1/2+y,-z
-x,-y,-z
x,1/2-y,z
loop_
_atom_site_type_symbol
_atom_site_label
_atom_site_fract_x
_atom_site_fract_y
_atom_site_fract_z
Si Si1 0.419935 0.411343 0.063206
Si Si2 0.657451 0.584574 0.496912
Si Si3 0.656545 0.580657 0.768624
Si Si4 0.023577 0.419262 0.228080
Si Si5 0.210456 0.581276 0.354242
Si Si6 0.766107 0.409248 0.061566
Si Si7 0.519692 0.918785 0.634178
O O1 0.369531 0.250000 0.059260
O O2 0.181505 0.478283 0.146143
O O3 0.631947 0.416077 0.046753
O O4 0.500000 0.500000 0.000000
O O5 0.500000 0.500000 0.500000
O O6 0.602428 0.750000 0.502685
O O7 0.586619 0.539110 0.565830
O O8 0.931768 0.547712 0.420569
O O9 0.672918 0.750000 0.753898
O O10 0.872048 0.529248 0.748565
O O11 0.662395 0.490928 0.720599
O O12 0.407407 0.539369 0.854467
O O13 0.054284 0.250000 0.220274
O O14 0.752163 0.467332 0.289387
O O15 0.262715 0.750000 0.342201
O O16 0.310803 0.510247 0.375430
O O17 0.850161 0.250000 0.051845
O O18 0.000000 0.500000 0.000000
O O19 0.555296 0.750000 0.634612
#
# Coordination Sequence:
#
# PCOD8074552 Si02
#       7
#     4   4   4   4   4   4   4
#     4   9  18  33  51  74 102 132 168 213 259 306
#     4  10  22  38  58  82 107 138 177 216 260 313
#     4   9  18  36  58  76  99 140 184 217 256 314
#     4   8  16  33  56  76  96 128 177 222 250 294
#     4  11  23  36  51  80 115 139 166 215 268 310
#     4   9  19  34  53  77 105 137 177 220 263 312
#     4  10  20  36  57  79 103 138 178 213 255 313
#
# _framework density 18.37228
#
# number of rings (size 3 to 8) (size 9 to 14) (size 15 to 20)
#    0.000    2.571    0.000    3.429    0.000    5.143 
#    0.000    7.857    0.000    0.000    0.000    0.000 
#    0.000    0.000    0.000    0.000    0.000    0.000 
#
# Total GULP energy -347171.103502 kJ/mol
# GULP energy per Si atom -12398.967982 kJ/mol
# Density = 1.833046 g / cm^3
# Si number density = 18.372280 Si / 1000 Ang^3
#
#
#
# Elastic Constant Matrix: (Units=GPa)
#
#
# Indices 1 2 3 4 5 6 
#
# 1 115.5923 64.5858 70.2453 0.0000 8.4924 0.0000
# 2 64.5858 75.0686 60.2979 0.0000 3.8825 0.0000
# 3 70.2453 60.2979 130.7430 0.0000 12.9153 0.0000
# 4 0.0000 0.0000 0.0000 29.9592 0.0000 2.3405
# 5 8.4924 3.8825 12.9153 0.0000 30.8151 0.0000
# 6 0.0000 0.0000 0.0000 2.3405 0.0000 34.7769
#
#
#
# Elastic Compliance Matrix: (Units=1/GPa)
#
#
# Indices 1 2 3 4 5 6 
#
# 1 0.017977 -0.012324 -0.003796 0.000000 -0.001811 0.000000
# 2 -0.012324 0.029673 -0.007334 0.000000 0.002731 0.000000
# 3 -0.003796 -0.007334 0.013432 0.000000 -0.003659 0.000000
# 4 0.000000 0.000000 0.000000 0.033555 0.000000 -0.002258
# 5 -0.001811 0.002731 -0.003659 0.000000 0.034140 0.000000
# 6 0.000000 0.000000 0.000000 -0.002258 0.000000 0.028907
#
#
# Mechanical properties :
#
#
# Convention : Reuss Voigt Hill
#
# Bulk Modulus (GPa) = 70.54640 79.07356 74.80998
# Shear Modulus (GPa) = 23.88736 27.52858 25.70797
#
# Velocity S-wave (km/s) = 3.60972 3.87509 3.74475
# Velocity P-wave (km/s) = 7.47363 7.94700 7.71394
#
# Compressibility (1/GPa) = 0.01417507
#
# Stress axis : x y z
#
# Youngs Moduli (GPa) = 55.62793 33.70027 74.44947
#
# Poissons Ratio (x) = 0.41531 0.28261
# Poissons Ratio (y) = 0.68553 0.54600
# Poissons Ratio (z) = 0.21116 0.24715
#
# Static dielectric constant tensor:
#      x y z
#    x 3.322240 0.000000 -0.049620 
#    y 0.000000 3.240500 0.000000 
#    z -0.049620 0.000000 3.533440 
# 
# 
# High freq. dielectric constant tensor:
#      x y z
#    x 1.713590 0.000000 0.000180 
#    y 0.000000 1.691780 0.000000 
#    z 0.000180 0.000000 1.729570 
# 
# From -- ./inp_files/28320.got.cif
#   From: 2010.06.25/outbox.cif.g09.slc.cpg/sg11_15_cif.got.tgz:28320.got - 2010.06.27 23:14:04.
