data_PCOD8074988
_publ_section_title
;
Structure prediction by ZEFSAII (Michael W. Deem and Ramdas Pophale) SiO2 
 PCOD8074988
Probable space group: P 21/M
;
_chemical_formula_sum "Si O2"
_cell_formula_units_Z 28
_cell_length_a 27.735015
_cell_length_b 8.327677
_cell_length_c 28.896552
_cell_angle_alpha 90.000000
_cell_angle_beta 169.704147
_cell_angle_gamma 90.000000
_cell_volume 1192.883943
_symmetry_space_group_name_H-M "P 21/M"
_symmetry_group_IT_number 11
_symmetry_cell_setting 'monoclinic'
loop_
_space_group_symop_operation_xyz
x,y,z
-x,1/2+y,-z
-x,-y,-z
x,1/2-y,z
loop_
_atom_site_type_symbol
_atom_site_label
_atom_site_fract_x
_atom_site_fract_y
_atom_site_fract_z
Si Si1 0.239721 0.069675 0.639948
Si Si2 0.651298 0.936842 0.098288
Si Si3 0.881894 0.058993 0.936346
Si Si4 0.389135 0.071977 0.591728
Si Si5 0.045604 0.075096 0.359369
Si Si6 0.089449 0.250000 0.795284
Si Si7 0.530428 0.750000 0.759225
Si Si8 0.292068 0.065312 0.398041
O O1 0.228547 0.250000 0.647580
O O2 0.265532 0.059464 0.608275
O O3 0.502142 0.990952 0.910463
O O4 0.960214 0.990126 0.391279
O O5 0.643203 0.750000 0.092610
O O6 0.500000 0.000000 0.000000
O O7 0.876122 0.250000 0.932432
O O8 0.061408 0.986726 0.148153
O O9 0.582692 0.986703 0.660792
O O10 0.000000 0.000000 0.000000
O O11 0.537640 0.250000 0.728946
O O12 0.184140 0.078690 0.440486
O O13 0.224969 0.042324 0.389129
O O14 0.587798 0.917503 0.785541
O O15 0.891728 0.250000 0.220390
O O16 0.856265 0.914973 0.182827
O O17 0.779545 0.250000 0.518146
O O18 0.281339 0.250000 0.019491
O O19 0.308005 0.250000 0.399421
#
# Coordination Sequence:
#
# PCOD8074988 Si02
#       8
#     4   4   4   4   4   2   2   4
#     4  11  24  44  68 100 136 173 222 276 324 399
#     4  12  26  45  70  99 132 175 221 275 339 398
#     4  10  20  37  56  83 113 149 195 248 307 366
#     4   9  19  40  63  90 127 168 208 256 314 370
#     4   9  21  40  66  95 130 173 216 258 316 378
#     4  10  22  38  60  84 128 160 210 256 306 354
#     4  10  22  38  56  90 118 164 204 258 296 370
#     4   9  19  35  59  83 114 153 197 245 300 368
#
# _framework density 23.472528000000001
#
# number of rings (size 3 to 8) (size 9 to 14) (size 15 to 20)
#    0.000    2.000    0.000    2.571    2.000    5.143 
#    2.571    8.571    0.000    0.000    0.000    0.000 
#    0.000    0.000    0.000    0.000    0.000    0.000 
#
# Total GULP energy -346906.576949 kJ/mol
# GULP energy per Si atom -12389.520605 kJ/mol
# Density = 2.341910 g / cm^3
# Si number density = 23.472528 Si / 1000 Ang^3
#
#
#
# Elastic Constant Matrix: (Units=GPa)
#
#
# Indices 1 2 3 4 5 6 
#
# 1 108.6047 14.1071 16.7923 0.0000 -14.1943 0.0000
# 2 14.1071 202.3945 25.8451 0.0000 -29.5067 0.0000
# 3 16.7923 25.8451 111.2961 0.0000 -20.2439 0.0000
# 4 0.0000 0.0000 0.0000 21.2406 0.0000 -10.6335
# 5 -14.1943 -29.5067 -20.2439 0.0000 43.8580 0.0000
# 6 0.0000 0.0000 0.0000 -10.6335 0.0000 29.8908
#
#
#
# Elastic Compliance Matrix: (Units=1/GPa)
#
#
# Indices 1 2 3 4 5 6 
#
# 1 0.009716 -0.000179 -0.000955 0.000000 0.002584 0.000000
# 2 -0.000179 0.005526 -0.000645 0.000000 0.003362 0.000000
# 3 -0.000955 -0.000645 0.009982 0.000000 0.003865 0.000000
# 4 0.000000 0.000000 0.000000 0.057281 0.000000 0.020377
# 5 0.002584 0.003362 0.003865 0.000000 0.027683 0.000000
# 6 0.000000 0.000000 0.000000 0.020377 0.000000 0.040704
#
#
# Mechanical properties :
#
#
# Convention : Reuss Voigt Hill
#
# Bulk Modulus (GPa) = 46.15094 59.53158 52.84126
# Shear Modulus (GPa) = 30.92711 43.36793 37.14752
#
# Velocity S-wave (km/s) = 3.63380 4.30304 3.98250
# Velocity P-wave (km/s) = 6.10822 7.07852 6.61120
#
# Compressibility (1/GPa) = 0.02166803
#
# Stress axis : x y z
#
# Youngs Moduli (GPa) = 102.92102 180.96941 100.18306
#
# Poissons Ratio (x) = 0.03233 0.09563
# Poissons Ratio (y) = 0.01839 0.06459
# Poissons Ratio (z) = 0.09824 0.11667
#
# Static dielectric constant tensor:
#      x y z
#    x 4.302450 0.000000 -0.235550 
#    y 0.000000 5.366010 0.000000 
#    z -0.235550 0.000000 4.166210 
# 
# 
# High freq. dielectric constant tensor:
#      x y z
#    x 1.934020 0.000000 -0.019570 
#    y 0.000000 1.939660 0.000000 
#    z -0.019570 0.000000 1.912050 
# 
# From -- ./inp_files/73882.got.cif
#   From: 2010.06.25/outbox.cif.g09.slc.cpg/sg11_37_cif.got.tgz:73882.got - 2010.06.27 23:14:04.
