data_PCOD8074801
_publ_section_title
;
Structure prediction by ZEFSAII (Michael W. Deem and Ramdas Pophale) SiO2 
 PCOD8074801
Probable space group: P 21/M
;
_chemical_formula_sum "Si O2"
_cell_formula_units_Z 32
_cell_length_a 9.194421
_cell_length_b 14.151075
_cell_length_c 11.405972
_cell_angle_alpha 90.000000
_cell_angle_beta 93.898891
_cell_angle_gamma 90.000000
_cell_volume 1480.607078
_symmetry_space_group_name_H-M "P 21/M"
_symmetry_group_IT_number 11
_symmetry_cell_setting 'monoclinic'
loop_
_space_group_symop_operation_xyz
x,y,z
-x,1/2+y,-z
-x,-y,-z
x,1/2-y,z
loop_
_atom_site_type_symbol
_atom_site_label
_atom_site_fract_x
_atom_site_fract_y
_atom_site_fract_z
Si Si1 0.801697 0.487027 0.218879
Si Si2 0.393376 0.357313 0.706608
Si Si3 0.709305 0.455674 0.965392
Si Si4 0.441827 0.356478 0.053248
Si Si5 0.729621 0.361157 0.734262
Si Si6 0.682412 0.641423 0.561365
Si Si7 0.411621 0.854215 0.687569
Si Si8 0.079096 0.996732 0.380501
O O1 0.698606 0.580433 0.206049
O O2 0.731147 0.419266 0.314579
O O3 0.965110 0.505954 0.267477
O O4 0.803951 0.440872 0.089121
O O5 0.383929 0.250000 0.749967
O O6 0.560965 0.389223 0.706364
O O7 0.314717 0.370468 0.577662
O O8 0.689995 0.568500 0.944191
O O9 0.789231 0.409489 0.857741
O O10 0.555934 0.398419 0.964716
O O11 0.391180 0.250000 0.013060
O O12 0.518602 0.350746 0.181465
O O13 0.755715 0.250000 0.739353
O O14 0.821346 0.403078 0.629889
O O15 0.697831 0.750000 0.601526
O O16 0.528566 0.602459 0.602990
O O17 0.817642 0.587613 0.626629
O O18 0.363018 0.750000 0.642901
O O19 0.000000 0.000000 0.500000
#
# Coordination Sequence:
#
# PCOD8074801 Si02
#       8
#     4   4   4   4   4   4   4   4
#     4  11  23  38  62  93 129 165 205 254 308 372
#     4  10  21  38  63  93 123 163 210 259 312 366
#     4  10  20  36  59  89 125 169 208 255 309 370
#     4   9  16  30  56  92 127 158 204 264 318 360
#     4  11  25  44  66  92 124 163 210 257 313 380
#     4  10  21  39  62  88 124 163 208 259 308 370
#     4   9  19  35  59  90 119 156 205 258 310 363
#     4  12  26  42  62  90 126 171 206 256 315 372
#
# _framework density 21.612756999999998
#
# number of rings (size 3 to 8) (size 9 to 14) (size 15 to 20)
#    0.000    1.750    1.250    4.125    1.750    5.000 
#    0.000    0.000    0.000    1.500    0.000    0.000 
#    0.000    0.000    0.000    0.000    0.000    0.000 
#
# Total GULP energy -396801.111130 kJ/mol
# GULP energy per Si atom -12400.034723 kJ/mol
# Density = 2.156357 g / cm^3
# Si number density = 21.612757 Si / 1000 Ang^3
#
#
#
# Elastic Constant Matrix: (Units=GPa)
#
#
# Indices 1 2 3 4 5 6 
#
# 1 84.5111 40.0597 27.1699 0.0000 10.6513 0.0000
# 2 40.0597 127.6922 30.9438 0.0000 -3.4831 0.0000
# 3 27.1699 30.9438 68.7640 0.0000 -9.4562 0.0000
# 4 0.0000 0.0000 0.0000 29.0500 0.0000 -1.0911
# 5 10.6513 -3.4831 -9.4562 0.0000 29.0348 0.0000
# 6 0.0000 0.0000 0.0000 -1.0911 0.0000 18.2853
#
#
#
# Elastic Compliance Matrix: (Units=1/GPa)
#
#
# Indices 1 2 3 4 5 6 
#
# 1 0.016752 -0.004040 -0.005980 0.000000 -0.008578 0.000000
# 2 -0.004040 0.009766 -0.002548 0.000000 0.001824 0.000000
# 3 -0.005980 -0.002548 0.019170 0.000000 0.008132 0.000000
# 4 0.000000 0.000000 0.000000 0.034501 0.000000 0.002059
# 5 -0.008578 0.001824 0.008132 0.000000 0.040455 0.000000
# 6 0.000000 0.000000 0.000000 0.002059 0.000000 0.054811
#
#
# Mechanical properties :
#
#
# Convention : Reuss Voigt Hill
#
# Bulk Modulus (GPa) = 48.65805 53.03491 50.84648
# Shear Modulus (GPa) = 24.10317 27.46027 25.78172
#
# Velocity S-wave (km/s) = 3.34313 3.56836 3.45758
# Velocity P-wave (km/s) = 6.12082 6.44744 6.28625
#
# Compressibility (1/GPa) = 0.02055158
#
# Stress axis : x y z
#
# Youngs Moduli (GPa) = 59.69585 102.39731 52.16454
#
# Poissons Ratio (x) = 0.41369 0.31197
# Poissons Ratio (y) = 0.24117 0.13289
# Poissons Ratio (z) = 0.35701 0.26086
#
# Static dielectric constant tensor:
#      x y z
#    x 3.654030 0.000000 -0.104170 
#    y 0.000000 4.174020 0.000000 
#    z -0.104170 0.000000 3.872590 
# 
# 
# High freq. dielectric constant tensor:
#      x y z
#    x 1.812540 0.000000 -0.003480 
#    y 0.000000 1.854840 0.000000 
#    z -0.003480 0.000000 1.858740 
# 
# From -- ./inp_files/31899.got.cif
#   From: 2010.06.25/outbox.cif.g09.slc.cpg/sg11_16_cif.got.tgz:31899.got - 2010.06.27 23:14:04.
