data_PCOD8074640
_publ_section_title
;
Structure prediction by ZEFSAII (Michael W. Deem and Ramdas Pophale) SiO2 
 PCOD8074640
Probable space group: P 21/M
;
_chemical_formula_sum "Si O2"
_cell_formula_units_Z 28
_cell_length_a 9.592776
_cell_length_b 9.028565
_cell_length_c 26.808266
_cell_angle_alpha 90.000000
_cell_angle_beta 39.250270
_cell_angle_gamma 90.000000
_cell_volume 1469.047212
_symmetry_space_group_name_H-M "P 21/M"
_symmetry_group_IT_number 11
_symmetry_cell_setting 'monoclinic'
loop_
_space_group_symop_operation_xyz
x,y,z
-x,1/2+y,-z
-x,-y,-z
x,1/2-y,z
loop_
_atom_site_type_symbol
_atom_site_label
_atom_site_fract_x
_atom_site_fract_y
_atom_site_fract_z
Si Si1 0.332050 0.574818 0.271442
Si Si2 0.194769 0.580881 0.418596
Si Si3 0.909484 0.080205 0.976965
Si Si4 0.762745 0.424101 0.178327
Si Si5 0.677964 0.581905 0.300773
Si Si6 0.439990 0.419846 0.067815
Si Si7 0.113938 0.920278 0.230385
O O1 0.373921 0.750000 0.260735
O O2 0.222249 0.522700 0.354052
O O3 0.564954 0.492852 0.200292
O O4 0.178767 0.524694 0.267722
O O5 0.124538 0.750000 0.436541
O O6 0.422456 0.557000 0.386814
O O7 0.000000 0.500000 0.500000
O O8 0.987174 0.250000 0.955779
O O9 0.007850 0.997228 0.901692
O O10 0.646237 0.068199 0.048124
O O11 0.000000 0.000000 0.000000
O O12 0.769814 0.250000 0.167412
O O13 0.735766 0.461174 0.243506
O O14 0.700619 0.750000 0.272783
O O15 0.848365 0.559287 0.299188
O O16 0.382384 0.250000 0.071432
O O17 0.232101 0.490909 0.153404
O O18 0.500000 0.500000 0.000000
O O19 0.183301 0.750000 0.204432
#
# Coordination Sequence:
#
# PCOD8074640 Si02
#       7
#     4   4   4   4   4   4   4
#     4   9  19  36  57  80 107 142 178 217 266 319
#     4   9  18  34  56  81 110 140 173 212 256 310
#     4  11  23  37  52  73 102 137 178 225 272 317
#     4  11  21  33  52  77 103 136 178 221 264 315
#     4   9  19  36  56  78 104 137 174 213 258 312
#     4  11  24  38  53  76 107 142 181 224 271 318
#     4  10  20  36  58  79 103 138 180 222 267 317
#
# _framework density 19.059972999999999
#
# number of rings (size 3 to 8) (size 9 to 14) (size 15 to 20)
#    0.000    2.000    0.000    4.714    0.000   11.429 
#    0.000    0.714    0.000    0.000    0.000    0.000 
#    0.000    0.000    0.000    0.000    0.000    0.000 
#
# Total GULP energy -347167.292607 kJ/mol
# GULP energy per Si atom -12398.831879 kJ/mol
# Density = 1.901659 g / cm^3
# Si number density = 19.059973 Si / 1000 Ang^3
#
#
#
# Elastic Constant Matrix: (Units=GPa)
#
#
# Indices 1 2 3 4 5 6 
#
# 1 113.3901 27.9029 31.2678 0.0000 -12.3189 0.0000
# 2 27.9029 87.5878 33.5672 0.0000 -4.6534 0.0000
# 3 31.2678 33.5672 97.8420 0.0000 -12.1285 0.0000
# 4 0.0000 0.0000 0.0000 34.8434 0.0000 0.2298
# 5 -12.3189 -4.6534 -12.1285 0.0000 23.8917 0.0000
# 6 0.0000 0.0000 0.0000 0.2298 0.0000 23.6643
#
#
#
# Elastic Compliance Matrix: (Units=1/GPa)
#
#
# Indices 1 2 3 4 5 6 
#
# 1 0.010371 -0.002317 -0.002041 0.000000 0.003860 0.000000
# 2 -0.002317 0.013665 -0.004019 0.000000 -0.000573 0.000000
# 3 -0.002041 -0.004019 0.012832 0.000000 0.004679 0.000000
# 4 0.000000 0.000000 0.000000 0.028702 0.000000 -0.000279
# 5 0.003860 -0.000573 0.004679 0.000000 0.046109 0.000000
# 6 0.000000 0.000000 0.000000 -0.000279 0.000000 0.042261
#
#
# Mechanical properties :
#
#
# Convention : Reuss Voigt Hill
#
# Bulk Modulus (GPa) = 49.71496 53.81065 51.76280
# Shear Modulus (GPa) = 28.18528 30.21867 29.20198
#
# Velocity S-wave (km/s) = 3.84965 3.98609 3.91846
# Velocity P-wave (km/s) = 6.77494 7.03412 6.90574
#
# Compressibility (1/GPa) = 0.02011467
#
# Stress axis : x y z
#
# Youngs Moduli (GPa) = 96.41864 73.18039 77.93282
#
# Poissons Ratio (x) = 0.16954 0.15907
# Poissons Ratio (y) = 0.22337 0.31319
# Poissons Ratio (z) = 0.19680 0.29409
#
# Static dielectric constant tensor:
#      x y z
#    x 3.668160 0.000000 -0.102540 
#    y 0.000000 3.459330 0.000000 
#    z -0.102540 0.000000 3.001680 
# 
# 
# High freq. dielectric constant tensor:
#      x y z
#    x 1.748280 0.000000 -0.013680 
#    y 0.000000 1.739980 0.000000 
#    z -0.013680 0.000000 1.720780 
# 
# From -- ./inp_files/28154.got.cif
#   From: 2010.06.25/outbox.cif.g09.slc.cpg/sg11_15_cif.got.tgz:28154.got - 2010.06.27 23:14:04.
