data_PCOD8074012
_publ_section_title
;
Structure prediction by ZEFSAII (Michael W. Deem and Ramdas Pophale) SiO2 
 PCOD8074012
Probable space group: P 21/M
;
_chemical_formula_sum "Si O2"
_cell_formula_units_Z 32
_cell_length_a 15.447798
_cell_length_b 8.878615
_cell_length_c 24.949616
_cell_angle_alpha 90.000000
_cell_angle_beta 30.663153
_cell_angle_gamma 90.000000
_cell_volume 1745.167820
_symmetry_space_group_name_H-M "P 21/M"
_symmetry_group_IT_number 11
_symmetry_cell_setting 'monoclinic'
loop_
_space_group_symop_operation_xyz
x,y,z
-x,1/2+y,-z
-x,-y,-z
x,1/2-y,z
loop_
_atom_site_type_symbol
_atom_site_label
_atom_site_fract_x
_atom_site_fract_y
_atom_site_fract_z
Si Si1 0.092116 0.927840 0.304003
Si Si2 0.595390 0.576596 0.807642
Si Si3 0.028615 0.072844 0.229172
Si Si4 0.509551 0.575962 0.730887
Si Si5 0.653254 0.423755 0.448324
Si Si6 0.254983 0.424348 0.008239
Si Si7 0.834504 0.574421 0.064179
Si Si8 0.743226 0.426483 0.519117
O O1 0.066113 0.750000 0.318370
O O2 0.255270 0.970976 0.251530
O O3 0.120643 0.985002 0.228216
O O4 0.931027 0.006228 0.416959
O O5 0.630464 0.750000 0.803877
O O6 0.582357 0.551882 0.751254
O O7 0.421008 0.525377 0.928671
O O8 0.036501 0.250000 0.238342
O O9 0.119696 0.031215 0.125451
O O10 0.833286 0.018588 0.329029
O O11 0.482973 0.750000 0.731292
O O12 0.329710 0.494369 0.819445
O O13 0.643825 0.505225 0.619429
O O14 0.500000 0.500000 0.500000
O O15 0.634364 0.250000 0.446264
O O16 0.644732 0.458598 0.516118
O O17 0.308675 0.250000 0.983523
O O18 0.168482 0.459927 0.997497
O O19 0.837816 0.750000 0.074972
O O20 0.000000 0.500000 0.000000
O O21 0.758539 0.250000 0.522506
#
# Coordination Sequence:
#
# PCOD8074012 Si02
#       8
#     4   4   4   4   4   4   4   4
#     4  11  22  36  56  81 107 139 179 219 262 317
#     4  10  21  37  56  79 109 141 174 218 268 317
#     4   9  19  37  56  76 106 141 177 220 268 313
#     4  10  21  37  57  81 107 140 182 223 266 317
#     4   9  19  34  53  78 107 140 175 214 263 315
#     4   9  19  36  57  79 105 140 181 223 266 315
#     4  10  20  35  55  81 112 145 181 222 268 316
#     4  10  21  38  57  79 109 142 176 219 270 318
#
# _framework density 18.336345000000001
#
# number of rings (size 3 to 8) (size 9 to 14) (size 15 to 20)
#    0.000    2.250    0.000    3.375    0.000    7.000 
#    0.000    1.250    0.000    0.000    0.000    0.000 
#    0.000    0.000    0.000    0.000    0.000    0.000 
#
# Total GULP energy -396903.668984 kJ/mol
# GULP energy per Si atom -12403.239656 kJ/mol
# Density = 1.829461 g / cm^3
# Si number density = 18.336345 Si / 1000 Ang^3
#
#
#
# Elastic Constant Matrix: (Units=GPa)
#
#
# Indices 1 2 3 4 5 6 
#
# 1 87.7115 50.0579 56.3698 0.0000 -16.8011 0.0000
# 2 50.0579 83.0685 40.9065 0.0000 -3.7448 0.0000
# 3 56.3698 40.9065 111.6381 0.0000 10.3168 0.0000
# 4 0.0000 0.0000 0.0000 35.6484 0.0000 -4.5010
# 5 -16.8011 -3.7448 10.3168 0.0000 30.4418 0.0000
# 6 0.0000 0.0000 0.0000 -4.5010 0.0000 34.7946
#
#
#
# Elastic Compliance Matrix: (Units=1/GPa)
#
#
# Indices 1 2 3 4 5 6 
#
# 1 0.029182 -0.010492 -0.012656 0.000000 0.019104 0.000000
# 2 -0.010492 0.018887 -0.001345 0.000000 -0.003011 0.000000
# 3 -0.012656 -0.001345 0.017035 0.000000 -0.012924 0.000000
# 4 0.000000 0.000000 0.000000 0.028518 0.000000 0.003689
# 5 0.019104 -0.003011 -0.012924 0.000000 0.047403 0.000000
# 6 0.000000 0.000000 0.000000 0.003689 0.000000 0.029217
#
#
# Mechanical properties :
#
#
# Convention : Reuss Voigt Hill
#
# Bulk Modulus (GPa) = 62.03816 64.12071 63.07943
# Shear Modulus (GPa) = 22.26188 29.18256 25.72222
#
# Velocity S-wave (km/s) = 3.48815 3.99371 3.74946
# Velocity P-wave (km/s) = 7.08024 7.50409 7.29524
#
# Compressibility (1/GPa) = 0.01611911
#
# Stress axis : x y z
#
# Youngs Moduli (GPa) = 34.26798 52.94626 58.70279
#
# Poissons Ratio (x) = 0.55549 0.74294
# Poissons Ratio (y) = 0.35953 0.07894
# Poissons Ratio (z) = 0.43369 0.07120
#
# Static dielectric constant tensor:
#      x y z
#    x 3.369700 0.000000 -0.003160 
#    y 0.000000 3.050350 0.000000 
#    z -0.003160 0.000000 3.529690 
# 
# 
# High freq. dielectric constant tensor:
#      x y z
#    x 1.709320 0.000000 -0.001660 
#    y 0.000000 1.719640 0.000000 
#    z -0.001660 0.000000 1.717410 
# 
# From -- ./inp_files/51684.got.cif
#   From: 2010.06.25/outbox.cif.g09.slc.cpg/sg11_26_cif.got.tgz:51684.got - 2010.06.27 23:14:04.
