data_PCOD8074365
_publ_section_title
;
Structure prediction by ZEFSAII (Michael W. Deem and Ramdas Pophale) SiO2 
 PCOD8074365
Probable space group: P 21/M
;
_chemical_formula_sum "Si O2"
_cell_formula_units_Z 32
_cell_length_a 12.545178
_cell_length_b 8.841149
_cell_length_c 29.229867
_cell_angle_alpha 90.000000
_cell_angle_beta 30.154098
_cell_angle_gamma 90.000000
_cell_volume 1628.542987
_symmetry_space_group_name_H-M "P 21/M"
_symmetry_group_IT_number 11
_symmetry_cell_setting 'monoclinic'
loop_
_space_group_symop_operation_xyz
x,y,z
-x,1/2+y,-z
-x,-y,-z
x,1/2-y,z
loop_
_atom_site_type_symbol
_atom_site_label
_atom_site_fract_x
_atom_site_fract_y
_atom_site_fract_z
Si Si1 0.024081 0.928433 0.540009
Si Si2 0.073150 0.428306 0.020294
Si Si3 0.267538 0.929903 0.778992
Si Si4 0.461461 0.579328 0.158684
Si Si5 0.389310 0.921978 0.287550
Si Si6 0.250190 0.572819 0.682583
Si Si7 0.291798 0.071521 0.512583
Si Si8 0.025108 0.427517 0.297343
O O1 0.049435 0.750000 0.528671
O O2 0.818118 0.976961 0.645310
O O3 0.000000 0.000000 0.500000
O O4 0.227899 0.003602 0.487345
O O5 0.060637 0.250000 0.017699
O O6 0.928077 0.481280 0.116514
O O7 0.313805 0.475773 0.945542
O O8 0.000000 0.500000 0.000000
O O9 0.298796 0.750000 0.768432
O O10 0.231302 0.994874 0.740969
O O11 0.478527 0.006818 0.720240
O O12 0.404412 0.750000 0.165025
O O13 0.511131 0.572283 0.194425
O O14 0.267343 0.476843 0.214239
O O15 0.327607 0.750000 0.323849
O O16 0.263732 0.750000 0.684773
O O17 0.460705 0.523377 0.575791
O O18 0.045468 0.528214 0.728204
O O19 0.257782 0.250000 0.525864
O O20 0.144654 0.002680 0.606212
O O21 0.010023 0.250000 0.311649
#
# Coordination Sequence:
#
# PCOD8074365 Si02
#       8
#     4   4   4   4   4   4   4   4
#     4  12  24  37  54  81 117 154 195 235 285 346
#     4  10  20  35  59  87 116 149 187 234 289 350
#     4  10  20  37  61  86 115 153 194 238 293 352
#     4  10  21  37  56  83 118 150 184 234 291 342
#     4  11  21  35  56  82 119 154 186 233 289 343
#     4   9  21  39  58  83 114 149 192 242 290 339
#     4  11  21  37  59  83 115 152 191 240 291 342
#     4  11  22  38  60  84 112 151 200 244 282 338
#
# _framework density 19.649466
#
# number of rings (size 3 to 8) (size 9 to 14) (size 15 to 20)
#    0.000    1.500    2.500    3.375    0.000    2.000 
#    0.000    4.375    0.000    0.000    0.000    0.000 
#    0.000    0.000    0.000    0.000    0.000    0.000 
#
# Total GULP energy -396699.494070 kJ/mol
# GULP energy per Si atom -12396.859190 kJ/mol
# Density = 1.960474 g / cm^3
# Si number density = 19.649466 Si / 1000 Ang^3
#
#
#
# Elastic Constant Matrix: (Units=GPa)
#
#
# Indices 1 2 3 4 5 6 
#
# 1 118.6939 38.6290 40.9857 0.0000 -11.4464 0.0000
# 2 38.6290 81.3873 32.7046 0.0000 -9.5888 0.0000
# 3 40.9857 32.7046 92.9486 0.0000 -9.5636 0.0000
# 4 0.0000 0.0000 0.0000 21.4144 0.0000 -1.5634
# 5 -11.4464 -9.5888 -9.5636 0.0000 24.4186 0.0000
# 6 0.0000 0.0000 0.0000 -1.5634 0.0000 26.2524
#
#
#
# Elastic Compliance Matrix: (Units=1/GPa)
#
#
# Indices 1 2 3 4 5 6 
#
# 1 0.010976 -0.003585 -0.003328 0.000000 0.002434 0.000000
# 2 -0.003585 0.015828 -0.003670 0.000000 0.003098 0.000000
# 3 -0.003328 -0.003670 0.013763 0.000000 0.002389 0.000000
# 4 0.000000 0.000000 0.000000 0.046901 0.000000 0.002793
# 5 0.002434 0.003098 0.002389 0.000000 0.044245 0.000000
# 6 0.000000 0.000000 0.000000 0.002793 0.000000 0.038258
#
#
# Mechanical properties :
#
#
# Convention : Reuss Voigt Hill
#
# Bulk Modulus (GPa) = 51.54265 57.51870 54.53068
# Shear Modulus (GPa) = 25.30305 26.46444 25.88375
#
# Velocity S-wave (km/s) = 3.59238 3.67390 3.63337
# Velocity P-wave (km/s) = 6.59507 6.87987 6.73897
#
# Compressibility (1/GPa) = 0.01940141
#
# Stress axis : x y z
#
# Youngs Moduli (GPa) = 91.11018 63.17830 72.65843
#
# Poissons Ratio (x) = 0.22652 0.24179
# Poissons Ratio (y) = 0.32667 0.26662
# Poissons Ratio (z) = 0.30319 0.23184
#
# Static dielectric constant tensor:
#      x y z
#    x 3.755860 0.000000 -0.082700 
#    y 0.000000 3.569020 0.000000 
#    z -0.082700 0.000000 4.033660 
# 
# 
# High freq. dielectric constant tensor:
#      x y z
#    x 1.765910 0.000000 -0.004960 
#    y 0.000000 1.755840 0.000000 
#    z -0.004960 0.000000 1.769040 
# 
# From -- ./inp_files/38304.got.cif
#   From: 2010.06.25/outbox.cif.g09.slc.cpg/sg11_20_cif.got.tgz:38304.got - 2010.06.27 23:14:04.
