data_PCOD8074248
_publ_section_title
;
Structure prediction by ZEFSAII (Michael W. Deem and Ramdas Pophale) SiO2 
 PCOD8074248
Probable space group: P 21/M
;
_chemical_formula_sum "Si O2"
_cell_formula_units_Z 28
_cell_length_a 21.225956
_cell_length_b 9.175680
_cell_length_c 18.740982
_cell_angle_alpha 90.000000
_cell_angle_beta 158.147096
_cell_angle_gamma 90.000000
_cell_volume 1358.636862
_symmetry_space_group_name_H-M "P 21/M"
_symmetry_group_IT_number 11
_symmetry_cell_setting 'monoclinic'
loop_
_space_group_symop_operation_xyz
x,y,z
-x,1/2+y,-z
-x,-y,-z
x,1/2-y,z
loop_
_atom_site_type_symbol
_atom_site_label
_atom_site_fract_x
_atom_site_fract_y
_atom_site_fract_z
Si Si1 0.824127 0.081228 0.325157
Si Si2 0.450847 0.419404 0.521113
Si Si3 0.291085 0.921211 0.641113
Si Si4 0.163397 0.910048 0.180469
Si Si5 0.778031 0.408463 0.923500
Si Si6 0.074503 0.078981 0.804578
Si Si7 0.363023 0.578232 0.015391
O O1 0.872548 0.250000 0.379526
O O2 0.732137 0.032376 0.300996
O O3 0.694056 0.045535 0.125336
O O4 0.000000 0.000000 0.500000
O O5 0.500000 0.500000 0.500000
O O6 0.417178 0.250000 0.469560
O O7 0.276363 0.501730 0.356809
O O8 0.576435 0.441380 0.721873
O O9 0.327245 0.750000 0.670655
O O10 0.115488 0.965416 0.417220
O O11 0.451496 0.007729 0.777418
O O12 0.131448 0.750000 0.178978
O O13 0.232282 0.899014 0.172650
O O14 0.000000 0.000000 0.000000
O O15 0.830658 0.250000 0.010425
O O16 0.897613 0.532241 0.083253
O O17 0.103946 0.250000 0.824587
O O18 0.219599 0.991136 0.915056
O O19 0.374121 0.750000 0.043148
#
# Coordination Sequence:
#
# PCOD8074248 Si02
#       7
#     4   4   4   4   4   4   4
#     4  10  20  36  60  88 118 153 195 246 302 354
#     4   9  17  32  55  80 107 140 178 224 276 330
#     4  10  22  40  60  86 120 156 198 249 300 350
#     4  10  20  35  57  86 117 149 186 236 287 338
#     4   9  20  38  58  82 114 151 189 231 285 344
#     4  11  23  40  62  85 118 161 200 246 297 352
#     4  11  23  38  61  90 117 155 200 245 301 360
#
# _framework density 20.608891
#
# number of rings (size 3 to 8) (size 9 to 14) (size 15 to 20)
#    0.000    2.000    1.429    3.000    0.000    5.714 
#    2.571    0.000    0.000    0.000    0.000    0.000 
#    0.000    0.000    0.000    0.000    0.000    0.000 
#
# Total GULP energy -346883.244476 kJ/mol
# GULP energy per Si atom -12388.687303 kJ/mol
# Density = 2.056198 g / cm^3
# Si number density = 20.608891 Si / 1000 Ang^3
#
#
#
# Elastic Constant Matrix: (Units=GPa)
#
#
# Indices 1 2 3 4 5 6 
#
# 1 21.0234 20.0227 22.0171 0.0000 2.6314 0.0000
# 2 20.0227 133.9552 82.1726 0.0000 6.0715 0.0000
# 3 22.0171 82.1726 156.9757 0.0000 11.2068 0.0000
# 4 0.0000 0.0000 0.0000 44.0483 0.0000 2.0953
# 5 2.6314 6.0715 11.2068 0.0000 32.9001 0.0000
# 6 0.0000 0.0000 0.0000 2.0953 0.0000 29.5510
#
#
#
# Elastic Compliance Matrix: (Units=1/GPa)
#
#
# Indices 1 2 3 4 5 6 
#
# 1 0.058454 -0.005458 -0.005206 0.000000 -0.001895 0.000000
# 2 -0.005458 0.011506 -0.005265 0.000000 0.000107 0.000000
# 3 -0.005206 -0.005265 0.010001 0.000000 -0.002019 0.000000
# 4 0.000000 0.000000 0.000000 0.022779 0.000000 -0.001615
# 5 -0.001895 0.000107 -0.002019 0.000000 0.031215 0.000000
# 6 0.000000 0.000000 0.000000 -0.001615 0.000000 0.033954
#
#
# Mechanical properties :
#
#
# Convention : Reuss Voigt Hill
#
# Bulk Modulus (GPa) = 20.78913 62.26436 41.52675
# Shear Modulus (GPa) = 23.16949 33.81600 28.49274
#
# Velocity S-wave (km/s) = 3.35662 4.05513 3.72229
# Velocity P-wave (km/s) = 5.01317 7.22519 6.21833
#
# Compressibility (1/GPa) = 0.04810206
#
# Stress axis : x y z
#
# Youngs Moduli (GPa) = 17.10760 86.91146 99.99036
#
# Poissons Ratio (x) = 0.47432 0.52059
# Poissons Ratio (y) = 0.09337 0.52647
# Poissons Ratio (z) = 0.08907 0.45761
#
# Static dielectric constant tensor:
#      x y z
#    x 3.308200 0.000000 -0.218050 
#    y 0.000000 3.647220 0.000000 
#    z -0.218050 0.000000 4.034120 
# 
# 
# High freq. dielectric constant tensor:
#      x y z
#    x 1.779160 0.000000 -0.000380 
#    y 0.000000 1.811810 0.000000 
#    z -0.000380 0.000000 1.827310 
# 
# From -- ./inp_files/66757.got.cif
#   From: 2010.06.25/outbox.cif.g09.slc.cpg/sg11_34_cif.got.tgz:66757.got - 2010.06.27 23:14:04.
