data_PCOD8074593
_publ_section_title
;
Structure prediction by ZEFSAII (Michael W. Deem and Ramdas Pophale) SiO2 
 PCOD8074593
Probable space group: P 21/M
;
_chemical_formula_sum "Si O2"
_cell_formula_units_Z 24
_cell_length_a 21.676041
_cell_length_b 8.826145
_cell_length_c 9.462093
_cell_angle_alpha 90.000000
_cell_angle_beta 44.878011
_cell_angle_gamma 90.000000
_cell_volume 1277.310858
_symmetry_space_group_name_H-M "P 21/M"
_symmetry_group_IT_number 11
_symmetry_cell_setting 'monoclinic'
loop_
_space_group_symop_operation_xyz
x,y,z
-x,1/2+y,-z
-x,-y,-z
x,1/2-y,z
loop_
_atom_site_type_symbol
_atom_site_label
_atom_site_fract_x
_atom_site_fract_y
_atom_site_fract_z
Si Si1 0.905295 0.928810 0.655143
Si Si2 0.474504 0.071503 0.189703
Si Si3 0.237612 0.575375 0.930571
Si Si4 0.292529 0.923099 0.528557
Si Si5 0.628816 0.924615 0.086821
Si Si6 0.776396 0.922384 0.620061
O O1 0.910654 0.750000 0.666751
O O2 0.857791 0.971133 0.585392
O O3 0.000000 0.000000 0.500000
O O4 0.850707 0.995439 0.874151
O O5 0.484811 0.250000 0.161027
O O6 0.376066 0.031475 0.390975
O O7 0.537340 0.008806 0.210705
O O8 0.500000 0.000000 0.000000
O O9 0.235732 0.750000 0.979866
O O10 0.240333 0.555586 0.758260
O O11 0.323435 0.498853 0.857339
O O12 0.323019 0.750000 0.458450
O O13 0.226107 0.968936 0.511313
O O14 0.610867 0.750000 0.151858
O O15 0.686924 0.941544 0.852179
O O16 0.787062 0.750000 0.551420
#
# Coordination Sequence:
#
# PCOD8074593 Si02
#       6
#     4   4   4   4   4   4
#     4  10  21  39  64  90 114 144 185 231 281 344
#     4  12  23  35  55  81 113 152 196 242 283 331
#     4  10  22  39  58  84 117 151 188 233 286 340
#     4  11  23  37  56  83 116 153 192 235 284 336
#     4  10  20  36  57  82 111 150 197 240 281 333
#     4   9  19  35  57  83 112 146 186 232 281 336
#
# _framework density 18.789474999999999
#
# number of rings (size 3 to 8) (size 9 to 14) (size 15 to 20)
#    0.000    1.667    1.667    4.500    0.000    6.667 
#    0.000    0.833    0.000    0.000    0.000    0.000 
#    0.000    0.000    0.000    0.000    0.000    0.000 
#
# Total GULP energy -297721.871857 kJ/mol
# GULP energy per Si atom -12405.077994 kJ/mol
# Density = 1.874671 g / cm^3
# Si number density = 18.789475 Si / 1000 Ang^3
#
#
#
# Elastic Constant Matrix: (Units=GPa)
#
#
# Indices 1 2 3 4 5 6 
#
# 1 114.5006 62.3523 58.0199 0.0000 -7.8889 0.0000
# 2 62.3523 142.4349 53.6601 0.0000 2.5290 0.0000
# 3 58.0199 53.6601 80.7264 0.0000 0.3644 0.0000
# 4 0.0000 0.0000 0.0000 30.6779 0.0000 -0.8464
# 5 -7.8889 2.5290 0.3644 0.0000 33.0096 0.0000
# 6 0.0000 0.0000 0.0000 -0.8464 0.0000 38.0296
#
#
#
# Elastic Compliance Matrix: (Units=1/GPa)
#
#
# Indices 1 2 3 4 5 6 
#
# 1 0.015331 -0.003502 -0.008709 0.000000 0.004028 0.000000
# 2 -0.003502 0.010180 -0.004243 0.000000 -0.001570 0.000000
# 3 -0.008709 -0.004243 0.021477 0.000000 -0.001993 0.000000
# 4 0.000000 0.000000 0.000000 0.032617 0.000000 0.000726
# 5 0.004028 -0.001570 -0.001993 0.000000 0.031399 0.000000
# 6 0.000000 0.000000 0.000000 0.000726 0.000000 0.026311
#
#
# Mechanical properties :
#
#
# Convention : Reuss Voigt Hill
#
# Bulk Modulus (GPa) = 71.02500 76.19183 73.60842
# Shear Modulus (GPa) = 28.58500 31.25207 29.91853
#
# Velocity S-wave (km/s) = 3.90466 4.08275 3.99470
# Velocity P-wave (km/s) = 7.62961 7.92865 7.78056
#
# Compressibility (1/GPa) = 0.01407955
#
# Stress axis : x y z
#
# Youngs Moduli (GPa) = 65.22587 98.23149 46.56243
#
# Poissons Ratio (x) = 0.34399 0.40553
# Poissons Ratio (y) = 0.22841 0.19756
# Poissons Ratio (z) = 0.56808 0.41679
#
# Static dielectric constant tensor:
#      x y z
#    x 3.554180 0.000000 0.030020 
#    y 0.000000 3.644670 0.000000 
#    z 0.030020 0.000000 3.241200 
# 
# 
# High freq. dielectric constant tensor:
#      x y z
#    x 1.733120 0.000000 0.005710 
#    y 0.000000 1.746580 0.000000 
#    z 0.005710 0.000000 1.709120 
# 
# From -- ./inp_files/20416.got.cif
#   From: 2010.06.25/outbox.cif.g09.slc.cpg/sg11_11_cif.got.tgz:20416.got - 2010.06.27 23:14:04.
