data_PCOD8074066
_publ_section_title
;
Structure prediction by ZEFSAII (Michael W. Deem and Ramdas Pophale) SiO2 
 PCOD8074066
Probable space group: P 21/M
;
_chemical_formula_sum "Si O2"
_cell_formula_units_Z 28
_cell_length_a 22.994545
_cell_length_b 9.065468
_cell_length_c 25.518651
_cell_angle_alpha 90.000000
_cell_angle_beta 17.089310
_cell_angle_gamma 90.000000
_cell_volume 1563.205883
_symmetry_space_group_name_H-M "P 21/M"
_symmetry_group_IT_number 11
_symmetry_cell_setting 'monoclinic'
loop_
_space_group_symop_operation_xyz
x,y,z
-x,1/2+y,-z
-x,-y,-z
x,1/2-y,z
loop_
_atom_site_type_symbol
_atom_site_label
_atom_site_fract_x
_atom_site_fract_y
_atom_site_fract_z
Si Si1 0.958123 0.077863 0.981732
Si Si2 0.519918 0.076596 0.331697
Si Si3 0.354825 0.078332 0.585290
Si Si4 0.359436 0.922632 0.368270
Si Si5 0.426542 0.582951 0.012412
Si Si6 0.370682 0.423128 0.960933
Si Si7 0.037305 0.916762 0.295508
O O1 0.952684 0.250000 0.998813
O O2 0.127648 0.036712 0.793702
O O3 0.748223 0.026369 0.139320
O O4 0.000000 0.000000 0.000000
O O5 0.501266 0.250000 0.336290
O O6 0.403274 0.029816 0.484563
O O7 0.418827 0.986699 0.372798
O O8 0.394824 0.250000 0.558059
O O9 0.500000 0.000000 0.500000
O O10 0.320515 0.750000 0.406851
O O11 0.530990 0.958726 0.179187
O O12 0.161039 0.999117 0.518188
O O13 0.509518 0.750000 0.940620
O O14 0.185085 0.583612 0.218645
O O15 0.500000 0.500000 0.000000
O O16 0.500806 0.496683 0.896036
O O17 0.352999 0.250000 0.986846
O O18 0.151547 0.497693 0.149636
O O19 0.989099 0.750000 0.318699
#
# Coordination Sequence:
#
# PCOD8074066 Si02
#       7
#     4   4   4   4   4   4   4
#     4  10  20  35  56  80 107 139 177 223 276 329
#     4  10  22  37  53  78 111 145 184 229 276 335
#     4  10  20  35  56  81 108 140 178 223 277 330
#     4  11  23  38  58  84 114 150 192 237 284 333
#     4   9  18  33  58  88 115 152 192 232 284 334
#     4   9  19  36  57  82 116 151 188 235 283 330
#     4   9  20  36  58  84 113 152 190 230 283 334
#
# _framework density 17.911908
#
# number of rings (size 3 to 8) (size 9 to 14) (size 15 to 20)
#    0.857    1.429    1.429    1.286    0.000    4.571 
#    0.000    2.143    0.000    0.000    0.000    0.000 
#    0.000    0.000    0.000    0.000    0.000    0.000 
#
# Total GULP energy -347073.421226 kJ/mol
# GULP energy per Si atom -12395.479329 kJ/mol
# Density = 1.787114 g / cm^3
# Si number density = 17.911908 Si / 1000 Ang^3
#
#
#
# Elastic Constant Matrix: (Units=GPa)
#
#
# Indices 1 2 3 4 5 6 
#
# 1 83.0593 35.2553 19.8548 0.0000 4.1276 0.0000
# 2 35.2553 89.3598 33.2542 0.0000 5.0800 0.0000
# 3 19.8548 33.2542 94.1401 0.0000 3.7352 0.0000
# 4 0.0000 0.0000 0.0000 28.9335 0.0000 -2.7328
# 5 4.1276 5.0800 3.7352 0.0000 26.9789 0.0000
# 6 0.0000 0.0000 0.0000 -2.7328 0.0000 31.3631
#
#
#
# Elastic Compliance Matrix: (Units=1/GPa)
#
#
# Indices 1 2 3 4 5 6 
#
# 1 0.014609 -0.005264 -0.001179 0.000000 -0.001081 0.000000
# 2 -0.005264 0.014869 -0.004086 0.000000 -0.001429 0.000000
# 3 -0.001179 -0.004086 0.012344 0.000000 -0.000759 0.000000
# 4 0.000000 0.000000 0.000000 0.034849 0.000000 0.003037
# 5 -0.001081 -0.001429 -0.000759 0.000000 0.037605 0.000000
# 6 0.000000 0.000000 0.000000 0.003037 0.000000 0.032149
#
#
# Mechanical properties :
#
#
# Convention : Reuss Voigt Hill
#
# Bulk Modulus (GPa) = 48.15460 49.25419 48.70440
# Shear Modulus (GPa) = 28.66894 29.33477 29.00185
#
# Velocity S-wave (km/s) = 4.00503 4.05127 4.02822
# Velocity P-wave (km/s) = 6.95194 7.03146 6.99181
#
# Compressibility (1/GPa) = 0.02076645
#
# Stress axis : x y z
#
# Youngs Moduli (GPa) = 68.44935 67.25397 81.00826
#
# Poissons Ratio (x) = 0.35400 0.09551
# Poissons Ratio (y) = 0.36030 0.33096
# Poissons Ratio (z) = 0.08070 0.27477
#
# Static dielectric constant tensor:
#      x y z
#    x 3.024790 0.000000 0.064170 
#    y 0.000000 3.393900 0.000000 
#    z 0.064170 0.000000 3.564780 
# 
# 
# High freq. dielectric constant tensor:
#      x y z
#    x 1.679320 0.000000 0.000530 
#    y 0.000000 1.703300 0.000000 
#    z 0.000530 0.000000 1.691330 
# 
# From -- ./inp_files/69793.got.cif
#   From: 2010.06.25/outbox.cif.g09.slc.cpg/sg11_35_cif.got.tgz:69793.got - 2010.06.27 23:14:04.
