data_PCOD8074679
_publ_section_title
;
Structure prediction by ZEFSAII (Michael W. Deem and Ramdas Pophale) SiO2 
 PCOD8074679
Probable space group: P 21/M
;
_chemical_formula_sum "Si O2"
_cell_formula_units_Z 32
_cell_length_a 27.606566
_cell_length_b 8.995799
_cell_length_c 10.679455
_cell_angle_alpha 90.000000
_cell_angle_beta 144.200481
_cell_angle_gamma 90.000000
_cell_volume 1551.388648
_symmetry_space_group_name_H-M "P 21/M"
_symmetry_group_IT_number 11
_symmetry_cell_setting 'monoclinic'
loop_
_space_group_symop_operation_xyz
x,y,z
-x,1/2+y,-z
-x,-y,-z
x,1/2-y,z
loop_
_atom_site_type_symbol
_atom_site_label
_atom_site_fract_x
_atom_site_fract_y
_atom_site_fract_z
Si Si1 0.968888 0.574909 0.234439
Si Si2 0.864551 0.919905 0.780522
Si Si3 0.276415 0.923097 0.399483
Si Si4 0.124188 0.420473 0.475275
Si Si5 0.534313 0.071531 0.198778
Si Si6 0.540563 0.427620 0.708233
Si Si7 0.732863 0.422598 0.112652
Si Si8 0.174444 0.577142 0.944803
O O1 0.976352 0.750000 0.263234
O O2 0.912365 0.511532 0.228400
O O3 0.061457 0.509134 0.434278
O O4 0.928381 0.519944 0.018501
O O5 0.844899 0.750000 0.768399
O O6 0.904672 0.942111 0.728587
O O7 0.776311 0.002987 0.600170
O O8 0.272180 0.750000 0.413634
O O9 0.370361 0.976894 0.597727
O O10 0.236082 0.971441 0.184164
O O11 0.123404 0.250000 0.514489
O O12 0.217616 0.483852 0.679756
O O13 0.521856 0.250000 0.173345
O O14 0.493275 0.000540 0.235739
O O15 0.500000 0.000000 0.000000
O O16 0.500000 0.500000 0.500000
O O17 0.525453 0.250000 0.676046
O O18 0.637374 0.467509 0.907221
O O19 0.742596 0.250000 0.164383
O O20 0.776403 0.467695 0.075009
O O21 0.152430 0.750000 0.904240
#
# Coordination Sequence:
#
# PCOD8074679 Si02
#       8
#     4   4   4   4   4   4   4   4
#     4  10  20  36  58  84 114 150 192 239 292 354
#     4   9  20  36  56  84 116 150 193 242 292 350
#     4   9  19  36  60  85 112 150 195 241 296 357
#     4  11  23  37  55  83 118 154 194 241 294 352
#     4  11  24  41  62  93 130 168 211 262 320 381
#     4  11  24  44  69  96 127 167 214 263 318 385
#     4  10  23  41  61  85 117 155 198 244 297 358
#     4   9  18  37  61  83 109 146 193 245 291 345
#
# _framework density 20.626681000000001
#
# number of rings (size 3 to 8) (size 9 to 14) (size 15 to 20)
#    0.000    2.000    0.000    2.625    1.750    6.500 
#    0.000    2.500    0.000    0.000    0.000    0.000 
#    0.000    0.000    0.000    0.000    0.000    0.000 
#
# Total GULP energy -396803.751799 kJ/mol
# GULP energy per Si atom -12400.117244 kJ/mol
# Density = 2.057973 g / cm^3
# Si number density = 20.626681 Si / 1000 Ang^3
#
#
#
# Elastic Constant Matrix: (Units=GPa)
#
#
# Indices 1 2 3 4 5 6 
#
# 1 106.1955 47.4577 39.7368 0.0000 14.4769 0.0000
# 2 47.4577 73.4577 38.3843 0.0000 10.2710 0.0000
# 3 39.7368 38.3843 87.5115 0.0000 21.2213 0.0000
# 4 0.0000 0.0000 0.0000 35.5912 0.0000 3.8894
# 5 14.4769 10.2710 21.2213 0.0000 39.3762 0.0000
# 6 0.0000 0.0000 0.0000 3.8894 0.0000 36.7105
#
#
#
# Elastic Compliance Matrix: (Units=1/GPa)
#
#
# Indices 1 2 3 4 5 6 
#
# 1 0.013951 -0.007369 -0.002675 0.000000 -0.001766 0.000000
# 2 -0.007369 0.021562 -0.006217 0.000000 0.000436 0.000000
# 3 -0.002675 -0.006217 0.016952 0.000000 -0.006531 0.000000
# 4 0.000000 0.000000 0.000000 0.028426 0.000000 -0.003012
# 5 -0.001766 0.000436 -0.006531 0.000000 0.029452 0.000000
# 6 0.000000 0.000000 0.000000 -0.003012 0.000000 0.027559
#
#
# Mechanical properties :
#
#
# Convention : Reuss Voigt Hill
#
# Bulk Modulus (GPa) = 50.13976 57.59138 53.86557
# Shear Modulus (GPa) = 28.23736 31.77463 30.00600
#
# Velocity S-wave (km/s) = 3.70398 3.92913 3.81821
# Velocity P-wave (km/s) = 6.53097 6.96890 6.75348
#
# Compressibility (1/GPa) = 0.01994425
#
# Stress axis : x y z
#
# Youngs Moduli (GPa) = 71.67892 46.37880 58.98923
#
# Poissons Ratio (x) = 0.34175 0.15777
# Poissons Ratio (y) = 0.52818 0.36674
# Poissons Ratio (z) = 0.19171 0.28834
#
# Static dielectric constant tensor:
#      x y z
#    x 3.830380 0.000000 0.043040 
#    y 0.000000 3.670540 0.000000 
#    z 0.043040 0.000000 3.948970 
# 
# 
# High freq. dielectric constant tensor:
#      x y z
#    x 1.815130 0.000000 0.002990 
#    y 0.000000 1.805400 0.000000 
#    z 0.002990 0.000000 1.814360 
# 
# From -- ./inp_files/45363.got.cif
#   From: 2010.06.25/outbox.cif.g09.slc.cpg/sg11_23_cif.got.tgz:45363.got - 2010.06.27 23:14:04.
