data_PCOD8074029
_publ_section_title
;
Structure prediction by ZEFSAII (Michael W. Deem and Ramdas Pophale) SiO2 
 PCOD8074029
Probable space group: P 21/M
;
_chemical_formula_sum "Si O2"
_cell_formula_units_Z 32
_cell_length_a 12.429182
_cell_length_b 13.144949
_cell_length_c 15.229126
_cell_angle_alpha 90.000000
_cell_angle_beta 137.459744
_cell_angle_gamma 90.000000
_cell_volume 1682.257761
_symmetry_space_group_name_H-M "P 21/M"
_symmetry_group_IT_number 11
_symmetry_cell_setting 'monoclinic'
loop_
_space_group_symop_operation_xyz
x,y,z
-x,1/2+y,-z
-x,-y,-z
x,1/2-y,z
loop_
_atom_site_type_symbol
_atom_site_label
_atom_site_fract_x
_atom_site_fract_y
_atom_site_fract_z
Si Si1 0.893558 0.529116 0.747929
Si Si2 0.271095 0.370022 0.206343
Si Si3 0.870218 0.478412 0.535790
Si Si4 0.167807 0.370191 0.642425
Si Si5 0.954486 0.133532 0.923383
Si Si6 0.478616 0.028627 0.886650
Si Si7 0.578285 0.131427 0.287833
Si Si8 0.792221 0.367178 0.004910
O O1 0.747283 0.589353 0.705575
O O2 0.843718 0.512814 0.618676
O O3 0.910356 0.421270 0.806868
O O4 0.055324 0.593765 0.849674
O O5 0.261705 0.250000 0.202937
O O6 0.434492 0.408195 0.262483
O O7 0.119908 0.413768 0.060426
O O8 0.847951 0.579098 0.463092
O O9 0.741703 0.392775 0.434914
O O10 0.041646 0.425807 0.629681
O O11 0.134902 0.250000 0.614639
O O12 0.341086 0.387542 0.789354
O O13 0.980738 0.250000 0.913466
O O14 0.818374 0.121619 0.915769
O O15 0.640229 0.069245 0.942212
O O16 0.427579 0.924546 0.808722
O O17 0.500000 0.000000 0.000000
O O18 0.564942 0.250000 0.259918
O O19 0.765927 0.250000 0.014638
#
# Coordination Sequence:
#
# PCOD8074029 Si02
#       8
#     4   4   4   4   4   4   4   4
#     4  11  19  33  56  82 112 141 178 224 264 316
#     4   9  18  33  54  80 108 141 177 216 270 327
#     4  10  23  38  56  81 105 143 191 227 264 313
#     4  10  22  41  58  75 108 146 180 225 275 319
#     4   9  18  31  51  80 112 145 177 214 268 325
#     4  11  22  37  58  86 109 134 180 227 273 324
#     4  10  21  38  57  77 110 149 180 218 268 319
#     4  10  20  35  55  82 115 145 174 217 274 328
#
# _framework density 19.022055999999999
#
# number of rings (size 3 to 8) (size 9 to 14) (size 15 to 20)
#    0.000    2.000    0.000    5.625    0.000    3.500 
#    0.000    1.250    0.000    3.000    0.000    0.000 
#    0.000    0.000    0.000    0.000    0.000    0.000 
#
# Total GULP energy -396878.009316 kJ/mol
# GULP energy per Si atom -12402.437791 kJ/mol
# Density = 1.897876 g / cm^3
# Si number density = 19.022056 Si / 1000 Ang^3
#
#
#
# Elastic Constant Matrix: (Units=GPa)
#
#
# Indices 1 2 3 4 5 6 
#
# 1 88.0929 19.1771 42.5692 0.0000 -6.8986 0.0000
# 2 19.1771 74.6556 24.0430 0.0000 -10.0924 0.0000
# 3 42.5692 24.0430 73.8346 0.0000 -16.7207 0.0000
# 4 0.0000 0.0000 0.0000 17.1543 0.0000 7.5664
# 5 -6.8986 -10.0924 -16.7207 0.0000 37.8522 0.0000
# 6 0.0000 0.0000 0.0000 7.5664 0.0000 28.3773
#
#
#
# Elastic Compliance Matrix: (Units=1/GPa)
#
#
# Indices 1 2 3 4 5 6 
#
# 1 0.015913 -0.001368 -0.009062 0.000000 -0.001467 0.000000
# 2 -0.001368 0.015225 -0.003674 0.000000 0.002187 0.000000
# 3 -0.009062 -0.003674 0.021522 0.000000 0.006876 0.000000
# 4 0.000000 0.000000 0.000000 0.066064 0.000000 -0.017615
# 5 -0.001467 0.002187 0.006876 0.000000 0.029772 0.000000
# 6 0.000000 0.000000 0.000000 -0.017615 0.000000 0.039936
#
#
# Mechanical properties :
#
#
# Convention : Reuss Voigt Hill
#
# Bulk Modulus (GPa) = 40.89400 45.35130 43.12265
# Shear Modulus (GPa) = 22.24298 26.72969 24.48634
#
# Velocity S-wave (km/s) = 3.42325 3.75266 3.59173
# Velocity P-wave (km/s) = 6.09670 6.53221 6.31821
#
# Compressibility (1/GPa) = 0.02445346
#
# Stress axis : x y z
#
# Youngs Moduli (GPa) = 62.84009 65.68127 46.46455
#
# Poissons Ratio (x) = 0.08984 0.42105
# Poissons Ratio (y) = 0.08595 0.17070
# Poissons Ratio (z) = 0.56944 0.24130
#
# Static dielectric constant tensor:
#      x y z
#    x 3.613160 0.000000 0.170720 
#    y 0.000000 3.522790 0.000000 
#    z 0.170720 0.000000 3.328460 
# 
# 
# High freq. dielectric constant tensor:
#      x y z
#    x 1.746980 0.000000 0.010230 
#    y 0.000000 1.752180 0.000000 
#    z 0.010230 0.000000 1.721040 
# 
# From -- ./inp_files/50392.got.cif
#   From: 2010.06.25/outbox.cif.g09.slc.cpg/sg11_26_cif.got.tgz:50392.got - 2010.06.27 23:14:04.
