data_PCOD8074733
_publ_section_title
;
Structure prediction by ZEFSAII (Michael W. Deem and Ramdas Pophale) SiO2 
 PCOD8074733
Probable space group: P 21/M
;
_chemical_formula_sum "Si O2"
_cell_formula_units_Z 32
_cell_length_a 27.139328
_cell_length_b 8.629672
_cell_length_c 21.162150
_cell_angle_alpha 90.000000
_cell_angle_beta 19.641778
_cell_angle_gamma 90.000000
_cell_volume 1665.985775
_symmetry_space_group_name_H-M "P 21/M"
_symmetry_group_IT_number 11
_symmetry_cell_setting 'monoclinic'
loop_
_space_group_symop_operation_xyz
x,y,z
-x,1/2+y,-z
-x,-y,-z
x,1/2-y,z
loop_
_atom_site_type_symbol
_atom_site_label
_atom_site_fract_x
_atom_site_fract_y
_atom_site_fract_z
Si Si1 0.011269 0.434551 0.252042
Si Si2 0.467843 0.433741 0.835559
Si Si3 0.211253 0.934456 0.584516
Si Si4 0.337280 0.065761 0.864470
Si Si5 0.565226 0.065661 0.484984
Si Si6 0.221121 0.067126 0.222500
Si Si7 0.049228 0.932881 0.536101
Si Si8 0.845854 0.933687 0.208487
O O1 0.007705 0.250000 0.257440
O O2 0.913531 0.495903 0.312209
O O3 0.950651 0.497928 0.392431
O O4 0.175844 0.497031 0.042104
O O5 0.461440 0.250000 0.839759
O O6 0.635948 0.488946 0.631885
O O7 0.384549 0.501841 0.875105
O O8 0.379927 0.489211 0.004400
O O9 0.206923 0.750000 0.599539
O O10 0.191150 0.012397 0.676306
O O11 0.334250 0.250000 0.869875
O O12 0.454678 0.006665 0.672334
O O13 0.577417 0.250000 0.467629
O O14 0.500000 0.000000 0.500000
O O15 0.724544 0.995181 0.306068
O O16 0.215399 0.250000 0.236634
O O17 0.097419 0.009470 0.322416
O O18 0.192582 0.993818 0.325813
O O19 0.054260 0.750000 0.531514
O O20 0.850843 0.750000 0.199419
O O21 0.000000 0.000000 0.000000
#
# Coordination Sequence:
#
# PCOD8074733 Si02
#       8
#     4   4   4   4   4   4   4   4
#     4   9  17  30  52  81 110 143 182 227 278 335
#     4   9  15  29  52  77 104 140 184 227 272 332
#     4  10  20  36  59  84 110 142 187 234 280 341
#     4   9  16  30  54  81 108 141 183 229 272 326
#     4  11  23  40  63  92 123 153 192 240 290 344
#     4   9  16  27  48  72 100 139 181 223 273 329
#     4   9  16  28  46  72 104 136 177 227 275 327
#     4  12  26  44  63  85 117 157 196 237 291 351
#
# _framework density 19.207847999999998
#
# number of rings (size 3 to 8) (size 9 to 14) (size 15 to 20)
#    0.000    2.250    2.500    1.500    1.750    0.000 
#    0.000    1.875    0.000    1.500    0.000    0.000 
#    0.000    0.000    0.000    0.000    0.000    0.000 
#
# Total GULP energy -396698.741791 kJ/mol
# GULP energy per Si atom -12396.835681 kJ/mol
# Density = 1.916413 g / cm^3
# Si number density = 19.207848 Si / 1000 Ang^3
#
#
#
# Elastic Constant Matrix: (Units=GPa)
#
#
# Indices 1 2 3 4 5 6 
#
# 1 104.0709 26.9040 60.7047 0.0000 -11.7204 0.0000
# 2 26.9040 44.6355 33.0569 0.0000 0.6787 0.0000
# 3 60.7047 33.0569 169.8116 0.0000 -2.9776 0.0000
# 4 0.0000 0.0000 0.0000 22.7122 0.0000 5.3269
# 5 -11.7204 0.6787 -2.9776 0.0000 36.8080 0.0000
# 6 0.0000 0.0000 0.0000 5.3269 0.0000 23.4511
#
#
#
# Elastic Compliance Matrix: (Units=1/GPa)
#
#
# Indices 1 2 3 4 5 6 
#
# 1 0.013694 -0.005545 -0.003743 0.000000 0.004160 0.000000
# 2 -0.005545 0.028453 -0.003602 0.000000 -0.002582 0.000000
# 3 -0.003743 -0.003602 0.007920 0.000000 -0.000485 0.000000
# 4 0.000000 0.000000 0.000000 0.046507 0.000000 -0.010564
# 5 0.004160 -0.002582 -0.000485 0.000000 0.028501 0.000000
# 6 0.000000 0.000000 0.000000 -0.010564 0.000000 0.045042
#
#
# Mechanical properties :
#
#
# Convention : Reuss Voigt Hill
#
# Bulk Modulus (GPa) = 41.17534 62.20547 51.69041
# Shear Modulus (GPa) = 24.51080 29.78443 27.14761
#
# Velocity S-wave (km/s) = 3.57611 3.94209 3.76355
# Velocity P-wave (km/s) = 6.20763 7.29217 6.77165
#
# Compressibility (1/GPa) = 0.02428638
#
# Stress axis : x y z
#
# Youngs Moduli (GPa) = 73.02372 35.14584 126.26935
#
# Poissons Ratio (x) = 0.19490 0.47262
# Poissons Ratio (y) = 0.40494 0.45479
# Poissons Ratio (z) = 0.27333 0.12659
#
# Static dielectric constant tensor:
#      x y z
#    x 3.617690 0.000000 0.058240 
#    y 0.000000 3.153450 0.000000 
#    z 0.058240 0.000000 3.916150 
# 
# 
# High freq. dielectric constant tensor:
#      x y z
#    x 1.743040 0.000000 0.009650 
#    y 0.000000 1.703960 0.000000 
#    z 0.009650 0.000000 1.762890 
# 
# From -- ./inp_files/66938.got.cif
#   From: 2010.06.25/outbox.cif.g09.slc.cpg/sg11_34_cif.got.tgz:66938.got - 2010.06.27 23:14:04.
