data_PCOD8074776
_publ_section_title
;
Structure prediction by ZEFSAII (Michael W. Deem and Ramdas Pophale) SiO2 
 PCOD8074776
Probable space group: P 21/M
;
_chemical_formula_sum "Si O2"
_cell_formula_units_Z 32
_cell_length_a 29.777702
_cell_length_b 9.048934
_cell_length_c 12.500406
_cell_angle_alpha 90.000000
_cell_angle_beta 151.340975
_cell_angle_gamma 90.000000
_cell_volume 1615.430758
_symmetry_space_group_name_H-M "P 21/M"
_symmetry_group_IT_number 11
_symmetry_cell_setting 'monoclinic'
loop_
_space_group_symop_operation_xyz
x,y,z
-x,1/2+y,-z
-x,-y,-z
x,1/2-y,z
loop_
_atom_site_type_symbol
_atom_site_label
_atom_site_fract_x
_atom_site_fract_y
_atom_site_fract_z
Si Si1 0.873619 0.422292 0.980847
Si Si2 0.596501 0.923726 0.226366
Si Si3 0.902003 0.424046 0.804984
Si Si4 0.035866 0.074335 0.468308
Si Si5 0.249463 0.421099 0.873132
Si Si6 0.253826 0.419956 0.638262
Si Si7 0.331057 0.921336 0.412462
Si Si8 0.404908 0.576882 0.336575
O O1 0.892036 0.250000 0.016614
O O2 0.860558 0.477837 0.832173
O O3 0.777322 0.460921 0.841424
O O4 0.965388 0.489961 0.229886
O O5 0.581744 0.750000 0.202338
O O6 0.663388 0.967658 0.267805
O O7 0.634862 0.978731 0.419446
O O8 0.500000 0.000000 0.000000
O O9 0.913276 0.250000 0.819249
O O10 0.835881 0.480026 0.572321
O O11 0.000000 0.500000 0.000000
O O12 0.028465 0.250000 0.464429
O O13 0.141858 0.026654 0.662124
O O14 0.000000 0.000000 0.500000
O O15 0.260102 0.250000 0.927467
O O16 0.283625 0.447152 0.822972
O O17 0.315560 0.516699 0.086671
O O18 0.225107 0.250000 0.560568
O O19 0.339722 0.750000 0.464936
O O20 0.392065 0.955507 0.435466
O O21 0.500000 0.500000 0.500000
O O22 0.412994 0.750000 0.330708
#
# Coordination Sequence:
#
# PCOD8074776 Si02
#       8
#     4   4   4   4   4   4   4   4
#     4   9  18  35  59  84 114 155 196 236 292 354
#     4  11  24  40  63  93 125 159 202 256 309 368
#     4  11  21  35  58  86 120 161 202 247 297 357
#     4  10  20  36  59  86 118 158 202 248 297 354
#     4  10  22  41  63  88 125 166 205 250 306 366
#     4  10  22  41  62  88 123 162 203 250 303 361
#     4  10  21  41  65  89 121 160 204 252 305 365
#     4  11  25  43  66  92 121 158 205 258 310 367
#
# _framework density 19.808959000000002
#
# number of rings (size 3 to 8) (size 9 to 14) (size 15 to 20)
#    0.000    1.750    1.250    2.625    1.750    5.500 
#    0.000    3.125    0.000    0.000    0.000    0.000 
#    0.000    0.000    0.000    0.000    0.000    0.000 
#
# Total GULP energy -396817.656513 kJ/mol
# GULP energy per Si atom -12400.551766 kJ/mol
# Density = 1.976387 g / cm^3
# Si number density = 19.808959 Si / 1000 Ang^3
#
#
#
# Elastic Constant Matrix: (Units=GPa)
#
#
# Indices 1 2 3 4 5 6 
#
# 1 123.9540 48.2943 48.2046 0.0000 8.7407 0.0000
# 2 48.2943 73.7103 47.8866 0.0000 5.6123 0.0000
# 3 48.2046 47.8866 121.3741 0.0000 8.0463 0.0000
# 4 0.0000 0.0000 0.0000 39.5918 0.0000 -0.4436
# 5 8.7407 5.6123 8.0463 0.0000 35.1687 0.0000
# 6 0.0000 0.0000 0.0000 -0.4436 0.0000 32.4072
#
#
#
# Elastic Compliance Matrix: (Units=1/GPa)
#
#
# Indices 1 2 3 4 5 6 
#
# 1 0.011280 -0.005963 -0.002036 0.000000 -0.001386 0.000000
# 2 -0.005963 0.021452 -0.006059 0.000000 -0.000555 0.000000
# 3 -0.002036 -0.006059 0.011515 0.000000 -0.001162 0.000000
# 4 0.000000 0.000000 0.000000 0.025262 0.000000 0.000346
# 5 -0.001386 -0.000555 -0.001162 0.000000 0.029133 0.000000
# 6 0.000000 0.000000 0.000000 0.000346 0.000000 0.030862
#
#
# Mechanical properties :
#
#
# Convention : Reuss Voigt Hill
#
# Bulk Modulus (GPa) = 61.98509 67.53438 64.75973
# Shear Modulus (GPa) = 30.67593 33.07706 31.87649
#
# Velocity S-wave (km/s) = 3.93948 4.09076 4.01583
# Velocity P-wave (km/s) = 7.21471 7.51527 7.36652
#
# Compressibility (1/GPa) = 0.01613291
#
# Stress axis : x y z
#
# Youngs Moduli (GPa) = 88.65264 46.61677 86.84505
#
# Poissons Ratio (x) = 0.27796 0.17678
# Poissons Ratio (y) = 0.52860 0.52615
# Poissons Ratio (z) = 0.18046 0.28243
#
# Static dielectric constant tensor:
#      x y z
#    x 3.854710 0.000000 -0.184670 
#    y 0.000000 3.534920 0.000000 
#    z -0.184670 0.000000 4.089930 
# 
# 
# High freq. dielectric constant tensor:
#      x y z
#    x 1.786470 0.000000 0.002850 
#    y 0.000000 1.759240 0.000000 
#    z 0.002850 0.000000 1.782690 
# 
# From -- ./inp_files/45249.got.cif
#   From: 2010.06.25/outbox.cif.g09.slc.cpg/sg11_23_cif.got.tgz:45249.got - 2010.06.27 23:14:04.
