data_PCOD8074071
_publ_section_title
;
Structure prediction by ZEFSAII (Michael W. Deem and Ramdas Pophale) SiO2 
 PCOD8074071
Probable space group: P 21/M
;
_chemical_formula_sum "Si O2"
_cell_formula_units_Z 32
_cell_length_a 33.080546
_cell_length_b 9.152429
_cell_length_c 12.112926
_cell_angle_alpha 90.000000
_cell_angle_beta 25.605918
_cell_angle_gamma 90.000000
_cell_volume 1584.972228
_symmetry_space_group_name_H-M "P 21/M"
_symmetry_group_IT_number 11
_symmetry_cell_setting 'monoclinic'
loop_
_space_group_symop_operation_xyz
x,y,z
-x,1/2+y,-z
-x,-y,-z
x,1/2-y,z
loop_
_atom_site_type_symbol
_atom_site_label
_atom_site_fract_x
_atom_site_fract_y
_atom_site_fract_z
Si Si1 0.093645 0.416045 0.237112
Si Si2 0.924145 0.085780 0.325466
Si Si3 0.178572 0.416077 0.257454
Si Si4 0.637868 0.079352 0.134539
Si Si5 0.499668 0.580601 0.331074
Si Si6 0.235265 0.077346 0.702964
Si Si7 0.568366 0.423644 0.744997
Si Si8 0.134884 0.086299 0.729070
O O1 0.062285 0.250000 0.293605
O O2 0.168526 0.428300 0.151244
O O3 0.000000 0.500000 0.500000
O O4 0.149251 0.475780 0.993065
O O5 0.891423 0.250000 0.432047
O O6 0.914055 0.982626 0.457357
O O7 0.857959 0.025675 0.389763
O O8 0.031972 0.079900 0.031928
O O9 0.194031 0.250000 0.256334
O O10 0.260465 0.514547 0.102702
O O11 0.644791 0.250000 0.097802
O O12 0.582996 0.038976 0.381362
O O13 0.590679 0.010364 0.142077
O O14 0.525595 0.750000 0.275558
O O15 0.469495 0.536745 0.282835
O O16 0.253621 0.250000 0.676145
O O17 0.208337 0.042643 0.642978
O O18 0.327552 0.986444 0.502361
O O19 0.569976 0.250000 0.761109
O O20 0.500000 0.500000 0.000000
O O21 0.156186 0.250000 0.633761
#
# Coordination Sequence:
#
# PCOD8074071 Si02
#       8
#     4   4   4   4   4   4   4   4
#     4  10  22  38  59  88 121 158 195 234 283 339
#     4  10  20  35  56  80 109 146 188 233 276 327
#     4  11  22  35  53  81 116 149 183 225 278 334
#     4  10  20  35  59  86 109 140 182 228 278 335
#     4   9  20  39  59  81 111 143 178 226 285 340
#     4  10  21  39  61  85 116 153 192 236 287 342
#     4  11  24  41  61  85 114 151 193 238 288 342
#     4   9  19  36  57  80 109 146 185 229 283 334
#
# _framework density 20.189629
#
# number of rings (size 3 to 8) (size 9 to 14) (size 15 to 20)
#    0.000    2.000    0.000    3.000    0.000    6.000 
#    0.000    1.250    0.000    0.000    0.000    0.000 
#    0.000    0.000    0.000    0.000    0.000    0.000 
#
# Total GULP energy -396827.061942 kJ/mol
# GULP energy per Si atom -12400.845686 kJ/mol
# Density = 2.014368 g / cm^3
# Si number density = 20.189629 Si / 1000 Ang^3
#
#
#
# Elastic Constant Matrix: (Units=GPa)
#
#
# Indices 1 2 3 4 5 6 
#
# 1 99.9397 45.1977 22.7819 0.0000 -4.4056 0.0000
# 2 45.1977 62.9794 30.4156 0.0000 -7.4379 0.0000
# 3 22.7819 30.4156 72.2575 0.0000 -6.2612 0.0000
# 4 0.0000 0.0000 0.0000 37.4125 0.0000 -0.9869
# 5 -4.4056 -7.4379 -6.2612 0.0000 30.4047 0.0000
# 6 0.0000 0.0000 0.0000 -0.9869 0.0000 31.4509
#
#
#
# Elastic Compliance Matrix: (Units=1/GPa)
#
#
# Indices 1 2 3 4 5 6 
#
# 1 0.014825 -0.010568 -0.000268 0.000000 -0.000492 0.000000
# 2 -0.010568 0.027774 -0.008047 0.000000 0.003606 0.000000
# 3 -0.000268 -0.008047 0.017449 0.000000 0.001586 0.000000
# 4 0.000000 0.000000 0.000000 0.026751 0.000000 0.000839
# 5 -0.000492 0.003606 0.001586 0.000000 0.034027 0.000000
# 6 0.000000 0.000000 0.000000 0.000839 0.000000 0.031822
#
#
# Mechanical properties :
#
#
# Convention : Reuss Voigt Hill
#
# Bulk Modulus (GPa) = 44.87957 47.99632 46.43795
# Shear Modulus (GPa) = 25.27288 28.97239 27.12263
#
# Velocity S-wave (km/s) = 3.54188 3.79227 3.66921
# Velocity P-wave (km/s) = 6.24531 6.55739 6.40325
#
# Compressibility (1/GPa) = 0.02228185
#
# Stress axis : x y z
#
# Youngs Moduli (GPa) = 67.45495 36.00466 57.31118
#
# Poissons Ratio (x) = 0.38048 0.01539
# Poissons Ratio (y) = 0.71284 0.46117
# Poissons Ratio (z) = 0.01811 0.28972
#
# Static dielectric constant tensor:
#      x y z
#    x 3.844710 0.000000 0.112800 
#    y 0.000000 3.761340 0.000000 
#    z 0.112800 0.000000 3.591060 
# 
# 
# High freq. dielectric constant tensor:
#      x y z
#    x 1.799330 0.000000 0.002380 
#    y 0.000000 1.789540 0.000000 
#    z 0.002380 0.000000 1.784890 
# 
# From -- ./inp_files/45149.got.cif
#   From: 2010.06.25/outbox.cif.g09.slc.cpg/sg11_23_cif.got.tgz:45149.got - 2010.06.27 23:14:04.
