data_PCOD8074273
_publ_section_title
;
Structure prediction by ZEFSAII (Michael W. Deem and Ramdas Pophale) SiO2 
 PCOD8074273
Probable space group: P 21/M
;
_chemical_formula_sum "Si O2"
_cell_formula_units_Z 28
_cell_length_a 27.384108
_cell_length_b 8.931529
_cell_length_c 9.793568
_cell_angle_alpha 90.000000
_cell_angle_beta 38.279508
_cell_angle_gamma 90.000000
_cell_volume 1483.902901
_symmetry_space_group_name_H-M "P 21/M"
_symmetry_group_IT_number 11
_symmetry_cell_setting 'monoclinic'
loop_
_space_group_symop_operation_xyz
x,y,z
-x,1/2+y,-z
-x,-y,-z
x,1/2-y,z
loop_
_atom_site_type_symbol
_atom_site_label
_atom_site_fract_x
_atom_site_fract_y
_atom_site_fract_z
Si Si1 0.853120 0.923953 0.521368
Si Si2 0.562293 0.924573 0.266984
Si Si3 0.022785 0.925471 0.090820
Si Si4 0.269902 0.428031 0.990894
Si Si5 0.299245 0.572337 0.642737
Si Si6 0.177056 0.071582 0.719463
Si Si7 0.475646 0.924407 0.191815
O O1 0.833719 0.750000 0.556439
O O2 0.829740 0.986643 0.422451
O O3 0.945561 0.951767 0.355706
O O4 0.800053 0.991962 0.759075
O O5 0.552575 0.750000 0.311356
O O6 0.649885 0.977919 0.110203
O O7 0.542266 0.968528 0.155501
O O8 0.500000 0.000000 0.500000
O O9 0.039688 0.750000 0.034840
O O10 0.101613 0.008083 0.971315
O O11 0.000000 0.000000 0.000000
O O12 0.265214 0.250000 0.978453
O O13 0.262223 0.508649 0.862902
O O14 0.288539 0.750000 0.662801
O O15 0.255695 0.498046 0.609780
O O16 0.390310 0.522062 0.432901
O O17 0.178366 0.250000 0.728360
O O18 0.472803 0.750000 0.169990
O O19 0.500000 0.000000 0.000000
#
# Coordination Sequence:
#
# PCOD8074273 Si02
#       7
#     4   4   4   4   4   4   4
#     4   8  17  33  56  84 109 137 180 228 269 319
#     4  10  20  36  58  80 107 144 184 224 268 321
#     4   9  16  31  54  81 114 146 180 226 276 326
#     4  10  20  36  58  81 106 143 186 225 269 326
#     4  11  23  39  54  78 115 147 179 226 279 326
#     4  10  20  35  58  84 110 145 186 227 275 330
#     4  10  23  39  56  81 112 144 182 227 272 324
#
# _framework density 18.869160000000001
#
# number of rings (size 3 to 8) (size 9 to 14) (size 15 to 20)
#    0.000    2.286    1.429    2.143    2.000    1.714 
#    0.000    5.000    0.000    0.000    0.000    0.000 
#    0.000    0.000    0.000    0.000    0.000    0.000 
#
# Total GULP energy -347094.740303 kJ/mol
# GULP energy per Si atom -12396.240725 kJ/mol
# Density = 1.882621 g / cm^3
# Si number density = 18.869160 Si / 1000 Ang^3
#
#
#
# Elastic Constant Matrix: (Units=GPa)
#
#
# Indices 1 2 3 4 5 6 
#
# 1 56.2366 20.1308 19.5653 0.0000 5.2008 0.0000
# 2 20.1308 51.4376 30.2618 0.0000 -1.0538 0.0000
# 3 19.5653 30.2618 122.0226 0.0000 7.0157 0.0000
# 4 0.0000 0.0000 0.0000 28.9528 0.0000 -1.0235
# 5 5.2008 -1.0538 7.0157 0.0000 28.1737 0.0000
# 6 0.0000 0.0000 0.0000 -1.0235 0.0000 30.3301
#
#
#
# Elastic Compliance Matrix: (Units=1/GPa)
#
#
# Indices 1 2 3 4 5 6 
#
# 1 0.021339 -0.007669 -0.001295 0.000000 -0.003904 0.000000
# 2 -0.007669 0.025665 -0.005348 0.000000 0.003708 0.000000
# 3 -0.001295 -0.005348 0.009868 0.000000 -0.002418 0.000000
# 4 0.000000 0.000000 0.000000 0.034580 0.000000 0.001167
# 5 -0.003904 0.003708 -0.002418 0.000000 0.036956 0.000000
# 6 0.000000 0.000000 0.000000 0.001167 0.000000 0.033010
#
#
# Mechanical properties :
#
#
# Convention : Reuss Voigt Hill
#
# Bulk Modulus (GPa) = 35.40243 41.06806 38.23524
# Shear Modulus (GPa) = 25.06777 28.14058 26.60418
#
# Velocity S-wave (km/s) = 3.64882 3.86599 3.75898
# Velocity P-wave (km/s) = 6.04604 6.46063 6.25677
#
# Compressibility (1/GPa) = 0.02824665
#
# Stress axis : x y z
#
# Youngs Moduli (GPa) = 46.86267 38.96349 101.33433
#
# Poissons Ratio (x) = 0.29882 0.13124
# Poissons Ratio (y) = 0.35940 0.54198
# Poissons Ratio (z) = 0.06069 0.20839
#
# Static dielectric constant tensor:
#      x y z
#    x 3.591840 0.000000 -0.324480 
#    y 0.000000 3.393050 0.000000 
#    z -0.324480 0.000000 3.776790 
# 
# 
# High freq. dielectric constant tensor:
#      x y z
#    x 1.729130 0.000000 -0.014110 
#    y 0.000000 1.721410 0.000000 
#    z -0.014110 0.000000 1.736480 
# 
# From -- ./inp_files/28230.got.cif
#   From: 2010.06.25/outbox.cif.g09.slc.cpg/sg11_15_cif.got.tgz:28230.got - 2010.06.27 23:14:04.
