data_PCOD8074208
_publ_section_title
;
Structure prediction by ZEFSAII (Michael W. Deem and Ramdas Pophale) SiO2 
 PCOD8074208
Probable space group: P 21/M
;
_chemical_formula_sum "Si O2"
_cell_formula_units_Z 16
_cell_length_a 11.100140
_cell_length_b 8.928951
_cell_length_c 9.323244
_cell_angle_alpha 90.000000
_cell_angle_beta 115.184196
_cell_angle_gamma 90.000000
_cell_volume 836.214844
_symmetry_space_group_name_H-M "P 21/M"
_symmetry_group_IT_number 11
_symmetry_cell_setting 'monoclinic'
loop_
_space_group_symop_operation_xyz
x,y,z
-x,1/2+y,-z
-x,-y,-z
x,1/2-y,z
loop_
_atom_site_type_symbol
_atom_site_label
_atom_site_fract_x
_atom_site_fract_y
_atom_site_fract_z
Si Si1 0.615195 0.424638 0.147929
Si Si2 0.621010 0.072277 0.476758
Si Si3 0.148578 0.922726 0.935273
Si Si4 0.156216 0.423968 0.232812
O O1 0.586999 0.250000 0.130641
O O2 0.614304 0.484416 0.309706
O O3 0.758144 0.463201 0.151378
O O4 0.500000 0.500000 0.000000
O O5 0.611836 0.250000 0.483607
O O6 0.500000 0.000000 0.500000
O O7 0.760591 0.018154 0.611110
O O8 0.163404 0.750000 0.990077
O O9 0.997971 0.957483 0.811702
O O10 0.192721 0.024703 0.090827
O O11 0.192527 0.250000 0.265766
#
# Coordination Sequence:
#
# PCOD8074208 Si02
#       4
#     4   4   4   4
#     4  10  22  38  56  79 107 141 181 224 269 319
#     4  11  23  38  56  80 110 143 181 224 270 321
#     4   9  19  37  58  80 110 145 180 221 268 318
#     4  10  20  35  57  84 111 142 180 220 267 322
#
# _framework density 19.133838000000001
#
# number of rings (size 3 to 8) (size 9 to 14) (size 15 to 20)
#    0.000    2.000    0.000    3.000    0.000    9.000 
#    0.000    0.000    0.000    0.000    0.000    0.000 
#    0.000    0.000    0.000    0.000    0.000    0.000 
#
# Total GULP energy -198472.018504 kJ/mol
# GULP energy per Si atom -12404.501157 kJ/mol
# Density = 1.909029 g / cm^3
# Si number density = 19.133838 Si / 1000 Ang^3
#
#
#
# Elastic Constant Matrix: (Units=GPa)
#
#
# Indices 1 2 3 4 5 6 
#
# 1 141.0903 47.8868 88.7014 0.0000 -17.4208 0.0000
# 2 47.8868 67.3119 58.6713 0.0000 -3.2254 0.0000
# 3 88.7014 58.6713 169.2746 0.0000 -5.0373 0.0000
# 4 0.0000 0.0000 0.0000 37.0345 0.0000 4.7045
# 5 -17.4208 -3.2254 -5.0373 0.0000 33.3753 0.0000
# 6 0.0000 0.0000 0.0000 4.7045 0.0000 31.4770
#
#
#
# Elastic Compliance Matrix: (Units=1/GPa)
#
#
# Indices 1 2 3 4 5 6 
#
# 1 0.012159 -0.004273 -0.004735 0.000000 0.005219 0.000000
# 2 -0.004273 0.022819 -0.005696 0.000000 -0.000885 0.000000
# 3 -0.004735 -0.005696 0.010320 0.000000 -0.001465 0.000000
# 4 0.000000 0.000000 0.000000 0.027524 0.000000 -0.004114
# 5 0.005219 -0.000885 -0.001465 0.000000 0.032380 0.000000
# 6 0.000000 0.000000 0.000000 -0.004114 0.000000 0.032384
#
#
# Mechanical properties :
#
#
# Convention : Reuss Voigt Hill
#
# Bulk Modulus (GPa) = 62.93774 85.35510 74.14642
# Shear Modulus (GPa) = 29.02060 32.53852 30.77956
#
# Velocity S-wave (km/s) = 3.89873 4.12828 4.01514
# Velocity P-wave (km/s) = 7.29600 8.21157 7.76729
#
# Compressibility (1/GPa) = 0.01588872
#
# Stress axis : x y z
#
# Youngs Moduli (GPa) = 82.24150 43.82368 96.90183
#
# Poissons Ratio (x) = 0.18725 0.45886
# Poissons Ratio (y) = 0.35140 0.55199
# Poissons Ratio (z) = 0.38944 0.24964
#
# Static dielectric constant tensor:
#      x y z
#    x 3.745330 0.000000 -0.025410 
#    y 0.000000 3.566180 0.000000 
#    z -0.025410 0.000000 3.603680 
# 
# 
# High freq. dielectric constant tensor:
#      x y z
#    x 1.756540 0.000000 0.003710 
#    y 0.000000 1.747210 0.000000 
#    z 0.003710 0.000000 1.746320 
# 
# From -- ./inp_files/15615.got.cif
#   From: 2010.06.25/outbox.cif.g09.slc.cpg/sg11_8_cif.got.tgz:15615.got - 2010.06.27 23:14:04.
