data_PCOD8074756
_publ_section_title
;
Structure prediction by ZEFSAII (Michael W. Deem and Ramdas Pophale) SiO2 
 PCOD8074756
Probable space group: P 21/M
;
_chemical_formula_sum "Si O2"
_cell_formula_units_Z 32
_cell_length_a 22.612175
_cell_length_b 8.819148
_cell_length_c 15.217018
_cell_angle_alpha 90.000000
_cell_angle_beta 31.327472
_cell_angle_gamma 90.000000
_cell_volume 1577.765125
_symmetry_space_group_name_H-M "P 21/M"
_symmetry_group_IT_number 11
_symmetry_cell_setting 'monoclinic'
loop_
_space_group_symop_operation_xyz
x,y,z
-x,1/2+y,-z
-x,-y,-z
x,1/2-y,z
loop_
_atom_site_type_symbol
_atom_site_label
_atom_site_fract_x
_atom_site_fract_y
_atom_site_fract_z
Si Si1 0.748316 0.425581 0.508892
Si Si2 0.003685 0.425433 0.228600
Si Si3 0.956437 0.074391 0.642965
Si Si4 0.415377 0.930161 0.751295
Si Si5 0.698980 0.074901 0.933597
Si Si6 0.376076 0.930288 0.156654
Si Si7 0.670533 0.571544 0.432064
Si Si8 0.221953 0.570266 0.866095
O O1 0.717523 0.250000 0.532827
O O2 0.697364 0.483868 0.666317
O O3 0.691770 0.525604 0.505199
O O4 0.883734 0.449699 0.332756
O O5 0.037282 0.250000 0.191222
O O6 0.987391 0.489242 0.346931
O O7 0.100337 0.513762 0.053330
O O8 0.990475 0.250000 0.602287
O O9 0.822246 0.050041 0.818092
O O10 0.000000 0.000000 0.500000
O O11 0.403318 0.750000 0.769074
O O12 0.543200 0.979619 0.565111
O O13 0.325014 0.994916 0.795361
O O14 0.386647 0.995826 0.885170
O O15 0.670788 0.250000 0.957470
O O16 0.684622 0.003452 0.854710
O O17 0.384242 0.750000 0.145896
O O18 0.500000 0.000000 0.000000
O O19 0.686813 0.750000 0.401511
O O20 0.759788 0.487419 0.256012
O O21 0.219524 0.750000 0.870386
#
# Coordination Sequence:
#
# PCOD8074756 Si02
#       8
#     4   4   4   4   4   4   4   4
#     4  10  23  42  60  84 122 165 204 248 306 361
#     4  11  23  41  63  88 120 158 205 255 300 355
#     4  11  21  36  59  86 119 158 199 244 299 357
#     4   9  18  35  60  90 122 154 194 243 304 366
#     4   9  17  33  57  83 114 155 192 231 293 356
#     4  10  20  36  59  85 118 158 199 242 293 350
#     4  11  23  39  63  91 117 154 205 256 300 358
#     4  11  22  40  64  90 123 160 195 244 311 371
#
# _framework density 20.281853000000002
#
# number of rings (size 3 to 8) (size 9 to 14) (size 15 to 20)
#    0.000    1.750    1.250    3.375    0.000    5.000 
#    0.000    4.375    0.000    0.000    0.000    0.000 
#    0.000    0.000    0.000    0.000    0.000    0.000 
#
# Total GULP energy -396828.485616 kJ/mol
# GULP energy per Si atom -12400.890176 kJ/mol
# Density = 2.023569 g / cm^3
# Si number density = 20.281853 Si / 1000 Ang^3
#
#
#
# Elastic Constant Matrix: (Units=GPa)
#
#
# Indices 1 2 3 4 5 6 
#
# 1 83.0055 28.6085 28.7812 0.0000 4.3263 0.0000
# 2 28.6085 65.8477 37.0247 0.0000 -3.8781 0.0000
# 3 28.7812 37.0247 120.5360 0.0000 13.7823 0.0000
# 4 0.0000 0.0000 0.0000 31.9777 0.0000 0.5655
# 5 4.3263 -3.8781 13.7823 0.0000 31.6808 0.0000
# 6 0.0000 0.0000 0.0000 0.5655 0.0000 30.3876
#
#
#
# Elastic Compliance Matrix: (Units=1/GPa)
#
#
# Indices 1 2 3 4 5 6 
#
# 1 0.014617 -0.005604 -0.001539 0.000000 -0.002013 0.000000
# 2 -0.005604 0.021273 -0.005874 0.000000 0.005925 0.000000
# 3 -0.001539 -0.005874 0.011077 0.000000 -0.005328 0.000000
# 4 0.000000 0.000000 0.000000 0.031282 0.000000 -0.000582
# 5 -0.002013 0.005925 -0.005328 0.000000 0.034883 0.000000
# 6 0.000000 0.000000 0.000000 -0.000582 0.000000 0.032919
#
#
# Mechanical properties :
#
#
# Convention : Reuss Voigt Hill
#
# Bulk Modulus (GPa) = 47.76829 50.91310 49.34070
# Shear Modulus (GPa) = 27.92326 30.47420 29.19873
#
# Velocity S-wave (km/s) = 3.71450 3.88046 3.79839
# Velocity P-wave (km/s) = 6.48074 6.72567 6.60434
#
# Compressibility (1/GPa) = 0.02093439
#
# Stress axis : x y z
#
# Youngs Moduli (GPa) = 68.41192 47.00821 90.27651
#
# Poissons Ratio (x) = 0.26344 0.13891
# Poissons Ratio (y) = 0.38338 0.53025
# Poissons Ratio (z) = 0.10527 0.27611
#
# Static dielectric constant tensor:
#      x y z
#    x 3.738090 0.000000 0.158500 
#    y 0.000000 3.527500 0.000000 
#    z 0.158500 0.000000 3.663340 
# 
# 
# High freq. dielectric constant tensor:
#      x y z
#    x 1.799420 0.000000 0.005840 
#    y 0.000000 1.768730 0.000000 
#    z 0.005840 0.000000 1.807070 
# 
# From -- ./inp_files/55649.got.cif
#   From: 2010.06.25/outbox.cif.g09.slc.cpg/sg11_28_cif.got.tgz:55649.got - 2010.06.27 23:14:04.
