data_PCOD8074792
_publ_section_title
;
Structure prediction by ZEFSAII (Michael W. Deem and Ramdas Pophale) SiO2 
 PCOD8074792
Probable space group: P 21/M
;
_chemical_formula_sum "Si O2"
_cell_formula_units_Z 32
_cell_length_a 16.448632
_cell_length_b 17.465245
_cell_length_c 10.081546
_cell_angle_alpha 90.000000
_cell_angle_beta 33.266700
_cell_angle_gamma 90.000000
_cell_volume 1588.683909
_symmetry_space_group_name_H-M "P 21/M"
_symmetry_group_IT_number 11
_symmetry_cell_setting 'monoclinic'
loop_
_space_group_symop_operation_xyz
x,y,z
-x,1/2+y,-z
-x,-y,-z
x,1/2-y,z
loop_
_atom_site_type_symbol
_atom_site_label
_atom_site_fract_x
_atom_site_fract_y
_atom_site_fract_z
Si Si1 0.979999 0.661937 0.350503
Si Si2 0.397179 0.835286 0.418393
Si Si3 0.720707 0.941946 0.643735
Si Si4 0.537365 0.841510 0.505607
Si Si5 0.898915 0.109318 0.084253
Si Si6 0.191147 0.054833 0.776260
Si Si7 0.719822 0.336573 0.948359
Si Si8 0.592778 0.098769 0.877797
O O1 0.938672 0.750000 0.442159
O O2 0.836687 0.608455 0.571115
O O3 0.117133 0.627826 0.249268
O O4 0.029593 0.657526 0.130954
O O5 0.445378 0.750000 0.315172
O O6 0.487676 0.862665 0.424165
O O7 0.222195 0.836551 0.683745
O O8 0.430311 0.887145 0.246237
O O9 0.784747 0.960473 0.412566
O O10 0.678716 0.018710 0.781448
O O11 0.567723 0.896418 0.834792
O O12 0.567596 0.750000 0.481137
O O13 0.686122 0.890117 0.327527
O O14 0.410043 0.871568 0.780898
O O15 0.818254 0.029859 0.145584
O O16 0.028949 0.093172 0.014178
O O17 0.734014 0.250000 0.976424
O O18 0.686330 0.341036 0.836887
#
# Coordination Sequence:
#
# PCOD8074792 Si02
#       8
#     4   4   4   4   4   4   4   4
#     4  10  21  39  62  89 117 153 203 252 295 354
#     4  11  22  38  59  86 122 159 193 245 307 355
#     4  10  22  38  60  86 119 160 198 245 293 360
#     4  10  21  38  60  90 119 153 207 252 293 350
#     4  10  20  36  59  88 118 151 194 247 302 356
#     4  10  20  38  60  86 118 155 201 247 293 356
#     4  10  20  37  61  87 116 156 205 250 290 349
#     4  11  22  40  58  87 125 155 202 243 297 356
#
# _framework density 20.142458999999999
#
# number of rings (size 3 to 8) (size 9 to 14) (size 15 to 20)
#    0.000    1.750    3.750    0.750    0.000    4.500 
#    4.500    1.250    0.000    1.500    0.000    0.000 
#    0.000    0.000    0.000    0.000    0.000    0.000 
#
# Total GULP energy -396601.391856 kJ/mol
# GULP energy per Si atom -12393.793496 kJ/mol
# Density = 2.009661 g / cm^3
# Si number density = 20.142459 Si / 1000 Ang^3
#
#
#
# Elastic Constant Matrix: (Units=GPa)
#
#
# Indices 1 2 3 4 5 6 
#
# 1 122.9591 48.0838 39.6459 0.0000 -15.5707 0.0000
# 2 48.0838 66.7007 29.5590 0.0000 -21.8766 0.0000
# 3 39.6459 29.5590 67.8082 0.0000 -20.1602 0.0000
# 4 0.0000 0.0000 0.0000 19.6801 0.0000 -12.6237
# 5 -15.5707 -21.8766 -20.1602 0.0000 34.3974 0.0000
# 6 0.0000 0.0000 0.0000 -12.6237 0.0000 27.6027
#
#
#
# Elastic Compliance Matrix: (Units=1/GPa)
#
#
# Indices 1 2 3 4 5 6 
#
# 1 0.012254 -0.007452 -0.004452 0.000000 -0.001801 0.000000
# 2 -0.007452 0.025459 -0.003548 0.000000 0.010739 0.000000
# 3 -0.004452 -0.003548 0.021347 0.000000 0.008239 0.000000
# 4 0.000000 0.000000 0.000000 0.071907 0.000000 0.032886
# 5 -0.001801 0.010739 0.008239 0.000000 0.039915 0.000000
# 6 0.000000 0.000000 0.000000 0.032886 0.000000 0.051268
#
#
# Mechanical properties :
#
#
# Convention : Reuss Voigt Hill
#
# Bulk Modulus (GPa) = 35.51676 54.67170 45.09423
# Shear Modulus (GPa) = 19.05199 25.68134 22.36667
#
# Velocity S-wave (km/s) = 3.07882 3.57457 3.33592
# Velocity P-wave (km/s) = 5.50545 6.65118 6.10525
#
# Compressibility (1/GPa) = 0.02815572
#
# Stress axis : x y z
#
# Youngs Moduli (GPa) = 81.60485 39.27891 46.84526
#
# Poissons Ratio (x) = 0.29270 0.20855
# Poissons Ratio (y) = 0.60811 0.16622
# Poissons Ratio (z) = 0.36330 0.13938
#
# Static dielectric constant tensor:
#      x y z
#    x 3.608880 0.000000 -0.280760 
#    y 0.000000 3.586130 0.000000 
#    z -0.280760 0.000000 3.636710 
# 
# 
# High freq. dielectric constant tensor:
#      x y z
#    x 1.779190 0.000000 -0.019370 
#    y 0.000000 1.780290 0.000000 
#    z -0.019370 0.000000 1.779170 
# 
# From -- ./inp_files/23055.got.cif
#   From: 2010.06.25/outbox.cif.g09.slc.cpg/sg11_12_cif.got.tgz:23055.got - 2010.06.27 23:14:04.
