data_PCOD8074860
_publ_section_title
;
Structure prediction by ZEFSAII (Michael W. Deem and Ramdas Pophale) SiO2 
 PCOD8074860
Probable space group: P 21/M
;
_chemical_formula_sum "Si O2"
_cell_formula_units_Z 32
_cell_length_a 12.308585
_cell_length_b 17.290383
_cell_length_c 16.095187
_cell_angle_alpha 90.000000
_cell_angle_beta 27.023910
_cell_angle_gamma 90.000000
_cell_volume 1556.363524
_symmetry_space_group_name_H-M "P 21/M"
_symmetry_group_IT_number 11
_symmetry_cell_setting 'monoclinic'
loop_
_space_group_symop_operation_xyz
x,y,z
-x,1/2+y,-z
-x,-y,-z
x,1/2-y,z
loop_
_atom_site_type_symbol
_atom_site_label
_atom_site_fract_x
_atom_site_fract_y
_atom_site_fract_z
Si Si1 0.347555 0.659360 0.317978
Si Si2 0.885753 0.336384 0.685726
Si Si3 0.758077 0.842012 0.424922
Si Si4 0.886113 0.416580 0.942205
Si Si5 0.518776 0.336344 0.082312
Si Si6 0.217127 0.660791 0.818244
Si Si7 0.079586 0.339405 0.278877
Si Si8 0.146763 0.404603 0.055730
O O1 0.400707 0.750000 0.265834
O O2 0.198135 0.622562 0.342163
O O3 0.193694 0.646939 0.506452
O O4 0.596006 0.614904 0.158634
O O5 0.961818 0.250000 0.608937
O O6 0.114362 0.374119 0.577192
O O7 0.662763 0.337614 0.898996
O O8 0.795411 0.750000 0.392970
O O9 0.483502 0.867231 0.613213
O O10 0.886669 0.878669 0.257715
O O11 0.633929 0.393318 0.071457
O O12 0.889219 0.389376 0.034830
O O13 0.917343 0.507761 0.919876
O O14 0.519841 0.250000 0.120467
O O15 0.250497 0.362298 0.240461
O O16 0.221168 0.750000 0.842292
O O17 0.052334 0.649875 0.850044
O O18 0.125629 0.250000 0.223756
O O19 0.141059 0.391904 0.158355
#
# Coordination Sequence:
#
# PCOD8074860 Si02
#       8
#     4   4   4   4   4   4   4   4
#     4  10  20  36  60  88 120 161 208 252 293 352
#     4   8  14  30  57  85 116 147 189 254 303 335
#     4   9  20  39  63  92 118 151 207 264 301 339
#     4  11  24  40  62  90 126 164 195 247 311 366
#     4   9  17  35  62  87 117 154 204 256 296 348
#     4  11  24  42  67  88 113 157 213 259 293 352
#     4  10  21  37  61  88 117 161 209 252 298 352
#     4  12  25  41  58  89 133 166 193 239 308 376
#
# _framework density 20.560749999999999
#
# number of rings (size 3 to 8) (size 9 to 14) (size 15 to 20)
#    0.000    2.000    1.250    3.375    1.750    3.000 
#    0.000    1.875    0.000    0.000    0.000    0.000 
#    0.000    0.000    0.000    0.000    0.000    0.000 
#
# Total GULP energy -396804.212411 kJ/mol
# GULP energy per Si atom -12400.131638 kJ/mol
# Density = 2.051395 g / cm^3
# Si number density = 20.560750 Si / 1000 Ang^3
#
#
#
# Elastic Constant Matrix: (Units=GPa)
#
#
# Indices 1 2 3 4 5 6 
#
# 1 80.2384 15.3164 37.8414 0.0000 -15.8608 0.0000
# 2 15.3164 54.0377 27.4349 0.0000 1.3116 0.0000
# 3 37.8414 27.4349 106.4074 0.0000 -20.3138 0.0000
# 4 0.0000 0.0000 0.0000 11.9289 0.0000 0.4543
# 5 -15.8608 1.3116 -20.3138 0.0000 30.4091 0.0000
# 6 0.0000 0.0000 0.0000 0.4543 0.0000 22.0156
#
#
#
# Elastic Compliance Matrix: (Units=1/GPa)
#
#
# Indices 1 2 3 4 5 6 
#
# 1 0.015958 -0.002707 -0.003858 0.000000 0.005863 0.000000
# 2 -0.002707 0.022511 -0.006070 0.000000 -0.006438 0.000000
# 3 -0.003858 -0.006070 0.013755 0.000000 0.007438 0.000000
# 4 0.000000 0.000000 0.000000 0.083896 0.000000 -0.001731
# 5 0.005863 -0.006438 0.007438 0.000000 0.041189 0.000000
# 6 0.000000 0.000000 0.000000 -0.001731 0.000000 0.045458
#
#
# Mechanical properties :
#
#
# Convention : Reuss Voigt Hill
#
# Bulk Modulus (GPa) = 37.10070 44.65211 40.87640
# Shear Modulus (GPa) = 19.45362 23.54345 21.49853
#
# Velocity S-wave (km/s) = 3.07930 3.38756 3.23710
# Velocity P-wave (km/s) = 5.54314 6.08810 5.82200
#
# Compressibility (1/GPa) = 0.02695367
#
# Stress axis : x y z
#
# Youngs Moduli (GPa) = 62.66484 44.42277 72.70108
#
# Poissons Ratio (x) = 0.12024 0.28048
# Poissons Ratio (y) = 0.16962 0.44133
# Poissons Ratio (z) = 0.24176 0.26966
#
# Static dielectric constant tensor:
#      x y z
#    x 3.725740 0.000000 -0.144630 
#    y 0.000000 3.368880 0.000000 
#    z -0.144630 0.000000 3.701470 
# 
# 
# High freq. dielectric constant tensor:
#      x y z
#    x 1.805450 0.000000 -0.005110 
#    y 0.000000 1.768090 0.000000 
#    z -0.005110 0.000000 1.810000 
# 
# From -- ./inp_files/50670.got.cif
#   From: 2010.06.25/outbox.cif.g09.slc.cpg/sg11_26_cif.got.tgz:50670.got - 2010.06.27 23:14:04.
