data_PCOD8074378
_publ_section_title
;
Structure prediction by ZEFSAII (Michael W. Deem and Ramdas Pophale) SiO2 
 PCOD8074378
Probable space group: P 21/M
;
_chemical_formula_sum "Si O2"
_cell_formula_units_Z 32
_cell_length_a 12.167919
_cell_length_b 8.751571
_cell_length_c 15.058910
_cell_angle_alpha 90.000000
_cell_angle_beta 88.413733
_cell_angle_gamma 90.000000
_cell_volume 1602.984804
_symmetry_space_group_name_H-M "P 21/M"
_symmetry_group_IT_number 11
_symmetry_cell_setting 'monoclinic'
loop_
_space_group_symop_operation_xyz
x,y,z
-x,1/2+y,-z
-x,-y,-z
x,1/2-y,z
loop_
_atom_site_type_symbol
_atom_site_label
_atom_site_fract_x
_atom_site_fract_y
_atom_site_fract_z
Si Si1 0.530431 0.929650 0.866186
Si Si2 0.276918 0.923865 0.458041
Si Si3 0.910745 0.931244 0.067366
Si Si4 0.902527 0.069630 0.256436
Si Si5 0.540774 0.070123 0.681860
Si Si6 0.962410 0.424815 0.591663
Si Si7 0.295186 0.071154 0.642700
Si Si8 0.335145 0.069972 0.966633
O O1 0.519288 0.750000 0.863925
O O2 0.576059 0.989600 0.771989
O O3 0.409718 0.998058 0.887445
O O4 0.617585 0.982617 0.939078
O O5 0.297631 0.750000 0.489988
O O6 0.378171 0.985885 0.397604
O O7 0.169190 0.931869 0.399157
O O8 0.260633 0.030625 0.543532
O O9 0.918570 0.750000 0.064956
O O10 0.789657 0.988197 0.040030
O O11 0.937684 0.990355 0.164635
O O12 0.000000 0.000000 0.000000
O O13 0.905866 0.250000 0.244580
O O14 0.780323 0.018143 0.286018
O O15 0.989830 0.020123 0.328235
O O16 0.550669 0.250000 0.695590
O O17 0.419468 0.018484 0.656283
O O18 0.004942 0.250000 0.595207
O O19 0.000000 0.500000 0.500000
O O20 0.278896 0.250000 0.659096
O O21 0.341664 0.250000 0.954011
#
# Coordination Sequence:
#
# PCOD8074378 Si02
#       8
#     4   4   4   4   4   4   4   4
#     4  10  20  35  59  89 115 149 195 241 289 351
#     4  10  22  39  59  84 117 155 196 243 297 358
#     4  11  24  43  64  89 123 159 199 250 305 363
#     4  12  25  41  63  90 121 160 205 252 300 358
#     4  10  22  38  55  83 121 157 191 236 297 358
#     4  11  22  39  63  90 120 156 201 252 302 355
#     4  11  22  37  60  86 117 155 198 245 297 355
#     4   9  20  39  61  85 117 153 191 240 297 353
#
# _framework density 19.962759999999999
#
# number of rings (size 3 to 8) (size 9 to 14) (size 15 to 20)
#    0.000    1.500    1.250    3.750    0.000    7.500 
#    0.000    2.500    0.000    0.000    0.000    0.000 
#    0.000    0.000    0.000    0.000    0.000    0.000 
#
# Total GULP energy -396988.569226 kJ/mol
# GULP energy per Si atom -12405.892788 kJ/mol
# Density = 1.991732 g / cm^3
# Si number density = 19.962760 Si / 1000 Ang^3
#
#
#
# Elastic Constant Matrix: (Units=GPa)
#
#
# Indices 1 2 3 4 5 6 
#
# 1 103.1506 28.7715 51.5404 0.0000 -5.0475 0.0000
# 2 28.7715 58.8569 27.9178 0.0000 -0.8158 0.0000
# 3 51.5404 27.9178 122.6080 0.0000 -10.5850 0.0000
# 4 0.0000 0.0000 0.0000 39.0519 0.0000 -1.7031
# 5 -5.0475 -0.8158 -10.5850 0.0000 32.4549 0.0000
# 6 0.0000 0.0000 0.0000 -1.7031 0.0000 26.7596
#
#
#
# Elastic Compliance Matrix: (Units=1/GPa)
#
#
# Indices 1 2 3 4 5 6 
#
# 1 0.013172 -0.004288 -0.004520 0.000000 0.000466 0.000000
# 2 -0.004288 0.020473 -0.002955 0.000000 -0.001116 0.000000
# 3 -0.004520 -0.002955 0.010971 0.000000 0.002801 0.000000
# 4 0.000000 0.000000 0.000000 0.025678 0.000000 0.001634
# 5 0.000466 -0.001116 0.002801 0.000000 0.031770 0.000000
# 6 0.000000 0.000000 0.000000 0.001634 0.000000 0.037474
#
#
# Mechanical properties :
#
#
# Convention : Reuss Voigt Hill
#
# Bulk Modulus (GPa) = 47.42053 55.67498 51.54776
# Shear Modulus (GPa) = 29.39517 31.41234 30.40376
#
# Velocity S-wave (km/s) = 3.84148 3.97110 3.90683
# Velocity P-wave (km/s) = 6.59409 6.99830 6.79920
#
# Compressibility (1/GPa) = 0.02108791
#
# Stress axis : x y z
#
# Youngs Moduli (GPa) = 75.91729 48.84469 91.14903
#
# Poissons Ratio (x) = 0.20947 0.41203
# Poissons Ratio (y) = 0.32557 0.26938
# Poissons Ratio (z) = 0.34318 0.14435
#
# Static dielectric constant tensor:
#      x y z
#    x 3.888620 0.000000 0.070300 
#    y 0.000000 3.609870 0.000000 
#    z 0.070300 0.000000 3.631860 
# 
# 
# High freq. dielectric constant tensor:
#      x y z
#    x 1.786360 0.000000 0.003640 
#    y 0.000000 1.781270 0.000000 
#    z 0.003640 0.000000 1.783690 
# 
# From -- ./inp_files/49365.got.cif
#   From: 2010.06.25/outbox.cif.g09.slc.cpg/sg11_25_cif.got.tgz:49365.got - 2010.06.27 23:14:04.
