data_PCOD8074182
_publ_section_title
;
Structure prediction by ZEFSAII (Michael W. Deem and Ramdas Pophale) SiO2 
 PCOD8074182
Probable space group: P 21/M
;
_chemical_formula_sum "Si O2"
_cell_formula_units_Z 32
_cell_length_a 12.289846
_cell_length_b 8.926429
_cell_length_c 15.002197
_cell_angle_alpha 90.000000
_cell_angle_beta 89.928347
_cell_angle_gamma 90.000000
_cell_volume 1645.806300
_symmetry_space_group_name_H-M "P 21/M"
_symmetry_group_IT_number 11
_symmetry_cell_setting 'monoclinic'
loop_
_space_group_symop_operation_xyz
x,y,z
-x,1/2+y,-z
-x,-y,-z
x,1/2-y,z
loop_
_atom_site_type_symbol
_atom_site_label
_atom_site_fract_x
_atom_site_fract_y
_atom_site_fract_z
Si Si1 0.883571 0.073641 0.002276
Si Si2 0.268682 0.575339 0.159063
Si Si3 0.492815 0.420566 0.846833
Si Si4 0.272880 0.922637 0.647049
Si Si5 0.491569 0.419658 0.332586
Si Si6 0.117375 0.928047 0.495026
Si Si7 0.253875 0.421843 0.347336
Si Si8 0.721651 0.427185 0.151744
O O1 0.897610 0.250000 0.009355
O O2 0.817605 0.012346 0.088327
O O3 0.820910 0.028456 0.912689
O O4 0.000000 0.000000 0.000000
O O5 0.259877 0.750000 0.186561
O O6 0.387245 0.545728 0.112784
O O7 0.249492 0.472026 0.244768
O O8 0.458338 0.250000 0.860693
O O9 0.506691 0.454955 0.742626
O O10 0.395258 0.519749 0.887411
O O11 0.241487 0.750000 0.652671
O O12 0.397493 0.943874 0.610382
O O13 0.189018 0.995681 0.577016
O O14 0.260633 0.990276 0.747340
O O15 0.495920 0.250000 0.291369
O O16 0.377936 0.438329 0.385983
O O17 0.107797 0.750000 0.498165
O O18 0.173748 0.974161 0.403015
O O19 0.000000 0.000000 0.500000
O O20 0.214733 0.250000 0.353750
O O21 0.718943 0.250000 0.151010
#
# Coordination Sequence:
#
# PCOD8074182 Si02
#       8
#     4   4   4   4   4   4   4   4
#     4  10  22  38  55  77 106 142 184 226 265 310
#     4   9  19  36  55  79 112 143 172 214 268 318
#     4   9  16  28  50  80 110 137 169 211 261 318
#     4   8  16  33  56  78 103 138 174 210 260 318
#     4   8  15  31  54  79 106 134 169 212 261 323
#     4  11  23  38  54  75 106 143 184 226 266 313
#     4  10  20  35  57  83 108 137 175 218 266 320
#     4   9  18  35  56  77 105 139 173 214 265 318
#
# _framework density 19.443356999999999
#
# number of rings (size 3 to 8) (size 9 to 14) (size 15 to 20)
#    0.000    2.750    0.000    1.875    0.000    4.000 
#    0.000    6.250    0.000    0.000    0.000    0.000 
#    0.000    0.000    0.000    0.000    0.000    0.000 
#
# Total GULP energy -396519.943990 kJ/mol
# GULP energy per Si atom -12391.248250 kJ/mol
# Density = 1.939910 g / cm^3
# Si number density = 19.443357 Si / 1000 Ang^3
#
#
#
# Elastic Constant Matrix: (Units=GPa)
#
#
# Indices 1 2 3 4 5 6 
#
# 1 179.2670 43.9389 70.0198 0.0000 0.2644 0.0000
# 2 43.9389 46.5023 29.8108 0.0000 1.0040 0.0000
# 3 70.0198 29.8108 83.1458 0.0000 -1.3793 0.0000
# 4 0.0000 0.0000 0.0000 16.6946 0.0000 -1.6185
# 5 0.2644 1.0040 -1.3793 0.0000 35.5223 0.0000
# 6 0.0000 0.0000 0.0000 -1.6185 0.0000 34.1921
#
#
#
# Elastic Compliance Matrix: (Units=1/GPa)
#
#
# Indices 1 2 3 4 5 6 
#
# 1 0.009059 -0.004757 -0.005926 0.000000 -0.000163 0.000000
# 2 -0.004757 0.030470 -0.006936 0.000000 -0.001095 0.000000
# 3 -0.005926 -0.006936 0.019521 0.000000 0.000998 0.000000
# 4 0.000000 0.000000 0.000000 0.060176 0.000000 0.002849
# 5 -0.000163 -0.001095 0.000998 0.000000 0.028222 0.000000
# 6 0.000000 0.000000 0.000000 0.002849 0.000000 0.029381
#
#
# Mechanical properties :
#
#
# Convention : Reuss Voigt Hill
#
# Bulk Modulus (GPa) = 41.99839 66.27270 54.13555
# Shear Modulus (GPa) = 22.72666 28.29149 25.50907
#
# Velocity S-wave (km/s) = 3.42258 3.81868 3.62604
# Velocity P-wave (km/s) = 6.10459 7.32134 6.74048
#
# Compressibility (1/GPa) = 0.02381044
#
# Stress axis : x y z
#
# Youngs Moduli (GPa) = 110.38481 32.81951 51.22660
#
# Poissons Ratio (x) = 0.15613 0.30357
# Poissons Ratio (y) = 0.52514 0.35533
# Poissons Ratio (z) = 0.65415 0.22765
#
# Static dielectric constant tensor:
#      x y z
#    x 3.877680 0.000000 0.021090 
#    y 0.000000 3.369840 0.000000 
#    z 0.021090 0.000000 3.487580 
# 
# 
# High freq. dielectric constant tensor:
#      x y z
#    x 1.769120 0.000000 0.000180 
#    y 0.000000 1.741310 0.000000 
#    z 0.000180 0.000000 1.733370 
# 
# From -- ./inp_files/38063.got.cif
#   From: 2010.06.25/outbox.cif.g09.slc.cpg/sg11_20_cif.got.tgz:38063.got - 2010.06.27 23:14:04.
