data_PCOD8074935
_publ_section_title
;
Structure prediction by ZEFSAII (Michael W. Deem and Ramdas Pophale) SiO2 
 PCOD8074935
Probable space group: P 21/M
;
_chemical_formula_sum "Si O2"
_cell_formula_units_Z 32
_cell_length_a 14.007117
_cell_length_b 8.469712
_cell_length_c 23.526371
_cell_angle_alpha 90.000000
_cell_angle_beta 33.285691
_cell_angle_gamma 90.000000
_cell_volume 1531.784164
_symmetry_space_group_name_H-M "P 21/M"
_symmetry_group_IT_number 11
_symmetry_cell_setting 'monoclinic'
loop_
_space_group_symop_operation_xyz
x,y,z
-x,1/2+y,-z
-x,-y,-z
x,1/2-y,z
loop_
_atom_site_type_symbol
_atom_site_label
_atom_site_fract_x
_atom_site_fract_y
_atom_site_fract_z
Si Si1 0.805354 0.566202 0.234170
Si Si2 0.183250 0.433029 0.539668
Si Si3 0.690877 0.564894 0.910042
Si Si4 0.835500 0.564813 0.956578
Si Si5 0.514208 0.066725 0.179409
Si Si6 0.306437 0.934931 0.593677
Si Si7 0.179630 0.435969 0.275654
Si Si8 0.515381 0.433026 0.684206
O O1 0.789684 0.750000 0.256808
O O2 0.791818 0.465457 0.298502
O O3 0.652992 0.514157 0.267556
O O4 0.988421 0.525483 0.113068
O O5 0.224276 0.250000 0.509299
O O6 0.201899 0.477020 0.596373
O O7 0.314190 0.537369 0.437775
O O8 0.987572 0.472477 0.616884
O O9 0.674773 0.750000 0.923463
O O10 0.781526 0.497515 0.921474
O O11 0.801105 0.516712 0.800002
O O12 0.500000 0.500000 0.000000
O O13 0.872879 0.750000 0.937197
O O14 0.685452 0.529135 0.076618
O O15 0.547016 0.250000 0.150878
O O16 0.349434 0.005850 0.225145
O O17 0.475024 0.039096 0.264696
O O18 0.309147 0.750000 0.578867
O O19 0.500000 0.000000 0.500000
O O20 0.151224 0.250000 0.297773
O O21 0.505439 0.250000 0.706245
#
# Coordination Sequence:
#
# PCOD8074935 Si02
#       8
#     4   4   4   4   4   4   4   4
#     4  11  24  42  66  95 126 167 212 260 318 377
#     4  12  25  41  66  97 128 167 211 258 314 381
#     4  10  20  36  61  92 126 164 201 248 310 371
#     4  11  23  39  64  96 130 168 208 258 319 380
#     4  11  24  43  67  92 124 167 216 266 316 377
#     4  12  23  39  65  96 132 169 206 255 315 379
#     4  10  22  41  64  93 129 168 208 260 317 374
#     4  11  25  45  67  90 124 165 212 270 320 373
#
# _framework density 20.89067
#
# number of rings (size 3 to 8) (size 9 to 14) (size 15 to 20)
#    0.000    1.000    2.500    4.500    0.000    5.500 
#    0.000    0.000    0.000    0.000    0.000    0.000 
#    0.000    0.000    0.000    0.000    0.000    0.000 
#
# Total GULP energy -397035.645946 kJ/mol
# GULP energy per Si atom -12407.363936 kJ/mol
# Density = 2.084312 g / cm^3
# Si number density = 20.890670 Si / 1000 Ang^3
#
#
#
# Elastic Constant Matrix: (Units=GPa)
#
#
# Indices 1 2 3 4 5 6 
#
# 1 64.6050 17.3776 52.9255 0.0000 6.6912 0.0000
# 2 17.3776 53.2788 19.6397 0.0000 -3.9244 0.0000
# 3 52.9255 19.6397 107.4726 0.0000 -24.4109 0.0000
# 4 0.0000 0.0000 0.0000 36.3840 0.0000 -0.2517
# 5 6.6912 -3.9244 -24.4109 0.0000 36.2975 0.0000
# 6 0.0000 0.0000 0.0000 -0.2517 0.0000 30.5408
#
#
#
# Elastic Compliance Matrix: (Units=1/GPa)
#
#
# Indices 1 2 3 4 5 6 
#
# 1 0.038374 -0.005700 -0.023137 0.000000 -0.023250 0.000000
# 2 -0.005700 0.020975 -0.000321 0.000000 0.003102 0.000000
# 3 -0.023137 -0.000321 0.025634 0.000000 0.021470 0.000000
# 4 0.000000 0.000000 0.000000 0.027486 0.000000 0.000227
# 5 -0.023250 0.003102 0.021470 0.000000 0.046611 0.000000
# 6 0.000000 0.000000 0.000000 0.000227 0.000000 0.032745
#
#
# Mechanical properties :
#
#
# Convention : Reuss Voigt Hill
#
# Bulk Modulus (GPa) = 37.50000 45.02688 41.26344
# Shear Modulus (GPa) = 19.30273 29.67204 24.48738
#
# Velocity S-wave (km/s) = 3.04301 3.77284 3.42741
# Velocity P-wave (km/s) = 5.50783 6.37020 5.95465
#
# Compressibility (1/GPa) = 0.02666667
#
# Stress axis : x y z
#
# Youngs Moduli (GPa) = 26.05920 47.67514 39.01074
#
# Poissons Ratio (x) = 0.27175 0.90259
# Poissons Ratio (y) = 0.14854 0.01254
# Poissons Ratio (z) = 0.60293 0.01532
#
# Static dielectric constant tensor:
#      x y z
#    x 3.903700 0.000000 -0.076900 
#    y 0.000000 3.687960 0.000000 
#    z -0.076900 0.000000 3.750890 
# 
# 
# High freq. dielectric constant tensor:
#      x y z
#    x 1.819170 0.000000 -0.009800 
#    y 0.000000 1.818080 0.000000 
#    z -0.009800 0.000000 1.827930 
# 
# From -- ./inp_files/68977.got.cif
#   From: 2010.06.25/outbox.cif.g09.slc.cpg/sg11_35_cif.got.tgz:68977.got - 2010.06.27 23:14:04.
