data_PCOD8074185
_publ_section_title
;
Structure prediction by ZEFSAII (Michael W. Deem and Ramdas Pophale) SiO2 
 PCOD8074185
Probable space group: P 21/M
;
_chemical_formula_sum "Si O2"
_cell_formula_units_Z 32
_cell_length_a 8.590936
_cell_length_b 24.257176
_cell_length_c 15.572881
_cell_angle_alpha 90.000000
_cell_angle_beta 150.103050
_cell_angle_gamma 90.000000
_cell_volume 1617.573272
_symmetry_space_group_name_H-M "P 21/M"
_symmetry_group_IT_number 11
_symmetry_cell_setting 'monoclinic'
loop_
_space_group_symop_operation_xyz
x,y,z
-x,1/2+y,-z
-x,-y,-z
x,1/2-y,z
loop_
_atom_site_type_symbol
_atom_site_label
_atom_site_fract_x
_atom_site_fract_y
_atom_site_fract_z
Si Si1 0.309857 0.399075 0.048768
Si Si2 0.026591 0.899075 0.287679
Si Si3 0.845672 0.186818 0.894083
Si Si4 0.946680 0.386772 0.262697
Si Si5 0.605268 0.386773 0.921286
Si Si6 0.508250 0.994369 0.226518
Si Si7 0.836943 0.505631 0.555212
Si Si8 0.490907 0.686818 0.442495
O O1 0.661372 0.381871 0.192711
O O2 0.299990 0.452027 0.106508
O O3 0.120912 0.415845 0.873637
O O4 0.159487 0.347461 0.025586
O O5 0.257786 0.847462 0.391686
O O6 0.755391 0.881871 0.224051
O O7 0.219544 0.952027 0.413026
O O8 0.947929 0.250000 0.952459
O O9 0.687557 0.167648 0.906897
O O10 0.596293 0.178644 0.698764
O O11 0.162903 0.439690 0.386623
O O12 0.154421 0.332352 0.373761
O O13 0.829287 0.391823 0.109762
O O14 0.665938 0.439690 0.889659
O O15 0.560290 0.989672 0.353430
O O16 0.831363 0.000000 0.331363
O O17 0.461513 0.750000 0.456986
#
# Coordination Sequence:
#
# PCOD8074185 Si02
#       8
#     4   4   4   4   4   4   4   4
#     4   9  19  36  57  80 108 142 178 218 266 318
#     4   9  19  36  57  80 108 142 178 218 266 318
#     4  10  22  39  56  76 105 142 183 223 265 316
#     4  10  20  35  57  83 110 140 176 220 267 316
#     4  10  20  35  57  83 110 140 176 220 267 316
#     4   9  17  31  54  83 112 140 173 215 265 321
#     4   9  17  31  54  83 112 140 173 215 265 321
#     4  10  22  39  56  76 105 142 183 223 265 316
#
# _framework density 19.782720999999999
#
# number of rings (size 3 to 8) (size 9 to 14) (size 15 to 20)
#    0.000    2.500    0.000    1.500    0.000    7.500 
#    0.000    2.500    0.000    0.000    0.000    0.000 
#    0.000    0.000    0.000    0.000    0.000    0.000 
#
# Total GULP energy -396923.294294 kJ/mol
# GULP energy per Si atom -12403.852947 kJ/mol
# Density = 1.973769 g / cm^3
# Si number density = 19.782721 Si / 1000 Ang^3
#
#
#
# Elastic Constant Matrix: (Units=GPa)
#
#
# Indices 1 2 3 4 5 6 
#
# 1 66.1344 38.8487 28.3724 0.0000 -9.5838 0.0000
# 2 38.8487 131.8960 48.2256 0.0000 -7.0015 0.0000
# 3 28.3724 48.2256 87.1789 0.0000 -6.1269 0.0000
# 4 0.0000 0.0000 0.0000 35.8299 0.0000 -0.6278
# 5 -9.5838 -7.0015 -6.1269 0.0000 22.7187 0.0000
# 6 0.0000 0.0000 0.0000 -0.6278 0.0000 34.9896
#
#
#
# Elastic Compliance Matrix: (Units=1/GPa)
#
#
# Indices 1 2 3 4 5 6 
#
# 1 0.020112 -0.004214 -0.003781 0.000000 0.006166 0.000000
# 2 -0.004214 0.010440 -0.004386 0.000000 0.000257 0.000000
# 3 -0.003781 -0.004386 0.015208 0.000000 0.001155 0.000000
# 4 0.000000 0.000000 0.000000 0.027918 0.000000 0.000501
# 5 0.006166 0.000257 0.001155 0.000000 0.047008 0.000000
# 6 0.000000 0.000000 0.000000 0.000501 0.000000 0.028589
#
#
# Mechanical properties :
#
#
# Convention : Reuss Voigt Hill
#
# Bulk Modulus (GPa) = 47.62158 57.34476 52.48317
# Shear Modulus (GPa) = 27.61870 30.02516 28.82193
#
# Velocity S-wave (km/s) = 3.74050 3.90005 3.82111
# Velocity P-wave (km/s) = 6.54062 7.02359 6.78640
#
# Compressibility (1/GPa) = 0.02099888
#
# Stress axis : x y z
#
# Youngs Moduli (GPa) = 49.72245 95.78417 65.75288
#
# Poissons Ratio (x) = 0.40363 0.24861
# Poissons Ratio (y) = 0.20953 0.28838
# Poissons Ratio (z) = 0.18800 0.42009
#
# Static dielectric constant tensor:
#      x y z
#    x 3.523690 0.000000 -0.060680 
#    y 0.000000 3.607780 0.000000 
#    z -0.060680 0.000000 3.604960 
# 
# 
# High freq. dielectric constant tensor:
#      x y z
#    x 1.768260 0.000000 -0.002030 
#    y 0.000000 1.767380 0.000000 
#    z -0.002030 0.000000 1.770990 
# 
# From -- ./inp_files/23352.got.cif
#   From: 2010.06.25/outbox.cif.g09.slc.cpg/sg11_12_cif.got.tgz:23352.got - 2010.06.27 23:14:04.
