data_PCOD8074658
_publ_section_title
;
Structure prediction by ZEFSAII (Michael W. Deem and Ramdas Pophale) SiO2 
 PCOD8074658
Probable space group: P 21/M
;
_chemical_formula_sum "Si O2"
_cell_formula_units_Z 32
_cell_length_a 20.851314
_cell_length_b 8.981191
_cell_length_c 26.318255
_cell_angle_alpha 90.000000
_cell_angle_beta 20.942084
_cell_angle_gamma 90.000000
_cell_volume 1761.603886
_symmetry_space_group_name_H-M "P 21/M"
_symmetry_group_IT_number 11
_symmetry_cell_setting 'monoclinic'
loop_
_space_group_symop_operation_xyz
x,y,z
-x,1/2+y,-z
-x,-y,-z
x,1/2-y,z
loop_
_atom_site_type_symbol
_atom_site_label
_atom_site_fract_x
_atom_site_fract_y
_atom_site_fract_z
Si Si1 0.462896 0.425266 0.580702
Si Si2 0.337216 0.074031 0.982790
Si Si3 0.067829 0.425124 0.899649
Si Si4 0.777094 0.581971 0.396725
Si Si5 0.046783 0.922361 0.390493
Si Si6 0.077621 0.925164 0.250655
Si Si7 0.910805 0.080988 0.911248
Si Si8 0.715821 0.577323 0.704567
O O1 0.500000 0.500000 0.500000
O O2 0.472634 0.250000 0.566216
O O3 0.269613 0.480291 0.741951
O O4 0.606327 0.475614 0.517049
O O5 0.337661 0.250000 0.987440
O O6 0.538398 0.017263 0.827228
O O7 0.248287 0.007022 0.099598
O O8 0.229001 0.027354 0.012561
O O9 0.062513 0.250000 0.910261
O O10 0.939373 0.472591 0.947869
O O11 0.000000 0.500000 0.000000
O O12 0.709054 0.750000 0.456374
O O13 0.895592 0.525810 0.356694
O O14 0.894984 0.574014 0.258580
O O15 0.100666 0.750000 0.357931
O O16 0.055785 0.970482 0.325223
O O17 0.846585 0.950496 0.559766
O O18 0.188343 0.024391 0.314910
O O19 0.109082 0.750000 0.219620
O O20 0.836178 0.250000 0.963474
O O21 0.665838 0.750000 0.747274
#
# Coordination Sequence:
#
# PCOD8074658 Si02
#       8
#     4   4   4   4   4   4   4   4
#     4  11  21  35  56  81 108 140 182 226 269 322
#     4  11  22  35  55  84 112 142 184 226 266 322
#     4  10  22  39  56  78 110 144 181 226 274 323
#     4   9  17  33  56  81 108 138 178 223 272 324
#     4   9  19  37  60  83 108 142 184 226 267 318
#     4   9  19  37  58  80 111 144 178 225 274 320
#     4   9  18  37  58  76 107 146 181 223 272 323
#     4  10  20  36  58  82 112 148 182 219 270 326
#
# _framework density 18.165265000000002
#
# number of rings (size 3 to 8) (size 9 to 14) (size 15 to 20)
#    0.000    2.250    1.250    2.625    0.000    5.000 
#    2.250    0.000    0.000    0.000    0.000    0.000 
#    0.000    0.000    0.000    0.000    0.000    0.000 
#
# Total GULP energy -396854.156641 kJ/mol
# GULP energy per Si atom -12401.692395 kJ/mol
# Density = 1.812392 g / cm^3
# Si number density = 18.165265 Si / 1000 Ang^3
#
#
#
# Elastic Constant Matrix: (Units=GPa)
#
#
# Indices 1 2 3 4 5 6 
#
# 1 126.1893 44.3992 66.9883 0.0000 14.2155 0.0000
# 2 44.3992 80.1887 55.1090 0.0000 -2.9909 0.0000
# 3 66.9883 55.1090 116.2948 0.0000 -3.4742 0.0000
# 4 0.0000 0.0000 0.0000 32.0018 0.0000 -4.5879
# 5 14.2155 -2.9909 -3.4742 0.0000 27.5062 0.0000
# 6 0.0000 0.0000 0.0000 -4.5879 0.0000 32.0140
#
#
#
# Elastic Compliance Matrix: (Units=1/GPa)
#
#
# Indices 1 2 3 4 5 6 
#
# 1 0.013395 -0.003336 -0.006377 0.000000 -0.008091 0.000000
# 2 -0.003336 0.019347 -0.007159 0.000000 0.002924 0.000000
# 3 -0.006377 -0.007159 0.015799 0.000000 0.004513 0.000000
# 4 0.000000 0.000000 0.000000 0.031904 0.000000 0.004572
# 5 -0.008091 0.002924 0.004513 0.000000 0.041425 0.000000
# 6 0.000000 0.000000 0.000000 0.004572 0.000000 0.031892
#
#
# Mechanical properties :
#
#
# Convention : Reuss Voigt Hill
#
# Bulk Modulus (GPa) = 67.57858 72.85175 70.21516
# Shear Modulus (GPa) = 25.98269 28.71617 27.34943
#
# Velocity S-wave (km/s) = 3.78610 3.98028 3.88440
# Velocity P-wave (km/s) = 7.50970 7.83042 7.67174
#
# Compressibility (1/GPa) = 0.01479759
#
# Stress axis : x y z
#
# Youngs Moduli (GPa) = 74.65567 51.68859 63.29492
#
# Poissons Ratio (x) = 0.17244 0.40360
# Poissons Ratio (y) = 0.24906 0.45312
# Poissons Ratio (z) = 0.47604 0.37003
#
# Static dielectric constant tensor:
#      x y z
#    x 2.969850 0.000000 0.611930 
#    y 0.000000 3.310960 0.000000 
#    z 0.611930 0.000000 2.221440 
# 
# 
# High freq. dielectric constant tensor:
#      x y z
#    x 1.707890 0.000000 -0.007080 
#    y 0.000000 1.701300 0.000000 
#    z -0.007080 0.000000 1.697480 
# 
# From -- ./inp_files/71981.got.cif
#   From: 2010.06.25/outbox.cif.g09.slc.cpg/sg11_36_cif.got.tgz:71981.got - 2010.06.27 23:14:04.
