data_PCOD8074011
_publ_section_title
;
Structure prediction by ZEFSAII (Michael W. Deem and Ramdas Pophale) SiO2 
 PCOD8074011
Probable space group: P 21/M
;
_chemical_formula_sum "Si O2"
_cell_formula_units_Z 32
_cell_length_a 17.127097
_cell_length_b 16.820310
_cell_length_c 11.227048
_cell_angle_alpha 90.000000
_cell_angle_beta 150.889632
_cell_angle_gamma 90.000000
_cell_volume 1573.476867
_symmetry_space_group_name_H-M "P 21/M"
_symmetry_group_IT_number 11
_symmetry_cell_setting 'monoclinic'
loop_
_space_group_symop_operation_xyz
x,y,z
-x,1/2+y,-z
-x,-y,-z
x,1/2-y,z
loop_
_atom_site_type_symbol
_atom_site_label
_atom_site_fract_x
_atom_site_fract_y
_atom_site_fract_z
Si Si1 0.980668 0.839280 0.222892
Si Si2 0.065599 0.660098 0.830264
Si Si3 0.471320 0.590356 0.996573
Si Si4 0.167828 0.656816 0.705319
Si Si5 0.700682 0.579881 0.718770
Si Si6 0.636404 0.105219 0.635883
Si Si7 0.764730 0.921234 0.535867
Si Si8 0.703339 0.391643 0.461325
O O1 0.913993 0.750000 0.131130
O O2 0.036507 0.863751 0.429750
O O3 0.130708 0.844780 0.332735
O O4 0.838811 0.896917 0.994896
O O5 0.999313 0.750000 0.746612
O O6 0.091199 0.632448 0.728708
O O7 0.940898 0.600924 0.725930
O O8 0.233943 0.657852 0.123187
O O9 0.325473 0.602572 0.895417
O O10 0.423879 0.635753 0.810611
O O11 0.500000 0.500000 0.000000
O O12 0.633067 0.622285 0.275603
O O13 0.216001 0.750000 0.765412
O O14 0.535092 0.622367 0.533762
O O15 0.685614 0.486085 0.710209
O O16 0.745030 0.608349 0.645087
O O17 0.626867 0.131029 0.485333
O O18 0.742630 0.015366 0.500728
#
# Coordination Sequence:
#
# PCOD8074011 Si02
#       8
#     4   4   4   4   4   4   4   4
#     4  10  20  36  57  79 105 139 180 221 266 324
#     4  11  23  37  55  80 111 148 186 222 266 324
#     4   9  18  35  58  83 108 141 187 227 266 325
#     4   9  20  38  56  78 113 149 178 221 278 322
#     4  10  21  36  56  81 108 142 179 224 276 318
#     4  10  21  37  55  78 111 143 177 223 273 322
#     4  10  20  35  55  81 112 141 180 226 266 317
#     4   9  19  36  56  80 110 142 175 220 275 321
#
# _framework density 20.337129000000001
#
# number of rings (size 3 to 8) (size 9 to 14) (size 15 to 20)
#    0.000    2.250    0.000    2.250    0.000    7.000 
#    0.000   10.000    0.000    0.000    0.000    0.000 
#    0.000    0.000    0.000    0.000    0.000    0.000 
#
# Total GULP energy -396816.348848 kJ/mol
# GULP energy per Si atom -12400.510901 kJ/mol
# Density = 2.029084 g / cm^3
# Si number density = 20.337129 Si / 1000 Ang^3
#
#
#
# Elastic Constant Matrix: (Units=GPa)
#
#
# Indices 1 2 3 4 5 6 
#
# 1 162.8012 29.3648 56.1476 0.0000 4.8158 0.0000
# 2 29.3648 26.3753 18.8702 0.0000 1.6003 0.0000
# 3 56.1476 18.8702 128.1446 0.0000 -4.9437 0.0000
# 4 0.0000 0.0000 0.0000 17.4468 0.0000 -4.9999
# 5 4.8158 1.6003 -4.9437 0.0000 29.7866 0.0000
# 6 0.0000 0.0000 0.0000 -4.9999 0.0000 21.5462
#
#
#
# Elastic Compliance Matrix: (Units=1/GPa)
#
#
# Indices 1 2 3 4 5 6 
#
# 1 0.008437 -0.007405 -0.002661 0.000000 -0.001408 0.000000
# 2 -0.007405 0.049209 -0.004084 0.000000 -0.002124 0.000000
# 3 -0.002661 -0.004084 0.009658 0.000000 0.002253 0.000000
# 4 0.000000 0.000000 0.000000 0.061401 0.000000 0.014248
# 5 -0.001408 -0.002124 0.002253 0.000000 0.034288 0.000000
# 6 0.000000 0.000000 0.000000 0.014248 0.000000 0.049718
#
#
# Mechanical properties :
#
#
# Convention : Reuss Voigt Hill
#
# Bulk Modulus (GPa) = 25.63752 58.45404 42.04578
# Shear Modulus (GPa) = 19.68416 27.95180 23.81798
#
# Velocity S-wave (km/s) = 3.11447 3.71134 3.42593
# Velocity P-wave (km/s) = 5.05637 6.86807 6.03064
#
# Compressibility (1/GPa) = 0.03900534
#
# Stress axis : x y z
#
# Youngs Moduli (GPa) = 118.52028 20.32154 103.54276
#
# Poissons Ratio (x) = 0.15047 0.27551
# Poissons Ratio (y) = 0.87759 0.42286
# Poissons Ratio (z) = 0.31536 0.08299
#
# Static dielectric constant tensor:
#      x y z
#    x 3.870790 0.000000 -0.208880 
#    y 0.000000 3.435450 0.000000 
#    z -0.208880 0.000000 3.849500 
# 
# 
# High freq. dielectric constant tensor:
#      x y z
#    x 1.802760 0.000000 -0.011580 
#    y 0.000000 1.772690 0.000000 
#    z -0.011580 0.000000 1.800560 
# 
# From -- ./inp_files/40019.got.cif
#   From: 2010.06.25/outbox.cif.g09.slc.cpg/sg11_21_cif.got.tgz:40019.got - 2010.06.27 23:14:04.
