data_PCOD8074914
_publ_section_title
;
Structure prediction by ZEFSAII (Michael W. Deem and Ramdas Pophale) SiO2 
 PCOD8074914
Probable space group: P 21/M
;
_chemical_formula_sum "Si O2"
_cell_formula_units_Z 28
_cell_length_a 11.628123
_cell_length_b 9.069436
_cell_length_c 15.453692
_cell_angle_alpha 90.000000
_cell_angle_beta 63.982030
_cell_angle_gamma 90.000000
_cell_volume 1464.589365
_symmetry_space_group_name_H-M "P 21/M"
_symmetry_group_IT_number 11
_symmetry_cell_setting 'monoclinic'
loop_
_space_group_symop_operation_xyz
x,y,z
-x,1/2+y,-z
-x,-y,-z
x,1/2-y,z
loop_
_atom_site_type_symbol
_atom_site_label
_atom_site_fract_x
_atom_site_fract_y
_atom_site_fract_z
Si Si1 0.060391 0.079607 0.292498
Si Si2 0.813082 0.580538 0.065946
Si Si3 0.181836 0.583403 0.524789
Si Si4 0.034179 0.922795 0.121780
Si Si5 0.562185 0.578269 0.248282
Si Si6 0.299478 0.078024 0.325884
Si Si7 0.604650 0.081514 0.409232
O O1 0.043671 0.250000 0.272650
O O2 0.202520 0.045411 0.279647
O O3 0.963025 0.038962 0.402681
O O4 0.029952 0.983496 0.219510
O O5 0.840259 0.750000 0.034566
O O6 0.665057 0.554473 0.138292
O O7 0.903429 0.531300 0.116105
O O8 0.844347 0.486888 0.970325
O O9 0.189053 0.750000 0.485019
O O10 0.238679 0.472009 0.436455
O O11 0.259923 0.572277 0.588168
O O12 0.051340 0.750000 0.122168
O O13 0.542300 0.750000 0.276388
O O14 0.428439 0.509796 0.261928
O O15 0.617852 0.498823 0.313827
O O16 0.330947 0.250000 0.323506
O O17 0.561395 0.250000 0.408788
O O18 0.500000 0.000000 0.500000
#
# Coordination Sequence:
#
# PCOD8074914 Si02
#       7
#     4   4   4   4   4   4   4
#     4  10  22  39  57  80 111 148 188 230 278 329
#     4   9  20  38  60  86 115 145 177 223 280 334
#     4  10  21  37  57  80 109 148 189 229 277 331
#     4  10  20  36  61  90 113 139 179 228 279 331
#     4  11  22  37  57  81 113 151 188 226 276 332
#     4  11  23  37  55  79 111 150 190 233 276 324
#     4  11  21  33  53  81 113 146 181 225 276 327
#
# _framework density 19.117986999999999
#
# number of rings (size 3 to 8) (size 9 to 14) (size 15 to 20)
#    0.000    1.714    1.429    3.000    0.000    4.000 
#    0.000    0.714    0.000    0.000    0.000    0.000 
#    0.000    0.000    0.000    0.000    0.000    0.000 
#
# Total GULP energy -347307.350436 kJ/mol
# GULP energy per Si atom -12403.833944 kJ/mol
# Density = 1.907447 g / cm^3
# Si number density = 19.117987 Si / 1000 Ang^3
#
#
#
# Elastic Constant Matrix: (Units=GPa)
#
#
# Indices 1 2 3 4 5 6 
#
# 1 77.7766 40.8505 34.5802 0.0000 -13.9264 0.0000
# 2 40.8505 102.3183 43.8880 0.0000 -12.6170 0.0000
# 3 34.5802 43.8880 80.2674 0.0000 -16.5018 0.0000
# 4 0.0000 0.0000 0.0000 36.1221 0.0000 2.1595
# 5 -13.9264 -12.6170 -16.5018 0.0000 25.8621 0.0000
# 6 0.0000 0.0000 0.0000 2.1595 0.0000 26.1664
#
#
#
# Elastic Compliance Matrix: (Units=1/GPa)
#
#
# Indices 1 2 3 4 5 6 
#
# 1 0.018110 -0.004857 -0.004176 0.000000 0.004718 0.000000
# 2 -0.004857 0.014165 -0.005490 0.000000 0.000792 0.000000
# 3 -0.004176 -0.005490 0.018699 0.000000 0.007004 0.000000
# 4 0.000000 0.000000 0.000000 0.027821 0.000000 -0.002296
# 5 0.004718 0.000792 0.007004 0.000000 0.046063 0.000000
# 6 0.000000 0.000000 0.000000 -0.002296 0.000000 0.038407
#
#
# Mechanical properties :
#
#
# Convention : Reuss Voigt Hill
#
# Bulk Modulus (GPa) = 45.60435 55.44440 50.52438
# Shear Modulus (GPa) = 25.04755 27.03303 26.04029
#
# Velocity S-wave (km/s) = 3.62353 3.76441 3.69464
# Velocity P-wave (km/s) = 6.43526 6.92521 6.68473
#
# Compressibility (1/GPa) = 0.02192773
#
# Stress axis : x y z
#
# Youngs Moduli (GPa) = 55.21783 70.59611 53.47844
#
# Poissons Ratio (x) = 0.34291 0.22334
# Poissons Ratio (y) = 0.26821 0.29358
# Poissons Ratio (z) = 0.23061 0.38755
#
# Static dielectric constant tensor:
#      x y z
#    x 3.686270 0.000000 0.010390 
#    y 0.000000 3.500950 0.000000 
#    z 0.010390 0.000000 3.483630 
# 
# 
# High freq. dielectric constant tensor:
#      x y z
#    x 1.743990 0.000000 -0.010010 
#    y 0.000000 1.752680 0.000000 
#    z -0.010010 0.000000 1.735110 
# 
# From -- ./inp_files/37413.got.cif
#   From: 2010.06.25/outbox.cif.g09.slc.cpg/sg11_19_cif.got.tgz:37413.got - 2010.06.27 23:14:04.
