data_PCOD8074873
_publ_section_title
;
Structure prediction by ZEFSAII (Michael W. Deem and Ramdas Pophale) SiO2 
 PCOD8074873
Probable space group: P 21/M
;
_chemical_formula_sum "Si O2"
_cell_formula_units_Z 32
_cell_length_a 19.791417
_cell_length_b 8.819449
_cell_length_c 25.217575
_cell_angle_alpha 90.000000
_cell_angle_beta 21.696881
_cell_angle_gamma 90.000000
_cell_volume 1627.296252
_symmetry_space_group_name_H-M "P 21/M"
_symmetry_group_IT_number 11
_symmetry_cell_setting 'monoclinic'
loop_
_space_group_symop_operation_xyz
x,y,z
-x,1/2+y,-z
-x,-y,-z
x,1/2-y,z
loop_
_atom_site_type_symbol
_atom_site_label
_atom_site_fract_x
_atom_site_fract_y
_atom_site_fract_z
Si Si1 0.535185 0.073738 0.617639
Si Si2 0.833766 0.425951 0.092080
Si Si3 0.442527 0.429766 0.096884
Si Si4 0.676010 0.429664 0.626178
Si Si5 0.034981 0.071964 0.418739
Si Si6 0.326505 0.572334 0.597478
Si Si7 0.385265 0.430651 0.925204
Si Si8 0.062534 0.571572 0.101260
O O1 0.489476 0.250000 0.657747
O O2 0.634829 0.008271 0.597377
O O3 0.659989 0.043984 0.475475
O O4 0.346387 0.987000 0.748289
O O5 0.846167 0.250000 0.093219
O O6 0.838424 0.465475 0.026472
O O7 0.000000 0.500000 0.000000
O O8 0.470275 0.250000 0.077344
O O9 0.231905 0.478041 0.255017
O O10 0.560616 0.502478 0.057583
O O11 0.500000 0.500000 0.000000
O O12 0.667742 0.250000 0.632534
O O13 0.529438 0.490709 0.776036
O O14 0.878792 0.488124 0.492578
O O15 0.019454 0.250000 0.436809
O O16 0.000000 0.000000 0.500000
O O17 0.500000 0.500000 0.500000
O O18 0.320528 0.750000 0.615286
O O19 0.141462 0.494377 0.752122
O O20 0.381031 0.250000 0.931874
O O21 0.182908 0.490703 0.058727
O O22 0.051781 0.750000 0.120313
#
# Coordination Sequence:
#
# PCOD8074873 Si02
#       8
#     4   4   4   4   4   4   4   4
#     4  10  21  39  61  87 117 152 199 251 300 357
#     4  11  23  37  58  87 118 154 198 249 301 359
#     4  11  24  40  61  91 130 168 208 256 304 363
#     4   9  18  35  61  89 117 151 196 249 303 360
#     4  10  20  36  60  89 119 158 203 251 302 360
#     4  11  24  41  63  89 122 164 207 253 310 370
#     4  11  21  38  66  91 120 162 202 251 313 370
#     4  11  24  41  61  89 125 161 203 251 305 370
#
# _framework density 19.66452
#
# number of rings (size 3 to 8) (size 9 to 14) (size 15 to 20)
#    0.000    1.500    2.500    2.625    0.000    7.000 
#    0.000    3.125    0.000    0.000    0.000    0.000 
#    0.000    0.000    0.000    0.000    0.000    0.000 
#
# Total GULP energy -396885.811209 kJ/mol
# GULP energy per Si atom -12402.681600 kJ/mol
# Density = 1.961976 g / cm^3
# Si number density = 19.664520 Si / 1000 Ang^3
#
#
#
# Elastic Constant Matrix: (Units=GPa)
#
#
# Indices 1 2 3 4 5 6 
#
# 1 111.5723 42.4400 26.9945 0.0000 -10.3832 0.0000
# 2 42.4400 78.1930 44.5586 0.0000 0.9466 0.0000
# 3 26.9945 44.5586 99.7818 0.0000 -11.7765 0.0000
# 4 0.0000 0.0000 0.0000 31.1400 0.0000 -0.7665
# 5 -10.3832 0.9466 -11.7765 0.0000 42.3500 0.0000
# 6 0.0000 0.0000 0.0000 -0.7665 0.0000 33.5210
#
#
#
# Elastic Compliance Matrix: (Units=1/GPa)
#
#
# Indices 1 2 3 4 5 6 
#
# 1 0.011664 -0.006401 0.000059 0.000000 0.003019 0.000000
# 2 -0.006401 0.020948 -0.008130 0.000000 -0.004298 0.000000
# 3 0.000059 -0.008130 0.014123 0.000000 0.004124 0.000000
# 4 0.000000 0.000000 0.000000 0.032131 0.000000 0.000735
# 5 0.003019 -0.004298 0.004124 0.000000 0.025596 0.000000
# 6 0.000000 0.000000 0.000000 0.000735 0.000000 0.029849
#
#
# Mechanical properties :
#
#
# Convention : Reuss Voigt Hill
#
# Bulk Modulus (GPa) = 56.20700 57.50369 56.85534
# Shear Modulus (GPa) = 29.55319 33.10579 31.32949
#
# Velocity S-wave (km/s) = 3.88089 4.10753 3.99582
# Velocity P-wave (km/s) = 6.98046 7.19733 7.08972
#
# Compressibility (1/GPa) = 0.01779138
#
# Stress axis : x y z
#
# Youngs Moduli (GPa) = 85.73109 47.73659 70.80583
#
# Poissons Ratio (x) = 0.30558 -0.00420
# Poissons Ratio (y) = 0.54879 0.57567
# Poissons Ratio (z) = -0.00508 0.38811
#
# Static dielectric constant tensor:
#      x y z
#    x 3.732110 0.000000 -0.062140 
#    y 0.000000 3.524040 0.000000 
#    z -0.062140 0.000000 3.646940 
# 
# 
# High freq. dielectric constant tensor:
#      x y z
#    x 1.780670 0.000000 -0.006980 
#    y 0.000000 1.761460 0.000000 
#    z -0.006980 0.000000 1.771220 
# 
# From -- ./inp_files/72055.got.cif
#   From: 2010.06.25/outbox.cif.g09.slc.cpg/sg11_37_cif.got.tgz:72055.got - 2010.06.27 23:14:04.
