data_PCOD8074700
_publ_section_title
;
Structure prediction by ZEFSAII (Michael W. Deem and Ramdas Pophale) SiO2 
 PCOD8074700
Probable space group: P 21/M
;
_chemical_formula_sum "Si O2"
_cell_formula_units_Z 32
_cell_length_a 25.854863
_cell_length_b 8.778295
_cell_length_c 20.478556
_cell_angle_alpha 90.000000
_cell_angle_beta 158.881443
_cell_angle_gamma 90.000000
_cell_volume 1674.614105
_symmetry_space_group_name_H-M "P 21/M"
_symmetry_group_IT_number 11
_symmetry_cell_setting 'monoclinic'
loop_
_space_group_symop_operation_xyz
x,y,z
-x,1/2+y,-z
-x,-y,-z
x,1/2-y,z
loop_
_atom_site_type_symbol
_atom_site_label
_atom_site_fract_x
_atom_site_fract_y
_atom_site_fract_z
Si Si1 0.843319 0.430568 0.817254
Si Si2 0.775760 0.929575 0.485540
Si Si3 0.356059 0.424350 0.161415
Si Si4 0.346926 0.429717 0.520671
Si Si5 0.645629 0.569869 0.196902
Si Si6 0.917812 0.072784 0.462529
Si Si7 0.949701 0.926052 0.242960
Si Si8 0.350739 0.424583 0.307571
O O1 0.852583 0.250000 0.826310
O O2 0.748536 0.485423 0.645009
O O3 0.773973 0.483671 0.803271
O O4 0.000000 0.500000 0.000000
O O5 0.784991 0.750000 0.494578
O O6 0.702211 0.986366 0.465619
O O7 0.681538 0.988165 0.312803
O O8 0.938056 0.990994 0.672584
O O9 0.391182 0.250000 0.183241
O O10 0.486760 0.529681 0.292917
O O11 0.323937 0.437218 0.199767
O O12 0.212165 0.486625 0.957253
O O13 0.326003 0.250000 0.487672
O O14 0.635452 0.750000 0.182192
O O15 0.767139 0.512761 0.290729
O O16 0.500000 0.500000 0.000000
O O17 0.889251 0.250000 0.416622
O O18 0.012761 0.043028 0.638067
O O19 0.000000 0.000000 0.500000
O O20 0.956802 0.750000 0.232081
O O21 0.500000 0.500000 0.500000
O O22 0.351183 0.250000 0.332249
#
# Coordination Sequence:
#
# PCOD8074700 Si02
#       8
#     4   4   4   4   4   4   4   4
#     4  12  26  43  62  87 118 153 195 242 291 345
#     4   9  21  39  58  84 117 151 190 239 290 342
#     4  10  22  39  59  85 115 151 192 234 286 343
#     4  11  23  40  60  86 117 151 194 239 289 346
#     4  10  20  37  59  85 118 154 195 239 288 344
#     4  10  20  36  58  85 118 153 193 239 288 341
#     4   9  20  38  59  85 114 149 194 237 282 343
#     4  11  22  39  62  88 119 152 191 239 291 344
#
# _framework density 19.108879999999999
#
# number of rings (size 3 to 8) (size 9 to 14) (size 15 to 20)
#    0.000    1.750    1.250    2.625    1.750    4.000 
#    0.000    2.500    0.000    0.000    0.000    0.000 
#    0.000    0.000    0.000    0.000    0.000    0.000 
#
# Total GULP energy -396907.590136 kJ/mol
# GULP energy per Si atom -12403.362192 kJ/mol
# Density = 1.906539 g / cm^3
# Si number density = 19.108880 Si / 1000 Ang^3
#
#
#
# Elastic Constant Matrix: (Units=GPa)
#
#
# Indices 1 2 3 4 5 6 
#
# 1 130.3859 44.7563 52.9101 0.0000 19.5735 0.0000
# 2 44.7563 87.7592 42.7090 0.0000 6.9403 0.0000
# 3 52.9101 42.7090 147.5111 0.0000 18.9045 0.0000
# 4 0.0000 0.0000 0.0000 35.3153 0.0000 7.0248
# 5 19.5735 6.9403 18.9045 0.0000 26.2377 0.0000
# 6 0.0000 0.0000 0.0000 7.0248 0.0000 32.3234
#
#
#
# Elastic Compliance Matrix: (Units=1/GPa)
#
#
# Indices 1 2 3 4 5 6 
#
# 1 0.010680 -0.004063 -0.001951 0.000000 -0.005487 0.000000
# 2 -0.004063 0.014825 -0.002998 0.000000 0.001269 0.000000
# 3 -0.001951 -0.002998 0.008879 0.000000 -0.004149 0.000000
# 4 0.000000 0.000000 0.000000 0.029596 0.000000 -0.006432
# 5 -0.005487 0.001269 -0.004149 0.000000 0.044859 0.000000
# 6 0.000000 0.000000 0.000000 -0.006432 0.000000 0.032335
#
#
# Mechanical properties :
#
#
# Convention : Reuss Voigt Hill
#
# Bulk Modulus (GPa) = 61.12538 71.82300 66.47419
# Shear Modulus (GPa) = 30.36722 33.79400 32.08061
#
# Velocity S-wave (km/s) = 3.99076 4.20991 4.10180
# Velocity P-wave (km/s) = 7.30016 7.82936 7.56939
#
# Compressibility (1/GPa) = 0.01635982
#
# Stress axis : x y z
#
# Youngs Moduli (GPa) = 93.63624 67.45161 112.63043
#
# Poissons Ratio (x) = 0.27406 0.21975
# Poissons Ratio (y) = 0.38045 0.33764
# Poissons Ratio (z) = 0.18269 0.20220
#
# Static dielectric constant tensor:
#      x y z
#    x 3.694060 0.000000 0.078720 
#    y 0.000000 3.730200 0.000000 
#    z 0.078720 0.000000 3.629550 
# 
# 
# High freq. dielectric constant tensor:
#      x y z
#    x 1.750510 0.000000 0.002980 
#    y 0.000000 1.749380 0.000000 
#    z 0.002980 0.000000 1.751990 
# 
# From -- ./inp_files/67202.got.cif
#   From: 2010.06.25/outbox.cif.g09.slc.cpg/sg11_34_cif.got.tgz:67202.got - 2010.06.27 23:14:04.
