data_PCOD8074505
_publ_section_title
;
Structure prediction by ZEFSAII (Michael W. Deem and Ramdas Pophale) SiO2 
 PCOD8074505
Probable space group: P 21/M
;
_chemical_formula_sum "Si O2"
_cell_formula_units_Z 24
_cell_length_a 15.984701
_cell_length_b 8.692903
_cell_length_c 15.987161
_cell_angle_alpha 90.000000
_cell_angle_beta 36.405760
_cell_angle_gamma 90.000000
_cell_volume 1318.442750
_symmetry_space_group_name_H-M "P 21/M"
_symmetry_group_IT_number 11
_symmetry_cell_setting 'monoclinic'
loop_
_space_group_symop_operation_xyz
x,y,z
-x,1/2+y,-z
-x,-y,-z
x,1/2-y,z
loop_
_atom_site_type_symbol
_atom_site_label
_atom_site_fract_x
_atom_site_fract_y
_atom_site_fract_z
Si Si1 0.890522 0.567802 0.200564
Si Si2 0.140435 0.067119 0.425319
Si Si3 0.804994 0.068557 0.102325
Si Si4 0.572011 0.067981 0.861028
Si Si5 0.532044 0.068395 0.222151
Si Si6 0.234987 0.069285 0.528018
O O1 0.879009 0.750000 0.209872
O O2 0.795023 0.505268 0.202003
O O3 0.831829 0.495303 0.334473
O O4 0.052376 0.514181 0.058965
O O5 0.142253 0.250000 0.417008
O O6 0.151520 0.011633 0.512968
O O7 0.271772 0.001376 0.268545
O O8 0.000000 0.000000 0.500000
O O9 0.800997 0.250000 0.116701
O O10 0.673003 0.010875 0.154357
O O11 0.581658 0.250000 0.859601
O O12 0.478718 0.020228 0.856431
O O13 0.500000 0.000000 0.000000
O O14 0.534157 0.250000 0.201462
O O15 0.399575 0.024879 0.387727
O O16 0.217335 0.250000 0.548969
#
# Coordination Sequence:
#
# PCOD8074505 Si02
#       6
#     4   4   4   4   4   4
#     4   9  17  31  49  69  95 129 167 204 247 302
#     4  10  20  36  56  80 109 140 177 220 267 317
#     4   9  18  31  48  71  99 130 163 204 254 303
#     4  11  22  37  56  79 107 139 176 218 266 317
#     4   9  18  34  52  71  99 132 167 208 256 309
#     4   8  16  31  50  70  96 131 167 206 252 302
#
# _framework density 18.203294
#
# number of rings (size 3 to 8) (size 9 to 14) (size 15 to 20)
#    0.000    2.667    0.000    3.000    0.000    2.667 
#    0.000    7.500    0.000    0.000    0.000    0.000 
#    0.000    0.000    0.000    0.000    0.000    0.000 
#
# Total GULP energy -297579.908939 kJ/mol
# GULP energy per Si atom -12399.162872 kJ/mol
# Density = 1.816186 g / cm^3
# Si number density = 18.203294 Si / 1000 Ang^3
#
#
#
# Elastic Constant Matrix: (Units=GPa)
#
#
# Indices 1 2 3 4 5 6 
#
# 1 157.8269 42.9365 100.2854 0.0000 -14.2959 0.0000
# 2 42.9365 61.7579 40.1844 0.0000 0.9318 0.0000
# 3 100.2854 40.1844 150.6191 0.0000 18.7196 0.0000
# 4 0.0000 0.0000 0.0000 23.4334 0.0000 1.2554
# 5 -14.2959 0.9318 18.7196 0.0000 32.8725 0.0000
# 6 0.0000 0.0000 0.0000 1.2554 0.0000 31.0845
#
#
#
# Elastic Compliance Matrix: (Units=1/GPa)
#
#
# Indices 1 2 3 4 5 6 
#
# 1 0.015514 -0.003878 -0.010920 0.000000 0.013076 0.000000
# 2 -0.003878 0.020773 -0.002881 0.000000 -0.000635 0.000000
# 3 -0.010920 -0.002881 0.016421 0.000000 -0.014019 0.000000
# 4 0.000000 0.000000 0.000000 0.042767 0.000000 -0.001727
# 5 0.013076 -0.000635 -0.014019 0.000000 0.044108 0.000000
# 6 0.000000 0.000000 0.000000 -0.001727 0.000000 0.032240
#
#
# Mechanical properties :
#
#
# Convention : Reuss Voigt Hill
#
# Bulk Modulus (GPa) = 57.63861 81.89071 69.76466
# Shear Modulus (GPa) = 23.47806 29.93124 26.70465
#
# Velocity S-wave (km/s) = 3.59523 4.05937 3.83433
# Velocity P-wave (km/s) = 6.99763 8.18875 7.61651
#
# Compressibility (1/GPa) = 0.01734948
#
# Stress axis : x y z
#
# Youngs Moduli (GPa) = 64.45678 48.14028 60.89701
#
# Poissons Ratio (x) = 0.18668 0.66501
# Poissons Ratio (y) = 0.24996 0.17545
# Poissons Ratio (z) = 0.70388 0.13870
#
# Static dielectric constant tensor:
#      x y z
#    x 3.592510 0.000000 0.026500 
#    y 0.000000 3.185440 0.000000 
#    z 0.026500 0.000000 3.633150 
# 
# 
# High freq. dielectric constant tensor:
#      x y z
#    x 1.710590 0.000000 0.001630 
#    y 0.000000 1.688940 0.000000 
#    z 0.001630 0.000000 1.710330 
# 
# From -- ./inp_files/20604.got.cif
#   From: 2010.06.25/outbox.cif.g09.slc.cpg/sg11_11_cif.got.tgz:20604.got - 2010.06.27 23:14:04.
