data_PCOD8074215
_publ_section_title
;
Structure prediction by ZEFSAII (Michael W. Deem and Ramdas Pophale) SiO2 
 PCOD8074215
Probable space group: P 21/M
;
_chemical_formula_sum "Si O2"
_cell_formula_units_Z 32
_cell_length_a 14.248329
_cell_length_b 8.821268
_cell_length_c 24.348634
_cell_angle_alpha 90.000000
_cell_angle_beta 148.702312
_cell_angle_gamma 90.000000
_cell_volume 1589.799139
_symmetry_space_group_name_H-M "P 21/M"
_symmetry_group_IT_number 11
_symmetry_cell_setting 'monoclinic'
loop_
_space_group_symop_operation_xyz
x,y,z
-x,1/2+y,-z
-x,-y,-z
x,1/2-y,z
loop_
_atom_site_type_symbol
_atom_site_label
_atom_site_fract_x
_atom_site_fract_y
_atom_site_fract_z
Si Si1 0.167233 0.068916 0.463387
Si Si2 0.159587 0.074691 0.934700
Si Si3 0.220889 0.084509 0.373466
Si Si4 0.520404 0.073670 0.319802
Si Si5 0.776707 0.931369 0.742837
Si Si6 0.482453 0.423356 0.175335
Si Si7 0.793592 0.082293 0.151150
Si Si8 0.785418 0.927831 0.259014
O O1 0.151201 0.250000 0.452681
O O2 0.254071 0.003234 0.448960
O O3 0.294642 0.016692 0.576552
O O4 0.968770 0.002734 0.373166
O O5 0.122276 0.250000 0.904182
O O6 0.258520 0.004902 0.930671
O O7 0.289216 0.047959 0.051202
O O8 0.971575 0.995737 0.856051
O O9 0.311126 0.250000 0.421469
O O10 0.288849 0.005095 0.350720
O O11 0.006940 0.097700 0.260373
O O12 0.557779 0.250000 0.348777
O O13 0.364671 0.012809 0.282523
O O14 0.456996 0.039904 0.226656
O O15 0.792996 0.750000 0.748344
O O16 0.546515 0.250000 0.198144
O O17 0.631054 0.536138 0.225681
O O18 0.704779 0.250000 0.106297
O O19 0.722070 0.992144 0.168402
O O20 0.815761 0.750000 0.269160
#
# Coordination Sequence:
#
# PCOD8074215 Si02
#       8
#     4   4   4   4   4   4   4   4
#     4  10  20  36  58  83 114 149 182 226 285 339
#     4  10  20  35  57  84 113 147 187 230 278 334
#     4   7  13  28  51  79 108 138 171 209 265 331
#     4  10  22  39  57  79 109 149 197 239 276 328
#     4   9  18  35  58  82 112 149 185 228 283 335
#     4  10  23  41  56  76 111 151 192 238 282 326
#     4   9  17  33  57  84 115 146 177 221 278 336
#     4  11  22  37  60  87 112 143 185 229 277 338
#
# _framework density 20.128329999999998
#
# number of rings (size 3 to 8) (size 9 to 14) (size 15 to 20)
#    0.000    2.500    0.000    3.750    0.000    4.000 
#    0.000    0.625    0.000    0.000    0.000    0.000 
#    0.000    0.000    0.000    0.000    0.000    0.000 
#
# Total GULP energy -396661.960275 kJ/mol
# GULP energy per Si atom -12395.686259 kJ/mol
# Density = 2.008252 g / cm^3
# Si number density = 20.128330 Si / 1000 Ang^3
#
#
#
# Elastic Constant Matrix: (Units=GPa)
#
#
# Indices 1 2 3 4 5 6 
#
# 1 76.2589 20.0463 8.5355 0.0000 -6.5682 0.0000
# 2 20.0463 81.4963 20.7751 0.0000 -2.6373 0.0000
# 3 8.5355 20.7751 63.7422 0.0000 -16.4421 0.0000
# 4 0.0000 0.0000 0.0000 29.3145 0.0000 0.1560
# 5 -6.5682 -2.6373 -16.4421 0.0000 30.2168 0.0000
# 6 0.0000 0.0000 0.0000 0.1560 0.0000 22.1033
#
#
#
# Elastic Compliance Matrix: (Units=1/GPa)
#
#
# Indices 1 2 3 4 5 6 
#
# 1 0.014253 -0.003393 -0.000093 0.000000 0.002751 0.000000
# 2 -0.003393 0.014241 -0.004719 0.000000 -0.002062 0.000000
# 3 -0.000093 -0.004719 0.019924 0.000000 0.010409 0.000000
# 4 0.000000 0.000000 0.000000 0.034114 0.000000 -0.000241
# 5 0.002751 -0.002062 0.010409 0.000000 0.039176 0.000000
# 6 0.000000 0.000000 0.000000 -0.000241 0.000000 0.045244
#
#
# Mechanical properties :
#
#
# Convention : Reuss Voigt Hill
#
# Bulk Modulus (GPa) = 31.24299 35.57901 33.41100
# Shear Modulus (GPa) = 25.76901 27.80295 26.78598
#
# Velocity S-wave (km/s) = 3.58192 3.72060 3.65192
# Velocity P-wave (km/s) = 5.71511 6.01428 5.86660
#
# Compressibility (1/GPa) = 0.03200718
#
# Stress axis : x y z
#
# Youngs Moduli (GPa) = 70.16294 70.21769 50.19128
#
# Poissons Ratio (x) = 0.23825 0.00466
# Poissons Ratio (y) = 0.23807 0.23687
# Poissons Ratio (z) = 0.00652 0.33138
#
# Static dielectric constant tensor:
#      x y z
#    x 3.783530 0.000000 -0.258820 
#    y 0.000000 3.576210 0.000000 
#    z -0.258820 0.000000 3.535800 
# 
# 
# High freq. dielectric constant tensor:
#      x y z
#    x 1.785610 0.000000 -0.010340 
#    y 0.000000 1.773080 0.000000 
#    z -0.010340 0.000000 1.778790 
# 
# From -- ./inp_files/51710.got.cif
#   From: 2010.06.25/outbox.cif.g09.slc.cpg/sg11_26_cif.got.tgz:51710.got - 2010.06.27 23:14:04.
