data_PCOD8074548
_publ_section_title
;
Structure prediction by ZEFSAII (Michael W. Deem and Ramdas Pophale) SiO2 
 PCOD8074548
Probable space group: P 21/M
;
_chemical_formula_sum "Si O2"
_cell_formula_units_Z 32
_cell_length_a 13.110941
_cell_length_b 15.670007
_cell_length_c 17.954937
_cell_angle_alpha 90.000000
_cell_angle_beta 24.144902
_cell_angle_gamma 90.000000
_cell_volume 1508.894180
_symmetry_space_group_name_H-M "P 21/M"
_symmetry_group_IT_number 11
_symmetry_cell_setting 'monoclinic'
loop_
_space_group_symop_operation_xyz
x,y,z
-x,1/2+y,-z
-x,-y,-z
x,1/2-y,z
loop_
_atom_site_type_symbol
_atom_site_label
_atom_site_fract_x
_atom_site_fract_y
_atom_site_fract_z
Si Si1 0.456246 0.985923 0.114192
Si Si2 0.408224 0.343500 0.233121
Si Si3 0.632535 0.351169 0.428754
Si Si4 0.192953 0.154584 0.624017
Si Si5 0.943450 0.346061 0.643906
Si Si6 0.858444 0.931534 0.959517
Si Si7 0.650192 0.655352 0.238371
Si Si8 0.912795 0.383155 0.954126
O O1 0.254610 0.911404 0.258653
O O2 0.381370 0.079498 0.193064
O O3 0.705690 0.954183 0.987825
O O4 0.500000 0.000000 0.000000
O O5 0.463205 0.250000 0.159008
O O6 0.146860 0.336165 0.446072
O O7 0.617934 0.364264 0.156809
O O8 0.593136 0.250000 0.457105
O O9 0.444492 0.389454 0.490447
O O10 0.540587 0.385276 0.572271
O O11 0.915469 0.371789 0.218695
O O12 0.260608 0.250000 0.553437
O O13 0.069322 0.110592 0.633969
O O14 0.984737 0.155311 0.826389
O O15 0.831613 0.250000 0.734752
O O16 0.975652 0.016443 0.916648
O O17 0.668276 0.893038 0.147605
O O18 0.557936 0.750000 0.280397
O O19 0.931354 0.660518 0.084085
#
# Coordination Sequence:
#
# PCOD8074548 Si02
#       8
#     4   4   4   4   4   4   4   4
#     4  11  25  45  63  89 123 165 213 262 319 375
#     4  10  21  39  64  93 121 159 209 263 320 375
#     4   9  20  39  61  92 127 165 209 250 311 380
#     4   9  18  35  61  90 122 160 203 252 302 367
#     4  10  21  38  63  94 125 161 208 260 313 372
#     4  11  23  39  60  90 122 162 207 258 315 376
#     4  10  21  38  60  87 127 168 202 250 308 378
#     4  10  20  36  56  92 124 157 201 250 314 375
#
# _framework density 21.207584000000001
#
# number of rings (size 3 to 8) (size 9 to 14) (size 15 to 20)
#    0.000    2.000    0.000    4.500    1.750    4.500 
#   11.250    0.000    0.000    0.000    0.000    0.000 
#    0.000    0.000    0.000    0.000    0.000    0.000 
#
# Total GULP energy -396514.780071 kJ/mol
# GULP energy per Si atom -12391.086877 kJ/mol
# Density = 2.115931 g / cm^3
# Si number density = 21.207584 Si / 1000 Ang^3
#
#
#
# Elastic Constant Matrix: (Units=GPa)
#
#
# Indices 1 2 3 4 5 6 
#
# 1 79.2613 30.4711 11.4429 0.0000 4.7074 0.0000
# 2 30.4711 93.4157 26.3162 0.0000 -1.2973 0.0000
# 3 11.4429 26.3162 75.4148 0.0000 -2.5767 0.0000
# 4 0.0000 0.0000 0.0000 26.4297 0.0000 1.2094
# 5 4.7074 -1.2973 -2.5767 0.0000 23.3381 0.0000
# 6 0.0000 0.0000 0.0000 1.2094 0.0000 29.5723
#
#
#
# Elastic Compliance Matrix: (Units=1/GPa)
#
#
# Indices 1 2 3 4 5 6 
#
# 1 0.014700 -0.004636 -0.000725 0.000000 -0.003303 0.000000
# 2 -0.004636 0.013335 -0.003907 0.000000 0.001245 0.000000
# 3 -0.000725 -0.003907 0.014787 0.000000 0.001562 0.000000
# 4 0.000000 0.000000 0.000000 0.037907 0.000000 -0.001550
# 5 -0.003303 0.001245 0.001562 0.000000 0.043756 0.000000
# 6 0.000000 0.000000 0.000000 -0.001550 0.000000 0.033879
#
#
# Mechanical properties :
#
#
# Convention : Reuss Voigt Hill
#
# Bulk Modulus (GPa) = 41.18001 42.72801 41.95401
# Shear Modulus (GPa) = 27.02748 27.85880 27.44314
#
# Velocity S-wave (km/s) = 3.57378 3.62833 3.60116
# Velocity P-wave (km/s) = 6.04061 6.14364 6.09234
#
# Compressibility (1/GPa) = 0.02428363
#
# Stress axis : x y z
#
# Youngs Moduli (GPa) = 68.02822 74.98951 67.62752
#
# Poissons Ratio (x) = 0.34768 0.04906
# Poissons Ratio (y) = 0.31541 0.26424
# Poissons Ratio (z) = 0.04935 0.29301
#
# Static dielectric constant tensor:
#      x y z
#    x 3.921720 0.000000 -0.052300 
#    y 0.000000 0.523010 0.000000 
#    z -0.052300 0.000000 3.732320 
# 
# 
# High freq. dielectric constant tensor:
#      x y z
#    x 1.818740 0.000000 0.003930 
#    y 0.000000 1.832890 0.000000 
#    z 0.003930 0.000000 1.824930 
# 
# From -- ./inp_files/65769.got.cif
#   From: 2010.06.25/outbox.cif.g09.slc.cpg/sg11_33_cif.got.tgz:65769.got - 2010.06.27 23:14:04.
