data_PCOD8074814
_publ_section_title
;
Structure prediction by ZEFSAII (Michael W. Deem and Ramdas Pophale) SiO2 
 PCOD8074814
Probable space group: P 21/M
;
_chemical_formula_sum "Si O2"
_cell_formula_units_Z 32
_cell_length_a 10.124264
_cell_length_b 17.764062
_cell_length_c 16.027116
_cell_angle_alpha 90.000000
_cell_angle_beta 143.656997
_cell_angle_gamma 90.000000
_cell_volume 1708.188857
_symmetry_space_group_name_H-M "P 21/M"
_symmetry_group_IT_number 11
_symmetry_cell_setting 'monoclinic'
loop_
_space_group_symop_operation_xyz
x,y,z
-x,1/2+y,-z
-x,-y,-z
x,1/2-y,z
loop_
_atom_site_type_symbol
_atom_site_label
_atom_site_fract_x
_atom_site_fract_y
_atom_site_fract_z
Si Si1 0.972040 0.163080 0.213964
Si Si2 0.459495 0.412667 0.202403
Si Si3 0.525181 0.414865 0.040171
Si Si4 0.594684 0.414822 0.792595
Si Si5 0.306745 0.337568 0.786096
Si Si6 0.900066 0.163952 0.469844
Si Si7 0.965642 0.662733 0.944705
Si Si8 0.256764 0.335947 0.511965
O O1 0.896407 0.250000 0.182883
O O2 0.771267 0.111573 0.142055
O O3 0.042251 0.141065 0.156732
O O4 0.188497 0.148066 0.381872
O O5 0.483588 0.404687 0.116081
O O6 0.396661 0.495789 0.198822
O O7 0.689524 0.390780 0.364872
O O8 0.270830 0.355316 0.135340
O O9 0.500000 0.500000 0.000000
O O10 0.339672 0.365030 0.897422
O O11 0.483154 0.381685 0.818960
O O12 0.459568 0.389792 0.641403
O O13 0.845801 0.385274 0.912446
O O14 0.363433 0.250000 0.805556
O O15 0.053889 0.354050 0.628713
O O16 0.816557 0.250000 0.428725
O O17 0.041276 0.147465 0.458855
O O18 0.020185 0.750000 0.985028
O O19 0.334882 0.250000 0.565480
#
# Coordination Sequence:
#
# PCOD8074814 Si02
#       8
#     4   4   4   4   4   4   4   4
#     4  10  20  37  60  83 110 149 203 245 279 342
#     4  12  24  37  58  88 127 154 186 242 309 352
#     4  12  22  36  56  89 121 151 192 245 294 347
#     4  11  21  37  58  86 118 152 196 240 293 347
#     4  10  20  36  60  85 116 154 198 242 285 342
#     4   9  19  35  55  85 117 149 190 239 293 349
#     4  11  23  40  60  82 114 158 199 239 290 352
#     4   9  18  34  60  86 109 145 199 249 280 338
#
# _framework density 18.733291999999999
#
# number of rings (size 3 to 8) (size 9 to 14) (size 15 to 20)
#    0.000    1.500    3.750    3.000    0.000    4.500 
#    0.000    1.875    0.000    1.500    0.000    0.000 
#    0.000    0.000    0.000    0.000    0.000    0.000 
#
# Total GULP energy -396920.562011 kJ/mol
# GULP energy per Si atom -12403.767563 kJ/mol
# Density = 1.869065 g / cm^3
# Si number density = 18.733292 Si / 1000 Ang^3
#
#
#
# Elastic Constant Matrix: (Units=GPa)
#
#
# Indices 1 2 3 4 5 6 
#
# 1 71.2680 14.8795 35.8509 0.0000 -2.8722 0.0000
# 2 14.8795 61.6425 30.4600 0.0000 -4.6493 0.0000
# 3 35.8509 30.4600 121.1850 0.0000 -4.7640 0.0000
# 4 0.0000 0.0000 0.0000 26.9468 0.0000 -0.4364
# 5 -2.8722 -4.6493 -4.7640 0.0000 20.9981 0.0000
# 6 0.0000 0.0000 0.0000 -0.4364 0.0000 23.8439
#
#
#
# Elastic Compliance Matrix: (Units=1/GPa)
#
#
# Indices 1 2 3 4 5 6 
#
# 1 0.016676 -0.001756 -0.004457 0.000000 0.000881 0.000000
# 2 -0.001756 0.018907 -0.004114 0.000000 0.003013 0.000000
# 3 -0.004457 -0.004114 0.010640 0.000000 0.000893 0.000000
# 4 0.000000 0.000000 0.000000 0.037121 0.000000 0.000679
# 5 0.000881 0.003013 0.000893 0.000000 0.048614 0.000000
# 6 0.000000 0.000000 0.000000 0.000679 0.000000 0.041952
#
#
# Mechanical properties :
#
#
# Convention : Reuss Voigt Hill
#
# Bulk Modulus (GPa) = 39.11334 46.27515 42.69425
# Shear Modulus (GPa) = 24.62000 25.88476 25.25238
#
# Velocity S-wave (km/s) = 3.62917 3.72122 3.67549
# Velocity P-wave (km/s) = 6.20368 6.57412 6.39158
#
# Compressibility (1/GPa) = 0.02556672
#
# Stress axis : x y z
#
# Youngs Moduli (GPa) = 59.96664 52.89119 93.98764
#
# Poissons Ratio (x) = 0.09290 0.41893
# Poissons Ratio (y) = 0.10532 0.38669
# Poissons Ratio (z) = 0.26729 0.21761
#
# Static dielectric constant tensor:
#      x y z
#    x 3.223630 0.000000 -0.208610 
#    y 0.000000 3.444370 0.000000 
#    z -0.208610 0.000000 3.732440 
# 
# 
# High freq. dielectric constant tensor:
#      x y z
#    x 1.696040 0.000000 -0.008350 
#    y 0.000000 1.731880 0.000000 
#    z -0.008350 0.000000 1.745140 
# 
# From -- ./inp_files/59644.got.cif
#   From: 2010.06.25/outbox.cif.g09.slc.cpg/sg11_30_cif.got.tgz:59644.got - 2010.06.27 23:14:04.
