data_PCOD8074424
_publ_section_title
;
Structure prediction by ZEFSAII (Michael W. Deem and Ramdas Pophale) SiO2 
 PCOD8074424
Probable space group: P 21/M
;
_chemical_formula_sum "Si O2"
_cell_formula_units_Z 32
_cell_length_a 14.142622
_cell_length_b 14.642841
_cell_length_c 12.485621
_cell_angle_alpha 90.000000
_cell_angle_beta 142.667232
_cell_angle_gamma 90.000000
_cell_volume 1568.034405
_symmetry_space_group_name_H-M "P 21/M"
_symmetry_group_IT_number 11
_symmetry_cell_setting 'monoclinic'
loop_
_space_group_symop_operation_xyz
x,y,z
-x,1/2+y,-z
-x,-y,-z
x,1/2-y,z
loop_
_atom_site_type_symbol
_atom_site_label
_atom_site_fract_x
_atom_site_fract_y
_atom_site_fract_z
Si Si1 0.871917 0.933416 0.336851
Si Si2 0.856404 0.149512 0.523009
Si Si3 0.684504 0.503176 0.965949
Si Si4 0.359607 0.148001 0.489360
Si Si5 0.400265 0.357271 0.285865
Si Si6 0.671926 0.968928 0.341461
Si Si7 0.728405 0.148438 0.854307
Si Si8 0.258701 0.854474 0.361642
O O1 0.751550 0.903761 0.322167
O O2 0.972731 0.850761 0.377080
O O3 0.775901 0.979387 0.155856
O O4 0.000000 0.000000 0.500000
O O5 0.781670 0.250000 0.433342
O O6 0.875021 0.135984 0.669017
O O7 0.740586 0.070067 0.380048
O O8 0.687241 0.588962 0.887266
O O9 0.511472 0.471991 0.842767
O O10 0.775461 0.418997 0.991970
O O11 0.294426 0.250000 0.454965
O O12 0.322759 0.121827 0.332421
O O13 0.282689 0.073951 0.501266
O O14 0.543360 0.147748 0.672403
O O15 0.391890 0.250000 0.251170
O O16 0.578393 0.397054 0.446919
O O17 0.790881 0.250000 0.938415
O O18 0.798560 0.107766 0.805176
O O19 0.303936 0.750000 0.376030
#
# Coordination Sequence:
#
# PCOD8074424 Si02
#       8
#     4   4   4   4   4   4   4   4
#     4  10  24  42  52  73 110 153 195 239 280 334
#     4  10  20  36  57  80 111 153 188 223 279 342
#     4  11  20  33  60  85 110 146 186 242 296 322
#     4   8  16  30  52  86 122 149 173 223 291 345
#     4   9  17  29  51  89 123 141 176 229 287 347
#     4  10  20  35  61  83 112 142 199 239 276 329
#     4   8  16  29  50  84 117 142 178 226 282 347
#     4   8  14  28  51  80 114 145 176 218 271 342
#
# _framework density 20.407717000000002
#
# number of rings (size 3 to 8) (size 9 to 14) (size 15 to 20)
#    0.000    2.750    1.250    1.875    1.750    2.500 
#    0.000    3.125    0.000    5.250    0.000    0.000 
#    0.000    0.000    0.000    0.000    0.000    0.000 
#
# Total GULP energy -396432.161520 kJ/mol
# GULP energy per Si atom -12388.505048 kJ/mol
# Density = 2.036127 g / cm^3
# Si number density = 20.407717 Si / 1000 Ang^3
#
#
#
# Elastic Constant Matrix: (Units=GPa)
#
#
# Indices 1 2 3 4 5 6 
#
# 1 125.2955 48.7500 48.0018 0.0000 -29.1460 0.0000
# 2 48.7500 76.9083 18.1514 0.0000 -8.0246 0.0000
# 3 48.0018 18.1514 72.2768 0.0000 -17.9551 0.0000
# 4 0.0000 0.0000 0.0000 10.3477 0.0000 -4.0150
# 5 -29.1460 -8.0246 -17.9551 0.0000 22.9058 0.0000
# 6 0.0000 0.0000 0.0000 -4.0150 0.0000 27.1376
#
#
#
# Elastic Compliance Matrix: (Units=1/GPa)
#
#
# Indices 1 2 3 4 5 6 
#
# 1 0.016191 -0.007547 -0.005460 0.000000 0.013678 0.000000
# 2 -0.007547 0.017469 -0.000298 0.000000 -0.003717 0.000000
# 3 -0.005460 -0.000298 0.019602 0.000000 0.008314 0.000000
# 4 0.000000 0.000000 0.000000 0.102526 0.000000 0.015169
# 5 0.013678 -0.003717 0.008314 0.000000 0.066276 0.000000
# 6 0.000000 0.000000 0.000000 0.015169 0.000000 0.039093
#
#
# Mechanical properties :
#
#
# Convention : Reuss Voigt Hill
#
# Bulk Modulus (GPa) = 37.52104 56.03189 46.77646
# Shear Modulus (GPa) = 16.85478 22.71671 19.78575
#
# Velocity S-wave (km/s) = 2.87697 3.34000 3.11709
# Velocity P-wave (km/s) = 5.42785 6.51076 5.99381
#
# Compressibility (1/GPa) = 0.02665172
#
# Stress axis : x y z
#
# Youngs Moduli (GPa) = 61.76216 57.24415 51.01553
#
# Poissons Ratio (x) = 0.43204 0.27853
# Poissons Ratio (y) = 0.46614 0.01521
# Poissons Ratio (z) = 0.33721 0.01706
#
# Static dielectric constant tensor:
#      x y z
#    x 4.289170 0.000000 -0.313150 
#    y 0.000000 3.796350 0.000000 
#    z -0.313150 0.000000 3.189670 
# 
# 
# High freq. dielectric constant tensor:
#      x y z
#    x 1.808450 0.000000 -0.026520 
#    y 0.000000 1.789310 0.000000 
#    z -0.026520 0.000000 1.745820 
# 
# From -- ./inp_files/39683.got.cif
#   From: 2010.06.25/outbox.cif.g09.slc.cpg/sg11_20_cif.got.tgz:39683.got - 2010.06.27 23:14:04.
