data_PCOD8074236
_publ_section_title
;
Structure prediction by ZEFSAII (Michael W. Deem and Ramdas Pophale) SiO2 
 PCOD8074236
Probable space group: P 21/M
;
_chemical_formula_sum "Si O2"
_cell_formula_units_Z 24
_cell_length_a 15.060629
_cell_length_b 8.498417
_cell_length_c 14.882294
_cell_angle_alpha 90.000000
_cell_angle_beta 40.178801
_cell_angle_gamma 90.000000
_cell_volume 1228.934080
_symmetry_space_group_name_H-M "P 21/M"
_symmetry_group_IT_number 11
_symmetry_cell_setting 'monoclinic'
loop_
_space_group_symop_operation_xyz
x,y,z
-x,1/2+y,-z
-x,-y,-z
x,1/2-y,z
loop_
_atom_site_type_symbol
_atom_site_label
_atom_site_fract_x
_atom_site_fract_y
_atom_site_fract_z
Si Si1 0.811785 0.936377 0.800466
Si Si2 0.408575 0.932472 0.701130
Si Si3 0.114652 0.934565 0.609430
Si Si4 0.288885 0.065577 0.314682
Si Si5 0.303261 0.432996 0.608269
Si Si6 0.584039 0.566054 0.116146
O O1 0.815767 0.750000 0.796216
O O2 0.766493 0.997738 0.737735
O O3 0.962841 0.002527 0.706823
O O4 0.704249 0.995878 0.957912
O O5 0.397605 0.750000 0.734043
O O6 0.563383 0.979750 0.553326
O O7 0.303979 0.973103 0.701515
O O8 0.368098 0.034334 0.819065
O O9 0.112652 0.750000 0.630071
O O10 0.212081 0.968281 0.450202
O O11 0.168247 0.020698 0.657302
O O12 0.260485 0.250000 0.351010
O O13 0.450636 0.035006 0.195271
O O14 0.303420 0.250000 0.631069
O O15 0.553807 0.750000 0.125302
#
# Coordination Sequence:
#
# PCOD8074236 Si02
#       6
#     4   4   4   4   4   4
#     4   9  22  39  56  81 116 153 190 234 279 331
#     4  10  20  35  57  85 115 144 183 232 280 331
#     4  11  21  37  59  84 114 150 190 232 282 333
#     4  11  21  37  58  83 114 149 193 238 278 327
#     4  10  20  35  57  85 115 144 183 232 280 331
#     4  11  21  37  59  84 114 150 190 232 282 333
#
# _framework density 19.529119000000001
#
# number of rings (size 3 to 8) (size 9 to 14) (size 15 to 20)
#    0.000    1.667    1.667    3.500    0.000    1.333 
#    0.000    9.167    0.000    0.000    0.000    0.000 
#    0.000    0.000    0.000    0.000    0.000    0.000 
#
# Total GULP energy -297727.317264 kJ/mol
# GULP energy per Si atom -12405.304886 kJ/mol
# Density = 1.948467 g / cm^3
# Si number density = 19.529119 Si / 1000 Ang^3
#
#
#
# Elastic Constant Matrix: (Units=GPa)
#
#
# Indices 1 2 3 4 5 6 
#
# 1 152.2043 9.5679 55.8199 0.0000 3.3903 0.0000
# 2 9.5679 36.9366 5.6951 0.0000 1.8628 0.0000
# 3 55.8199 5.6951 69.8504 0.0000 -16.6424 0.0000
# 4 0.0000 0.0000 0.0000 12.1690 0.0000 1.3053
# 5 3.3903 1.8628 -16.6424 0.0000 24.7142 0.0000
# 6 0.0000 0.0000 0.0000 1.3053 0.0000 32.2967
#
#
#
# Elastic Compliance Matrix: (Units=1/GPa)
#
#
# Indices 1 2 3 4 5 6 
#
# 1 0.010637 -0.000718 -0.010454 0.000000 -0.008445 0.000000
# 2 -0.000718 0.027847 -0.002589 0.000000 -0.003744 0.000000
# 3 -0.010454 -0.002589 0.027717 0.000000 0.020294 0.000000
# 4 0.000000 0.000000 0.000000 0.082534 0.000000 -0.003336
# 5 -0.008445 -0.003744 0.020294 0.000000 0.055569 0.000000
# 6 0.000000 0.000000 0.000000 -0.003336 0.000000 0.031098
#
#
# Mechanical properties :
#
#
# Convention : Reuss Voigt Hill
#
# Bulk Modulus (GPa) = 25.85327 44.57300 35.21313
# Shear Modulus (GPa) = 18.12796 26.36321 22.24558
#
# Velocity S-wave (km/s) = 3.05003 3.67814 3.37871
# Velocity P-wave (km/s) = 5.06662 6.39623 5.76985
#
# Compressibility (1/GPa) = 0.03867983
#
# Stress axis : x y z
#
# Youngs Moduli (GPa) = 94.00809 35.91010 36.07907
#
# Poissons Ratio (x) = 0.02577 0.37718
# Poissons Ratio (y) = 0.06747 0.09341
# Poissons Ratio (z) = 0.98279 0.09297
#
# Static dielectric constant tensor:
#      x y z
#    x 3.792900 0.000000 0.025870 
#    y 0.000000 3.377090 0.000000 
#    z 0.025870 0.000000 3.545110 
# 
# 
# High freq. dielectric constant tensor:
#      x y z
#    x 1.776030 0.000000 0.009700 
#    y 0.000000 1.755120 0.000000 
#    z 0.009700 0.000000 1.744210 
# 
# From -- ./inp_files/51484.got.cif
#   From: 2010.06.25/outbox.cif.g09.slc.cpg/sg11_26_cif.got.tgz:51484.got - 2010.06.27 23:14:04.
