data_PCOD8074850
_publ_section_title
;
Structure prediction by ZEFSAII (Michael W. Deem and Ramdas Pophale) SiO2 
 PCOD8074850
Probable space group: P 21/M
;
_chemical_formula_sum "Si O2"
_cell_formula_units_Z 24
_cell_length_a 15.015137
_cell_length_b 8.803083
_cell_length_c 14.786274
_cell_angle_alpha 90.000000
_cell_angle_beta 40.214602
_cell_angle_gamma 90.000000
_cell_volume 1261.890187
_symmetry_space_group_name_H-M "P 21/M"
_symmetry_group_IT_number 11
_symmetry_cell_setting 'monoclinic'
loop_
_space_group_symop_operation_xyz
x,y,z
-x,1/2+y,-z
-x,-y,-z
x,1/2-y,z
loop_
_atom_site_type_symbol
_atom_site_label
_atom_site_fract_x
_atom_site_fract_y
_atom_site_fract_z
Si Si1 0.373960 0.929902 0.836902
Si Si2 0.361162 0.929110 0.644325
Si Si3 0.317565 0.424930 0.373288
Si Si4 0.854182 0.071331 0.337686
Si Si5 0.869360 0.575335 0.647840
Si Si6 0.141104 0.930393 0.151733
O O1 0.370772 0.750000 0.843683
O O2 0.334252 0.986818 0.767185
O O3 0.526610 0.988017 0.744554
O O4 0.263375 0.995098 0.993552
O O5 0.380701 0.750000 0.626004
O O6 0.233570 0.980900 0.681319
O O7 0.500000 0.000000 0.500000
O O8 0.309490 0.250000 0.412586
O O9 0.223765 0.526630 0.510476
O O10 0.263622 0.440753 0.313045
O O11 0.880821 0.250000 0.317934
O O12 0.998504 0.985706 0.219543
O O13 0.905544 0.750000 0.639432
O O14 0.833084 0.493135 0.768662
O O15 0.000000 0.500000 0.500000
O O16 0.139708 0.750000 0.157367
#
# Coordination Sequence:
#
# PCOD8074850 Si02
#       6
#     4   4   4   4   4   4
#     4   9  20  39  60  84 117 153 194 237 287 352
#     4  10  20  36  60  88 116 150 192 240 289 342
#     4  10  20  37  62  85 111 152 194 233 288 351
#     4  11  22  35  57  89 119 148 192 245 289 338
#     4  11  22  36  59  89 117 149 194 242 289 345
#     4  11  23  39  59  83 116 160 196 235 291 343
#
# _framework density 19.019086999999999
#
# number of rings (size 3 to 8) (size 9 to 14) (size 15 to 20)
#    0.000    1.667    3.333    1.500    0.000    2.667 
#    0.000    3.333    0.000    0.000    0.000    0.000 
#    0.000    0.000    0.000    0.000    0.000    0.000 
#
# Total GULP energy -297668.855411 kJ/mol
# GULP energy per Si atom -12402.868975 kJ/mol
# Density = 1.897580 g / cm^3
# Si number density = 19.019087 Si / 1000 Ang^3
#
#
#
# Elastic Constant Matrix: (Units=GPa)
#
#
# Indices 1 2 3 4 5 6 
#
# 1 124.2723 26.3389 42.5711 0.0000 -1.7206 0.0000
# 2 26.3389 58.7892 24.2414 0.0000 -0.3859 0.0000
# 3 42.5711 24.2414 134.1080 0.0000 0.1693 0.0000
# 4 0.0000 0.0000 0.0000 16.2609 0.0000 3.0286
# 5 -1.7206 -0.3859 0.1693 0.0000 34.5892 0.0000
# 6 0.0000 0.0000 0.0000 3.0286 0.0000 27.2112
#
#
#
# Elastic Compliance Matrix: (Units=1/GPa)
#
#
# Indices 1 2 3 4 5 6 
#
# 1 0.009588 -0.003282 -0.002451 0.000000 0.000452 0.000000
# 2 -0.003282 0.019505 -0.002484 0.000000 0.000066 0.000000
# 3 -0.002451 -0.002484 0.008684 0.000000 -0.000192 0.000000
# 4 0.000000 0.000000 0.000000 0.062799 0.000000 -0.006990
# 5 0.000452 0.000066 -0.000192 0.000000 0.028935 0.000000
# 6 0.000000 0.000000 0.000000 -0.006990 0.000000 0.037527
#
#
# Mechanical properties :
#
#
# Convention : Reuss Voigt Hill
#
# Bulk Modulus (GPa) = 46.85341 55.94139 51.39740
# Shear Modulus (GPa) = 26.23467 30.54681 28.39074
#
# Velocity S-wave (km/s) = 3.71804 4.01198 3.86780
# Velocity P-wave (km/s) = 6.56659 7.13712 6.85779
#
# Compressibility (1/GPa) = 0.02134317
#
# Stress axis : x y z
#
# Youngs Moduli (GPa) = 104.29291 51.26870 115.15481
#
# Poissons Ratio (x) = 0.16827 0.28225
# Poissons Ratio (y) = 0.34231 0.28604
# Poissons Ratio (z) = 0.25562 0.12735
#
# Static dielectric constant tensor:
#      x y z
#    x 3.971870 0.000000 -0.025730 
#    y 0.000000 3.395060 0.000000 
#    z -0.025730 0.000000 3.626880 
# 
# 
# High freq. dielectric constant tensor:
#      x y z
#    x 1.759550 0.000000 -0.000220 
#    y 0.000000 1.728620 0.000000 
#    z -0.000220 0.000000 1.736130 
# 
# From -- ./inp_files/25935.got.cif
#   From: 2010.06.25/outbox.cif.g09.slc.cpg/sg11_13_cif.got.tgz:25935.got - 2010.06.27 23:14:04.
