data_PCOD8074355
_publ_section_title
;
Structure prediction by ZEFSAII (Michael W. Deem and Ramdas Pophale) SiO2 
 PCOD8074355
Probable space group: P 21/M
;
_chemical_formula_sum "Si O2"
_cell_formula_units_Z 24
_cell_length_a 17.682342
_cell_length_b 15.781777
_cell_length_c 11.897928
_cell_angle_alpha 90.000000
_cell_angle_beta 158.997612
_cell_angle_gamma 90.000000
_cell_volume 1189.990071
_symmetry_space_group_name_H-M "P 21/M"
_symmetry_group_IT_number 11
_symmetry_cell_setting 'monoclinic'
loop_
_space_group_symop_operation_xyz
x,y,z
-x,1/2+y,-z
-x,-y,-z
x,1/2-y,z
loop_
_atom_site_type_symbol
_atom_site_label
_atom_site_fract_x
_atom_site_fract_y
_atom_site_fract_z
Si Si1 0.816191 0.155854 0.130098
Si Si2 0.505627 0.655616 0.705359
Si Si3 0.528508 0.416090 0.919780
Si Si4 0.272096 0.409672 0.769609
Si Si5 0.421103 0.343997 0.443100
Si Si6 0.243829 0.009721 0.341785
O O1 0.908315 0.250000 0.261844
O O2 0.020621 0.096634 0.403260
O O3 0.670647 0.143909 0.039064
O O4 0.669217 0.140839 0.816895
O O5 0.410395 0.750000 0.596691
O O6 0.627793 0.657126 0.756816
O O7 0.327803 0.585293 0.442974
O O8 0.670057 0.631888 0.031094
O O9 0.419612 0.368157 0.875355
O O10 0.329409 0.454124 0.577050
O O11 0.683798 0.490476 0.174857
O O12 0.356760 0.250000 0.402876
O O13 0.295017 0.423513 0.315221
O O14 0.000000 0.000000 0.000000
#
# Coordination Sequence:
#
# PCOD8074355 Si02
#       6
#     4   4   4   4   4   4
#     4  10  20  35  59  84 108 150 193 236 296 349
#     4  10  21  38  57  86 120 152 195 245 297 356
#     4   9  21  39  56  85 118 149 197 249 284 353
#     4  10  20  38  60  82 116 156 193 239 298 356
#     4   9  20  39  59  85 118 150 199 252 292 352
#     4  10  21  37  60  88 116 158 199 240 303 352
#
# _framework density 20.168234999999999
#
# number of rings (size 3 to 8) (size 9 to 14) (size 15 to 20)
#    0.000    2.333    0.000    1.500    2.333    2.000 
#    9.000    0.000    0.000    0.000    0.000    0.000 
#    0.000    0.000    0.000    0.000    0.000    0.000 
#
# Total GULP energy -297391.176192 kJ/mol
# GULP energy per Si atom -12391.299008 kJ/mol
# Density = 2.012233 g / cm^3
# Si number density = 20.168235 Si / 1000 Ang^3
#
#
#
# Elastic Constant Matrix: (Units=GPa)
#
#
# Indices 1 2 3 4 5 6 
#
# 1 111.2730 31.1453 50.8279 0.0000 -9.6956 0.0000
# 2 31.1453 115.2534 52.2887 0.0000 5.7351 0.0000
# 3 50.8279 52.2887 110.1247 0.0000 19.0186 0.0000
# 4 0.0000 0.0000 0.0000 6.8941 0.0000 -13.6800
# 5 -9.6956 5.7351 19.0186 0.0000 26.1920 0.0000
# 6 0.0000 0.0000 0.0000 -13.6800 0.0000 14.5996
#
#
#
# Elastic Compliance Matrix: (Units=1/GPa)
#
#
# Indices 1 2 3 4 5 6 
#
# 1 0.013754 -0.000666 -0.007931 0.000000 0.010996 0.000000
# 2 -0.000666 0.011149 -0.005171 0.000000 0.001067 0.000000
# 3 -0.007931 -0.005171 0.017731 0.000000 -0.014679 0.000000
# 4 0.000000 0.000000 0.000000 -0.168797 0.000000 -0.158165
# 5 0.010996 0.001067 -0.014679 0.000000 0.052675 0.000000
# 6 0.000000 0.000000 0.000000 -0.158165 0.000000 -0.079708
#
#
# Mechanical properties :
#
#
# Convention : Reuss Voigt Hill
#
# Bulk Modulus (GPa) = 66.22750 67.24164 66.73457
# Shear Modulus (GPa) = -41.45024 23.02976 -9.21024
#
# Velocity S-wave (km/s) = -4.53838 3.38284 -2.13930
# Velocity P-wave (km/s) = 2.33374 6.97645 5.20179
#
# Compressibility (1/GPa) = 0.01509947
#
# Stress axis : x y z
#
# Youngs Moduli (GPa) = 72.70482 89.69206 56.39698
#
# Poissons Ratio (x) = 0.05971 0.44729
# Poissons Ratio (y) = 0.04841 0.29162
# Poissons Ratio (z) = 0.57664 0.46378
#
# Static dielectric constant tensor:
#      x y z
#    x 4.068390 0.000000 -0.219000 
#    y 0.000000 3.324810 0.000000 
#    z -0.219000 0.000000 3.470150 
# 
# 
# High freq. dielectric constant tensor:
#      x y z
#    x 1.784450 0.000000 -0.017810 
#    y 0.000000 1.793560 0.000000 
#    z -0.017810 0.000000 1.777170 
# 
# From -- ./inp_files/41915.got.cif
#   From: 2010.06.25/outbox.cif.g09.slc.cpg/sg11_21_cif.got.tgz:41915.got - 2010.06.27 23:14:04.
