data_PCOD8074047
_publ_section_title
;
Structure prediction by ZEFSAII (Michael W. Deem and Ramdas Pophale) SiO2 
 PCOD8074047
Probable space group: P 21/M
;
_chemical_formula_sum "Si O2"
_cell_formula_units_Z 28
_cell_length_a 7.008757
_cell_length_b 14.332745
_cell_length_c 17.897104
_cell_angle_alpha 90.000000
_cell_angle_beta 49.157900
_cell_angle_gamma 90.000000
_cell_volume 1360.099017
_symmetry_space_group_name_H-M "P 21/M"
_symmetry_group_IT_number 11
_symmetry_cell_setting 'monoclinic'
loop_
_space_group_symop_operation_xyz
x,y,z
-x,1/2+y,-z
-x,-y,-z
x,1/2-y,z
loop_
_atom_site_type_symbol
_atom_site_label
_atom_site_fract_x
_atom_site_fract_y
_atom_site_fract_z
Si Si1 0.983869 0.859568 0.049233
Si Si2 0.522074 0.557651 0.920012
Si Si3 0.452748 0.855940 0.697699
Si Si4 0.693677 0.998581 0.383429
Si Si5 0.929307 0.853519 0.903598
Si Si6 0.391108 0.138580 0.726822
Si Si7 0.265291 0.502937 0.284872
O O1 0.937372 0.750000 0.057499
O O2 0.834261 0.896999 0.160103
O O3 0.281246 0.875886 0.978513
O O4 0.881761 0.906436 0.996490
O O5 0.782678 0.612832 0.867912
O O6 0.569664 0.499179 0.833074
O O7 0.500000 0.500000 0.000000
O O8 0.539052 0.750000 0.657384
O O9 0.227105 0.856955 0.814638
O O10 0.355203 0.905631 0.647984
O O11 0.681684 0.912347 0.677033
O O12 0.659836 0.907103 0.340459
O O13 0.970735 0.994149 0.346453
O O14 0.500000 0.000000 0.500000
O O15 0.834324 0.750000 0.941988
O O16 0.408893 0.250000 0.714293
O O17 0.651687 0.097504 0.693312
#
# Coordination Sequence:
#
# PCOD8074047 Si02
#       7
#     4   4   4   4   4   4   4
#     4  10  21  37  57  86 125 166 205 249 299 366
#     4  12  22  31  56  88 124 166 207 245 300 365
#     4  10  22  40  64  94 126 160 203 254 313 376
#     4  11  25  46  67  93 124 160 210 270 324 372
#     4  10  20  35  55  84 123 164 204 246 295 361
#     4  10  24  44  65  91 127 168 213 257 309 375
#     4  11  23  40  64  92 124 166 209 261 314 369
#
# _framework density 20.586736999999999
#
# number of rings (size 3 to 8) (size 9 to 14) (size 15 to 20)
#    0.000    1.429    2.857    2.143    2.000    5.714 
#    0.000    5.000    0.000    0.000    0.000    0.000 
#    0.000    0.000    0.000    0.000    0.000    0.000 
#
# Total GULP energy -347054.382281 kJ/mol
# GULP energy per Si atom -12394.799367 kJ/mol
# Density = 2.053988 g / cm^3
# Si number density = 20.586737 Si / 1000 Ang^3
#
#
#
# Elastic Constant Matrix: (Units=GPa)
#
#
# Indices 1 2 3 4 5 6 
#
# 1 158.2742 53.4959 47.9188 0.0000 -4.0786 0.0000
# 2 53.4959 107.6982 38.9617 0.0000 2.4573 0.0000
# 3 47.9188 38.9617 100.9744 0.0000 -5.3387 0.0000
# 4 0.0000 0.0000 0.0000 19.2585 0.0000 7.1633
# 5 -4.0786 2.4573 -5.3387 0.0000 20.8743 0.0000
# 6 0.0000 0.0000 0.0000 7.1633 0.0000 22.7695
#
#
#
# Elastic Compliance Matrix: (Units=1/GPa)
#
#
# Indices 1 2 3 4 5 6 
#
# 1 0.008211 -0.003166 -0.002606 0.000000 0.001311 0.000000
# 2 -0.003166 0.012129 -0.003331 0.000000 -0.002898 0.000000
# 3 -0.002606 -0.003331 0.012589 0.000000 0.003103 0.000000
# 4 0.000000 0.000000 0.000000 0.058806 0.000000 -0.018501
# 5 0.001311 -0.002898 0.003103 0.000000 0.049297 0.000000
# 6 0.000000 0.000000 0.000000 -0.018501 0.000000 0.049739
#
#
# Mechanical properties :
#
#
# Convention : Reuss Voigt Hill
#
# Bulk Modulus (GPa) = 67.91488 71.96664 69.94076
# Shear Modulus (GPa) = 23.37720 27.68516 25.53118
#
# Velocity S-wave (km/s) = 3.37344 3.67114 3.52543
# Velocity P-wave (km/s) = 6.94512 7.28034 7.11471
#
# Compressibility (1/GPa) = 0.01472431
#
# Stress axis : x y z
#
# Youngs Moduli (GPa) = 121.79034 82.44833 79.43194
#
# Poissons Ratio (x) = 0.26101 0.20698
# Poissons Ratio (y) = 0.38555 0.26458
# Poissons Ratio (z) = 0.31736 0.27463
#
# Static dielectric constant tensor:
#      x y z
#    x 2.585570 0.000000 -0.091880 
#    y 0.000000 3.735280 0.000000 
#    z -0.091880 0.000000 3.590100 
# 
# 
# High freq. dielectric constant tensor:
#      x y z
#    x 1.820360 0.000000 0.011410 
#    y 0.000000 1.803990 0.000000 
#    z 0.011410 0.000000 1.790860 
# 
# From -- ./inp_files/57004.got.cif
#   From: 2010.06.25/outbox.cif.g09.slc.cpg/sg11_29_cif.got.tgz:57004.got - 2010.06.27 23:14:04.
