data_PCOD8074642
_publ_section_title
;
Structure prediction by ZEFSAII (Michael W. Deem and Ramdas Pophale) SiO2 
 PCOD8074642
Probable space group: P 21/M
;
_chemical_formula_sum "Si O2"
_cell_formula_units_Z 24
_cell_length_a 21.965951
_cell_length_b 8.835362
_cell_length_c 9.682340
_cell_angle_alpha 90.000000
_cell_angle_beta 135.677411
_cell_angle_gamma 90.000000
_cell_volume 1312.936770
_symmetry_space_group_name_H-M "P 21/M"
_symmetry_group_IT_number 11
_symmetry_cell_setting 'monoclinic'
loop_
_space_group_symop_operation_xyz
x,y,z
-x,1/2+y,-z
-x,-y,-z
x,1/2-y,z
loop_
_atom_site_type_symbol
_atom_site_label
_atom_site_fract_x
_atom_site_fract_y
_atom_site_fract_z
Si Si1 0.476087 0.928404 0.815141
Si Si2 0.367422 0.571715 0.068847
Si Si3 0.092787 0.074974 0.642667
Si Si4 0.767672 0.923992 0.344930
Si Si5 0.246096 0.073100 0.083946
Si Si6 0.703958 0.576138 0.533239
O O1 0.487536 0.750000 0.845101
O O2 0.539040 0.993541 0.798815
O O3 0.378213 0.967424 0.613374
O O4 0.500000 0.000000 0.000000
O O5 0.380351 0.750000 0.094791
O O6 0.326718 0.515022 0.146503
O O7 0.306559 0.528834 0.840671
O O8 0.075198 0.250000 0.631675
O O9 0.138616 0.036601 0.569969
O O10 0.155696 0.016802 0.868421
O O11 0.000000 0.000000 0.500000
O O12 0.743576 0.750000 0.270510
O O13 0.770369 0.951898 0.513653
O O14 0.259350 0.250000 0.074445
O O15 0.243359 0.036842 0.242065
O O16 0.671468 0.750000 0.481894
#
# Coordination Sequence:
#
# PCOD8074642 Si02
#       6
#     4   4   4   4   4   4
#     4  12  23  35  53  79 111 145 186 229 266 313
#     4  11  21  34  54  79 107 146 188 226 268 315
#     4   9  18  34  56  81 107 139 178 221 269 325
#     4   9  18  34  56  79 106 140 180 225 272 323
#     4   9  20  38  57  79 109 143 180 224 277 327
#     4  10  20  36  58  80 106 143 183 228 277 319
#
# _framework density 18.279630000000001
#
# number of rings (size 3 to 8) (size 9 to 14) (size 15 to 20)
#    0.000    2.000    1.667    4.000    0.000    4.000 
#    0.000    0.833    0.000    0.000    0.000    0.000 
#    0.000    0.000    0.000    0.000    0.000    0.000 
#
# Total GULP energy -297606.634399 kJ/mol
# GULP energy per Si atom -12400.276433 kJ/mol
# Density = 1.823802 g / cm^3
# Si number density = 18.279630 Si / 1000 Ang^3
#
#
#
# Elastic Constant Matrix: (Units=GPa)
#
#
# Indices 1 2 3 4 5 6 
#
# 1 143.2564 47.2869 78.7488 0.0000 -2.6680 0.0000
# 2 47.2869 94.8880 36.4837 0.0000 1.9824 0.0000
# 3 78.7488 36.4837 105.0359 0.0000 -12.5108 0.0000
# 4 0.0000 0.0000 0.0000 25.1846 0.0000 4.8732
# 5 -2.6680 1.9824 -12.5108 0.0000 37.4517 0.0000
# 6 0.0000 0.0000 0.0000 4.8732 0.0000 30.0270
#
#
#
# Elastic Compliance Matrix: (Units=1/GPa)
#
#
# Indices 1 2 3 4 5 6 
#
# 1 0.012718 -0.002941 -0.008735 0.000000 -0.001856 0.000000
# 2 -0.002941 0.013010 -0.002521 0.000000 -0.001740 0.000000
# 3 -0.008735 -0.002521 0.017587 0.000000 0.005386 0.000000
# 4 0.000000 0.000000 0.000000 0.040994 0.000000 -0.006653
# 5 -0.001856 -0.001740 0.005386 0.000000 0.028460 0.000000
# 6 0.000000 0.000000 0.000000 -0.006653 0.000000 0.034383
#
#
# Mechanical properties :
#
#
# Convention : Reuss Voigt Hill
#
# Bulk Modulus (GPa) = 67.02078 74.24655 70.63367
# Shear Modulus (GPa) = 27.69766 30.57672 29.13719
#
# Velocity S-wave (km/s) = 3.89681 4.09433 3.99679
# Velocity P-wave (km/s) = 7.54921 7.94082 7.74749
#
# Compressibility (1/GPa) = 0.01492074
#
# Stress axis : x y z
#
# Youngs Moduli (GPa) = 78.62707 76.86327 56.86092
#
# Poissons Ratio (x) = 0.22604 0.49668
# Poissons Ratio (y) = 0.23123 0.14337
# Poissons Ratio (z) = 0.68680 0.19381
#
# Static dielectric constant tensor:
#      x y z
#    x 3.582880 0.000000 -0.133570 
#    y 0.000000 2.841180 0.000000 
#    z -0.133570 0.000000 3.333320 
# 
# 
# High freq. dielectric constant tensor:
#      x y z
#    x 1.714220 0.000000 -0.012110 
#    y 0.000000 1.705710 0.000000 
#    z -0.012110 0.000000 1.687610 
# 
# From -- ./inp_files/25728.got.cif
#   From: 2010.06.25/outbox.cif.g09.slc.cpg/sg11_13_cif.got.tgz:25728.got - 2010.06.27 23:14:04.
