data_PCOD8074443
_publ_section_title
;
Structure prediction by ZEFSAII (Michael W. Deem and Ramdas Pophale) SiO2 
 PCOD8074443
Probable space group: P 21/M
;
_chemical_formula_sum "Si O2"
_cell_formula_units_Z 32
_cell_length_a 20.365437
_cell_length_b 8.844637
_cell_length_c 25.839338
_cell_angle_alpha 90.000000
_cell_angle_beta 20.054915
_cell_angle_gamma 90.000000
_cell_volume 1596.058280
_symmetry_space_group_name_H-M "P 21/M"
_symmetry_group_IT_number 11
_symmetry_cell_setting 'monoclinic'
loop_
_space_group_symop_operation_xyz
x,y,z
-x,1/2+y,-z
-x,-y,-z
x,1/2-y,z
loop_
_atom_site_type_symbol
_atom_site_label
_atom_site_fract_x
_atom_site_fract_y
_atom_site_fract_z
Si Si1 0.600370 0.917381 0.693470
Si Si2 0.167318 0.570559 0.023914
Si Si3 0.382798 0.419567 0.155188
Si Si4 0.059407 0.928188 0.712437
Si Si5 0.158780 0.430832 0.919091
Si Si6 0.559715 0.922972 0.603899
Si Si7 0.757520 0.578116 0.849085
Si Si8 0.180963 0.921267 0.388750
O O1 0.643895 0.750000 0.681737
O O2 0.390058 0.966433 0.868491
O O3 0.624083 0.925702 0.615133
O O4 0.760603 0.027989 0.597273
O O5 0.131792 0.750000 0.045263
O O6 0.110750 0.491921 0.011901
O O7 0.048704 0.502658 0.159150
O O8 0.378409 0.250000 0.180974
O O9 0.220503 0.433021 0.229836
O O10 0.352684 0.539989 0.222836
O O11 0.596307 0.453739 0.978685
O O12 0.076038 0.750000 0.709529
O O13 0.947210 0.963612 0.741566
O O14 0.272221 0.998092 0.553371
O O15 0.153303 0.250000 0.923268
O O16 0.362228 0.485474 0.745414
O O17 0.000000 0.500000 0.000000
O O18 0.529984 0.750000 0.606813
O O19 0.692937 0.750000 0.910929
O O20 0.128530 0.750000 0.430163
O O21 0.000000 0.000000 0.500000
#
# Coordination Sequence:
#
# PCOD8074443 Si02
#       8
#     4   4   4   4   4   4   4   4
#     4   9  20  39  60  83 112 150 198 250 300 357
#     4  10  21  39  63  92 123 159 201 243 290 349
#     4  10  20  36  54  76 104 140 190 243 297 356
#     4  11  22  36  57  88 123 158 201 248 300 353
#     4  11  22  41  69  98 128 163 199 238 286 346
#     4  10  22  40  62  91 124 159 201 246 297 356
#     4   9  20  36  55  78 107 146 189 238 293 354
#     4  12  25  37  52  74 105 144 190 245 302 356
#
# _framework density 20.049393999999999
#
# number of rings (size 3 to 8) (size 9 to 14) (size 15 to 20)
#    0.000    1.750    0.000    5.250    1.750    6.500 
#    0.000    0.625    0.000    0.000    0.000    0.000 
#    0.000    0.000    0.000    0.000    0.000    0.000 
#
# Total GULP energy -396679.848982 kJ/mol
# GULP energy per Si atom -12396.245281 kJ/mol
# Density = 2.000376 g / cm^3
# Si number density = 20.049394 Si / 1000 Ang^3
#
#
#
# Elastic Constant Matrix: (Units=GPa)
#
#
# Indices 1 2 3 4 5 6 
#
# 1 79.4885 54.5787 29.0821 0.0000 -20.7516 0.0000
# 2 54.5787 141.4890 39.7637 0.0000 -14.6164 0.0000
# 3 29.0821 39.7637 79.2439 0.0000 -3.8157 0.0000
# 4 0.0000 0.0000 0.0000 35.6547 0.0000 0.1934
# 5 -20.7516 -14.6164 -3.8157 0.0000 28.2103 0.0000
# 6 0.0000 0.0000 0.0000 0.1934 0.0000 34.0516
#
#
#
# Elastic Compliance Matrix: (Units=1/GPa)
#
#
# Indices 1 2 3 4 5 6 
#
# 1 0.021259 -0.005732 -0.004344 0.000000 0.012081 0.000000
# 2 -0.005732 0.010182 -0.002974 0.000000 0.000657 0.000000
# 3 -0.004344 -0.002974 0.015579 0.000000 -0.002629 0.000000
# 4 0.000000 0.000000 0.000000 0.028048 0.000000 -0.000159
# 5 0.012081 0.000657 -0.002629 0.000000 0.044320 0.000000
# 6 0.000000 0.000000 0.000000 -0.000159 0.000000 0.029368
#
#
# Mechanical properties :
#
#
# Convention : Reuss Voigt Hill
#
# Bulk Modulus (GPa) = 47.79955 60.78562 54.29259
# Shear Modulus (GPa) = 27.49809 31.36979 29.43394
#
# Velocity S-wave (km/s) = 3.70742 3.95983 3.83570
# Velocity P-wave (km/s) = 6.49763 7.16175 6.83776
#
# Compressibility (1/GPa) = 0.02092070
#
# Stress axis : x y z
#
# Youngs Moduli (GPa) = 47.03817 98.20810 64.18725
#
# Poissons Ratio (x) = 0.56291 0.27884
# Poissons Ratio (y) = 0.26961 0.19091
# Poissons Ratio (z) = 0.20434 0.29210
#
# Static dielectric constant tensor:
#      x y z
#    x 4.536070 0.000000 0.875730 
#    y 0.000000 3.722390 0.000000 
#    z 0.875730 0.000000 4.446770 
# 
# 
# High freq. dielectric constant tensor:
#      x y z
#    x 1.775990 0.000000 0.002080 
#    y 0.000000 1.794450 0.000000 
#    z 0.002080 0.000000 1.777830 
# 
# From -- ./inp_files/72017.got.cif
#   From: 2010.06.25/outbox.cif.g09.slc.cpg/sg11_37_cif.got.tgz:72017.got - 2010.06.27 23:14:04.
