data_PCOD8074712
_publ_section_title
;
Structure prediction by ZEFSAII (Michael W. Deem and Ramdas Pophale) SiO2 
 PCOD8074712
Probable space group: P 21/M
;
_chemical_formula_sum "Si O2"
_cell_formula_units_Z 32
_cell_length_a 14.587365
_cell_length_b 8.654863
_cell_length_c 14.911045
_cell_angle_alpha 90.000000
_cell_angle_beta 59.262608
_cell_angle_gamma 90.000000
_cell_volume 1618.082124
_symmetry_space_group_name_H-M "P 21/M"
_symmetry_group_IT_number 11
_symmetry_cell_setting 'monoclinic'
loop_
_space_group_symop_operation_xyz
x,y,z
-x,1/2+y,-z
-x,-y,-z
x,1/2-y,z
loop_
_atom_site_type_symbol
_atom_site_label
_atom_site_fract_x
_atom_site_fract_y
_atom_site_fract_z
Si Si1 0.565854 0.068714 0.236530
Si Si2 0.340533 0.930715 0.328753
Si Si3 0.786983 0.931857 0.453024
Si Si4 0.932371 0.432571 0.954462
Si Si5 0.757499 0.431522 0.810800
Si Si6 0.395316 0.068899 0.597586
Si Si7 0.008812 0.567896 0.269109
Si Si8 0.287725 0.431853 0.979636
O O1 0.583912 0.250000 0.219370
O O2 0.441116 0.031469 0.308157
O O3 0.625765 0.007193 0.295088
O O4 0.607664 0.985303 0.126159
O O5 0.367530 0.750000 0.321764
O O6 0.306329 0.977801 0.245777
O O7 0.245018 0.973096 0.443129
O O8 0.787983 0.750000 0.474408
O O9 0.707364 0.968324 0.411186
O O10 0.903984 0.999148 0.369683
O O11 0.929879 0.250000 0.961545
O O12 0.812122 0.492611 0.020849
O O13 0.985763 0.491846 0.835754
O O14 0.000000 0.500000 0.000000
O O15 0.753146 0.250000 0.833213
O O16 0.702654 0.516304 0.921940
O O17 0.881431 0.482901 0.736655
O O18 0.412878 0.250000 0.601575
O O19 0.500000 0.000000 0.500000
O O20 0.996596 0.750000 0.274709
O O21 0.277296 0.250000 0.980780
#
# Coordination Sequence:
#
# PCOD8074712 Si02
#       8
#     4   4   4   4   4   4   4   4
#     4  12  25  41  61  87 119 158 201 248 298 359
#     4  11  23  39  61  88 118 155 199 249 301 357
#     4  10  21  37  59  87 119 158 198 238 293 355
#     4  10  20  36  58  86 120 159 202 247 296 352
#     4   9  20  41  64  86 118 156 196 247 302 355
#     4  11  22  37  59  86 121 160 197 243 296 353
#     4   8  17  36  59  83 116 155 194 239 291 346
#     4  11  23  40  62  88 119 155 197 248 303 361
#
# _framework density 19.776499000000001
#
# number of rings (size 3 to 8) (size 9 to 14) (size 15 to 20)
#    0.000    1.750    1.250    4.125    1.750    2.500 
#    0.000    3.125    0.000    0.000    0.000    0.000 
#    0.000    0.000    0.000    0.000    0.000    0.000 
#
# Total GULP energy -396897.083539 kJ/mol
# GULP energy per Si atom -12403.033861 kJ/mol
# Density = 1.973149 g / cm^3
# Si number density = 19.776499 Si / 1000 Ang^3
#
#
#
# Elastic Constant Matrix: (Units=GPa)
#
#
# Indices 1 2 3 4 5 6 
#
# 1 55.8156 25.2436 27.9069 0.0000 14.2789 0.0000
# 2 25.2436 80.3106 26.7716 0.0000 12.3286 0.0000
# 3 27.9069 26.7716 105.6316 0.0000 -2.3225 0.0000
# 4 0.0000 0.0000 0.0000 35.5683 0.0000 2.2942
# 5 14.2789 12.3286 -2.3225 0.0000 36.1429 0.0000
# 6 0.0000 0.0000 0.0000 2.2942 0.0000 24.7646
#
#
#
# Elastic Compliance Matrix: (Units=1/GPa)
#
#
# Indices 1 2 3 4 5 6 
#
# 1 0.025060 -0.004670 -0.005628 0.000000 -0.008669 0.000000
# 2 -0.004670 0.015384 -0.002744 0.000000 -0.003579 0.000000
# 3 -0.005628 -0.002744 0.011735 0.000000 0.003913 0.000000
# 4 0.000000 0.000000 0.000000 0.028284 0.000000 -0.002620
# 5 -0.008669 -0.003579 0.003913 0.000000 0.032565 0.000000
# 6 0.000000 0.000000 0.000000 -0.002620 0.000000 0.040623
#
#
# Mechanical properties :
#
#
# Convention : Reuss Voigt Hill
#
# Bulk Modulus (GPa) = 38.32087 44.62246 41.47167
# Shear Modulus (GPa) = 26.53485 30.08421 28.30953
#
# Velocity S-wave (km/s) = 3.66695 3.90450 3.78759
# Velocity P-wave (km/s) = 6.11128 6.55280 6.33589
#
# Compressibility (1/GPa) = 0.02609544
#
# Stress axis : x y z
#
# Youngs Moduli (GPa) = 39.90475 65.00427 85.21499
#
# Poissons Ratio (x) = 0.30358 0.47955
# Poissons Ratio (y) = 0.18636 0.23381
# Poissons Ratio (z) = 0.22457 0.17835
#
# Static dielectric constant tensor:
#      x y z
#    x 3.684410 0.000000 -0.039160 
#    y 0.000000 3.492450 0.000000 
#    z -0.039160 0.000000 3.746560 
# 
# 
# High freq. dielectric constant tensor:
#      x y z
#    x 1.772360 0.000000 0.000410 
#    y 0.000000 1.764930 0.000000 
#    z 0.000410 0.000000 1.780080 
# 
# From -- ./inp_files/51687.got.cif
#   From: 2010.06.25/outbox.cif.g09.slc.cpg/sg11_26_cif.got.tgz:51687.got - 2010.06.27 23:14:04.
