data_PCOD8074541
_publ_section_title
;
Structure prediction by ZEFSAII (Michael W. Deem and Ramdas Pophale) SiO2 
 PCOD8074541
Probable space group: P 21/M
;
_chemical_formula_sum "Si O2"
_cell_formula_units_Z 24
_cell_length_a 10.843752
_cell_length_b 19.796015
_cell_length_c 10.883759
_cell_angle_alpha 90.000000
_cell_angle_beta 145.039028
_cell_angle_gamma 90.000000
_cell_volume 1338.766318
_symmetry_space_group_name_H-M "P 21/M"
_symmetry_group_IT_number 11
_symmetry_cell_setting 'monoclinic'
loop_
_space_group_symop_operation_xyz
x,y,z
-x,1/2+y,-z
-x,-y,-z
x,1/2-y,z
loop_
_atom_site_type_symbol
_atom_site_label
_atom_site_fract_x
_atom_site_fract_y
_atom_site_fract_z
Si Si1 0.693456 0.173852 0.513451
Si Si2 0.558424 0.605308 0.899148
Si Si3 0.293144 0.546623 0.317304
Si Si4 0.090279 0.326719 0.666685
Si Si5 0.124781 0.563071 0.658210
Si Si6 0.133212 0.988993 0.929745
O O1 0.654937 0.250000 0.530239
O O2 0.522314 0.159161 0.266385
O O3 0.658052 0.122311 0.596578
O O4 0.933517 0.165972 0.655811
O O5 0.363433 0.562749 0.797282
O O6 0.676765 0.645692 0.104364
O O7 0.718098 0.554069 0.963474
O O8 0.500000 0.500000 0.500000
O O9 0.110859 0.512998 0.252609
O O10 0.216123 0.553385 0.114012
O O11 0.109944 0.250000 0.637826
O O12 0.000613 0.368572 0.477988
O O13 0.140348 0.559067 0.817435
O O14 0.000000 0.500000 0.500000
#
# Coordination Sequence:
#
# PCOD8074541 Si02
#       6
#     4   4   4   4   4   4
#     4  10  20  36  56  84 113 148 192 236 285 336
#     4  11  19  35  60  87 112 143 187 239 287 335
#     4  11  22  37  58  81 119 149 189 240 279 329
#     4  10  21  36  57  85 118 147 186 242 293 341
#     4  11  22  35  59  88 116 146 189 234 290 344
#     4  11  22  35  56  89 109 146 193 229 282 337
#
# _framework density 17.926953000000001
#
# number of rings (size 3 to 8) (size 9 to 14) (size 15 to 20)
#    0.000    1.333    5.000    2.000    0.000    0.667 
#    0.000    0.833    0.000    3.000    0.000    0.000 
#    0.000    0.000    0.000    0.000    0.000    0.000 
#
# Total GULP energy -297690.728266 kJ/mol
# GULP energy per Si atom -12403.780344 kJ/mol
# Density = 1.788615 g / cm^3
# Si number density = 17.926953 Si / 1000 Ang^3
#
#
#
# Elastic Constant Matrix: (Units=GPa)
#
#
# Indices 1 2 3 4 5 6 
#
# 1 83.9985 54.5495 47.7002 0.0000 -0.4876 0.0000
# 2 54.5495 140.2756 56.8553 0.0000 -2.5185 0.0000
# 3 47.7002 56.8553 107.2750 0.0000 9.4433 0.0000
# 4 0.0000 0.0000 0.0000 29.8216 0.0000 -7.8332
# 5 -0.4876 -2.5185 9.4433 0.0000 36.6722 0.0000
# 6 0.0000 0.0000 0.0000 -7.8332 0.0000 27.9078
#
#
#
# Elastic Compliance Matrix: (Units=1/GPa)
#
#
# Indices 1 2 3 4 5 6 
#
# 1 0.018246 -0.004754 -0.005716 0.000000 0.001388 0.000000
# 2 -0.004754 0.010450 -0.003563 0.000000 0.001572 0.000000
# 3 -0.005716 -0.003563 0.014100 0.000000 -0.003951 0.000000
# 4 0.000000 0.000000 0.000000 0.036202 0.000000 0.010161
# 5 0.001388 0.001572 -0.003951 0.000000 0.028413 0.000000
# 6 0.000000 0.000000 0.000000 0.010161 0.000000 0.038684
#
#
# Mechanical properties :
#
#
# Convention : Reuss Voigt Hill
#
# Bulk Modulus (GPa) = 67.88746 72.19546 70.04146
# Shear Modulus (GPa) = 27.92216 30.37659 29.14937
#
# Velocity S-wave (km/s) = 3.95086 4.12085 4.03675
# Velocity P-wave (km/s) = 7.66574 7.93734 7.80272
#
# Compressibility (1/GPa) = 0.01473026
#
# Stress axis : x y z
#
# Youngs Moduli (GPa) = 54.80645 95.69605 70.92410
#
# Poissons Ratio (x) = 0.45492 0.40539
# Poissons Ratio (y) = 0.26054 0.25270
# Poissons Ratio (z) = 0.31327 0.34096
#
# Static dielectric constant tensor:
#      x y z
#    x 3.274370 0.000000 0.060510 
#    y 0.000000 3.308190 0.000000 
#    z 0.060510 0.000000 3.582130 
# 
# 
# High freq. dielectric constant tensor:
#      x y z
#    x 1.674290 0.000000 0.006680 
#    y 0.000000 1.688330 0.000000 
#    z 0.006680 0.000000 1.716170 
# 
# From -- ./inp_files/4750.got.cif
#   From: 2010.06.25/outbox.cif.g09.slc.cpg/sg11_3_cif.got.tgz:4750.got - 2010.06.27 23:14:04.
