data_PCOD8074736
_publ_section_title
;
Structure prediction by ZEFSAII (Michael W. Deem and Ramdas Pophale) SiO2 
 PCOD8074736
Probable space group: P 21/M
;
_chemical_formula_sum "Si O2"
_cell_formula_units_Z 32
_cell_length_a 29.353180
_cell_length_b 9.243245
_cell_length_c 12.142064
_cell_angle_alpha 90.000000
_cell_angle_beta 149.038757
_cell_angle_gamma 90.000000
_cell_volume 1694.814539
_symmetry_space_group_name_H-M "P 21/M"
_symmetry_group_IT_number 11
_symmetry_cell_setting 'monoclinic'
loop_
_space_group_symop_operation_xyz
x,y,z
-x,1/2+y,-z
-x,-y,-z
x,1/2-y,z
loop_
_atom_site_type_symbol
_atom_site_label
_atom_site_fract_x
_atom_site_fract_y
_atom_site_fract_z
Si Si1 0.438738 0.415605 0.090258
Si Si2 0.011798 0.417684 0.857729
Si Si3 0.738182 0.579711 0.867648
Si Si4 0.938014 0.919681 0.285895
Si Si5 0.586493 0.915817 0.714523
Si Si6 0.314865 0.918840 0.673843
Si Si7 0.640458 0.416263 0.483132
Si Si8 0.133102 0.081286 0.312384
O O1 0.429653 0.250000 0.029063
O O2 0.393515 0.435027 0.115245
O O3 0.541406 0.459365 0.312879
O O4 0.393065 0.525665 0.913181
O O5 0.983453 0.250000 0.805617
O O6 0.930195 0.516262 0.725236
O O7 0.038877 0.464143 0.791227
O O8 0.094530 0.447124 0.110443
O O9 0.734484 0.750000 0.842547
O O10 0.672856 0.526066 0.829151
O O11 0.710437 0.510151 0.695032
O O12 0.837615 0.531620 0.103515
O O13 0.951043 0.750000 0.329996
O O14 0.000000 0.000000 0.500000
O O15 0.568433 0.750000 0.646853
O O16 0.500000 0.000000 0.500000
O O17 0.298607 0.750000 0.661203
O O18 0.346305 0.951676 0.616513
O O19 0.226477 0.004524 0.518113
O O20 0.659472 0.250000 0.549833
O O21 0.145189 0.250000 0.361935
#
# Coordination Sequence:
#
# PCOD8074736 Si02
#       8
#     4   4   4   4   4   4   4   4
#     4  10  21  37  55  79 114 153 191 233 280 331
#     4   9  19  37  59  82 112 147 187 235 285 339
#     4  10  21  37  60  87 113 148 191 235 286 341
#     4  10  22  39  57  83 119 153 190 237 287 340
#     4  10  20  36  59  84 113 147 188 236 280 331
#     4  11  23  36  53  82 117 150 188 232 282 340
#     4  10  21  37  57  82 114 149 189 236 280 333
#     4  10  20  36  60  85 110 145 185 233 288 343
#
# _framework density 18.881122000000001
#
# number of rings (size 3 to 8) (size 9 to 14) (size 15 to 20)
#    0.000    2.000    1.250    1.875    0.000    5.500 
#    0.000    1.250    0.000    0.000    0.000    0.000 
#    0.000    0.000    0.000    0.000    0.000    0.000 
#
# Total GULP energy -396929.542894 kJ/mol
# GULP energy per Si atom -12404.048215 kJ/mol
# Density = 1.883815 g / cm^3
# Si number density = 18.881122 Si / 1000 Ang^3
#
#
#
# Elastic Constant Matrix: (Units=GPa)
#
#
# Indices 1 2 3 4 5 6 
#
# 1 123.0668 50.0107 66.2824 0.0000 8.0462 0.0000
# 2 50.0107 66.2243 52.9534 0.0000 3.2618 0.0000
# 3 66.2824 52.9534 123.4340 0.0000 1.7993 0.0000
# 4 0.0000 0.0000 0.0000 37.7703 0.0000 1.1672
# 5 8.0462 3.2618 1.7993 0.0000 19.3696 0.0000
# 6 0.0000 0.0000 0.0000 1.1672 0.0000 19.1050
#
#
#
# Elastic Compliance Matrix: (Units=1/GPa)
#
#
# Indices 1 2 3 4 5 6 
#
# 1 0.013334 -0.006380 -0.004364 0.000000 -0.004059 0.000000
# 2 -0.006380 0.026208 -0.007802 0.000000 -0.001038 0.000000
# 3 -0.004364 -0.007802 0.013765 0.000000 0.001848 0.000000
# 4 0.000000 0.000000 0.000000 0.026526 0.000000 -0.001621
# 5 -0.004059 -0.001038 0.001848 0.000000 0.053317 0.000000
# 6 0.000000 0.000000 0.000000 -0.001621 0.000000 0.052441
#
#
# Mechanical properties :
#
#
# Convention : Reuss Voigt Hill
#
# Bulk Modulus (GPa) = 61.67211 72.35757 67.01484
# Shear Modulus (GPa) = 21.92129 24.81423 23.36776
#
# Velocity S-wave (km/s) = 3.41107 3.62917 3.52181
# Velocity P-wave (km/s) = 6.94609 7.48111 7.21856
#
# Compressibility (1/GPa) = 0.01621478
#
# Stress axis : x y z
#
# Youngs Moduli (GPa) = 74.99528 38.15614 72.64755
#
# Poissons Ratio (x) = 0.24344 0.31703
# Poissons Ratio (y) = 0.47848 0.56681
# Poissons Ratio (z) = 0.32728 0.29770
#
# Static dielectric constant tensor:
#      x y z
#    x 3.703000 0.000000 0.094120 
#    y 0.000000 3.440940 0.000000 
#    z 0.094120 0.000000 3.394850 
# 
# 
# High freq. dielectric constant tensor:
#      x y z
#    x 1.746410 0.000000 0.004360 
#    y 0.000000 1.731700 0.000000 
#    z 0.004360 0.000000 1.731460 
# 
# From -- ./inp_files/38224.got.cif
#   From: 2010.06.25/outbox.cif.g09.slc.cpg/sg11_20_cif.got.tgz:38224.got - 2010.06.27 23:14:04.
