data_PCOD8074572
_publ_section_title
;
Structure prediction by ZEFSAII (Michael W. Deem and Ramdas Pophale) SiO2 
 PCOD8074572
Probable space group: P 21/M
;
_chemical_formula_sum "Si O2"
_cell_formula_units_Z 32
_cell_length_a 22.401695
_cell_length_b 8.866717
_cell_length_c 28.072636
_cell_angle_alpha 90.000000
_cell_angle_beta 161.665453
_cell_angle_gamma 90.000000
_cell_volume 1754.030466
_symmetry_space_group_name_H-M "P 21/M"
_symmetry_group_IT_number 11
_symmetry_cell_setting 'monoclinic'
loop_
_space_group_symop_operation_xyz
x,y,z
-x,1/2+y,-z
-x,-y,-z
x,1/2-y,z
loop_
_atom_site_type_symbol
_atom_site_label
_atom_site_fract_x
_atom_site_fract_y
_atom_site_fract_z
Si Si1 0.283565 0.571519 0.084065
Si Si2 0.296008 0.071560 0.852703
Si Si3 0.298188 0.425160 0.353439
Si Si4 0.993580 0.429065 0.797262
Si Si5 0.979859 0.426100 0.284272
Si Si6 0.991737 0.422106 0.043955
Si Si7 0.716756 0.923473 0.406209
Si Si8 0.986856 0.074422 0.540972
O O1 0.251361 0.750000 0.052984
O O2 0.502169 0.525354 0.253278
O O3 0.190303 0.488481 0.968465
O O4 0.180742 0.514374 0.054394
O O5 0.311003 0.250000 0.872136
O O6 0.170753 0.031433 0.711506
O O7 0.204118 0.995617 0.829512
O O8 0.500000 0.000000 0.000000
O O9 0.500000 0.500000 0.500000
O O10 0.319464 0.250000 0.382797
O O11 0.188400 0.446775 0.220616
O O12 0.187088 0.505622 0.311866
O O13 0.987586 0.250000 0.794670
O O14 0.981474 0.484559 0.734344
O O15 0.943177 0.250000 0.246501
O O16 0.165809 0.452825 0.457016
O O17 0.951424 0.250000 0.002395
O O18 0.000000 0.500000 0.000000
O O19 0.727087 0.750000 0.398473
O O20 0.797047 0.019642 0.423399
O O21 0.970167 0.250000 0.520411
O O22 0.000000 0.000000 0.500000
#
# Coordination Sequence:
#
# PCOD8074572 Si02
#       8
#     4   4   4   4   4   4   4   4
#     4   9  19  37  56  77 107 141 177 220 265 314
#     4  10  21  37  56  80 108 141 180 224 269 318
#     4  10  21  38  57  80 109 142 180 223 268 317
#     4  11  22  36  55  81 110 143 181 221 265 317
#     4  10  20  36  57  81 109 143 179 221 270 320
#     4   9  19  34  53  78 108 140 176 217 263 313
#     4   9  19  36  58  80 104 137 178 220 267 317
#     4  10  21  36  55  79 108 139 174 216 264 316
#
# _framework density 18.243697999999998
#
# number of rings (size 3 to 8) (size 9 to 14) (size 15 to 20)
#    0.000    2.250    0.000    3.375    0.000    7.000 
#    0.000    2.500    0.000    0.000    0.000    0.000 
#    0.000    0.000    0.000    0.000    0.000    0.000 
#
# Total GULP energy -396880.611223 kJ/mol
# GULP energy per Si atom -12402.519101 kJ/mol
# Density = 1.820217 g / cm^3
# Si number density = 18.243698 Si / 1000 Ang^3
#
#
#
# Elastic Constant Matrix: (Units=GPa)
#
#
# Indices 1 2 3 4 5 6 
#
# 1 134.3811 63.8458 64.2203 0.0000 -3.2492 0.0000
# 2 63.8458 102.1379 55.4219 0.0000 2.8096 0.0000
# 3 64.2203 55.4219 124.8878 0.0000 23.8835 0.0000
# 4 0.0000 0.0000 0.0000 30.8260 0.0000 0.7194
# 5 -3.2492 2.8096 23.8835 0.0000 24.1768 0.0000
# 6 0.0000 0.0000 0.0000 0.7194 0.0000 39.8790
#
#
#
# Elastic Compliance Matrix: (Units=1/GPa)
#
#
# Indices 1 2 3 4 5 6 
#
# 1 0.012883 -0.005049 -0.005952 0.000000 0.008198 0.000000
# 2 -0.005049 0.015411 -0.004649 0.000000 0.002123 0.000000
# 3 -0.005952 -0.004649 0.016250 0.000000 -0.016313 0.000000
# 4 0.000000 0.000000 0.000000 0.032454 0.000000 -0.000585
# 5 0.008198 0.002123 -0.016313 0.000000 0.058332 0.000000
# 6 0.000000 0.000000 0.000000 -0.000585 0.000000 0.025086
#
#
# Mechanical properties :
#
#
# Convention : Reuss Voigt Hill
#
# Bulk Modulus (GPa) = 75.49830 80.93139 78.21485
# Shear Modulus (GPa) = 25.49326 30.83761 28.16544
#
# Velocity S-wave (km/s) = 3.74220 4.11581 3.93344
# Velocity P-wave (km/s) = 7.75533 8.18804 7.97462
#
# Compressibility (1/GPa) = 0.01324533
#
# Stress axis : x y z
#
# Youngs Moduli (GPa) = 77.62210 64.88976 61.53707
#
# Poissons Ratio (x) = 0.32763 0.36626
# Poissons Ratio (y) = 0.39191 0.28606
# Poissons Ratio (z) = 0.46200 0.30164
#
# Static dielectric constant tensor:
#      x y z
#    x 1.707230 0.000000 0.380920 
#    y 0.000000 3.329300 0.000000 
#    z 0.380920 0.000000 3.405530 
# 
# 
# High freq. dielectric constant tensor:
#      x y z
#    x 1.712810 0.000000 0.003720 
#    y 0.000000 1.715430 0.000000 
#    z 0.003720 0.000000 1.709000 
# 
# From -- ./inp_files/72197.got.cif
#   From: 2010.06.25/outbox.cif.g09.slc.cpg/sg11_37_cif.got.tgz:72197.got - 2010.06.27 23:14:04.
