data_PCOD8074498
_publ_section_title
;
Structure prediction by ZEFSAII (Michael W. Deem and Ramdas Pophale) SiO2 
 PCOD8074498
Probable space group: P 21/M
;
_chemical_formula_sum "Si O2"
_cell_formula_units_Z 32
_cell_length_a 15.555157
_cell_length_b 11.126309
_cell_length_c 18.695528
_cell_angle_alpha 90.000000
_cell_angle_beta 150.265795
_cell_angle_gamma 90.000000
_cell_volume 1604.814777
_symmetry_space_group_name_H-M "P 21/M"
_symmetry_group_IT_number 11
_symmetry_cell_setting 'monoclinic'
loop_
_space_group_symop_operation_xyz
x,y,z
-x,1/2+y,-z
-x,-y,-z
x,1/2-y,z
loop_
_atom_site_type_symbol
_atom_site_label
_atom_site_fract_x
_atom_site_fract_y
_atom_site_fract_z
Si Si1 0.958909 0.615463 0.799546
Si Si2 0.225386 0.118681 0.846260
Si Si3 0.459039 0.385244 0.894409
Si Si4 0.529747 0.112829 0.327252
Si Si5 0.700810 0.978779 0.965077
Si Si6 0.601576 0.889607 0.610860
Si Si7 0.111863 0.384160 0.556377
Si Si8 0.119103 0.026087 0.410301
O O1 0.026317 0.750000 0.857069
O O2 0.803749 0.588302 0.742213
O O3 0.885307 0.598248 0.666711
O O4 0.121955 0.533047 0.938235
O O5 0.195213 0.250000 0.790737
O O6 0.391985 0.062947 0.923523
O O7 0.056894 0.044755 0.704654
O O8 0.250969 0.136242 0.950988
O O9 0.520140 0.250000 0.950723
O O10 0.300298 0.399226 0.725357
O O11 0.626016 0.443068 0.977437
O O12 0.538768 0.250000 0.309205
O O13 0.421844 0.097337 0.321602
O O14 0.722333 0.066514 0.477848
O O15 0.432597 0.040423 0.194688
O O16 0.548410 0.750000 0.548777
O O17 0.500000 0.000000 0.500000
O O18 0.033905 0.250000 0.519469
O O19 0.138789 0.383514 0.490354
O O20 0.000000 0.500000 0.500000
#
# Coordination Sequence:
#
# PCOD8074498 Si02
#       8
#     4   4   4   4   4   4   4   4
#     4  10  22  40  63  88 118 155 201 254 308 369
#     4  10  21  36  56  81 117 163 206 253 302 351
#     4  10  20  36  56  79 115 158 207 255 298 349
#     4  11  23  38  61  92 126 161 201 254 312 374
#     4  11  22  38  57  85 123 159 205 244 306 364
#     4  10  21  42  67  95 125 156 198 253 312 375
#     4  11  22  37  58  89 123 160 206 261 311 359
#     4  11  20  37  61  87 119 155 207 256 307 363
#
# _framework density 19.939997000000002
#
# number of rings (size 3 to 8) (size 9 to 14) (size 15 to 20)
#    0.000    1.500    3.750    1.875    0.000    1.000 
#    0.000    1.875    0.000    0.000    0.000    0.000 
#    0.000    0.000    0.000    0.000    0.000    0.000 
#
# Total GULP energy -396452.931436 kJ/mol
# GULP energy per Si atom -12389.154107 kJ/mol
# Density = 1.989461 g / cm^3
# Si number density = 19.939997 Si / 1000 Ang^3
#
#
#
# Elastic Constant Matrix: (Units=GPa)
#
#
# Indices 1 2 3 4 5 6 
#
# 1 104.7867 40.6945 24.9463 0.0000 17.9930 0.0000
# 2 40.6945 90.7002 17.7730 0.0000 20.9564 0.0000
# 3 24.9463 17.7730 59.3888 0.0000 12.9351 0.0000
# 4 0.0000 0.0000 0.0000 -7.3814 0.0000 -0.7631
# 5 17.9930 20.9564 12.9351 0.0000 31.3305 0.0000
# 6 0.0000 0.0000 0.0000 -0.7631 0.0000 26.8941
#
#
#
# Elastic Compliance Matrix: (Units=1/GPa)
#
#
# Indices 1 2 3 4 5 6 
#
# 1 0.012503 -0.004277 -0.003331 0.000000 -0.002945 0.000000
# 2 -0.004277 0.014771 -0.001107 0.000000 -0.006967 0.000000
# 3 -0.003331 -0.001107 0.019768 0.000000 -0.005509 0.000000
# 4 0.000000 0.000000 0.000000 -0.135079 0.000000 -0.003833
# 5 -0.002945 -0.006967 -0.005509 0.000000 0.040543 0.000000
# 6 0.000000 0.000000 0.000000 -0.003833 0.000000 0.037074
#
#
# Mechanical properties :
#
#
# Convention : Reuss Voigt Hill
#
# Bulk Modulus (GPa) = 33.76769 46.85592 40.31181
# Shear Modulus (GPa) = 296.24379 21.59942 158.92160
#
# Velocity S-wave (km/s) = 12.20206 3.29480 8.93717
# Velocity P-wave (km/s) = 14.67963 6.16634 11.25867
#
# Compressibility (1/GPa) = 0.02961411
#
# Stress axis : x y z
#
# Youngs Moduli (GPa) = 79.98384 67.70185 50.58643
#
# Poissons Ratio (x) = 0.28953 0.16848
# Poissons Ratio (y) = 0.34205 0.05598
# Poissons Ratio (z) = 0.26639 0.07492
#
# Static dielectric constant tensor:
#      x y z
#    x 3.873430 0.000000 -0.031400 
#    y 0.000000 3.801110 0.000000 
#    z -0.031400 0.000000 3.471600 
# 
# 
# High freq. dielectric constant tensor:
#      x y z
#    x 1.791030 0.000000 0.001300 
#    y 0.000000 1.782980 0.000000 
#    z 0.001300 0.000000 1.773010 
# 
# From -- ./inp_files/53630.got.cif
#   From: 2010.06.25/outbox.cif.g09.slc.cpg/sg11_27_cif.got.tgz:53630.got - 2010.06.27 23:14:04.
