data_PCOD8074605
_publ_section_title
;
Structure prediction by ZEFSAII (Michael W. Deem and Ramdas Pophale) SiO2 
 PCOD8074605
Probable space group: P 21/M
;
_chemical_formula_sum "Si O2"
_cell_formula_units_Z 32
_cell_length_a 12.797551
_cell_length_b 8.951891
_cell_length_c 14.754297
_cell_angle_alpha 90.000000
_cell_angle_beta 98.895826
_cell_angle_gamma 90.000000
_cell_volume 1669.953705
_symmetry_space_group_name_H-M "P 21/M"
_symmetry_group_IT_number 11
_symmetry_cell_setting 'monoclinic'
loop_
_space_group_symop_operation_xyz
x,y,z
-x,1/2+y,-z
-x,-y,-z
x,1/2-y,z
loop_
_atom_site_type_symbol
_atom_site_label
_atom_site_fract_x
_atom_site_fract_y
_atom_site_fract_z
Si Si1 0.121123 0.926019 0.156493
Si Si2 0.013263 0.084195 0.409233
Si Si3 0.690024 0.426227 0.116444
Si Si4 0.780523 0.582982 0.665455
Si Si5 0.546337 0.576076 0.593609
Si Si6 0.297185 0.427200 0.071085
Si Si7 0.924575 0.426406 0.209508
Si Si8 0.502138 0.573074 0.785604
O O1 0.112315 0.750000 0.140522
O O2 0.186864 0.963314 0.255320
O O3 0.184790 0.997507 0.080962
O O4 0.002948 0.994364 0.148071
O O5 0.969586 0.250000 0.419196
O O6 0.137605 0.082932 0.405704
O O7 0.949922 0.014327 0.314828
O O8 0.000000 0.000000 0.500000
O O9 0.680471 0.250000 0.096288
O O10 0.804706 0.467904 0.171153
O O11 0.601742 0.483312 0.175556
O O12 0.668274 0.516381 0.022536
O O13 0.774830 0.750000 0.709525
O O14 0.669750 0.537755 0.608406
O O15 0.500000 0.500000 0.500000
O O16 0.522869 0.750000 0.582615
O O17 0.497648 0.512790 0.681526
O O18 0.283996 0.250000 0.068351
O O19 0.389165 0.481017 0.152428
O O20 0.947884 0.250000 0.207679
O O21 0.503601 0.750000 0.784532
#
# Coordination Sequence:
#
# PCOD8074605 Si02
#       8
#     4   4   4   4   4   4   4   4
#     4  11  21  34  58  86 109 140 190 241 275 326
#     4   9  18  32  53  79 105 143 186 226 276 336
#     4  10  21  38  59  85 113 147 193 238 276 335
#     4   9  18  36  56  75 108 149 184 225 286 342
#     4  10  20  36  57  83 113 148 187 229 281 337
#     4  11  21  37  60  84 114 154 189 227 289 348
#     4   9  20  38  56  77 114 154 184 226 292 346
#     4   9  19  37  60  82 113 154 190 229 283 342
#
# _framework density 19.162206999999999
#
# number of rings (size 3 to 8) (size 9 to 14) (size 15 to 20)
#    0.000    2.250    1.250    2.625    0.000    4.500 
#    0.000    2.500    0.000    0.000    0.000    0.000 
#    0.000    0.000    0.000    0.000    0.000    0.000 
#
# Total GULP energy -396745.485826 kJ/mol
# GULP energy per Si atom -12398.296432 kJ/mol
# Density = 1.911859 g / cm^3
# Si number density = 19.162207 Si / 1000 Ang^3
#
#
#
# Elastic Constant Matrix: (Units=GPa)
#
#
# Indices 1 2 3 4 5 6 
#
# 1 117.5667 35.6279 53.1710 0.0000 -9.4528 0.0000
# 2 35.6279 62.3294 33.7915 0.0000 -5.6571 0.0000
# 3 53.1710 33.7915 127.9196 0.0000 -12.9684 0.0000
# 4 0.0000 0.0000 0.0000 34.2801 0.0000 -1.7059
# 5 -9.4528 -5.6571 -12.9684 0.0000 28.8362 0.0000
# 6 0.0000 0.0000 0.0000 -1.7059 0.0000 20.6031
#
#
#
# Elastic Compliance Matrix: (Units=1/GPa)
#
#
# Indices 1 2 3 4 5 6 
#
# 1 0.011577 -0.004623 -0.003456 0.000000 0.001334 0.000000
# 2 -0.004623 0.020635 -0.003429 0.000000 0.000991 0.000000
# 3 -0.003456 -0.003429 0.010453 0.000000 0.002896 0.000000
# 4 0.000000 0.000000 0.000000 0.029292 0.000000 0.002425
# 5 0.001334 0.000991 0.002896 0.000000 0.036612 0.000000
# 6 0.000000 0.000000 0.000000 0.002425 0.000000 0.048737
#
#
# Mechanical properties :
#
#
# Convention : Reuss Voigt Hill
#
# Bulk Modulus (GPa) = 50.89029 61.44406 56.16718
# Shear Modulus (GPa) = 26.75627 29.09224 27.92425
#
# Velocity S-wave (km/s) = 3.74077 3.90065 3.82154
# Velocity P-wave (km/s) = 6.72853 7.24027 6.98909
#
# Compressibility (1/GPa) = 0.01965011
#
# Stress axis : x y z
#
# Youngs Moduli (GPa) = 86.37933 48.46079 95.66506
#
# Poissons Ratio (x) = 0.22403 0.33058
# Poissons Ratio (y) = 0.39932 0.32804
# Poissons Ratio (z) = 0.29849 0.16618
#
# Static dielectric constant tensor:
#      x y z
#    x 3.792260 0.000000 -0.147360 
#    y 0.000000 3.300650 0.000000 
#    z -0.147360 0.000000 3.533220 
# 
# 
# High freq. dielectric constant tensor:
#      x y z
#    x 1.755230 0.000000 -0.008260 
#    y 0.000000 1.721900 0.000000 
#    z -0.008260 0.000000 1.744660 
# 
# From -- ./inp_files/49379.got.cif
#   From: 2010.06.25/outbox.cif.g09.slc.cpg/sg11_25_cif.got.tgz:49379.got - 2010.06.27 23:14:04.
