data_PCOD8074787
_publ_section_title
;
Structure prediction by ZEFSAII (Michael W. Deem and Ramdas Pophale) SiO2 
 PCOD8074787
Probable space group: P 21/M
;
_chemical_formula_sum "Si O2"
_cell_formula_units_Z 28
_cell_length_a 25.302243
_cell_length_b 9.172352
_cell_length_c 9.862656
_cell_angle_alpha 90.000000
_cell_angle_beta 39.970824
_cell_angle_gamma 90.000000
_cell_volume 1470.406537
_symmetry_space_group_name_H-M "P 21/M"
_symmetry_group_IT_number 11
_symmetry_cell_setting 'monoclinic'
loop_
_space_group_symop_operation_xyz
x,y,z
-x,1/2+y,-z
-x,-y,-z
x,1/2-y,z
loop_
_atom_site_type_symbol
_atom_site_label
_atom_site_fract_x
_atom_site_fract_y
_atom_site_fract_z
Si Si1 0.436438 0.419130 0.719856
Si Si2 0.019760 0.582632 0.097891
Si Si3 0.192340 0.916579 0.863347
Si Si4 0.154464 0.417368 0.455874
Si Si5 0.255232 0.078755 0.999299
Si Si6 0.268700 0.917672 0.426123
Si Si7 0.565032 0.579258 0.966176
O O1 0.500000 0.500000 0.500000
O O2 0.442090 0.250000 0.673690
O O3 0.344435 0.477255 0.872588
O O4 0.459995 0.448921 0.829264
O O5 0.036001 0.750000 0.026032
O O6 0.944187 0.566299 0.351363
O O7 0.000000 0.500000 0.000000
O O8 0.101858 0.519139 0.006719
O O9 0.184482 0.750000 0.926467
O O10 0.252550 0.931108 0.617219
O O11 0.232801 0.007161 0.902466
O O12 0.180856 0.250000 0.434318
O O13 0.189479 0.521873 0.503354
O O14 0.188609 0.467454 0.243213
O O15 0.255523 0.250000 0.976375
O O16 0.284609 0.750000 0.353705
O O17 0.345468 0.015794 0.236002
O O18 0.565984 0.750000 0.930205
O O19 0.500000 0.500000 0.000000
#
# Coordination Sequence:
#
# PCOD8074787 Si02
#       7
#     4   4   4   4   4   4   4
#     4  10  23  42  62  86 119 154 194 242 292 349
#     4  10  20  36  59  87 120 155 196 246 299 348
#     4  10  23  39  56  88 125 155 195 248 295 346
#     4  10  20  38  63  86 116 158 200 245 295 349
#     4  10  22  41  60  85 117 157 201 239 290 358
#     4  11  22  38  61  89 121 157 198 243 294 352
#     4  11  24  43  64  91 123 154 196 247 295 350
#
# _framework density 19.042354
#
# number of rings (size 3 to 8) (size 9 to 14) (size 15 to 20)
#    0.000    1.714    2.857    0.857    2.000    4.571 
#    0.000    0.000    0.000    0.000    0.000    0.000 
#    0.000    0.000    0.000    0.000    0.000    0.000 
#
# Total GULP energy -347302.909953 kJ/mol
# GULP energy per Si atom -12403.675355 kJ/mol
# Density = 1.899901 g / cm^3
# Si number density = 19.042354 Si / 1000 Ang^3
#
#
#
# Elastic Constant Matrix: (Units=GPa)
#
#
# Indices 1 2 3 4 5 6 
#
# 1 101.8715 49.6381 34.1077 0.0000 6.4638 0.0000
# 2 49.6381 74.5712 46.0502 0.0000 4.8212 0.0000
# 3 34.1077 46.0502 116.8661 0.0000 -2.7101 0.0000
# 4 0.0000 0.0000 0.0000 29.9684 0.0000 0.8209
# 5 6.4638 4.8212 -2.7101 0.0000 32.0676 0.0000
# 6 0.0000 0.0000 0.0000 0.8209 0.0000 33.0569
#
#
#
# Elastic Compliance Matrix: (Units=1/GPa)
#
#
# Indices 1 2 3 4 5 6 
#
# 1 0.014639 -0.009222 -0.000676 0.000000 -0.001621 0.000000
# 2 -0.009222 0.023879 -0.006771 0.000000 -0.002303 0.000000
# 3 -0.000676 -0.006771 0.011472 0.000000 0.002124 0.000000
# 4 0.000000 0.000000 0.000000 0.033391 0.000000 -0.000829
# 5 -0.001621 -0.002303 0.002124 0.000000 0.032037 0.000000
# 6 0.000000 0.000000 0.000000 -0.000829 0.000000 0.030271
#
#
# Mechanical properties :
#
#
# Convention : Reuss Voigt Hill
#
# Bulk Modulus (GPa) = 60.05768 61.43340 60.74554
# Shear Modulus (GPa) = 27.08875 29.91946 28.50410
#
# Velocity S-wave (km/s) = 3.77577 3.96814 3.87315
# Velocity P-wave (km/s) = 7.11449 7.30249 7.20910
#
# Compressibility (1/GPa) = 0.01665066
#
# Stress axis : x y z
#
# Youngs Moduli (GPa) = 68.31011 41.87762 87.17200
#
# Poissons Ratio (x) = 0.38620 0.05894
# Poissons Ratio (y) = 0.62996 0.59027
# Poissons Ratio (z) = 0.04619 0.28357
#
# Static dielectric constant tensor:
#      x y z
#    x 3.632830 0.000000 -0.185010 
#    y 0.000000 3.511880 0.000000 
#    z -0.185010 0.000000 3.665290 
# 
# 
# High freq. dielectric constant tensor:
#      x y z
#    x 1.741450 0.000000 -0.006550 
#    y 0.000000 1.738580 0.000000 
#    z -0.006550 0.000000 1.753330 
# 
# From -- ./inp_files/28392.got.cif
#   From: 2010.06.25/outbox.cif.g09.slc.cpg/sg11_15_cif.got.tgz:28392.got - 2010.06.27 23:14:04.
