data_PCOD8074328
_publ_section_title
;
Structure prediction by ZEFSAII (Michael W. Deem and Ramdas Pophale) SiO2 
 PCOD8074328
Probable space group: P 21/M
;
_chemical_formula_sum "Si O2"
_cell_formula_units_Z 28
_cell_length_a 31.236564
_cell_length_b 9.088160
_cell_length_c 9.508316
_cell_angle_alpha 90.000000
_cell_angle_beta 34.955586
_cell_angle_gamma 90.000000
_cell_volume 1546.510745
_symmetry_space_group_name_H-M "P 21/M"
_symmetry_group_IT_number 11
_symmetry_cell_setting 'monoclinic'
loop_
_space_group_symop_operation_xyz
x,y,z
-x,1/2+y,-z
-x,-y,-z
x,1/2-y,z
loop_
_atom_site_type_symbol
_atom_site_label
_atom_site_fract_x
_atom_site_fract_y
_atom_site_fract_z
Si Si1 0.700090 0.576578 0.612171
Si Si2 0.395924 0.421946 0.874136
Si Si3 0.149692 0.583049 0.766979
Si Si4 0.999198 0.424040 0.655010
Si Si5 0.577073 0.417124 0.767752
Si Si6 0.060366 0.921139 0.742610
Si Si7 0.439801 0.586030 0.503573
O O1 0.694531 0.750000 0.603577
O O2 0.784699 0.525572 0.363669
O O3 0.646933 0.499946 0.643889
O O4 0.671277 0.528520 0.843883
O O5 0.394616 0.250000 0.858385
O O6 0.385195 0.492879 0.750321
O O7 0.475049 0.476317 0.727358
O O8 0.174516 0.750000 0.730451
O O9 0.134726 0.564442 0.638881
O O10 0.078925 0.544036 0.055940
O O11 0.014518 0.250000 0.598140
O O12 0.000000 0.500000 0.500000
O O13 0.063898 0.497057 0.580835
O O14 0.570271 0.250000 0.842976
O O15 0.595484 0.417782 0.554036
O O16 0.500000 0.500000 0.000000
O O17 0.039852 0.750000 0.774024
O O18 0.000000 0.000000 0.000000
O O19 0.442055 0.750000 0.559020
#
# Coordination Sequence:
#
# PCOD8074328 Si02
#       7
#     4   4   4   4   4   4   4
#     4  11  22  36  54  79 109 141 181 228 275 328
#     4   9  18  33  50  73 101 128 168 217 264 315
#     4   9  20  37  55  80 111 145 182 223 270 325
#     4  10  20  35  58  87 117 146 184 227 271 325
#     4  11  21  35  54  77 106 140 182 229 276 330
#     4   9  17  32  55  81 110 142 181 222 264 318
#     4   9  18  33  51  73  99 127 169 219 265 316
#
# _framework density 18.105273
#
# number of rings (size 3 to 8) (size 9 to 14) (size 15 to 20)
#    0.000    2.286    1.429    2.571    0.000    5.714 
#    0.000    1.429    0.000    1.714    0.000    0.000 
#    0.000    0.000    0.000    0.000    0.000    0.000 
#
# Total GULP energy -347045.971932 kJ/mol
# GULP energy per Si atom -12394.498998 kJ/mol
# Density = 1.806406 g / cm^3
# Si number density = 18.105273 Si / 1000 Ang^3
#
#
#
# Elastic Constant Matrix: (Units=GPa)
#
#
# Indices 1 2 3 4 5 6 
#
# 1 107.5267 58.7081 42.2460 0.0000 7.7128 0.0000
# 2 58.7081 98.5773 41.1514 0.0000 2.7496 0.0000
# 3 42.2460 41.1514 69.5030 0.0000 4.7759 0.0000
# 4 0.0000 0.0000 0.0000 30.5400 0.0000 2.9679
# 5 7.7128 2.7496 4.7759 0.0000 29.4867 0.0000
# 6 0.0000 0.0000 0.0000 2.9679 0.0000 36.1479
#
#
#
# Elastic Compliance Matrix: (Units=1/GPa)
#
#
# Indices 1 2 3 4 5 6 
#
# 1 0.015210 -0.006909 -0.004981 0.000000 -0.002528 0.000000
# 2 -0.006909 0.016613 -0.005718 0.000000 0.001184 0.000000
# 3 -0.004981 -0.005718 0.020908 0.000000 -0.001550 0.000000
# 4 0.000000 0.000000 0.000000 0.033007 0.000000 -0.002710
# 5 -0.002528 0.001184 -0.001550 0.000000 0.034715 0.000000
# 6 0.000000 0.000000 0.000000 -0.002710 0.000000 0.027887
#
#
# Mechanical properties :
#
#
# Convention : Reuss Voigt Hill
#
# Bulk Modulus (GPa) = 57.09435 62.20201 59.64818
# Shear Modulus (GPa) = 26.39987 28.13502 27.26745
#
# Velocity S-wave (km/s) = 3.82269 3.94632 3.88500
# Velocity P-wave (km/s) = 7.14752 7.42933 7.28979
#
# Compressibility (1/GPa) = 0.01751487
#
# Stress axis : x y z
#
# Youngs Moduli (GPa) = 65.74442 60.19422 47.82914
#
# Poissons Ratio (x) = 0.41586 0.23824
# Poissons Ratio (y) = 0.45421 0.27350
# Poissons Ratio (z) = 0.32748 0.34420
#
# Static dielectric constant tensor:
#      x y z
#    x 0.783840 0.000000 0.348870 
#    y 0.000000 3.508290 0.000000 
#    z 0.348870 0.000000 3.196230 
# 
# 
# High freq. dielectric constant tensor:
#      x y z
#    x 1.700660 0.000000 0.013980 
#    y 0.000000 1.714160 0.000000 
#    z 0.013980 0.000000 1.672870 
# 
# From -- ./inp_files/28361.got.cif
#   From: 2010.06.25/outbox.cif.g09.slc.cpg/sg11_15_cif.got.tgz:28361.got - 2010.06.27 23:14:04.
