data_PCOD8074420
_publ_section_title
;
Structure prediction by ZEFSAII (Michael W. Deem and Ramdas Pophale) SiO2 
 PCOD8074420
Probable space group: P 21/M
;
_chemical_formula_sum "Si O2"
_cell_formula_units_Z 28
_cell_length_a 30.778844
_cell_length_b 8.626683
_cell_length_c 10.220083
_cell_angle_alpha 90.000000
_cell_angle_beta 32.399883
_cell_angle_gamma 90.000000
_cell_volume 1454.030769
_symmetry_space_group_name_H-M "P 21/M"
_symmetry_group_IT_number 11
_symmetry_cell_setting 'monoclinic'
loop_
_space_group_symop_operation_xyz
x,y,z
-x,1/2+y,-z
-x,-y,-z
x,1/2-y,z
loop_
_atom_site_type_symbol
_atom_site_label
_atom_site_fract_x
_atom_site_fract_y
_atom_site_fract_z
Si Si1 0.490929 0.430082 0.166084
Si Si2 0.921787 0.430979 0.036160
Si Si3 0.762801 0.567425 0.353697
Si Si4 0.327365 0.933226 0.666090
Si Si5 0.090751 0.931715 0.628208
Si Si6 0.743377 0.566913 0.890066
Si Si7 0.334732 0.929935 0.159470
O O1 0.469510 0.250000 0.206349
O O2 0.420804 0.515950 0.423852
O O3 0.500000 0.500000 0.000000
O O4 0.572323 0.457038 0.040390
O O5 0.915285 0.250000 0.023281
O O6 0.857347 0.521638 0.110386
O O7 0.902995 0.470655 0.234583
O O8 0.010678 0.490528 0.771104
O O9 0.751845 0.750000 0.383385
O O10 0.719463 0.499355 0.338422
O O11 0.723454 0.496246 0.582453
O O12 0.321869 0.750000 0.677774
O O13 0.287170 0.997729 0.897597
O O14 0.087134 0.750000 0.611279
O O15 0.167042 0.003945 0.362066
O O16 0.745959 0.750000 0.893120
O O17 0.681365 0.516891 0.934839
O O18 0.313305 0.750000 0.196298
#
# Coordination Sequence:
#
# PCOD8074420 Si02
#       7
#     4   4   4   4   4   4   4
#     4  11  23  40  65  94 126 161 208 259 312 368
#     4  10  20  35  60  92 127 162 207 256 306 362
#     4  12  23  38  63  94 126 162 210 258 308 367
#     4  12  26  44  65  89 126 168 208 257 316 374
#     4  10  20  36  60  90 127 164 205 254 309 366
#     4  12  25  42  64  92 127 166 209 256 314 374
#     4  11  23  40  64  93 125 164 207 255 310 369
#
# _framework density 19.256815
#
# number of rings (size 3 to 8) (size 9 to 14) (size 15 to 20)
#    0.000    0.857    2.857    5.571    0.000    3.429 
#    0.000    0.714    0.000    0.000    0.000    0.000 
#    0.000    0.000    0.000    0.000    0.000    0.000 
#
# Total GULP energy -347386.222927 kJ/mol
# GULP energy per Si atom -12406.650819 kJ/mol
# Density = 1.921299 g / cm^3
# Si number density = 19.256815 Si / 1000 Ang^3
#
#
#
# Elastic Constant Matrix: (Units=GPa)
#
#
# Indices 1 2 3 4 5 6 
#
# 1 -70.9353 -167.0878 -75.2710 0.0000 -59.8675 0.0000
# 2 -167.0878 -103.4809 -112.0213 0.0000 -82.6644 0.0000
# 3 -75.2710 -112.0213 39.2504 0.0000 -41.8687 0.0000
# 4 0.0000 0.0000 0.0000 39.2166 0.0000 -3.3698
# 5 -59.8675 -82.6644 -41.8687 0.0000 24.0584 0.0000
# 6 0.0000 0.0000 0.0000 -3.3698 0.0000 37.7083
#
#
#
# Elastic Compliance Matrix: (Units=1/GPa)
#
#
# Indices 1 2 3 4 5 6 
#
# 1 0.009448 -0.006014 -0.004656 0.000000 -0.005258 0.000000
# 2 -0.006014 0.004470 -0.001915 0.000000 -0.002941 0.000000
# 3 -0.004656 -0.001915 0.009683 0.000000 -0.001314 0.000000
# 4 0.000000 0.000000 0.000000 0.025697 0.000000 0.002296
# 5 -0.005258 -0.002941 -0.001314 0.000000 0.016090 0.000000
# 6 0.000000 0.000000 0.000000 0.002296 0.000000 0.026725
#
#
# Mechanical properties :
#
#
# Convention : Reuss Voigt Hill
#
# Bulk Modulus (GPa) = -637.01465 -93.76954 -365.39209
# Shear Modulus (GPa) = 42.82360 34.81094 38.81727
#
# Velocity S-wave (km/s) = 4.72085 4.25634 4.49460
# Velocity P-wave (km/s) = 17.37246 4.96434 12.77590
#
# Compressibility (1/GPa) = -0.00156982
#
# Stress axis : x y z
#
# Youngs Moduli (GPa) = 105.84562 223.73473 103.27551
#
# Poissons Ratio (x) = 1.34562 0.48085
# Poissons Ratio (y) = 0.63659 0.19774
# Poissons Ratio (z) = 0.49281 0.42837
#
# Static dielectric constant tensor:
#      x y z
#    x 3.177790 0.000000 -0.291890 
#    y 0.000000 4.224970 0.000000 
#    z -0.291890 0.000000 3.630250 
# 
# 
# High freq. dielectric constant tensor:
#      x y z
#    x 1.753060 0.000000 -0.018740 
#    y 0.000000 1.772140 0.000000 
#    z -0.018740 0.000000 1.750940 
# 
# From -- ./inp_files/28299.got.cif
#   From: 2010.06.25/outbox.cif.g09.slc.cpg/sg11_15_cif.got.tgz:28299.got - 2010.06.27 23:14:04.
