data_PCOD8074894
_publ_section_title
;
Structure prediction by ZEFSAII (Michael W. Deem and Ramdas Pophale) SiO2 
 PCOD8074894
Probable space group: P 21/M
;
_chemical_formula_sum "Si O2"
_cell_formula_units_Z 24
_cell_length_a 11.485120
_cell_length_b 20.488797
_cell_length_c 5.096900
_cell_angle_alpha 90.000000
_cell_angle_beta 65.366823
_cell_angle_gamma 90.000000
_cell_volume 1090.233597
_symmetry_space_group_name_H-M "P 21/M"
_symmetry_group_IT_number 11
_symmetry_cell_setting 'monoclinic'
loop_
_space_group_symop_operation_xyz
x,y,z
-x,1/2+y,-z
-x,-y,-z
x,1/2-y,z
loop_
_atom_site_type_symbol
_atom_site_label
_atom_site_fract_x
_atom_site_fract_y
_atom_site_fract_z
Si Si1 0.312784 0.027692 0.222227
Si Si2 0.933373 0.609634 0.585428
Si Si3 0.222133 0.612014 0.241925
Si Si4 0.842448 0.675743 0.177672
Si Si5 0.406860 0.403022 0.625934
Si Si6 0.330741 0.673858 0.638553
O O1 0.165201 0.050783 0.375633
O O2 0.385023 0.040890 0.428569
O O3 0.315215 0.950555 0.168555
O O4 0.392317 0.064739 0.924124
O O5 0.901915 0.667518 0.410749
O O6 0.077534 0.585720 0.404742
O O7 0.921758 0.633515 0.894454
O O8 0.256644 0.663034 0.436958
O O9 0.237173 0.650343 0.956581
O O10 0.850609 0.750000 0.082903
O O11 0.695066 0.654481 0.318969
O O12 0.542769 0.369485 0.468203
O O13 0.364597 0.750000 0.637509
#
# Coordination Sequence:
#
# PCOD8074894 Si02
#       6
#     4   4   4   4   4   4
#     4  10  22  41  66  92 116 151 202 254 300 343
#     4  10  22  38  59  89 122 156 196 248 302 350
#     4  12  25  41  63  89 124 162 194 240 298 363
#     4  10  20  36  61  87 115 157 205 252 294 343
#     4  10  22  41  63  89 119 153 201 254 299 343
#     4  12  27  43  61  88 125 165 198 237 294 359
#
# _framework density 22.013631
#
# number of rings (size 3 to 8) (size 9 to 14) (size 15 to 20)
#    0.000    1.333    0.000    5.000    0.000    8.000 
#    0.000   11.667    0.000    0.000    0.000    0.000 
#    0.000    0.000    0.000    0.000    0.000    0.000 
#
# Total GULP energy -297743.378752 kJ/mol
# GULP energy per Si atom -12405.974115 kJ/mol
# Density = 2.196353 g / cm^3
# Si number density = 22.013631 Si / 1000 Ang^3
#
#
#
# Elastic Constant Matrix: (Units=GPa)
#
#
# Indices 1 2 3 4 5 6 
#
# 1 62.8283 4.5870 36.4539 0.0000 -6.1209 0.0000
# 2 4.5870 46.3551 23.2536 0.0000 11.5883 0.0000
# 3 36.4539 23.2536 105.4773 0.0000 1.5415 0.0000
# 4 0.0000 0.0000 0.0000 21.3250 0.0000 2.9698
# 5 -6.1209 11.5883 1.5415 0.0000 35.3609 0.0000
# 6 0.0000 0.0000 0.0000 2.9698 0.0000 15.4122
#
#
#
# Elastic Compliance Matrix: (Units=1/GPa)
#
#
# Indices 1 2 3 4 5 6 
#
# 1 0.020438 0.000723 -0.007276 0.000000 0.003618 0.000000
# 2 0.000723 0.026587 -0.005990 0.000000 -0.008327 0.000000
# 3 -0.007276 -0.005990 0.013314 0.000000 0.000123 0.000000
# 4 0.000000 0.000000 0.000000 0.048186 0.000000 -0.009285
# 5 0.003618 -0.008327 0.000123 0.000000 0.031630 0.000000
# 6 0.000000 0.000000 0.000000 -0.009285 0.000000 0.066673
#
#
# Mechanical properties :
#
#
# Convention : Reuss Voigt Hill
#
# Bulk Modulus (GPa) = 28.36547 38.13885 33.25216
# Shear Modulus (GPa) = 20.52010 24.44403 22.48206
#
# Velocity S-wave (km/s) = 3.05643 3.33589 3.19921
# Velocity P-wave (km/s) = 5.03677 5.67453 5.36513
#
# Compressibility (1/GPa) = 0.03525413
#
# Stress axis : x y z
#
# Youngs Moduli (GPa) = 48.92963 37.61191 75.10937
#
# Poissons Ratio (x) = -0.02719 0.54647
# Poissons Ratio (y) = -0.03537 0.44988
# Poissons Ratio (z) = 0.35599 0.22528
#
# Static dielectric constant tensor:
#      x y z
#    x 4.000920 0.000000 0.045190 
#    y 0.000000 3.772580 0.000000 
#    z 0.045190 0.000000 4.076090 
# 
# 
# High freq. dielectric constant tensor:
#      x y z
#    x 1.873730 0.000000 0.001210 
#    y 0.000000 1.859770 0.000000 
#    z 0.001210 0.000000 1.881040 
# 
# From -- ./inp_files/4818.got.cif
#   From: 2010.06.25/outbox.cif.g09.slc.cpg/sg11_3_cif.got.tgz:4818.got - 2010.06.27 23:14:04.
