data_PCOD8074765
_publ_section_title
;
Structure prediction by ZEFSAII (Michael W. Deem and Ramdas Pophale) SiO2 
 PCOD8074765
Probable space group: P 21/M
;
_chemical_formula_sum "Si O2"
_cell_formula_units_Z 32
_cell_length_a 8.948045
_cell_length_b 22.659933
_cell_length_c 13.319797
_cell_angle_alpha 90.000000
_cell_angle_beta 35.869772
_cell_angle_gamma 90.000000
_cell_volume 1582.490737
_symmetry_space_group_name_H-M "P 21/M"
_symmetry_group_IT_number 11
_symmetry_cell_setting 'monoclinic'
loop_
_space_group_symop_operation_xyz
x,y,z
-x,1/2+y,-z
-x,-y,-z
x,1/2-y,z
loop_
_atom_site_type_symbol
_atom_site_label
_atom_site_fract_x
_atom_site_fract_y
_atom_site_fract_z
Si Si1 0.319395 0.978429 0.456212
Si Si2 0.927569 0.518241 0.848305
Si Si3 0.567496 0.420180 0.812052
Si Si4 0.662616 0.087516 0.269162
Si Si5 0.101167 0.889016 0.184650
Si Si6 0.551165 0.625882 0.431532
Si Si7 0.770027 0.183191 0.059638
Si Si8 0.350466 0.185317 0.811930
O O1 0.295380 0.956101 0.353538
O O2 0.542294 0.939627 0.386311
O O3 0.059611 0.972040 0.665306
O O4 0.411751 0.045936 0.406463
O O5 0.897496 0.448498 0.883692
O O6 0.083612 0.547103 0.857399
O O7 0.639133 0.543028 0.011098
O O8 0.793866 0.400700 0.762015
O O9 0.425930 0.361206 0.854291
O O10 0.667613 0.129562 0.365385
O O11 0.624082 0.132025 0.198726
O O12 0.814831 0.864711 0.346537
O O13 0.254918 0.837257 0.042577
O O14 0.496946 0.674123 0.375252
O O15 0.660311 0.250000 0.131281
O O16 0.055107 0.179603 0.946457
O O17 0.420849 0.250000 0.814041
#
# Coordination Sequence:
#
# PCOD8074765 Si02
#       8
#     4   4   4   4   4   4   4   4
#     4  10  20  36  59  86 115 148 190 232 278 340
#     4  11  20  36  58  89 120 150 189 229 284 347
#     4  11  23  35  56  87 117 157 186 226 290 344
#     4  11  18  35  62  84 113 147 186 245 286 327
#     4  11  21  37  54  83 119 150 186 225 286 350
#     4   9  18  34  57  83 110 145 186 234 288 333
#     4  10  22  37  58  83 105 143 199 244 278 329
#     4   9  19  37  57  78 105 145 199 242 275 332
#
# _framework density 20.221288000000001
#
# number of rings (size 3 to 8) (size 9 to 14) (size 15 to 20)
#    0.000    1.750    3.750    1.875    0.000    2.500 
#    2.250    0.000    0.000    0.000    0.000    0.000 
#    0.000    0.000    0.000    0.000    0.000    0.000 
#
# Total GULP energy -396439.948713 kJ/mol
# GULP energy per Si atom -12388.748397 kJ/mol
# Density = 2.017526 g / cm^3
# Si number density = 20.221288 Si / 1000 Ang^3
#
#
#
# Elastic Constant Matrix: (Units=GPa)
#
#
# Indices 1 2 3 4 5 6 
#
# 1 77.7809 15.8696 17.3788 0.0000 13.6731 0.0000
# 2 15.8696 94.5189 28.3617 0.0000 15.6379 0.0000
# 3 17.3788 28.3617 72.6511 0.0000 17.7536 0.0000
# 4 0.0000 0.0000 0.0000 19.4591 0.0000 4.5623
# 5 13.6731 15.6379 17.7536 0.0000 21.8105 0.0000
# 6 0.0000 0.0000 0.0000 4.5623 0.0000 21.6326
#
#
#
# Elastic Compliance Matrix: (Units=1/GPa)
#
#
# Indices 1 2 3 4 5 6 
#
# 1 0.014642 -0.000812 -0.001354 0.000000 -0.007495 0.000000
# 2 -0.000812 0.012686 -0.003320 0.000000 -0.005884 0.000000
# 3 -0.001354 -0.003320 0.018219 0.000000 -0.011601 0.000000
# 4 0.000000 0.000000 0.000000 0.054063 0.000000 -0.011402
# 5 -0.007495 -0.005884 -0.011601 0.000000 0.064210 0.000000
# 6 0.000000 0.000000 0.000000 -0.011402 0.000000 0.048631
#
#
# Mechanical properties :
#
#
# Convention : Reuss Voigt Hill
#
# Bulk Modulus (GPa) = 28.92273 40.90791 34.91532
# Shear Modulus (GPa) = 21.28113 24.80315 23.04214
#
# Velocity S-wave (km/s) = 3.24761 3.50606 3.37931
# Velocity P-wave (km/s) = 5.32886 6.05508 5.70354
#
# Compressibility (1/GPa) = 0.03457488
#
# Stress axis : x y z
#
# Youngs Moduli (GPa) = 68.29491 78.82682 54.88652
#
# Poissons Ratio (x) = 0.06402 0.07432
# Poissons Ratio (y) = 0.05546 0.18224
# Poissons Ratio (z) = 0.09248 0.26173
#
# Static dielectric constant tensor:
#      x y z
#    x 3.432700 0.000000 0.211120 
#    y 0.000000 3.760780 0.000000 
#    z 0.211120 0.000000 3.644640 
# 
# 
# High freq. dielectric constant tensor:
#      x y z
#    x 1.767930 0.000000 0.018650 
#    y 0.000000 1.782080 0.000000 
#    z 0.018650 0.000000 1.778780 
# 
# From -- ./inp_files/48246.got.cif
#   From: 2010.06.25/outbox.cif.g09.slc.cpg/sg11_25_cif.got.tgz:48246.got - 2010.06.27 23:14:04.
