data_PCOD8074532
_publ_section_title
;
Structure prediction by ZEFSAII (Michael W. Deem and Ramdas Pophale) SiO2 
 PCOD8074532
Probable space group: P 21/M
;
_chemical_formula_sum "Si O2"
_cell_formula_units_Z 28
_cell_length_a 29.343177
_cell_length_b 8.673085
_cell_length_c 9.249289
_cell_angle_alpha 90.000000
_cell_angle_beta 142.146796
_cell_angle_gamma 90.000000
_cell_volume 1444.451990
_symmetry_space_group_name_H-M "P 21/M"
_symmetry_group_IT_number 11
_symmetry_cell_setting 'monoclinic'
loop_
_space_group_symop_operation_xyz
x,y,z
-x,1/2+y,-z
-x,-y,-z
x,1/2-y,z
loop_
_atom_site_type_symbol
_atom_site_label
_atom_site_fract_x
_atom_site_fract_y
_atom_site_fract_z
Si Si1 0.498602 0.431145 0.654976
Si Si2 0.227602 0.928478 0.663605
Si Si3 0.932452 0.931239 0.417373
Si Si4 0.360499 0.933037 0.803937
Si Si5 0.061236 0.930200 0.256141
Si Si6 0.357150 0.067891 0.481376
Si Si7 0.777987 0.067185 0.026581
O O1 0.500000 0.500000 0.500000
O O2 0.496200 0.250000 0.632565
O O3 0.426779 0.490898 0.561752
O O4 0.571350 0.482658 0.924196
O O5 0.246943 0.750000 0.725034
O O6 0.285978 0.998286 0.695518
O O7 0.143704 0.955314 0.396025
O O8 0.237902 0.998524 0.851075
O O9 0.930684 0.750000 0.393604
O O10 0.944506 0.975490 0.612471
O O11 0.855794 0.000506 0.164174
O O12 0.000000 0.000000 0.500000
O O13 0.357953 0.750000 0.769411
O O14 0.370426 0.020417 0.678978
O O15 0.046560 0.750000 0.248362
O O16 0.000000 0.000000 0.000000
O O17 0.346837 0.250000 0.444202
O O18 0.284575 0.984216 0.240620
O O19 0.784754 0.250000 0.046476
#
# Coordination Sequence:
#
# PCOD8074532 Si02
#       7
#     4   4   4   4   4   4   4
#     4  10  22  38  59  84 112 146 189 233 280 336
#     4   8  17  34  57  80 104 137 186 235 277 329
#     4  11  22  38  59  85 116 151 191 239 289 343
#     4  10  20  37  58  81 109 147 189 232 279 334
#     4  10  20  36  56  82 114 151 193 240 290 343
#     4  11  23  37  53  83 119 148 182 232 284 335
#     4  10  20  38  61  83 109 148 191 233 282 340
#
# _framework density 19.384513999999999
#
# number of rings (size 3 to 8) (size 9 to 14) (size 15 to 20)
#    0.000    2.000    0.000    4.714    0.000    4.000 
#    0.000    8.571    0.000    0.000    0.000    0.000 
#    0.000    0.000    0.000    0.000    0.000    0.000 
#
# Total GULP energy -347224.730646 kJ/mol
# GULP energy per Si atom -12400.883237 kJ/mol
# Density = 1.934039 g / cm^3
# Si number density = 19.384514 Si / 1000 Ang^3
#
#
#
# Elastic Constant Matrix: (Units=GPa)
#
#
# Indices 1 2 3 4 5 6 
#
# 1 160.1014 43.6974 70.7565 0.0000 17.1410 0.0000
# 2 43.6974 78.7122 39.9167 0.0000 6.5922 0.0000
# 3 70.7565 39.9167 145.0847 0.0000 10.6893 0.0000
# 4 0.0000 0.0000 0.0000 32.6208 0.0000 -4.3613
# 5 17.1410 6.5922 10.6893 0.0000 32.0185 0.0000
# 6 0.0000 0.0000 0.0000 -4.3613 0.0000 28.6955
#
#
#
# Elastic Compliance Matrix: (Units=1/GPa)
#
#
# Indices 1 2 3 4 5 6 
#
# 1 0.008827 -0.002995 -0.003258 0.000000 -0.003021 0.000000
# 2 -0.002995 0.015874 -0.002854 0.000000 -0.000712 0.000000
# 3 -0.003258 -0.002854 0.009324 0.000000 -0.000781 0.000000
# 4 0.000000 0.000000 0.000000 0.031291 0.000000 0.004756
# 5 -0.003021 -0.000712 -0.000781 0.000000 0.033257 0.000000
# 6 0.000000 0.000000 0.000000 0.004756 0.000000 0.035572
#
#
# Mechanical properties :
#
#
# Convention : Reuss Voigt Hill
#
# Bulk Modulus (GPa) = 63.24912 76.95994 70.10453
# Shear Modulus (GPa) = 31.71982 33.96879 32.84430
#
# Velocity S-wave (km/s) = 4.04957 4.19067 4.12072
# Velocity P-wave (km/s) = 7.38680 7.95007 7.67361
#
# Compressibility (1/GPa) = 0.01581050
#
# Stress axis : x y z
#
# Youngs Moduli (GPa) = 113.29035 62.99476 107.24567
#
# Poissons Ratio (x) = 0.18867 0.34943
# Poissons Ratio (y) = 0.33930 0.30612
# Poissons Ratio (z) = 0.36912 0.17981
#
# Static dielectric constant tensor:
#      x y z
#    x 3.785360 0.000000 0.182290 
#    y 0.000000 3.440730 0.000000 
#    z 0.182290 0.000000 3.635360 
# 
# 
# High freq. dielectric constant tensor:
#      x y z
#    x 1.763270 0.000000 0.009460 
#    y 0.000000 1.745450 0.000000 
#    z 0.009460 0.000000 1.765400 
# 
# From -- ./inp_files/26050.got.cif
#   From: 2010.06.25/outbox.cif.g09.slc.cpg/sg11_14_cif.got.tgz:26050.got - 2010.06.27 23:14:04.
