data_PCOD8074454
_publ_section_title
;
Structure prediction by ZEFSAII (Michael W. Deem and Ramdas Pophale) SiO2 
 PCOD8074454
Probable space group: P 21/M
;
_chemical_formula_sum "Si O2"
_cell_formula_units_Z 28
_cell_length_a 23.668211
_cell_length_b 9.093704
_cell_length_c 19.767290
_cell_angle_alpha 90.000000
_cell_angle_beta 157.882219
_cell_angle_gamma 90.000000
_cell_volume 1601.887269
_symmetry_space_group_name_H-M "P 21/M"
_symmetry_group_IT_number 11
_symmetry_cell_setting 'monoclinic'
loop_
_space_group_symop_operation_xyz
x,y,z
-x,1/2+y,-z
-x,-y,-z
x,1/2-y,z
loop_
_atom_site_type_symbol
_atom_site_label
_atom_site_fract_x
_atom_site_fract_y
_atom_site_fract_z
Si Si1 0.546486 0.425101 0.982116
Si Si2 0.505450 0.084232 0.575766
Si Si3 0.685903 0.420722 0.370626
Si Si4 0.445323 0.580938 0.634221
Si Si5 0.723701 0.084612 0.928166
Si Si6 0.882815 0.080704 0.323076
Si Si7 0.988218 0.918979 0.679999
O O1 0.530942 0.250000 0.970815
O O2 0.715060 0.475626 0.151613
O O3 0.500000 0.500000 0.000000
O O4 0.438886 0.482285 0.803953
O O5 0.449541 0.250000 0.501832
O O6 0.500000 0.000000 0.500000
O O7 0.397500 0.008346 0.512979
O O8 0.676415 0.080069 0.795833
O O9 0.664739 0.250000 0.327502
O O10 0.673455 0.444142 0.437644
O O11 0.849069 0.472282 0.528654
O O12 0.459057 0.750000 0.629193
O O13 0.609155 0.522762 0.841340
O O14 0.701410 0.250000 0.932643
O O15 0.896856 0.039753 0.131471
O O16 0.895382 0.250000 0.355918
O O17 0.921023 0.051040 0.287695
O O18 0.000000 0.000000 0.500000
O O19 0.932730 0.750000 0.623485
#
# Coordination Sequence:
#
# PCOD8074454 Si02
#       7
#     4   4   4   4   4   4   4
#     4  11  23  39  58  79 106 140 179 224 271 324
#     4   9  17  30  53  82 111 139 176 222 267 321
#     4  11  23  36  52  79 110 141 179 223 269 318
#     4   9  18  32  51  76 107 139 175 217 263 311
#     4   8  17  32  52  77 103 134 177 220 263 313
#     4  10  22  37  55  77 103 135 175 220 267 317
#     4  10  20  36  55  75 102 140 181 221 267 318
#
# _framework density 17.479381
#
# number of rings (size 3 to 8) (size 9 to 14) (size 15 to 20)
#    0.857    1.429    0.000    3.000    0.000    8.000 
#    0.000    0.000    0.000    0.857    0.000    0.000 
#    0.000    0.000    0.000    0.000    0.000    0.000 
#
# Total GULP energy -347003.377830 kJ/mol
# GULP energy per Si atom -12392.977780 kJ/mol
# Density = 1.743960 g / cm^3
# Si number density = 17.479381 Si / 1000 Ang^3
#
#
#
# Elastic Constant Matrix: (Units=GPa)
#
#
# Indices 1 2 3 4 5 6 
#
# 1 105.2197 57.1924 48.1491 0.0000 2.1399 0.0000
# 2 57.1924 100.7382 42.4790 0.0000 3.4210 0.0000
# 3 48.1491 42.4790 100.1653 0.0000 8.0075 0.0000
# 4 0.0000 0.0000 0.0000 27.4251 0.0000 -1.5025
# 5 2.1399 3.4210 8.0075 0.0000 28.0815 0.0000
# 6 0.0000 0.0000 0.0000 -1.5025 0.0000 31.8342
#
#
#
# Elastic Compliance Matrix: (Units=1/GPa)
#
#
# Indices 1 2 3 4 5 6 
#
# 1 0.015239 -0.006775 -0.004529 0.000000 0.000955 0.000000
# 2 -0.006775 0.015100 -0.003112 0.000000 -0.000436 0.000000
# 3 -0.004529 -0.003112 0.013736 0.000000 -0.003192 0.000000
# 4 0.000000 0.000000 0.000000 0.036557 0.000000 0.001725
# 5 0.000955 -0.000436 -0.003192 0.000000 0.036501 0.000000
# 6 0.000000 0.000000 0.000000 0.001725 0.000000 0.031494
#
#
# Mechanical properties :
#
#
# Convention : Reuss Voigt Hill
#
# Bulk Modulus (GPa) = 65.60235 66.86270 66.23252
# Shear Modulus (GPa) = 27.39115 28.02167 27.70641
#
# Velocity S-wave (km/s) = 3.96290 4.00825 3.98564
# Velocity P-wave (km/s) = 7.65194 7.73025 7.69120
#
# Compressibility (1/GPa) = 0.01524336
#
# Stress axis : x y z
#
# Youngs Moduli (GPa) = 65.62008 66.22463 72.80334
#
# Poissons Ratio (x) = 0.44864 0.32971
# Poissons Ratio (y) = 0.44455 0.22660
# Poissons Ratio (z) = 0.29718 0.20612
#
# Static dielectric constant tensor:
#      x y z
#    x 3.170560 0.000000 -0.064720 
#    y 0.000000 3.376430 0.000000 
#    z -0.064720 0.000000 3.302620 
# 
# 
# High freq. dielectric constant tensor:
#      x y z
#    x 1.666950 0.000000 -0.007210 
#    y 0.000000 1.686300 0.000000 
#    z -0.007210 0.000000 1.660390 
# 
# From -- ./inp_files/66762.got.cif
#   From: 2010.06.25/outbox.cif.g09.slc.cpg/sg11_34_cif.got.tgz:66762.got - 2010.06.27 23:14:04.
