data_PCOD8074288
_publ_section_title
;
Structure prediction by ZEFSAII (Michael W. Deem and Ramdas Pophale) SiO2 
 PCOD8074288
Probable space group: P 21/M
;
_chemical_formula_sum "Si O2"
_cell_formula_units_Z 20
_cell_length_a 14.117895
_cell_length_b 8.920599
_cell_length_c 9.745992
_cell_angle_alpha 90.000000
_cell_angle_beta 122.261781
_cell_angle_gamma 90.000000
_cell_volume 1037.920948
_symmetry_space_group_name_H-M "P 21/M"
_symmetry_group_IT_number 11
_symmetry_cell_setting 'monoclinic'
loop_
_space_group_symop_operation_xyz
x,y,z
-x,1/2+y,-z
-x,-y,-z
x,1/2-y,z
loop_
_atom_site_type_symbol
_atom_site_label
_atom_site_fract_x
_atom_site_fract_y
_atom_site_fract_z
Si Si1 0.740932 0.572941 0.974166
Si Si2 0.612684 0.425978 0.638468
Si Si3 0.795928 0.419159 0.275895
Si Si4 0.959082 0.081557 0.176407
Si Si5 0.183079 0.575115 0.401381
O O1 0.736945 0.750000 0.957857
O O2 0.718900 0.521551 0.115537
O O3 0.863082 0.510592 0.018757
O O4 0.644611 0.500513 0.807300
O O5 0.500000 0.500000 0.500000
O O6 0.595780 0.250000 0.646832
O O7 0.707031 0.461566 0.599344
O O8 0.746718 0.250000 0.240584
O O9 0.798118 0.487651 0.430012
O O10 0.922010 0.417491 0.308839
O O11 0.963131 0.250000 0.119874
O O12 0.079202 0.006977 0.249934
O O13 0.154361 0.750000 0.385191
#
# Coordination Sequence:
#
# PCOD8074288 Si02
#       5
#     4   4   4   4   4
#     4  10  20  36  58  82 113 149 183 223 273 326
#     4  11  24  42  60  79 107 145 188 234 278 324
#     4   8  17  34  55  85 117 144 177 222 272 328
#     4   9  18  32  56  86 119 147 176 220 273 329
#     4  10  20  35  58  85 113 146 184 225 274 327
#
# _framework density 19.269292
#
# number of rings (size 3 to 8) (size 9 to 14) (size 15 to 20)
#    1.200    1.200    0.000    3.000    0.000    3.200 
#    0.000    1.000    0.000    0.000    0.000    0.000 
#    0.000    0.000    0.000    0.000    0.000    0.000 
#
# Total GULP energy -247874.344406 kJ/mol
# GULP energy per Si atom -12393.717220 kJ/mol
# Density = 1.922543 g / cm^3
# Si number density = 19.269292 Si / 1000 Ang^3
#
#
#
# Elastic Constant Matrix: (Units=GPa)
#
#
# Indices 1 2 3 4 5 6 
#
# 1 13.7634 0.5183 1.3979 0.0000 7.9410 0.0000
# 2 0.5183 88.2027 32.7242 0.0000 11.2147 0.0000
# 3 1.3979 32.7242 101.3971 0.0000 21.4921 0.0000
# 4 0.0000 0.0000 0.0000 33.6711 0.0000 8.1852
# 5 7.9410 11.2147 21.4921 0.0000 22.1701 0.0000
# 6 0.0000 0.0000 0.0000 8.1852 0.0000 19.4821
#
#
#
# Elastic Compliance Matrix: (Units=1/GPa)
#
#
# Indices 1 2 3 4 5 6 
#
# 1 0.096298 0.002250 0.006921 0.000000 -0.042340 0.000000
# 2 0.002250 0.013107 -0.003379 0.000000 -0.004160 0.000000
# 3 0.006921 -0.003379 0.013871 0.000000 -0.014216 0.000000
# 4 0.000000 0.000000 0.000000 0.033077 0.000000 -0.013897
# 5 -0.042340 -0.004160 -0.014216 0.000000 0.076157 0.000000
# 6 0.000000 0.000000 0.000000 -0.013897 0.000000 0.057168
#
#
# Mechanical properties :
#
#
# Convention : Reuss Voigt Hill
#
# Bulk Modulus (GPa) = 7.41523 30.29377 18.85450
# Shear Modulus (GPa) = 15.47762 26.31286 20.89524
#
# Velocity S-wave (km/s) = 2.83720 3.69932 3.29657
# Velocity P-wave (km/s) = 3.81962 5.83113 4.92907
#
# Compressibility (1/GPa) = 0.13485756
#
# Stress axis : x y z
#
# Youngs Moduli (GPa) = 10.38447 76.29510 72.09478
#
# Poissons Ratio (x) = -0.17165 -0.49894
# Poissons Ratio (y) = -0.02336 0.24363
# Poissons Ratio (z) = -0.07187 0.25783
#
# Static dielectric constant tensor:
#      x y z
#    x 3.255510 0.000000 -0.137880 
#    y 0.000000 3.459080 0.000000 
#    z -0.137880 0.000000 3.439230 
# 
# 
# High freq. dielectric constant tensor:
#      x y z
#    x 1.720170 0.000000 -0.012130 
#    y 0.000000 1.752990 0.000000 
#    z -0.012130 0.000000 1.746940 
# 
# From -- ./inp_files/37273.got.cif
#   From: 2010.06.25/outbox.cif.g09.slc.cpg/sg11_19_cif.got.tgz:37273.got - 2010.06.27 23:14:04.
