data_PCOD8074224
_publ_section_title
;
Structure prediction by ZEFSAII (Michael W. Deem and Ramdas Pophale) SiO2 
 PCOD8074224
Probable space group: P 21/M
;
_chemical_formula_sum "Si O2"
_cell_formula_units_Z 32
_cell_length_a 12.751434
_cell_length_b 8.787120
_cell_length_c 14.202114
_cell_angle_alpha 90.000000
_cell_angle_beta 93.881923
_cell_angle_gamma 90.000000
_cell_volume 1587.672884
_symmetry_space_group_name_H-M "P 21/M"
_symmetry_group_IT_number 11
_symmetry_cell_setting 'monoclinic'
loop_
_space_group_symop_operation_xyz
x,y,z
-x,1/2+y,-z
-x,-y,-z
x,1/2-y,z
loop_
_atom_site_type_symbol
_atom_site_label
_atom_site_fract_x
_atom_site_fract_y
_atom_site_fract_z
Si Si1 0.260635 0.925129 0.107787
Si Si2 0.996518 0.572115 0.284961
Si Si3 0.215012 0.927307 0.396231
Si Si4 0.383700 0.928331 0.735679
Si Si5 0.597968 0.075293 0.055127
Si Si6 0.186434 0.930610 0.608242
Si Si7 0.618154 0.927824 0.721368
Si Si8 0.040693 0.428453 0.098096
O O1 0.229697 0.750000 0.127406
O O2 0.351543 0.977065 0.184154
O O3 0.162366 0.033238 0.118935
O O4 0.298931 0.943774 0.002931
O O5 0.976373 0.750000 0.274161
O O6 0.917370 0.504672 0.355989
O O7 0.114588 0.536160 0.325769
O O8 0.976198 0.494665 0.182635
O O9 0.243804 0.750000 0.394968
O O10 0.192974 0.982073 0.500516
O O11 0.314389 0.020889 0.364148
O O12 0.364255 0.750000 0.741426
O O13 0.379315 0.998419 0.841178
O O14 0.289481 0.997148 0.667472
O O15 0.495649 0.964124 0.693665
O O16 0.566880 0.250000 0.066736
O O17 0.500000 0.000000 0.000000
O O18 0.176862 0.750000 0.616464
O O19 0.635590 0.750000 0.742472
O O20 0.022042 0.250000 0.093165
O O21 0.000000 0.500000 0.000000
#
# Coordination Sequence:
#
# PCOD8074224 Si02
#       8
#     4   4   4   4   4   4   4   4
#     4  11  22  37  59  89 123 160 202 251 302 362
#     4  11  23  41  63  92 127 160 203 259 306 367
#     4  10  22  40  63  89 121 158 205 262 317 372
#     4   9  20  38  58  87 123 158 204 255 306 368
#     4  10  20  35  57  84 117 158 198 243 294 355
#     4  10  22  41  64  88 119 166 209 255 319 374
#     4  11  21  36  62  89 119 162 208 255 307 367
#     4  12  26  43  64  92 125 164 202 246 304 366
#
# _framework density 20.155284999999999
#
# number of rings (size 3 to 8) (size 9 to 14) (size 15 to 20)
#    0.000    1.500    2.500    2.625    1.750    2.000 
#    0.000    1.875    0.000    0.000    0.000    0.000 
#    0.000    0.000    0.000    0.000    0.000    0.000 
#
# Total GULP energy -396910.111363 kJ/mol
# GULP energy per Si atom -12403.440980 kJ/mol
# Density = 2.010941 g / cm^3
# Si number density = 20.155285 Si / 1000 Ang^3
#
#
#
# Elastic Constant Matrix: (Units=GPa)
#
#
# Indices 1 2 3 4 5 6 
#
# 1 57.7593 25.9442 24.7063 0.0000 -16.9278 0.0000
# 2 25.9442 73.7362 44.4889 0.0000 -10.3310 0.0000
# 3 24.7063 44.4889 139.8317 0.0000 -14.9674 0.0000
# 4 0.0000 0.0000 0.0000 28.9656 0.0000 -2.8011
# 5 -16.9278 -10.3310 -14.9674 0.0000 37.8172 0.0000
# 6 0.0000 0.0000 0.0000 -2.8011 0.0000 26.6910
#
#
#
# Elastic Compliance Matrix: (Units=1/GPa)
#
#
# Indices 1 2 3 4 5 6 
#
# 1 0.023008 -0.006225 -0.001216 0.000000 0.008117 0.000000
# 2 -0.006225 0.018712 -0.004809 0.000000 0.000423 0.000000
# 3 -0.001216 -0.004809 0.009082 0.000000 0.001737 0.000000
# 4 0.000000 0.000000 0.000000 0.034878 0.000000 0.003660
# 5 0.008117 0.000423 0.001737 0.000000 0.030879 0.000000
# 6 0.000000 0.000000 0.000000 0.003660 0.000000 0.037850
#
#
# Mechanical properties :
#
#
# Convention : Reuss Voigt Hill
#
# Bulk Modulus (GPa) = 38.01609 51.28956 44.65282
# Shear Modulus (GPa) = 26.64170 30.44063 28.54117
#
# Velocity S-wave (km/s) = 3.63963 3.89048 3.76714
# Velocity P-wave (km/s) = 6.04691 6.75896 6.41283
#
# Compressibility (1/GPa) = 0.02630465
#
# Stress axis : x y z
#
# Youngs Moduli (GPa) = 43.46272 53.44056 110.10710
#
# Poissons Ratio (x) = 0.33264 0.13389
# Poissons Ratio (y) = 0.27053 0.52945
# Poissons Ratio (z) = 0.05285 0.25697
#
# Static dielectric constant tensor:
#      x y z
#    x 3.814740 0.000000 -0.016140 
#    y 0.000000 3.538930 0.000000 
#    z -0.016140 0.000000 3.949130 
# 
# 
# High freq. dielectric constant tensor:
#      x y z
#    x 1.791020 0.000000 -0.008410 
#    y 0.000000 1.773230 0.000000 
#    z -0.008410 0.000000 1.799540 
# 
# From -- ./inp_files/49390.got.cif
#   From: 2010.06.25/outbox.cif.g09.slc.cpg/sg11_25_cif.got.tgz:49390.got - 2010.06.27 23:14:04.
