data_PCOD8074940
_publ_section_title
;
Structure prediction by ZEFSAII (Michael W. Deem and Ramdas Pophale) SiO2 
 PCOD8074940
Probable space group: P 21/M
;
_chemical_formula_sum "Si O2"
_cell_formula_units_Z 28
_cell_length_a 8.806804
_cell_length_b 13.233224
_cell_length_c 13.183877
_cell_angle_alpha 90.000000
_cell_angle_beta 73.522243
_cell_angle_gamma 90.000000
_cell_volume 1473.377412
_symmetry_space_group_name_H-M "P 21/M"
_symmetry_group_IT_number 11
_symmetry_cell_setting 'monoclinic'
loop_
_space_group_symop_operation_xyz
x,y,z
-x,1/2+y,-z
-x,-y,-z
x,1/2-y,z
loop_
_atom_site_type_symbol
_atom_site_label
_atom_site_fract_x
_atom_site_fract_y
_atom_site_fract_z
Si Si1 0.925188 0.492081 0.860551
Si Si2 0.425402 0.134895 0.738265
Si Si3 0.934029 0.864211 0.484747
Si Si4 0.325786 0.010767 0.572978
Si Si5 0.778737 0.369151 0.715258
Si Si6 0.918825 0.135696 0.328753
Si Si7 0.167393 0.367554 0.947104
O O1 0.805803 0.427574 0.814944
O O2 0.032268 0.563912 0.771574
O O3 0.031304 0.411727 0.900527
O O4 0.824924 0.565443 0.952790
O O5 0.420980 0.250000 0.701693
O O6 0.324133 0.071168 0.678092
O O7 0.606424 0.096635 0.708168
O O8 0.339841 0.123422 0.862995
O O9 0.893706 0.750000 0.462224
O O10 0.784751 0.932473 0.486671
O O11 0.089314 0.900122 0.392864
O O12 0.962080 0.874671 0.599222
O O13 0.500000 0.000000 0.500000
O O14 0.256511 0.898575 0.603431
O O15 0.780925 0.250000 0.736961
O O16 0.909785 0.250000 0.291252
O O17 0.128328 0.250000 0.978661
#
# Coordination Sequence:
#
# PCOD8074940 Si02
#       7
#     4   4   4   4   4   4   4
#     4  11  21  36  63  85 113 154 194 240 295 351
#     4  10  21  38  59  87 117 149 194 245 288 335
#     4  10  21  38  59  84 116 155 196 234 281 346
#     4  12  23  35  60  86 117 157 195 236 289 346
#     4  10  20  36  62  89 115 153 200 239 281 345
#     4  11  23  38  56  85 122 157 196 241 289 341
#     4  10  21  39  61  87 113 147 195 245 294 348
#
# _framework density 19.003955999999999
#
# number of rings (size 3 to 8) (size 9 to 14) (size 15 to 20)
#    0.000    1.429    2.857    2.571    2.000    5.143 
#    0.000    0.000    0.000    0.000    0.000    0.000 
#    0.000    0.000    0.000    0.000    0.000    0.000 
#
# Total GULP energy -347237.340738 kJ/mol
# GULP energy per Si atom -12401.333598 kJ/mol
# Density = 1.896070 g / cm^3
# Si number density = 19.003956 Si / 1000 Ang^3
#
#
#
# Elastic Constant Matrix: (Units=GPa)
#
#
# Indices 1 2 3 4 5 6 
#
# 1 72.6779 24.0503 5.3529 0.0000 -13.8751 0.0000
# 2 24.0503 84.8008 14.5376 0.0000 0.3537 0.0000
# 3 5.3529 14.5376 59.4898 0.0000 -3.5695 0.0000
# 4 0.0000 0.0000 0.0000 33.0428 0.0000 2.7510
# 5 -13.8751 0.3537 -3.5695 0.0000 29.6787 0.0000
# 6 0.0000 0.0000 0.0000 2.7510 0.0000 30.4187
#
#
#
# Elastic Compliance Matrix: (Units=1/GPa)
#
#
# Indices 1 2 3 4 5 6 
#
# 1 0.016871 -0.004843 0.000143 0.000000 0.007963 0.000000
# 2 -0.004843 0.013706 -0.003081 0.000000 -0.002798 0.000000
# 3 0.000143 -0.003081 0.017684 0.000000 0.002230 0.000000
# 4 0.000000 0.000000 0.000000 0.030493 0.000000 -0.002758
# 5 0.007963 -0.002798 0.002230 0.000000 0.037718 0.000000
# 6 0.000000 0.000000 0.000000 -0.002758 0.000000 0.033124
#
#
# Mechanical properties :
#
#
# Convention : Reuss Voigt Hill
#
# Bulk Modulus (GPa) = 30.58222 33.87224 32.22723
# Shear Modulus (GPa) = 28.39975 30.16323 29.28149
#
# Velocity S-wave (km/s) = 3.86996 3.98830 3.92957
# Velocity P-wave (km/s) = 6.00802 6.25070 6.13056
#
# Compressibility (1/GPa) = 0.03269874
#
# Stress axis : x y z
#
# Youngs Moduli (GPa) = 59.27172 72.96243 56.54964
#
# Poissons Ratio (x) = 0.35333 -0.00809
# Poissons Ratio (y) = 0.28703 0.17425
# Poissons Ratio (z) = -0.00848 0.22483
#
# Static dielectric constant tensor:
#      x y z
#    x 3.421060 0.000000 0.027030 
#    y 0.000000 3.743800 0.000000 
#    z 0.027030 0.000000 3.544100 
# 
# 
# High freq. dielectric constant tensor:
#      x y z
#    x 1.730570 0.000000 0.001860 
#    y 0.000000 1.753460 0.000000 
#    z 0.001860 0.000000 1.738390 
# 
# From -- ./inp_files/24913.got.cif
#   From: 2010.06.25/outbox.cif.g09.slc.cpg/sg11_13_cif.got.tgz:24913.got - 2010.06.27 23:14:04.
