data_PCOD8074386
_publ_section_title
;
Structure prediction by ZEFSAII (Michael W. Deem and Ramdas Pophale) SiO2 
 PCOD8074386
Probable space group: P 21/M
;
_chemical_formula_sum "Si O2"
_cell_formula_units_Z 32
_cell_length_a 24.227167
_cell_length_b 9.074648
_cell_length_c 14.291387
_cell_angle_alpha 90.000000
_cell_angle_beta 29.925858
_cell_angle_gamma 90.000000
_cell_volume 1567.479823
_symmetry_space_group_name_H-M "P 21/M"
_symmetry_group_IT_number 11
_symmetry_cell_setting 'monoclinic'
loop_
_space_group_symop_operation_xyz
x,y,z
-x,1/2+y,-z
-x,-y,-z
x,1/2-y,z
loop_
_atom_site_type_symbol
_atom_site_label
_atom_site_fract_x
_atom_site_fract_y
_atom_site_fract_z
Si Si1 0.693581 0.916658 0.567218
Si Si2 0.323685 0.420759 0.004195
Si Si3 0.742610 0.082990 0.327657
Si Si4 0.871181 0.919727 0.453922
Si Si5 0.109815 0.925895 0.378120
Si Si6 0.488045 0.924227 0.418852
Si Si7 0.490111 0.081393 0.917668
Si Si8 0.979071 0.082423 0.934260
O O1 0.659045 0.750000 0.597385
O O2 0.748755 0.929079 0.588505
O O3 0.775756 0.977869 0.366688
O O4 0.586675 0.018835 0.710599
O O5 0.291950 0.250000 0.034946
O O6 0.213274 0.519430 0.162885
O O7 0.411949 0.473887 0.796627
O O8 0.375073 0.441166 0.032526
O O9 0.725128 0.250000 0.389048
O O10 0.631198 0.023065 0.443514
O O11 0.847657 0.075093 0.103625
O O12 0.897409 0.750000 0.444220
O O13 0.957874 0.981428 0.249252
O O14 0.874912 0.024842 0.537376
O O15 0.101437 0.750000 0.384318
O O16 0.000000 0.000000 0.500000
O O17 0.489949 0.750000 0.428689
O O18 0.500000 0.000000 0.500000
O O19 0.512727 0.250000 0.905593
O O20 0.500000 0.000000 0.000000
O O21 0.020715 0.250000 0.886500
O O22 0.000000 0.000000 0.000000
#
# Coordination Sequence:
#
# PCOD8074386 Si02
#       8
#     4   4   4   4   4   4   4   4
#     4  11  21  34  57  88 125 163 204 252 307 365
#     4  10  22  43  66  89 126 166 204 256 314 368
#     4  10  20  37  59  85 121 164 205 251 312 368
#     4  10  22  40  60  91 131 169 209 259 315 370
#     4  12  27  46  69  94 121 160 210 262 315 375
#     4  10  22  41  63  92 126 165 210 258 312 367
#     4  11  22  37  58  88 126 164 205 252 307 368
#     4  10  20  35  59  89 126 167 208 255 310 374
#
# _framework density 20.414935
#
# number of rings (size 3 to 8) (size 9 to 14) (size 15 to 20)
#    0.000    1.500    2.500    2.625    0.000    7.500 
#    0.000    1.250    0.000    0.000    0.000    0.000 
#    0.000    0.000    0.000    0.000    0.000    0.000 
#
# Total GULP energy -396745.531618 kJ/mol
# GULP energy per Si atom -12398.297863 kJ/mol
# Density = 2.036847 g / cm^3
# Si number density = 20.414935 Si / 1000 Ang^3
#
#
#
# Elastic Constant Matrix: (Units=GPa)
#
#
# Indices 1 2 3 4 5 6 
#
# 1 84.3702 45.6232 33.4836 0.0000 2.3386 0.0000
# 2 45.6232 104.9759 44.3453 0.0000 -6.6641 0.0000
# 3 33.4836 44.3453 111.5086 0.0000 -7.5384 0.0000
# 4 0.0000 0.0000 0.0000 31.2651 0.0000 3.6664
# 5 2.3386 -6.6641 -7.5384 0.0000 32.8867 0.0000
# 6 0.0000 0.0000 0.0000 3.6664 0.0000 36.7621
#
#
#
# Elastic Compliance Matrix: (Units=1/GPa)
#
#
# Indices 1 2 3 4 5 6 
#
# 1 0.016323 -0.006165 -0.002654 0.000000 -0.003018 0.000000
# 2 -0.006165 0.013832 -0.003485 0.000000 0.002443 0.000000
# 3 -0.002654 -0.003485 0.011291 0.000000 0.002071 0.000000
# 4 0.000000 0.000000 0.000000 0.032363 0.000000 -0.003228
# 5 -0.003018 0.002443 0.002071 0.000000 0.031592 0.000000
# 6 0.000000 0.000000 0.000000 -0.003228 0.000000 0.027524
#
#
# Mechanical properties :
#
#
# Convention : Reuss Voigt Hill
#
# Bulk Modulus (GPa) = 59.38412 60.86209 60.12311
# Shear Modulus (GPa) = 30.64783 32.00963 31.32873
#
# Velocity S-wave (km/s) = 3.87879 3.96403 3.92164
# Velocity P-wave (km/s) = 7.01511 7.12942 7.07250
#
# Compressibility (1/GPa) = 0.01683952
#
# Stress axis : x y z
#
# Youngs Moduli (GPa) = 61.26359 72.29480 88.56911
#
# Poissons Ratio (x) = 0.44566 0.23505
# Poissons Ratio (y) = 0.37766 0.30864
# Poissons Ratio (z) = 0.16259 0.25192
#
# Static dielectric constant tensor:
#      x y z
#    x 3.544040 0.000000 -0.035640 
#    y 0.000000 3.608980 0.000000 
#    z -0.035640 0.000000 3.974120 
# 
# 
# High freq. dielectric constant tensor:
#      x y z
#    x 1.784220 0.000000 -0.002130 
#    y 0.000000 1.790730 0.000000 
#    z -0.002130 0.000000 1.819750 
# 
# From -- ./inp_files/55652.got.cif
#   From: 2010.06.25/outbox.cif.g09.slc.cpg/sg11_28_cif.got.tgz:55652.got - 2010.06.27 23:14:04.
