data_PCOD8074351
_publ_section_title
;
Structure prediction by ZEFSAII (Michael W. Deem and Ramdas Pophale) SiO2 
 PCOD8074351
Probable space group: P 21/M
;
_chemical_formula_sum "Si O2"
_cell_formula_units_Z 32
_cell_length_a 13.944025
_cell_length_b 16.925874
_cell_length_c 19.838568
_cell_angle_alpha 90.000000
_cell_angle_beta 21.023674
_cell_angle_gamma 90.000000
_cell_volume 1679.754922
_symmetry_space_group_name_H-M "P 21/M"
_symmetry_group_IT_number 11
_symmetry_cell_setting 'monoclinic'
loop_
_space_group_symop_operation_xyz
x,y,z
-x,1/2+y,-z
-x,-y,-z
x,1/2-y,z
loop_
_atom_site_type_symbol
_atom_site_label
_atom_site_fract_x
_atom_site_fract_y
_atom_site_fract_z
Si Si1 0.055063 0.988468 0.755285
Si Si2 0.970171 0.081776 0.483026
Si Si3 0.803439 0.485708 0.781492
Si Si4 0.424474 0.574709 0.735597
Si Si5 0.602118 0.943701 0.358791
Si Si6 0.887141 0.841760 0.072348
Si Si7 0.373722 0.433466 0.868192
Si Si8 0.929830 0.658298 0.454315
O O1 0.308089 0.928325 0.582992
O O2 0.164674 0.053088 0.737283
O O3 0.990609 0.024301 0.724424
O O4 0.777868 0.948625 0.961692
O O5 0.659902 0.109392 0.686022
O O6 0.121622 0.147017 0.430590
O O7 0.000000 0.000000 0.500000
O O8 0.095183 0.064069 0.326895
O O9 0.829468 0.402397 0.723930
O O10 0.500000 0.500000 0.000000
O O11 0.404893 0.526340 0.678540
O O12 0.431812 0.515880 0.793550
O O13 0.677994 0.632269 0.574372
O O14 0.172474 0.630586 0.910712
O O15 0.660147 0.870102 0.272969
O O16 0.874466 0.750000 0.074317
O O17 0.832013 0.878442 0.035986
O O18 0.999759 0.750000 0.393258
#
# Coordination Sequence:
#
# PCOD8074351 Si02
#       8
#     4   4   4   4   4   4   4   4
#     4  11  19  34  61  88 109 153 203 237 289 342
#     4  10  20  39  61  86 111 152 205 242 288 358
#     4  11  22  37  62  91 120 159 199 241 297 368
#     4  11  18  39  59  88 115 157 203 243 283 360
#     4  10  20  35  59  82 117 156 201 239 282 361
#     4  11  22  36  55  87 122 158 196 247 301 344
#     4  11  19  36  65  83 113 153 212 245 277 357
#     4  11  23  40  63  91 120 152 199 259 306 346
#
# _framework density 19.050398000000001
#
# number of rings (size 3 to 8) (size 9 to 14) (size 15 to 20)
#    0.000    1.250    6.250    3.375    0.000    0.500 
#    0.000    1.875    0.000    3.000    0.000    0.000 
#    0.000    0.000    0.000    0.000    0.000    0.000 
#
# Total GULP energy -396512.782244 kJ/mol
# GULP energy per Si atom -12391.024445 kJ/mol
# Density = 1.900704 g / cm^3
# Si number density = 19.050398 Si / 1000 Ang^3
#
#
#
# Elastic Constant Matrix: (Units=GPa)
#
#
# Indices 1 2 3 4 5 6 
#
# 1 95.2513 8.2126 10.8008 0.0000 1.9307 0.0000
# 2 8.2126 75.4127 17.2783 0.0000 2.4703 0.0000
# 3 10.8008 17.2783 122.2131 0.0000 3.7966 0.0000
# 4 0.0000 0.0000 0.0000 10.7169 0.0000 -2.3422
# 5 1.9307 2.4703 3.7966 0.0000 35.9125 0.0000
# 6 0.0000 0.0000 0.0000 -2.3422 0.0000 15.1070
#
#
#
# Elastic Compliance Matrix: (Units=1/GPa)
#
#
# Indices 1 2 3 4 5 6 
#
# 1 0.010681 -0.000967 -0.000794 0.000000 -0.000424 0.000000
# 2 -0.000967 0.013812 -0.001845 0.000000 -0.000703 0.000000
# 3 -0.000794 -0.001845 0.008536 0.000000 -0.000733 0.000000
# 4 0.000000 0.000000 0.000000 0.096583 0.000000 0.014974
# 5 -0.000424 -0.000703 -0.000733 0.000000 0.027994 0.000000
# 6 0.000000 0.000000 0.000000 0.014974 0.000000 0.068516
#
#
# Mechanical properties :
#
#
# Convention : Reuss Voigt Hill
#
# Bulk Modulus (GPa) = 38.73709 40.60672 39.67191
# Shear Modulus (GPa) = 20.66632 29.45298 25.05965
#
# Velocity S-wave (km/s) = 3.29724 3.93626 3.63083
# Velocity P-wave (km/s) = 5.90541 6.48232 6.20058
#
# Compressibility (1/GPa) = 0.02581505
#
# Stress axis : x y z
#
# Youngs Moduli (GPa) = 93.62799 72.40322 117.14737
#
# Poissons Ratio (x) = 0.07004 0.09301
# Poissons Ratio (y) = 0.09057 0.21618
# Poissons Ratio (z) = 0.07434 0.13361
#
# Static dielectric constant tensor:
#      x y z
#    x 4.050610 0.000000 -0.552400 
#    y 0.000000 3.207360 0.000000 
#    z -0.552400 0.000000 4.013630 
# 
# 
# High freq. dielectric constant tensor:
#      x y z
#    x 1.760850 0.000000 -0.006990 
#    y 0.000000 1.685150 0.000000 
#    z -0.006990 0.000000 1.749350 
# 
# From -- ./inp_files/32233.got.cif
#   From: 2010.06.25/outbox.cif.g09.slc.cpg/sg11_17_cif.got.tgz:32233.got - 2010.06.27 23:14:04.
