data_PCOD8074761
_publ_section_title
;
Structure prediction by ZEFSAII (Michael W. Deem and Ramdas Pophale) SiO2 
 PCOD8074761
Probable space group: P 21/M
;
_chemical_formula_sum "Si O2"
_cell_formula_units_Z 28
_cell_length_a 9.250782
_cell_length_b 13.419345
_cell_length_c 15.340814
_cell_angle_alpha 90.000000
_cell_angle_beta 128.544162
_cell_angle_gamma 90.000000
_cell_volume 1489.484756
_symmetry_space_group_name_H-M "P 21/M"
_symmetry_group_IT_number 11
_symmetry_cell_setting 'monoclinic'
loop_
_space_group_symop_operation_xyz
x,y,z
-x,1/2+y,-z
-x,-y,-z
x,1/2-y,z
loop_
_atom_site_type_symbol
_atom_site_label
_atom_site_fract_x
_atom_site_fract_y
_atom_site_fract_z
Si Si1 0.239639 0.638103 0.286003
Si Si2 0.919777 0.546584 0.058139
Si Si3 0.545364 0.502665 0.333956
Si Si4 0.180570 0.860639 0.464043
Si Si5 0.452009 0.364365 0.147393
Si Si6 0.308463 0.517484 0.881544
Si Si7 0.228838 0.135527 0.706176
O O1 0.313285 0.750000 0.294525
O O2 0.399468 0.555708 0.341558
O O3 0.164241 0.630068 0.354555
O O4 0.078076 0.615906 0.156720
O O5 0.851406 0.463001 0.104666
O O6 0.738158 0.613850 0.974745
O O7 0.000000 0.500000 0.000000
O O8 0.695494 0.446297 0.448470
O O9 0.441614 0.424310 0.233602
O O10 0.627653 0.591054 0.307699
O O11 0.253707 0.750000 0.518295
O O12 0.969955 0.875325 0.415456
O O13 0.465446 0.250000 0.176336
O O14 0.642618 0.391867 0.166292
O O15 0.242402 0.421185 0.803070
O O16 0.500000 0.500000 0.000000
O O17 0.278734 0.250000 0.744025
#
# Coordination Sequence:
#
# PCOD8074761 Si02
#       7
#     4   4   4   4   4   4   4
#     4  11  22  37  59  86 116 152 194 236 285 344
#     4  11  20  38  60  85 116 148 190 240 291 343
#     4  11  21  37  56  86 119 149 189 239 286 333
#     4  10  21  37  60  83 109 152 196 233 283 344
#     4  10  21  37  58  81 115 157 189 231 289 344
#     4   9  20  35  57  84 114 147 187 235 286 339
#     4  10  20  36  59  86 113 147 194 239 282 336
#
# _framework density 18.798446999999999
#
# number of rings (size 3 to 8) (size 9 to 14) (size 15 to 20)
#    0.000    1.714    2.857    2.143    0.000    2.286 
#    0.000    1.429    0.000    0.857    0.000    0.000 
#    0.000    0.000    0.000    0.000    0.000    0.000 
#
# Total GULP energy -347029.981054 kJ/mol
# GULP energy per Si atom -12393.927895 kJ/mol
# Density = 1.875566 g / cm^3
# Si number density = 18.798447 Si / 1000 Ang^3
#
#
#
# Elastic Constant Matrix: (Units=GPa)
#
#
# Indices 1 2 3 4 5 6 
#
# 1 74.2239 31.9930 2.8759 0.0000 -2.4971 0.0000
# 2 31.9930 99.4525 28.2604 0.0000 9.7301 0.0000
# 3 2.8759 28.2604 79.4268 0.0000 9.3541 0.0000
# 4 0.0000 0.0000 0.0000 23.9614 0.0000 9.7176
# 5 -2.4971 9.7301 9.3541 0.0000 26.7695 0.0000
# 6 0.0000 0.0000 0.0000 9.7176 0.0000 19.7553
#
#
#
# Elastic Compliance Matrix: (Units=1/GPa)
#
#
# Indices 1 2 3 4 5 6 
#
# 1 0.016031 -0.005784 0.001099 0.000000 0.003214 0.000000
# 2 -0.005784 0.013476 -0.004114 0.000000 -0.004000 0.000000
# 3 0.001099 -0.004114 0.014420 0.000000 -0.003441 0.000000
# 4 0.000000 0.000000 0.000000 0.052134 0.000000 -0.025645
# 5 0.003214 -0.004000 -0.003441 0.000000 0.040312 0.000000
# 6 0.000000 0.000000 0.000000 -0.025645 0.000000 0.063234
#
#
# Mechanical properties :
#
#
# Convention : Reuss Voigt Hill
#
# Bulk Modulus (GPa) = 37.98155 42.15130 40.06642
# Shear Modulus (GPa) = 22.12567 26.76215 24.44391
#
# Velocity S-wave (km/s) = 3.43446 3.77720 3.60990
# Velocity P-wave (km/s) = 5.99798 6.44162 6.22376
#
# Compressibility (1/GPa) = 0.02632857
#
# Stress axis : x y z
#
# Youngs Moduli (GPa) = 62.37791 74.20520 69.35040
#
# Poissons Ratio (x) = 0.42919 -0.07621
# Poissons Ratio (y) = 0.36078 0.28533
# Poissons Ratio (z) = -0.06855 0.30531
#
# Static dielectric constant tensor:
#      x y z
#    x 3.708420 0.000000 -0.078790 
#    y 0.000000 3.442260 0.000000 
#    z -0.078790 0.000000 3.448830 
# 
# 
# High freq. dielectric constant tensor:
#      x y z
#    x 1.735460 0.000000 -0.002190 
#    y 0.000000 1.717810 0.000000 
#    z -0.002190 0.000000 1.735130 
# 
# From -- ./inp_files/21401.got.cif
#   From: 2010.06.25/outbox.cif.g09.slc.cpg/sg11_11_cif.got.tgz:21401.got - 2010.06.27 23:14:04.
