data_PCOD8074816
_publ_section_title
;
Structure prediction by ZEFSAII (Michael W. Deem and Ramdas Pophale) SiO2 
 PCOD8074816
Probable space group: P 21/M
;
_chemical_formula_sum "Si O2"
_cell_formula_units_Z 28
_cell_length_a 24.577307
_cell_length_b 9.067396
_cell_length_c 9.074615
_cell_angle_alpha 90.000000
_cell_angle_beta 134.116364
_cell_angle_gamma 90.000000
_cell_volume 1451.863150
_symmetry_space_group_name_H-M "P 21/M"
_symmetry_group_IT_number 11
_symmetry_cell_setting 'monoclinic'
loop_
_space_group_symop_operation_xyz
x,y,z
-x,1/2+y,-z
-x,-y,-z
x,1/2-y,z
loop_
_atom_site_type_symbol
_atom_site_label
_atom_site_fract_x
_atom_site_fract_y
_atom_site_fract_z
Si Si1 0.192035 0.075861 0.229611
Si Si2 0.086109 0.919664 0.525004
Si Si3 0.645558 0.581236 0.988097
Si Si4 0.337249 0.421644 0.319971
Si Si5 0.518791 0.080326 0.385641
Si Si6 0.230458 0.578448 0.603586
Si Si7 0.937513 0.077623 0.184706
O O1 0.181395 0.250000 0.217197
O O2 0.257723 0.029820 0.239439
O O3 0.212739 0.016218 0.427773
O O4 0.113880 0.003798 0.031247
O O5 0.061612 0.750000 0.459516
O O6 0.166538 0.953644 0.604451
O O7 0.092920 0.960773 0.709753
O O8 0.023143 0.020009 0.327500
O O9 0.671600 0.750000 0.062940
O O10 0.689698 0.473061 0.179794
O O11 0.662956 0.535002 0.852338
O O12 0.555900 0.563767 0.857633
O O13 0.353026 0.250000 0.371742
O O14 0.404893 0.506297 0.535519
O O15 0.535853 0.250000 0.450859
O O16 0.500000 0.000000 0.500000
O O17 0.235075 0.750000 0.570553
O O18 0.935827 0.250000 0.147304
#
# Coordination Sequence:
#
# PCOD8074816 Si02
#       7
#     4   4   4   4   4   4   4
#     4  11  23  38  55  77 110 147 179 218 269 319
#     4   9  20  38  58  82 110 138 173 219 268 315
#     4   9  18  34  55  80 108 137 173 218 269 319
#     4   9  19  35  56  81 107 139 180 223 268 318
#     4   9  17  30  52  81 110 139 175 221 269 317
#     4  11  23  37  54  78 108 143 182 220 261 315
#     4  10  20  36  60  86 108 135 176 221 265 318
#
# _framework density 19.285565999999999
#
# number of rings (size 3 to 8) (size 9 to 14) (size 15 to 20)
#    0.000    2.286    0.000    3.429    0.000    6.286 
#    0.000    0.714    0.000    0.000    0.000    0.000 
#    0.000    0.000    0.000    0.000    0.000    0.000 
#
# Total GULP energy -347224.101688 kJ/mol
# GULP energy per Si atom -12400.860775 kJ/mol
# Density = 1.924167 g / cm^3
# Si number density = 19.285566 Si / 1000 Ang^3
#
#
#
# Elastic Constant Matrix: (Units=GPa)
#
#
# Indices 1 2 3 4 5 6 
#
# 1 18.3658 23.4544 28.2510 0.0000 6.6700 0.0000
# 2 23.4544 83.9549 52.1621 0.0000 13.4340 0.0000
# 3 28.2510 52.1621 116.9815 0.0000 15.7175 0.0000
# 4 0.0000 0.0000 0.0000 40.6888 0.0000 5.0426
# 5 6.6700 13.4340 15.7175 0.0000 24.0830 0.0000
# 6 0.0000 0.0000 0.0000 5.0426 0.0000 29.0094
#
#
#
# Elastic Compliance Matrix: (Units=1/GPa)
#
#
# Indices 1 2 3 4 5 6 
#
# 1 0.105694 -0.018000 -0.016348 0.000000 -0.008563 0.000000
# 2 -0.018000 0.020067 -0.004129 0.000000 -0.003514 0.000000
# 3 -0.016348 -0.004129 0.014710 0.000000 -0.002769 0.000000
# 4 0.000000 0.000000 0.000000 0.025118 0.000000 -0.004366
# 5 -0.008563 -0.003514 -0.002769 0.000000 0.047662 0.000000
# 6 0.000000 0.000000 0.000000 -0.004366 0.000000 0.035231
#
#
# Mechanical properties :
#
#
# Convention : Reuss Voigt Hill
#
# Bulk Modulus (GPa) = 15.74400 47.44856 31.59628
# Shear Modulus (GPa) = 14.42552 26.45189 20.43870
#
# Velocity S-wave (km/s) = 2.73792 3.70752 3.25898
# Velocity P-wave (km/s) = 4.26336 6.55623 5.52994
#
# Compressibility (1/GPa) = 0.06351624
#
# Stress axis : x y z
#
# Youngs Moduli (GPa) = 9.46129 49.83184 67.98274
#
# Poissons Ratio (x) = 0.89698 1.11140
# Poissons Ratio (y) = 0.17030 0.28070
# Poissons Ratio (z) = 0.15468 0.20575
#
# Static dielectric constant tensor:
#      x y z
#    x 3.541370 0.000000 0.193060 
#    y 0.000000 3.613970 0.000000 
#    z 0.193060 0.000000 3.483140 
# 
# 
# High freq. dielectric constant tensor:
#      x y z
#    x 1.737600 0.000000 0.020470 
#    y 0.000000 1.758130 0.000000 
#    z 0.020470 0.000000 1.748820 
# 
# From -- ./inp_files/28578.got.cif
#   From: 2010.06.25/outbox.cif.g09.slc.cpg/sg11_15_cif.got.tgz:28578.got - 2010.06.27 23:14:04.
