data_PCOD8074245
_publ_section_title
;
Structure prediction by ZEFSAII (Michael W. Deem and Ramdas Pophale) SiO2 
 PCOD8074245
Probable space group: P 21/M
;
_chemical_formula_sum "Si O2"
_cell_formula_units_Z 32
_cell_length_a 12.331199
_cell_length_b 8.692347
_cell_length_c 15.245376
_cell_angle_alpha 90.000000
_cell_angle_beta 87.645664
_cell_angle_gamma 90.000000
_cell_volume 1632.727671
_symmetry_space_group_name_H-M "P 21/M"
_symmetry_group_IT_number 11
_symmetry_cell_setting 'monoclinic'
loop_
_space_group_symop_operation_xyz
x,y,z
-x,1/2+y,-z
-x,-y,-z
x,1/2-y,z
loop_
_atom_site_type_symbol
_atom_site_label
_atom_site_fract_x
_atom_site_fract_y
_atom_site_fract_z
Si Si1 0.407035 0.432108 0.563867
Si Si2 0.402858 0.432885 0.760933
Si Si3 0.192567 0.067671 0.863865
Si Si4 0.043388 0.569419 0.183360
Si Si5 0.031560 0.427681 0.364502
Si Si6 0.776429 0.931148 0.940423
Si Si7 0.553577 0.068460 0.911673
Si Si8 0.163389 0.071351 0.532742
O O1 0.500000 0.500000 0.500000
O O2 0.415731 0.250000 0.559554
O O3 0.426093 0.494615 0.662238
O O4 0.287788 0.485411 0.534980
O O5 0.399882 0.250000 0.759266
O O6 0.286305 0.496585 0.797083
O O7 0.493347 0.492311 0.826135
O O8 0.195333 0.250000 0.866589
O O9 0.078270 0.010758 0.830566
O O10 0.211718 0.005154 0.961285
O O11 0.059369 0.750000 0.165498
O O12 0.072765 0.529455 0.282163
O O13 0.116061 0.471979 0.115367
O O14 0.028574 0.250000 0.337596
O O15 0.120320 0.459129 0.436547
O O16 0.910893 0.477160 0.397297
O O17 0.755167 0.750000 0.939320
O O18 0.677012 0.016856 0.897421
O O19 0.543446 0.250000 0.918773
O O20 0.500000 0.000000 0.000000
O O21 0.153773 0.250000 0.559524
#
# Coordination Sequence:
#
# PCOD8074245 Si02
#       8
#     4   4   4   4   4   4   4   4
#     4  10  21  38  59  82 113 149 189 235 283 337
#     4   9  18  35  60  85 109 146 190 232 283 339
#     4   9  18  35  59  82 108 145 190 236 284 338
#     4  11  22  36  56  83 116 152 190 229 282 349
#     4  10  20  35  57  86 115 145 184 234 285 338
#     4  11  22  38  58  81 113 150 190 240 288 333
#     4  11  21  37  60  85 114 148 191 236 284 342
#     4   9  19  37  60  82 109 148 190 233 284 340
#
# _framework density 19.599102999999999
#
# number of rings (size 3 to 8) (size 9 to 14) (size 15 to 20)
#    0.000    2.000    1.250    2.625    0.000    4.000 
#    0.000    5.625    0.000    0.000    0.000    0.000 
#    0.000    0.000    0.000    0.000    0.000    0.000 
#
# Total GULP energy -396864.704989 kJ/mol
# GULP energy per Si atom -12402.022031 kJ/mol
# Density = 1.955449 g / cm^3
# Si number density = 19.599103 Si / 1000 Ang^3
#
#
#
# Elastic Constant Matrix: (Units=GPa)
#
#
# Indices 1 2 3 4 5 6 
#
# 1 119.8338 26.1603 80.7368 0.0000 4.0350 0.0000
# 2 26.1603 35.9787 24.0589 0.0000 4.1866 0.0000
# 3 80.7368 24.0589 152.2250 0.0000 -5.1949 0.0000
# 4 0.0000 0.0000 0.0000 28.9831 0.0000 -5.6807
# 5 4.0350 4.1866 -5.1949 0.0000 32.9212 0.0000
# 6 0.0000 0.0000 0.0000 -5.6807 0.0000 31.1648
#
#
#
# Elastic Compliance Matrix: (Units=1/GPa)
#
#
# Indices 1 2 3 4 5 6 
#
# 1 0.014136 -0.005563 -0.006689 0.000000 -0.002081 0.000000
# 2 -0.005563 0.034026 -0.002565 0.000000 -0.004050 0.000000
# 3 -0.006689 -0.002565 0.010619 0.000000 0.002822 0.000000
# 4 0.000000 0.000000 0.000000 0.035781 0.000000 0.006522
# 5 -0.002081 -0.004050 0.002822 0.000000 0.031591 0.000000
# 6 0.000000 0.000000 0.000000 0.006522 0.000000 0.033276
#
#
# Mechanical properties :
#
#
# Convention : Reuss Voigt Hill
#
# Bulk Modulus (GPa) = 34.31084 63.32772 48.81928
# Shear Modulus (GPa) = 25.15335 30.41927 27.78631
#
# Velocity S-wave (km/s) = 3.58633 3.94391 3.76937
# Velocity P-wave (km/s) = 5.89011 7.28841 6.62625
#
# Compressibility (1/GPa) = 0.02914531
#
# Stress axis : x y z
#
# Youngs Moduli (GPa) = 70.73982 29.38920 94.17229
#
# Poissons Ratio (x) = 0.16350 0.62995
# Poissons Ratio (y) = 0.39355 0.24158
# Poissons Ratio (z) = 0.47320 0.07539
#
# Static dielectric constant tensor:
#      x y z
#    x 3.754900 0.000000 0.130400 
#    y 0.000000 3.343710 0.000000 
#    z 0.130400 0.000000 3.782820 
# 
# 
# High freq. dielectric constant tensor:
#      x y z
#    x 1.771450 0.000000 0.005270 
#    y 0.000000 1.740170 0.000000 
#    z 0.005270 0.000000 1.774060 
# 
# From -- ./inp_files/49282.got.cif
#   From: 2010.06.25/outbox.cif.g09.slc.cpg/sg11_25_cif.got.tgz:49282.got - 2010.06.27 23:14:04.
