data_PCOD8074478
_publ_section_title
;
Structure prediction by ZEFSAII (Michael W. Deem and Ramdas Pophale) SiO2 
 PCOD8074478
Probable space group: P 21/M
;
_chemical_formula_sum "Si O2"
_cell_formula_units_Z 28
_cell_length_a 24.537491
_cell_length_b 9.479452
_cell_length_c 8.879934
_cell_angle_alpha 90.000000
_cell_angle_beta 133.352131
_cell_angle_gamma 90.000000
_cell_volume 1501.917963
_symmetry_space_group_name_H-M "P 21/M"
_symmetry_group_IT_number 11
_symmetry_cell_setting 'monoclinic'
loop_
_space_group_symop_operation_xyz
x,y,z
-x,1/2+y,-z
-x,-y,-z
x,1/2-y,z
loop_
_atom_site_type_symbol
_atom_site_label
_atom_site_fract_x
_atom_site_fract_y
_atom_site_fract_z
Si Si1 0.763284 0.917073 0.662245
Si Si2 0.623462 0.916277 0.597317
Si Si3 0.488899 0.910638 0.126857
Si Si4 0.654272 0.414743 0.950203
Si Si5 0.075587 0.406244 0.980435
Si Si6 0.944009 0.595038 0.700851
Si Si7 0.776445 0.582873 0.349001
O O1 0.771463 0.750000 0.670012
O O2 0.693926 0.966167 0.630825
O O3 0.752328 0.969586 0.470042
O O4 0.841280 0.974576 0.882952
O O5 0.628085 0.750000 0.645569
O O6 0.548242 0.955394 0.366162
O O7 0.621236 0.010294 0.741059
O O8 0.503659 0.750000 0.108591
O O9 0.405652 0.933884 0.030614
O O10 0.500000 0.000000 0.000000
O O11 0.669651 0.250000 0.946465
O O12 0.730300 0.493454 0.140504
O O13 0.072386 0.250000 0.903839
O O14 0.011704 0.495552 0.773867
O O15 0.059339 0.399971 0.126123
O O16 0.961907 0.750000 0.671538
O O17 0.863573 0.544925 0.485017
O O18 0.761609 0.750000 0.299279
#
# Coordination Sequence:
#
# PCOD8074478 Si02
#       7
#     4   4   4   4   4   4   4
#     4   8  15  29  51  76  98 126 172 216 245 292
#     4  10  20  36  56  75  99 137 176 203 240 300
#     4  10  22  38  58  82 105 131 166 207 249 296
#     4  11  23  36  50  76 109 134 164 209 255 295
#     4   8  13  23  41  67  98 127 156 201 256 296
#     4   8  14  24  41  68  98 127 163 203 244 297
#     4   9  17  32  53  74  99 135 174 209 248 299
#
# _framework density 18.64283
#
# number of rings (size 3 to 8) (size 9 to 14) (size 15 to 20)
#    0.000    2.857    0.000    3.429    0.000    3.429 
#    0.000    3.571    0.000    0.857    0.000    0.000 
#    0.000    0.000    0.000    0.000    0.000    0.000 
#
# Total GULP energy -347102.060197 kJ/mol
# GULP energy per Si atom -12396.502150 kJ/mol
# Density = 1.860040 g / cm^3
# Si number density = 18.642830 Si / 1000 Ang^3
#
#
#
# Elastic Constant Matrix: (Units=GPa)
#
#
# Indices 1 2 3 4 5 6 
#
# 1 27.9707 24.9437 32.3485 0.0000 9.3038 0.0000
# 2 24.9437 80.8589 65.6864 0.0000 3.8644 0.0000
# 3 32.3485 65.6864 124.7874 0.0000 14.9391 0.0000
# 4 0.0000 0.0000 0.0000 32.1849 0.0000 1.4866
# 5 9.3038 3.8644 14.9391 0.0000 32.1501 0.0000
# 6 0.0000 0.0000 0.0000 1.4866 0.0000 22.9318
#
#
#
# Elastic Compliance Matrix: (Units=1/GPa)
#
#
# Indices 1 2 3 4 5 6 
#
# 1 0.058875 -0.011106 -0.007980 0.000000 -0.011994 0.000000
# 2 -0.011106 0.023950 -0.010344 0.000000 0.005141 0.000000
# 3 -0.007980 -0.010344 0.015991 0.000000 -0.003878 0.000000
# 4 0.000000 0.000000 0.000000 0.031164 0.000000 -0.002020
# 5 -0.011994 0.005141 -0.003878 0.000000 0.035759 0.000000
# 6 0.000000 0.000000 0.000000 -0.002020 0.000000 0.043739
#
#
# Mechanical properties :
#
#
# Convention : Reuss Voigt Hill
#
# Bulk Modulus (GPa) = 25.02704 53.28604 39.15654
# Shear Modulus (GPa) = 17.75217 24.82924 21.29071
#
# Velocity S-wave (km/s) = 3.08916 3.65340 3.38306
# Velocity P-wave (km/s) = 5.11640 6.81477 6.02572
#
# Compressibility (1/GPa) = 0.03995679
#
# Stress axis : x y z
#
# Youngs Moduli (GPa) = 16.98528 41.75316 62.53412
#
# Poissons Ratio (x) = 0.46371 0.49902
# Poissons Ratio (y) = 0.18864 0.64683
# Poissons Ratio (z) = 0.13554 0.43188
#
# Static dielectric constant tensor:
#      x y z
#    x 3.398740 0.000000 0.342620 
#    y 0.000000 3.390780 0.000000 
#    z 0.342620 0.000000 3.412870 
# 
# 
# High freq. dielectric constant tensor:
#      x y z
#    x 1.709230 0.000000 0.025350 
#    y 0.000000 1.703380 0.000000 
#    z 0.025350 0.000000 1.723550 
# 
# From -- ./inp_files/28589.got.cif
#   From: 2010.06.25/outbox.cif.g09.slc.cpg/sg11_15_cif.got.tgz:28589.got - 2010.06.27 23:14:04.
