data_PCOD8074647
_publ_section_title
;
Structure prediction by ZEFSAII (Michael W. Deem and Ramdas Pophale) SiO2 
 PCOD8074647
Probable space group: P 21/M
;
_chemical_formula_sum "Si O2"
_cell_formula_units_Z 28
_cell_length_a 8.444550
_cell_length_b 9.745696
_cell_length_c 27.055434
_cell_angle_alpha 90.000000
_cell_angle_beta 39.435611
_cell_angle_gamma 90.000000
_cell_volume 1414.365516
_symmetry_space_group_name_H-M "P 21/M"
_symmetry_group_IT_number 11
_symmetry_cell_setting 'monoclinic'
loop_
_space_group_symop_operation_xyz
x,y,z
-x,1/2+y,-z
-x,-y,-z
x,1/2-y,z
loop_
_atom_site_type_symbol
_atom_site_label
_atom_site_fract_x
_atom_site_fract_y
_atom_site_fract_z
Si Si1 0.570730 0.096125 0.615303
Si Si2 0.246635 0.996182 0.326545
Si Si3 0.107298 0.593162 0.739455
Si Si4 0.155293 0.408207 0.925154
Si Si5 0.290812 0.595484 0.526232
Si Si6 0.277177 0.897556 0.214128
Si Si7 0.224713 0.599984 0.820010
O O1 0.458660 0.250000 0.643214
O O2 0.738129 0.077936 0.623937
O O3 0.734939 0.073202 0.526619
O O4 0.349735 0.988001 0.664058
O O5 0.266378 0.890364 0.276399
O O6 0.480851 0.098609 0.264313
O O7 0.982088 0.071818 0.385190
O O8 0.131862 0.750000 0.715529
O O9 0.068480 0.583605 0.807475
O O10 0.867993 0.526900 0.771804
O O11 0.059351 0.250000 0.945984
O O12 0.441296 0.413787 0.872928
O O13 0.131139 0.477401 0.877116
O O14 0.000000 0.500000 0.000000
O O15 0.500000 0.500000 0.500000
O O16 0.374421 0.750000 0.518314
O O17 0.172338 0.750000 0.220651
O O18 0.170494 0.750000 0.856959
#
# Coordination Sequence:
#
# PCOD8074647 Si02
#       7
#     4   4   4   4   4   4   4
#     4  10  21  37  57  79 107 144 185 231 280 329
#     4  10  20  36  58  81 105 140 186 232 275 327
#     4  10  21  36  56  83 113 146 184 225 271 323
#     4  10  21  37  59  86 114 145 181 221 267 321
#     4  11  24  38  53  77 109 146 186 231 282 331
#     4  10  21  36  57  84 111 141 179 223 270 322
#     4   9  19  36  58  82 109 142 181 225 270 321
#
# _framework density 19.796862000000001
#
# number of rings (size 3 to 8) (size 9 to 14) (size 15 to 20)
#    0.000    2.000    0.000    3.000    0.000   12.000 
#    0.000    0.714    0.000    0.000    0.000    0.000 
#    0.000    0.000    0.000    0.000    0.000    0.000 
#
# Total GULP energy -347091.980694 kJ/mol
# GULP energy per Si atom -12396.142168 kJ/mol
# Density = 1.975180 g / cm^3
# Si number density = 19.796862 Si / 1000 Ang^3
#
#
#
# Elastic Constant Matrix: (Units=GPa)
#
#
# Indices 1 2 3 4 5 6 
#
# 1 92.7841 51.2248 36.3718 0.0000 0.4124 0.0000
# 2 51.2248 166.9377 56.7936 0.0000 2.2095 0.0000
# 3 36.3718 56.7936 104.7566 0.0000 5.5993 0.0000
# 4 0.0000 0.0000 0.0000 25.2479 0.0000 1.0039
# 5 0.4124 2.2095 5.5993 0.0000 18.9396 0.0000
# 6 0.0000 0.0000 0.0000 1.0039 0.0000 29.6842
#
#
#
# Elastic Compliance Matrix: (Units=1/GPa)
#
#
# Indices 1 2 3 4 5 6 
#
# 1 0.013742 -0.003174 -0.003103 0.000000 0.000989 0.000000
# 2 -0.003174 0.008080 -0.003284 0.000000 0.000097 0.000000
# 3 -0.003103 -0.003284 0.012578 0.000000 -0.003268 0.000000
# 4 0.000000 0.000000 0.000000 0.039661 0.000000 -0.001341
# 5 0.000989 0.000097 -0.003268 0.000000 0.053733 0.000000
# 6 0.000000 0.000000 0.000000 -0.001341 0.000000 0.033733
#
#
# Mechanical properties :
#
#
# Convention : Reuss Voigt Hill
#
# Bulk Modulus (GPa) = 65.45227 72.58431 69.01829
# Shear Modulus (GPa) = 26.91898 29.44688 28.18293
#
# Velocity S-wave (km/s) = 3.69149 3.86093 3.77716
# Velocity P-wave (km/s) = 7.16263 7.52462 7.34585
#
# Compressibility (1/GPa) = 0.01527831
#
# Stress axis : x y z
#
# Youngs Moduli (GPa) = 72.76847 123.76076 79.50135
#
# Poissons Ratio (x) = 0.39283 0.24672
# Poissons Ratio (y) = 0.23097 0.26106
# Poissons Ratio (z) = 0.22583 0.40640
#
# Static dielectric constant tensor:
#      x y z
#    x 3.550300 0.000000 0.144230 
#    y 0.000000 3.740010 0.000000 
#    z 0.144230 0.000000 3.496960 
# 
# 
# High freq. dielectric constant tensor:
#      x y z
#    x 1.764650 0.000000 0.010880 
#    y 0.000000 1.784760 0.000000 
#    z 0.010880 0.000000 1.760630 
# 
# From -- ./inp_files/70822.got.cif
#   From: 2010.06.25/outbox.cif.g09.slc.cpg/sg11_36_cif.got.tgz:70822.got - 2010.06.27 23:14:04.
