data_PCOD8074742
_publ_section_title
;
Structure prediction by ZEFSAII (Michael W. Deem and Ramdas Pophale) SiO2 
 PCOD8074742
Probable space group: P 21/M
;
_chemical_formula_sum "Si O2"
_cell_formula_units_Z 32
_cell_length_a 7.218637
_cell_length_b 9.021897
_cell_length_c 25.715142
_cell_angle_alpha 90.000000
_cell_angle_beta 89.997669
_cell_angle_gamma 90.000000
_cell_volume 1674.719180
_symmetry_space_group_name_H-M "P 21/M"
_symmetry_group_IT_number 11
_symmetry_cell_setting 'monoclinic'
loop_
_space_group_symop_operation_xyz
x,y,z
-x,1/2+y,-z
-x,-y,-z
x,1/2-y,z
loop_
_atom_site_type_symbol
_atom_site_label
_atom_site_fract_x
_atom_site_fract_y
_atom_site_fract_z
Si Si1 0.260542 0.924440 0.731284
Si Si2 0.888671 0.418762 0.741261
Si Si3 0.539604 0.419246 0.806080
Si Si4 0.934234 0.578589 0.448254
Si Si5 0.199609 0.924537 0.994692
Si Si6 0.263642 0.579927 0.368863
Si Si7 0.513695 0.576807 0.075653
Si Si8 0.633282 0.425152 0.383415
O O1 0.260332 0.750000 0.732136
O O2 0.294960 0.982251 0.672705
O O3 0.420545 0.978459 0.768968
O O4 0.065687 0.981569 0.752674
O O5 0.955401 0.250000 0.733649
O O6 0.754520 0.435678 0.790633
O O7 0.783127 0.472282 0.689465
O O8 0.473341 0.250000 0.798988
O O9 0.518620 0.471761 0.865174
O O10 0.895931 0.750000 0.460084
O O11 0.746261 0.502683 0.429243
O O12 0.000000 0.500000 0.500000
O O13 0.084633 0.556316 0.403674
O O14 0.169860 0.750000 0.988082
O O15 0.308344 0.986769 0.944589
O O16 0.325500 0.963159 0.044829
O O17 0.000000 0.000000 0.000000
O O18 0.332596 0.750000 0.369585
O O19 0.421616 0.473372 0.390989
O O20 0.558915 0.750000 0.069981
O O21 0.651657 0.250000 0.389381
#
# Coordination Sequence:
#
# PCOD8074742 Si02
#       8
#     4   4   4   4   4   4   4   4
#     4  11  23  36  55  86 120 153 189 234 289 347
#     4  10  20  36  59  85 112 151 197 236 283 343
#     4  10  21  38  60  84 115 153 196 242 286 339
#     4  11  24  42  63  87 116 149 190 242 292 344
#     4  10  20  36  60  87 118 155 198 242 292 347
#     4  10  21  38  62  87 112 147 193 237 281 339
#     4   9  20  38  58  84 116 153 197 244 289 340
#     4  11  23  38  60  87 117 152 189 232 289 349
#
# _framework density 19.107680999999999
#
# number of rings (size 3 to 8) (size 9 to 14) (size 15 to 20)
#    0.000    1.750    2.500    1.500    0.000    5.500 
#    0.000    2.500    0.000    0.000    0.000    0.000 
#    0.000    0.000    0.000    0.000    0.000    0.000 
#
# Total GULP energy -396957.129862 kJ/mol
# GULP energy per Si atom -12404.910308 kJ/mol
# Density = 1.906419 g / cm^3
# Si number density = 19.107681 Si / 1000 Ang^3
#
#
#
# Elastic Constant Matrix: (Units=GPa)
#
#
# Indices 1 2 3 4 5 6 
#
# 1 79.8708 33.2482 -3.2124 0.0000 3.2249 0.0000
# 2 33.2482 71.6535 21.2590 0.0000 2.7099 0.0000
# 3 -3.2124 21.2590 63.7685 0.0000 0.8686 0.0000
# 4 0.0000 0.0000 0.0000 30.0810 0.0000 3.0682
# 5 3.2249 2.7099 0.8686 0.0000 23.0201 0.0000
# 6 0.0000 0.0000 0.0000 3.0682 0.0000 34.0116
#
#
#
# Elastic Compliance Matrix: (Units=1/GPa)
#
#
# Indices 1 2 3 4 5 6 
#
# 1 0.016314 -0.008619 0.003714 0.000000 -0.001411 0.000000
# 2 -0.008619 0.020102 -0.007124 0.000000 -0.000890 0.000000
# 3 0.003714 -0.007124 0.018249 0.000000 -0.000370 0.000000
# 4 0.000000 0.000000 0.000000 0.033552 0.000000 -0.003027
# 5 -0.001411 -0.000890 -0.000370 0.000000 0.043757 0.000000
# 6 0.000000 0.000000 0.000000 -0.003027 0.000000 0.029675
#
#
# Mechanical properties :
#
#
# Convention : Reuss Voigt Hill
#
# Bulk Modulus (GPa) = 32.66978 35.32028 33.99503
# Shear Modulus (GPa) = 25.52210 28.35576 26.93893
#
# Velocity S-wave (km/s) = 3.65869 3.85645 3.75887
# Velocity P-wave (km/s) = 5.91463 6.19311 6.05547
#
# Compressibility (1/GPa) = 0.03060933
#
# Stress axis : x y z
#
# Youngs Moduli (GPa) = 61.29577 49.74510 54.79816
#
# Poissons Ratio (x) = 0.42874 -0.20354
# Poissons Ratio (y) = 0.52829 0.39037
# Poissons Ratio (z) = -0.22767 0.35437
#
# Static dielectric constant tensor:
#      x y z
#    x 3.469760 0.000000 -0.075420 
#    y 0.000000 3.506800 0.000000 
#    z -0.075420 0.000000 3.569920 
# 
# 
# High freq. dielectric constant tensor:
#      x y z
#    x 1.748900 0.000000 -0.001710 
#    y 0.000000 1.744110 0.000000 
#    z -0.001710 0.000000 1.742000 
# 
# From -- ./inp_files/72581.got.cif
#   From: 2010.06.25/outbox.cif.g09.slc.cpg/sg11_37_cif.got.tgz:72581.got - 2010.06.27 23:14:04.
