data_PCOD8074008
_publ_section_title
;
Structure prediction by ZEFSAII (Michael W. Deem and Ramdas Pophale) SiO2 
 PCOD8074008
Probable space group: P 21/M
;
_chemical_formula_sum "Si O2"
_cell_formula_units_Z 32
_cell_length_a 16.236340
_cell_length_b 13.456314
_cell_length_c 12.806473
_cell_angle_alpha 90.000000
_cell_angle_beta 144.985274
_cell_angle_gamma 90.000000
_cell_volume 1605.441397
_symmetry_space_group_name_H-M "P 21/M"
_symmetry_group_IT_number 11
_symmetry_cell_setting 'monoclinic'
loop_
_space_group_symop_operation_xyz
x,y,z
-x,1/2+y,-z
-x,-y,-z
x,1/2-y,z
loop_
_atom_site_type_symbol
_atom_site_label
_atom_site_fract_x
_atom_site_fract_y
_atom_site_fract_z
Si Si1 0.941141 0.855812 0.945694
Si Si2 0.831429 0.365484 0.101521
Si Si3 0.641017 0.134482 0.104956
Si Si4 0.726121 0.515511 0.827434
Si Si5 0.613551 0.514582 0.251879
Si Si6 0.871607 0.564141 0.653494
Si Si7 0.494832 0.142150 0.285382
Si Si8 0.762560 0.097766 0.676350
O O1 0.884002 0.750000 0.927205
O O2 0.886202 0.941590 0.967272
O O3 0.881560 0.866384 0.766040
O O4 0.115590 0.850853 0.125442
O O5 0.840993 0.250000 0.077578
O O6 0.761148 0.375837 0.141483
O O7 0.988066 0.416610 0.271108
O O8 0.734619 0.425793 0.918528
O O9 0.628385 0.250000 0.128022
O O10 0.689387 0.061527 0.249229
O O11 0.485673 0.097032 0.905266
O O12 0.627419 0.605217 0.762641
O O13 0.671812 0.476268 0.658222
O O14 0.730658 0.581088 0.435256
O O15 0.514757 0.444174 0.221647
O O16 0.850978 0.452109 0.673086
O O17 0.448660 0.250000 0.189816
O O18 0.642319 0.166537 0.500514
#
# Coordination Sequence:
#
# PCOD8074008 Si02
#       8
#     4   4   4   4   4   4   4   4
#     4  11  20  34  57  85 120 159 198 237 282 342
#     4  11  21  36  61  87 116 154 196 240 290 349
#     4  10  22  41  63  88 114 149 194 242 298 353
#     4  11  20  37  53  84 120 156 197 241 288 332
#     4  10  22  40  64  86 115 151 189 248 296 348
#     4  10  20  36  57  86 114 152 194 238 288 340
#     4  11  22  36  57  85 117 155 198 241 288 345
#     4  10  20  35  55  80 118 159 199 236 280 337
#
# _framework density 19.932213000000001
#
# number of rings (size 3 to 8) (size 9 to 14) (size 15 to 20)
#    0.000    1.500    3.750    2.625    0.000    2.000 
#    0.000    0.000    0.000    0.000    0.000    0.000 
#    0.000    0.000    0.000    0.000    0.000    0.000 
#
# Total GULP energy -396439.076944 kJ/mol
# GULP energy per Si atom -12388.721155 kJ/mol
# Density = 1.988685 g / cm^3
# Si number density = 19.932213 Si / 1000 Ang^3
#
#
#
# Elastic Constant Matrix: (Units=GPa)
#
#
# Indices 1 2 3 4 5 6 
#
# 1 99.6682 31.6034 17.7912 0.0000 4.9583 0.0000
# 2 31.6034 84.7033 15.7699 0.0000 6.6974 0.0000
# 3 17.7912 15.7699 78.3721 0.0000 -0.8868 0.0000
# 4 0.0000 0.0000 0.0000 3.1154 0.0000 -6.9016
# 5 4.9583 6.6974 -0.8868 0.0000 23.6035 0.0000
# 6 0.0000 0.0000 0.0000 -6.9016 0.0000 21.6088
#
#
#
# Elastic Compliance Matrix: (Units=1/GPa)
#
#
# Indices 1 2 3 4 5 6 
#
# 1 0.011674 -0.003893 -0.001883 0.000000 -0.001418 0.000000
# 2 -0.003893 0.013873 -0.001944 0.000000 -0.003192 0.000000
# 3 -0.001883 -0.001944 0.013595 0.000000 0.001458 0.000000
# 4 0.000000 0.000000 0.000000 1.097574 0.000000 0.350553
# 5 -0.001418 -0.003192 0.001458 0.000000 0.043625 0.000000
# 6 0.000000 0.000000 0.000000 0.350553 0.000000 0.158240
#
#
# Mechanical properties :
#
#
# Convention : Reuss Voigt Hill
#
# Bulk Modulus (GPa) = 42.19004 43.67472 42.93238
# Shear Modulus (GPa) = 3.67128 22.83747 13.25438
#
# Velocity S-wave (km/s) = 1.35863 3.38858 2.58150
# Velocity P-wave (km/s) = 4.86558 6.10484 5.52010
#
# Compressibility (1/GPa) = 0.02370228
#
# Stress axis : x y z
#
# Youngs Moduli (GPa) = 85.65753 72.08401 73.55805
#
# Poissons Ratio (x) = 0.28063 0.13850
# Poissons Ratio (y) = 0.33347 0.14298
# Poissons Ratio (z) = 0.16128 0.14012
#
# Static dielectric constant tensor:
#      x y z
#    x 3.667790 0.000000 0.006490 
#    y 0.000000 3.634880 0.000000 
#    z 0.006490 0.000000 3.512710 
# 
# 
# High freq. dielectric constant tensor:
#      x y z
#    x 1.776180 0.000000 0.003070 
#    y 0.000000 1.780740 0.000000 
#    z 0.003070 0.000000 1.760450 
# 
# From -- ./inp_files/39673.got.cif
#   From: 2010.06.25/outbox.cif.g09.slc.cpg/sg11_20_cif.got.tgz:39673.got - 2010.06.27 23:14:04.
