data_PCOD8074694
_publ_section_title
;
Structure prediction by ZEFSAII (Michael W. Deem and Ramdas Pophale) SiO2 
 PCOD8074694
Probable space group: P 21/M
;
_chemical_formula_sum "Si O2"
_cell_formula_units_Z 28
_cell_length_a 21.013379
_cell_length_b 9.185300
_cell_length_c 15.377922
_cell_angle_alpha 90.000000
_cell_angle_beta 27.730042
_cell_angle_gamma 90.000000
_cell_volume 1381.101994
_symmetry_space_group_name_H-M "P 21/M"
_symmetry_group_IT_number 11
_symmetry_cell_setting 'monoclinic'
loop_
_space_group_symop_operation_xyz
x,y,z
-x,1/2+y,-z
-x,-y,-z
x,1/2-y,z
loop_
_atom_site_type_symbol
_atom_site_label
_atom_site_fract_x
_atom_site_fract_y
_atom_site_fract_z
Si Si1 0.937000 0.421121 0.158938
Si Si2 0.390033 0.923964 0.195622
Si Si3 0.363493 0.577743 0.424610
Si Si4 0.864144 0.088178 0.761036
Si Si5 0.817629 0.587054 0.658058
Si Si6 0.853000 0.912841 0.945604
Si Si7 0.544674 0.586414 0.362819
O O1 0.935520 0.250000 0.141077
O O2 0.785233 0.481101 0.364974
O O3 0.031656 0.459286 0.126187
O O4 0.000000 0.500000 0.000000
O O5 0.396570 0.750000 0.177705
O O6 0.406930 0.975453 0.275435
O O7 0.242262 0.983840 0.344732
O O8 0.500000 0.000000 0.000000
O O9 0.355686 0.750000 0.430101
O O10 0.477989 0.521683 0.354640
O O11 0.800823 0.250000 0.832743
O O12 0.021707 0.094314 0.545761
O O13 0.781129 0.984118 0.795598
O O14 0.850280 0.029852 0.873888
O O15 0.753426 0.750000 0.732779
O O16 0.882284 0.750000 0.873753
O O17 0.707023 0.918314 0.167591
O O18 0.500000 0.500000 0.500000
O O19 0.489435 0.750000 0.439744
#
# Coordination Sequence:
#
# PCOD8074694 Si02
#       7
#     4   4   4   4   4   4   4
#     4  10  20  36  58  85 113 149 193 241 297 358
#     4  11  23  39  60  86 118 160 208 252 295 358
#     4   9  20  38  59  81 116 159 194 232 298 363
#     4  10  21  36  58  87 114 147 193 242 293 351
#     4  10  21  38  58  82 117 154 190 240 297 349
#     4  10  21  35  56  83 113 147 190 238 295 355
#     4  10  21  38  58  83 113 152 192 236 294 356
#
# _framework density 20.273665000000001
#
# number of rings (size 3 to 8) (size 9 to 14) (size 15 to 20)
#    0.000    2.000    0.000    3.000    2.000    4.000 
#    0.000    2.857    0.000    0.000    0.000    0.000 
#    0.000    0.000    0.000    0.000    0.000    0.000 
#
# Total GULP energy -347175.217335 kJ/mol
# GULP energy per Si atom -12399.114905 kJ/mol
# Density = 2.022752 g / cm^3
# Si number density = 20.273665 Si / 1000 Ang^3
#
#
#
# Elastic Constant Matrix: (Units=GPa)
#
#
# Indices 1 2 3 4 5 6 
#
# 1 110.4258 36.4569 25.1625 0.0000 13.6227 0.0000
# 2 36.4569 89.9023 25.2405 0.0000 19.0853 0.0000
# 3 25.1625 25.2405 68.7736 0.0000 16.0229 0.0000
# 4 0.0000 0.0000 0.0000 30.2934 0.0000 7.8529
# 5 13.6227 19.0853 16.0229 0.0000 41.6735 0.0000
# 6 0.0000 0.0000 0.0000 7.8529 0.0000 33.3231
#
#
#
# Elastic Compliance Matrix: (Units=1/GPa)
#
#
# Indices 1 2 3 4 5 6 
#
# 1 0.010902 -0.003516 -0.002464 0.000000 -0.001006 0.000000
# 2 -0.003516 0.014284 -0.002965 0.000000 -0.004252 0.000000
# 3 -0.002464 -0.002965 0.017603 0.000000 -0.004605 0.000000
# 4 0.000000 0.000000 0.000000 0.035158 0.000000 -0.008285
# 5 -0.001006 -0.004252 -0.004605 0.000000 0.028043 0.000000
# 6 0.000000 0.000000 0.000000 -0.008285 0.000000 0.031962
#
#
# Mechanical properties :
#
#
# Convention : Reuss Voigt Hill
#
# Bulk Modulus (GPa) = 40.16194 49.20239 44.68217
# Shear Modulus (GPa) = 30.46140 33.20746 31.83443
#
# Velocity S-wave (km/s) = 3.88043 4.05156 3.96692
# Velocity P-wave (km/s) = 6.31901 6.79770 6.56272
#
# Compressibility (1/GPa) = 0.02489920
#
# Stress axis : x y z
#
# Youngs Moduli (GPa) = 91.72506 70.00801 56.80808
#
# Poissons Ratio (x) = 0.24612 0.13998
# Poissons Ratio (y) = 0.32246 0.16846
# Poissons Ratio (z) = 0.22602 0.20760
#
# Static dielectric constant tensor:
#      x y z
#    x 4.290260 0.000000 -0.404280 
#    y 0.000000 3.467490 0.000000 
#    z -0.404280 0.000000 4.038770 
# 
# 
# High freq. dielectric constant tensor:
#      x y z
#    x 1.806160 0.000000 -0.001700 
#    y 0.000000 1.778980 0.000000 
#    z -0.001700 0.000000 1.790490 
# 
# From -- ./inp_files/51967.got.cif
#   From: 2010.06.25/outbox.cif.g09.slc.cpg/sg11_26_cif.got.tgz:51967.got - 2010.06.27 23:14:04.
