data_PCOD8074099
_publ_section_title
;
Structure prediction by ZEFSAII (Michael W. Deem and Ramdas Pophale) SiO2 
 PCOD8074099
Probable space group: P 21/M
;
_chemical_formula_sum "Si O2"
_cell_formula_units_Z 28
_cell_length_a 18.273380
_cell_length_b 9.252700
_cell_length_c 14.648895
_cell_angle_alpha 90.000000
_cell_angle_beta 146.149346
_cell_angle_gamma 90.000000
_cell_volume 1379.656148
_symmetry_space_group_name_H-M "P 21/M"
_symmetry_group_IT_number 11
_symmetry_cell_setting 'monoclinic'
loop_
_space_group_symop_operation_xyz
x,y,z
-x,1/2+y,-z
-x,-y,-z
x,1/2-y,z
loop_
_atom_site_type_symbol
_atom_site_label
_atom_site_fract_x
_atom_site_fract_y
_atom_site_fract_z
Si Si1 0.001198 0.418485 0.828903
Si Si2 0.923554 0.411888 0.549684
Si Si3 0.806161 0.587853 0.277222
Si Si4 0.565109 0.419384 0.982693
Si Si5 0.517310 0.582092 0.303647
Si Si6 0.265255 0.580431 0.153167
Si Si7 0.267888 0.916934 0.363005
O O1 0.037642 0.250000 0.863137
O O2 0.947970 0.471693 0.675929
O O3 0.886263 0.452406 0.782312
O O4 0.131032 0.503551 0.988364
O O5 0.863285 0.250000 0.489885
O O6 0.822227 0.518607 0.394580
O O7 0.058965 0.408929 0.636062
O O8 0.749427 0.750000 0.231218
O O9 0.708531 0.488710 0.117162
O O10 0.578478 0.250000 0.017163
O O11 0.484433 0.447260 0.806434
O O12 0.500000 0.500000 0.000000
O O13 0.530456 0.750000 0.340080
O O14 0.383003 0.523714 0.210918
O O15 0.643776 0.504877 0.475318
O O16 0.240963 0.750000 0.115757
O O17 0.304349 0.541622 0.297420
O O18 0.295133 0.750000 0.411948
#
# Coordination Sequence:
#
# PCOD8074099 Si02
#       7
#     4   4   4   4   4   4   4
#     4  10  21  36  57  87 119 152 194 238 288 346
#     4   9  19  35  55  81 115 152 190 237 285 338
#     4  10  20  35  56  82 111 148 195 237 285 342
#     4  11  24  40  58  82 114 149 191 240 291 348
#     4  10  23  41  61  86 116 153 199 242 288 347
#     4  10  21  39  61  87 119 155 195 241 289 344
#     4  10  22  38  59  89 122 155 194 238 291 346
#
# _framework density 20.294910999999999
#
# number of rings (size 3 to 8) (size 9 to 14) (size 15 to 20)
#    0.000    2.000    0.000    2.571    2.000    4.000 
#    0.000    0.000    0.000    0.000    0.000    0.000 
#    0.000    0.000    0.000    0.000    0.000    0.000 
#
# Total GULP energy -347268.575182 kJ/mol
# GULP energy per Si atom -12402.449114 kJ/mol
# Density = 2.024872 g / cm^3
# Si number density = 20.294911 Si / 1000 Ang^3
#
#
#
# Elastic Constant Matrix: (Units=GPa)
#
#
# Indices 1 2 3 4 5 6 
#
# 1 80.6276 31.0575 30.8354 0.0000 -14.7450 0.0000
# 2 31.0575 79.5558 39.1879 0.0000 -8.7997 0.0000
# 3 30.8354 39.1879 70.8347 0.0000 -6.1118 0.0000
# 4 0.0000 0.0000 0.0000 42.8530 0.0000 2.7874
# 5 -14.7450 -8.7997 -6.1118 0.0000 27.3044 0.0000
# 6 0.0000 0.0000 0.0000 2.7874 0.0000 26.5057
#
#
#
# Elastic Compliance Matrix: (Units=1/GPa)
#
#
# Indices 1 2 3 4 5 6 
#
# 1 0.016835 -0.003425 -0.004838 0.000000 0.006904 0.000000
# 2 -0.003425 0.018309 -0.008452 0.000000 0.002159 0.000000
# 3 -0.004838 -0.008452 0.020841 0.000000 -0.000671 0.000000
# 4 0.000000 0.000000 0.000000 0.023496 0.000000 -0.002471
# 5 0.006904 0.002159 -0.000671 0.000000 0.040898 0.000000
# 6 0.000000 0.000000 0.000000 -0.002471 0.000000 0.037988
#
#
# Mechanical properties :
#
#
# Convention : Reuss Voigt Hill
#
# Bulk Modulus (GPa) = 44.33522 48.13106 46.23314
# Shear Modulus (GPa) = 25.08586 27.99510 26.54048
#
# Velocity S-wave (km/s) = 3.51959 3.71808 3.62019
# Velocity P-wave (km/s) = 6.19755 6.49611 6.34858
#
# Compressibility (1/GPa) = 0.02255543
#
# Stress axis : x y z
#
# Youngs Moduli (GPa) = 59.40012 54.61789 47.98209
#
# Poissons Ratio (x) = 0.18709 0.23212
# Poissons Ratio (y) = 0.20347 0.40553
# Poissons Ratio (z) = 0.28736 0.46161
#
# Static dielectric constant tensor:
#      x y z
#    x 3.848400 0.000000 -0.098640 
#    y 0.000000 3.805310 0.000000 
#    z -0.098640 0.000000 3.687630 
# 
# 
# High freq. dielectric constant tensor:
#      x y z
#    x 1.801380 0.000000 -0.004440 
#    y 0.000000 1.788640 0.000000 
#    z -0.004440 0.000000 1.796350 
# 
# From -- ./inp_files/54615.got.cif
#   From: 2010.06.25/outbox.cif.g09.slc.cpg/sg11_28_cif.got.tgz:54615.got - 2010.06.27 23:14:04.
