data_PCOD8074147
_publ_section_title
;
Structure prediction by ZEFSAII (Michael W. Deem and Ramdas Pophale) SiO2 
 PCOD8074147
Probable space group: P 21/M
;
_chemical_formula_sum "Si O2"
_cell_formula_units_Z 24
_cell_length_a 18.843307
_cell_length_b 8.800357
_cell_length_c 23.181611
_cell_angle_alpha 90.000000
_cell_angle_beta 161.838335
_cell_angle_gamma 90.000000
_cell_volume 1198.220606
_symmetry_space_group_name_H-M "P 21/M"
_symmetry_group_IT_number 11
_symmetry_cell_setting 'monoclinic'
loop_
_space_group_symop_operation_xyz
x,y,z
-x,1/2+y,-z
-x,-y,-z
x,1/2-y,z
loop_
_atom_site_type_symbol
_atom_site_label
_atom_site_fract_x
_atom_site_fract_y
_atom_site_fract_z
Si Si1 0.015667 0.925179 0.349556
Si Si2 0.066566 0.578172 0.889544
Si Si3 0.656419 0.077244 0.002938
Si Si4 0.330144 0.071234 0.507696
Si Si5 0.184032 0.070130 0.100132
Si Si6 0.170869 0.428418 0.674532
O O1 0.086962 0.750000 0.410764
O O2 0.900935 0.993357 0.318749
O O3 0.232621 0.020373 0.495058
O O4 0.822211 0.947164 0.153111
O O5 0.023811 0.750000 0.878327
O O6 0.845029 0.526722 0.679844
O O7 0.301315 0.573796 0.033269
O O8 0.112095 0.472064 0.979347
O O9 0.710770 0.250000 0.067027
O O10 0.414686 0.021103 0.839159
O O11 0.368811 0.250000 0.538770
O O12 0.572651 0.990134 0.689259
O O13 0.185774 0.250000 0.106730
O O14 0.000000 0.000000 0.000000
O O15 0.150163 0.250000 0.658972
O O16 0.000000 0.500000 0.500000
#
# Coordination Sequence:
#
# PCOD8074147 Si02
#       6
#     4   4   4   4   4   4
#     4  10  20  35  56  85 117 151 199 251 297 350
#     4   9  20  40  65  92 122 160 207 253 303 362
#     4   9  19  37  58  81 112 156 202 243 296 356
#     4  10  22  42  67  92 123 164 206 249 304 365
#     4  12  26  43  66  95 127 160 198 247 304 366
#     4  10  22  35  50  80 117 155 201 247 295 348
#
# _framework density 20.029700999999999
#
# number of rings (size 3 to 8) (size 9 to 14) (size 15 to 20)
#    0.000    2.000    0.000    4.000    2.333    6.000 
#    0.000    0.000    0.000    0.000    0.000    0.000 
#    0.000    0.000    0.000    0.000    0.000    0.000 
#
# Total GULP energy -297356.154398 kJ/mol
# GULP energy per Si atom -12389.839767 kJ/mol
# Density = 1.998411 g / cm^3
# Si number density = 20.029701 Si / 1000 Ang^3
#
#
#
# Elastic Constant Matrix: (Units=GPa)
#
#
# Indices 1 2 3 4 5 6 
#
# 1 105.9345 34.7960 37.7391 0.0000 12.5900 0.0000
# 2 34.7960 75.5390 32.0608 0.0000 2.7320 0.0000
# 3 37.7391 32.0608 93.2587 0.0000 15.8405 0.0000
# 4 0.0000 0.0000 0.0000 36.4969 0.0000 -1.4977
# 5 12.5900 2.7320 15.8405 0.0000 33.6183 0.0000
# 6 0.0000 0.0000 0.0000 -1.4977 0.0000 34.1845
#
#
#
# Elastic Compliance Matrix: (Units=1/GPa)
#
#
# Indices 1 2 3 4 5 6 
#
# 1 0.012248 -0.004261 -0.003012 0.000000 -0.002821 0.000000
# 2 -0.004261 0.017040 -0.004532 0.000000 0.002347 0.000000
# 3 -0.003012 -0.004532 0.014398 0.000000 -0.005288 0.000000
# 4 0.000000 0.000000 0.000000 0.027449 0.000000 0.001203
# 5 -0.002821 0.002347 -0.005288 0.000000 0.033103 0.000000
# 6 0.000000 0.000000 0.000000 0.001203 0.000000 0.029306
#
#
# Mechanical properties :
#
#
# Convention : Reuss Voigt Hill
#
# Bulk Modulus (GPa) = 49.81472 53.76934 51.79203
# Shear Modulus (GPa) = 30.51641 32.20237 31.35939
#
# Velocity S-wave (km/s) = 3.90751 4.01400 3.96112
# Velocity P-wave (km/s) = 6.72924 6.95601 6.84356
#
# Compressibility (1/GPa) = 0.02007439
#
# Stress axis : x y z
#
# Youngs Moduli (GPa) = 81.64671 58.68613 69.45388
#
# Poissons Ratio (x) = 0.25008 0.20921
# Poissons Ratio (y) = 0.34792 0.31478
# Poissons Ratio (z) = 0.24594 0.26597
#
# Static dielectric constant tensor:
#      x y z
#    x 3.843880 0.000000 0.209100 
#    y 0.000000 3.444370 0.000000 
#    z 0.209100 0.000000 3.712970 
# 
# 
# High freq. dielectric constant tensor:
#      x y z
#    x 1.788340 0.000000 0.013630 
#    y 0.000000 1.779120 0.000000 
#    z 0.013630 0.000000 1.780410 
# 
# From -- ./inp_files/69536.got.cif
#   From: 2010.06.25/outbox.cif.g09.slc.cpg/sg11_35_cif.got.tgz:69536.got - 2010.06.27 23:14:04.
