data_PCOD8074477
_publ_section_title
;
Structure prediction by ZEFSAII (Michael W. Deem and Ramdas Pophale) SiO2 
 PCOD8074477
Probable space group: P 21/M
;
_chemical_formula_sum "Si O2"
_cell_formula_units_Z 32
_cell_length_a 20.996011
_cell_length_b 9.057322
_cell_length_c 21.172956
_cell_angle_alpha 90.000000
_cell_angle_beta 26.842287
_cell_angle_gamma 90.000000
_cell_volume 1818.070236
_symmetry_space_group_name_H-M "P 21/M"
_symmetry_group_IT_number 11
_symmetry_cell_setting 'monoclinic'
loop_
_space_group_symop_operation_xyz
x,y,z
-x,1/2+y,-z
-x,-y,-z
x,1/2-y,z
loop_
_atom_site_type_symbol
_atom_site_label
_atom_site_fract_x
_atom_site_fract_y
_atom_site_fract_z
Si Si1 0.616473 0.581664 0.310963
Si Si2 0.068034 0.418248 0.381847
Si Si3 0.566513 0.078708 0.235623
Si Si4 0.657988 0.918238 0.408403
Si Si5 0.290451 0.925942 0.019613
Si Si6 0.006315 0.424674 0.297016
Si Si7 0.243131 0.081849 0.548173
Si Si8 0.379746 0.077618 0.066786
O O1 0.616885 0.750000 0.289310
O O2 0.658999 0.491225 0.210890
O O3 0.461507 0.537221 0.471478
O O4 0.716892 0.555847 0.284457
O O5 0.029230 0.250000 0.426523
O O6 0.001487 0.473102 0.374648
O O7 0.235450 0.444106 0.233007
O O8 0.000000 0.500000 0.500000
O O9 0.591566 0.250000 0.220124
O O10 0.401910 0.037627 0.387817
O O11 0.623213 0.023167 0.118386
O O12 0.596374 0.750000 0.467622
O O13 0.776340 0.935606 0.358405
O O14 0.286883 0.750000 0.031494
O O15 0.132637 0.988007 0.151356
O O16 0.370294 0.999605 0.007534
O O17 0.033981 0.250000 0.266379
O O18 0.859837 0.468517 0.394899
O O19 0.209569 0.250000 0.556916
O O20 0.413583 0.250000 0.026769
O O21 0.500000 0.000000 0.000000
#
# Coordination Sequence:
#
# PCOD8074477 Si02
#       8
#     4   4   4   4   4   4   4   4
#     4   9  15  24  43  69  96 128 163 201 249 298
#     4   9  20  36  53  74 100 128 161 201 243 289
#     4   9  19  33  49  73 103 130 164 209 251 295
#     4   8  15  27  42  65  98 130 162 203 248 294
#     4  10  20  36  56  75  98 134 171 202 246 299
#     4  10  21  36  51  73 103 131 163 204 246 292
#     4   9  17  31  50  72  99 131 164 201 245 292
#     4  10  21  37  55  78 105 132 165 205 246 292
#
# _framework density 17.60108
#
# number of rings (size 3 to 8) (size 9 to 14) (size 15 to 20)
#    0.000    2.750    0.000    3.000    0.000    7.500 
#    0.000    3.750    0.000    0.750    0.000    0.000 
#    0.000    0.000    0.000    0.000    0.000    0.000 
#
# Total GULP energy -396585.923314 kJ/mol
# GULP energy per Si atom -12393.310104 kJ/mol
# Density = 1.756102 g / cm^3
# Si number density = 17.601080 Si / 1000 Ang^3
#
#
#
# Elastic Constant Matrix: (Units=GPa)
#
#
# Indices 1 2 3 4 5 6 
#
# 1 125.8027 54.1554 66.7527 0.0000 14.2208 0.0000
# 2 54.1554 71.4632 42.4638 0.0000 10.1713 0.0000
# 3 66.7527 42.4638 74.7874 0.0000 18.5593 0.0000
# 4 0.0000 0.0000 0.0000 26.0487 0.0000 1.5629
# 5 14.2208 10.1713 18.5593 0.0000 23.9508 0.0000
# 6 0.0000 0.0000 0.0000 1.5629 0.0000 34.4392
#
#
#
# Elastic Compliance Matrix: (Units=1/GPa)
#
#
# Indices 1 2 3 4 5 6 
#
# 1 0.016560 -0.005669 -0.012033 0.000000 0.001900 0.000000
# 2 -0.005669 0.023062 -0.007972 0.000000 -0.000250 0.000000
# 3 -0.012033 -0.007972 0.032221 0.000000 -0.014437 0.000000
# 4 0.000000 0.000000 0.000000 0.038495 0.000000 -0.001747
# 5 0.001900 -0.000250 -0.014437 0.000000 0.051918 0.000000
# 6 0.000000 0.000000 0.000000 -0.001747 0.000000 0.029116
#
#
# Mechanical properties :
#
#
# Convention : Reuss Voigt Hill
#
# Bulk Modulus (GPa) = 48.79566 66.53301 57.66434
# Shear Modulus (GPa) = 20.03598 24.13318 22.08458
#
# Velocity S-wave (km/s) = 3.37759 3.70688 3.54606
# Velocity P-wave (km/s) = 6.55699 7.49692 7.04265
#
# Compressibility (1/GPa) = 0.02049363
#
# Stress axis : x y z
#
# Youngs Moduli (GPa) = 60.38796 43.36097 31.03589
#
# Poissons Ratio (x) = 0.24583 0.37345
# Poissons Ratio (y) = 0.34236 0.24742
# Poissons Ratio (z) = 0.72664 0.34568
#
# Static dielectric constant tensor:
#      x y z
#    x 3.590880 0.000000 0.233140 
#    y 0.000000 3.311410 0.000000 
#    z 0.233140 0.000000 3.083010 
# 
# 
# High freq. dielectric constant tensor:
#      x y z
#    x 1.693640 0.000000 0.018660 
#    y 0.000000 1.688880 0.000000 
#    z 0.018660 0.000000 1.643340 
# 
# From -- ./inp_files/66435.got.cif
#   From: 2010.06.25/outbox.cif.g09.slc.cpg/sg11_34_cif.got.tgz:66435.got - 2010.06.27 23:14:04.
