data_PCOD8074845
_publ_section_title
;
Structure prediction by ZEFSAII (Michael W. Deem and Ramdas Pophale) SiO2 
 PCOD8074845
Probable space group: P 21/M
;
_chemical_formula_sum "Si O2"
_cell_formula_units_Z 32
_cell_length_a 28.815998
_cell_length_b 8.916914
_cell_length_c 23.014318
_cell_angle_alpha 90.000000
_cell_angle_beta 164.013570
_cell_angle_gamma 90.000000
_cell_volume 1628.641723
_symmetry_space_group_name_H-M "P 21/M"
_symmetry_group_IT_number 11
_symmetry_cell_setting 'monoclinic'
loop_
_space_group_symop_operation_xyz
x,y,z
-x,1/2+y,-z
-x,-y,-z
x,1/2-y,z
loop_
_atom_site_type_symbol
_atom_site_label
_atom_site_fract_x
_atom_site_fract_y
_atom_site_fract_z
Si Si1 0.152807 0.573121 0.843379
Si Si2 0.570646 0.914168 0.531400
Si Si3 0.168032 0.929089 0.727643
Si Si4 0.486977 0.070862 0.047513
Si Si5 0.185551 0.076202 0.369229
Si Si6 0.190317 0.074343 0.510447
Si Si7 0.961792 0.585677 0.011978
Si Si8 0.510350 0.429097 0.692710
O O1 0.154547 0.750000 0.851925
O O2 0.174336 0.525327 0.802680
O O3 0.975708 0.514465 0.655915
O O4 0.310440 0.506123 0.069425
O O5 0.486771 0.750000 0.428795
O O6 0.529557 0.992500 0.419879
O O7 0.500000 0.000000 0.500000
O O8 0.764525 0.901175 0.778473
O O9 0.169425 0.750000 0.720534
O O10 0.000000 0.000000 0.500000
O O11 0.326852 0.001573 0.887153
O O12 0.468044 0.250000 0.020752
O O13 0.654514 0.027016 0.283449
O O14 0.500000 0.000000 0.000000
O O15 0.171235 0.250000 0.336897
O O16 0.165592 0.045427 0.412931
O O17 0.364111 0.013804 0.560336
O O18 0.030322 0.997078 0.151123
O O19 0.226537 0.250000 0.567238
O O20 0.045047 0.750000 0.109126
O O21 0.000000 0.500000 0.000000
O O22 0.511267 0.250000 0.693919
#
# Coordination Sequence:
#
# PCOD8074845 Si02
#       8
#     4   4   4   4   4   4   4   4
#     4   9  19  35  59  89 119 152 195 244 292 354
#     4  10  22  37  56  81 114 149 194 246 298 359
#     4  11  22  39  64  94 128 165 205 250 302 360
#     4  12  25  42  65  92 126 164 207 256 307 363
#     4  10  20  36  60  87 119 158 199 245 300 364
#     4  10  21  38  63  94 122 155 201 247 300 364
#     4  11  22  38  58  84 116 152 197 250 303 363
#     4   9  17  34  55  80 114 151 192 241 293 349
#
# _framework density 19.648275999999999
#
# number of rings (size 3 to 8) (size 9 to 14) (size 15 to 20)
#    0.000    1.750    1.250    3.375    1.750    4.500 
#    0.000    0.625    0.000    2.250    0.000    0.000 
#    0.000    0.000    0.000    0.000    0.000    0.000 
#
# Total GULP energy -396767.728670 kJ/mol
# GULP energy per Si atom -12398.991521 kJ/mol
# Density = 1.960356 g / cm^3
# Si number density = 19.648276 Si / 1000 Ang^3
#
#
#
# Elastic Constant Matrix: (Units=GPa)
#
#
# Indices 1 2 3 4 5 6 
#
# 1 166.7701 62.9642 74.0194 0.0000 9.8550 0.0000
# 2 62.9642 86.4492 49.8998 0.0000 -5.7133 0.0000
# 3 74.0194 49.8998 154.4177 0.0000 -4.9942 0.0000
# 4 0.0000 0.0000 0.0000 31.6507 0.0000 -1.3838
# 5 9.8550 -5.7133 -4.9942 0.0000 34.2330 0.0000
# 6 0.0000 0.0000 0.0000 -1.3838 0.0000 28.6112
#
#
#
# Elastic Compliance Matrix: (Units=1/GPa)
#
#
# Indices 1 2 3 4 5 6 
#
# 1 0.009674 -0.005613 -0.002957 0.000000 -0.004153 0.000000
# 2 -0.005613 0.017577 -0.002856 0.000000 0.004133 0.000000
# 3 -0.002957 -0.002856 0.008870 0.000000 0.001669 0.000000
# 4 0.000000 0.000000 0.000000 0.031662 0.000000 0.001531
# 5 -0.004153 0.004133 0.001669 0.000000 0.031340 0.000000
# 6 0.000000 0.000000 0.000000 0.001531 0.000000 0.035025
#
#
# Mechanical properties :
#
#
# Convention : Reuss Voigt Hill
#
# Bulk Modulus (GPa) = 75.36578 86.82265 81.09421
# Shear Modulus (GPa) = 30.97433 33.61589 32.29511
#
# Velocity S-wave (km/s) = 3.97475 4.14077 4.05861
# Velocity P-wave (km/s) = 7.71398 8.19424 7.95774
#
# Compressibility (1/GPa) = 0.01326862
#
# Stress axis : x y z
#
# Youngs Moduli (GPa) = 103.37515 56.89198 112.73440
#
# Poissons Ratio (x) = 0.31933 0.33341
# Poissons Ratio (y) = 0.58024 0.32195
# Poissons Ratio (z) = 0.30573 0.16247
#
# Static dielectric constant tensor:
#      x y z
#    x 3.198530 0.000000 0.169500 
#    y 0.000000 3.959970 0.000000 
#    z 0.169500 0.000000 3.557520 
# 
# 
# High freq. dielectric constant tensor:
#      x y z
#    x 1.781840 0.000000 -0.002200 
#    y 0.000000 1.738830 0.000000 
#    z -0.002200 0.000000 1.781630 
# 
# From -- ./inp_files/67249.got.cif
#   From: 2010.06.25/outbox.cif.g09.slc.cpg/sg11_34_cif.got.tgz:67249.got - 2010.06.27 23:14:04.
