data_PCOD8074169
_publ_section_title
;
Structure prediction by ZEFSAII (Michael W. Deem and Ramdas Pophale) SiO2 
 PCOD8074169
Probable space group: P 21/M
;
_chemical_formula_sum "Si O2"
_cell_formula_units_Z 24
_cell_length_a 24.396395
_cell_length_b 8.891853
_cell_length_c 7.245586
_cell_angle_alpha 90.000000
_cell_angle_beta 52.999676
_cell_angle_gamma 90.000000
_cell_volume 1255.273071
_symmetry_space_group_name_H-M "P 21/M"
_symmetry_group_IT_number 11
_symmetry_cell_setting 'monoclinic'
loop_
_space_group_symop_operation_xyz
x,y,z
-x,1/2+y,-z
-x,-y,-z
x,1/2-y,z
loop_
_atom_site_type_symbol
_atom_site_label
_atom_site_fract_x
_atom_site_fract_y
_atom_site_fract_z
Si Si1 0.101783 0.572891 0.783517
Si Si2 0.631710 0.428578 0.979731
Si Si3 0.745171 0.429221 0.467436
Si Si4 0.500671 0.075204 0.697088
Si Si5 0.649709 0.074753 0.352112
Si Si6 0.006801 0.426889 0.687002
O O1 0.100638 0.750000 0.746213
O O2 0.178328 0.508626 0.658904
O O3 0.072598 0.491647 0.661137
O O4 0.059701 0.533671 0.054231
O O5 0.624362 0.250000 0.987985
O O6 0.558361 0.496347 0.058863
O O7 0.646788 0.495253 0.153669
O O8 0.695084 0.486479 0.730123
O O9 0.746982 0.250000 0.460932
O O10 0.713368 0.492265 0.339947
O O11 0.483478 0.250000 0.714514
O O12 0.578734 0.049945 0.612419
O O13 0.500000 0.000000 0.500000
O O14 0.662435 0.250000 0.298117
O O15 0.015806 0.250000 0.642865
O O16 0.000000 0.500000 0.500000
#
# Coordination Sequence:
#
# PCOD8074169 Si02
#       6
#     4   4   4   4   4   4
#     4   9  19  35  55  80 107 135 171 214 256 304
#     4   9  17  29  47  69  93 124 162 205 250 294
#     4   9  17  30  49  72  97 126 162 202 245 298
#     4   9  16  28  46  66  92 125 163 208 251 292
#     4   8  15  27  43  66  93 121 157 201 244 285
#     4  10  20  35  57  82 108 138 172 210 253 305
#
# _framework density 19.119346
#
# number of rings (size 3 to 8) (size 9 to 14) (size 15 to 20)
#    0.000    3.000    0.000    2.000    0.000    2.667 
#    0.000    5.833    0.000    9.000    0.000    0.000 
#    0.000    0.000    0.000    0.000    0.000    0.000 
#
# Total GULP energy -297386.456208 kJ/mol
# GULP energy per Si atom -12391.102342 kJ/mol
# Density = 1.907583 g / cm^3
# Si number density = 19.119346 Si / 1000 Ang^3
#
#
#
# Elastic Constant Matrix: (Units=GPa)
#
#
# Indices 1 2 3 4 5 6 
#
# 1 105.4418 21.8883 28.7791 0.0000 -14.3739 0.0000
# 2 21.8883 42.2657 14.3956 0.0000 -0.8878 0.0000
# 3 28.7791 14.3956 64.0526 0.0000 -8.1917 0.0000
# 4 0.0000 0.0000 0.0000 23.3505 0.0000 -2.6186
# 5 -14.3739 -0.8878 -8.1917 0.0000 36.7511 0.0000
# 6 0.0000 0.0000 0.0000 -2.6186 0.0000 23.9573
#
#
#
# Elastic Compliance Matrix: (Units=1/GPa)
#
#
# Indices 1 2 3 4 5 6 
#
# 1 0.012050 -0.004852 -0.003846 0.000000 0.003739 0.000000
# 2 -0.004852 0.027592 -0.004301 0.000000 -0.002190 0.000000
# 3 -0.003846 -0.004301 0.018632 0.000000 0.002545 0.000000
# 4 0.000000 0.000000 0.000000 0.043357 0.000000 0.004739
# 5 0.003739 -0.002190 0.002545 0.000000 0.029187 0.000000
# 6 0.000000 0.000000 0.000000 0.004739 0.000000 0.042259
#
#
# Mechanical properties :
#
#
# Convention : Reuss Voigt Hill
#
# Bulk Modulus (GPa) = 30.98245 37.98733 34.48489
# Shear Modulus (GPa) = 23.82838 26.59158 25.20998
#
# Velocity S-wave (km/s) = 3.53412 3.73342 3.63514
# Velocity P-wave (km/s) = 5.73527 6.20453 5.97451
#
# Compressibility (1/GPa) = 0.03227634
#
# Stress axis : x y z
#
# Youngs Moduli (GPa) = 82.98435 36.24285 53.67058
#
# Poissons Ratio (x) = 0.17586 0.20640
# Poissons Ratio (y) = 0.40266 0.23084
# Poissons Ratio (z) = 0.31913 0.15588
#
# Static dielectric constant tensor:
#      x y z
#    x 3.820570 0.000000 -0.139360 
#    y 0.000000 3.217730 0.000000 
#    z -0.139360 0.000000 3.630410 
# 
# 
# High freq. dielectric constant tensor:
#      x y z
#    x 1.748880 0.000000 -0.004490 
#    y 0.000000 1.705660 0.000000 
#    z -0.004490 0.000000 1.741370 
# 
# From -- ./inp_files/27917.got.cif
#   From: 2010.06.25/outbox.cif.g09.slc.cpg/sg11_14_cif.got.tgz:27917.got - 2010.06.27 23:14:04.
