data_PCOD8074301
_publ_section_title
;
Structure prediction by ZEFSAII (Michael W. Deem and Ramdas Pophale) SiO2 
 PCOD8074301
Probable space group: P 21/M
;
_chemical_formula_sum "Si O2"
_cell_formula_units_Z 28
_cell_length_a 9.206764
_cell_length_b 21.639998
_cell_length_c 11.234036
_cell_angle_alpha 90.000000
_cell_angle_beta 140.516843
_cell_angle_gamma 90.000000
_cell_volume 1423.166276
_symmetry_space_group_name_H-M "P 21/M"
_symmetry_group_IT_number 11
_symmetry_cell_setting 'monoclinic'
loop_
_space_group_symop_operation_xyz
x,y,z
-x,1/2+y,-z
-x,-y,-z
x,1/2-y,z
loop_
_atom_site_type_symbol
_atom_site_label
_atom_site_fract_x
_atom_site_fract_y
_atom_site_fract_z
Si Si1 0.731050 0.114896 0.461067
Si Si2 0.636216 0.518319 0.468599
Si Si3 0.584098 0.122694 0.819177
Si Si4 0.827708 0.319014 0.758812
Si Si5 0.107003 0.321765 0.540704
Si Si6 0.276324 0.179165 0.177172
Si Si7 0.967131 0.879160 0.753171
O O1 0.713591 0.041138 0.442157
O O2 0.760281 0.131938 0.617587
O O3 0.500027 0.146144 0.267092
O O4 0.939964 0.137899 0.515368
O O5 0.500000 0.500000 0.500000
O O6 0.471999 0.557750 0.278813
O O7 0.865677 0.555278 0.647717
O O8 0.679913 0.170590 0.783216
O O9 0.360202 0.154322 0.732941
O O10 0.771423 0.111675 0.040548
O O11 0.777881 0.250000 0.680274
O O12 0.093378 0.327082 0.956670
O O13 0.083558 0.250000 0.559413
O O14 0.044021 0.331042 0.362611
O O15 0.328549 0.250000 0.241506
O O16 0.193103 0.146164 0.244129
#
# Coordination Sequence:
#
# PCOD8074301 Si02
#       7
#     4   4   4   4   4   4   4
#     4  12  23  38  58  87 124 158 195 245 304 354
#     4  11  21  39  62  92 120 158 202 252 297 351
#     4  10  22  40  63  88 117 159 204 247 295 354
#     4  10  20  35  58  86 113 149 200 251 298 349
#     4  11  24  40  60  87 121 159 195 243 306 366
#     4  10  20  35  58  86 113 149 200 251 298 349
#     4  10  22  40  63  88 117 159 204 247 295 354
#
# _framework density 19.674440000000001
#
# number of rings (size 3 to 8) (size 9 to 14) (size 15 to 20)
#    0.000    1.429    2.857    3.000    0.000    6.857 
#    0.000    1.429    0.000    0.000    0.000    0.000 
#    0.000    0.000    0.000    0.000    0.000    0.000 
#
# Total GULP energy -347326.912748 kJ/mol
# GULP energy per Si atom -12404.532598 kJ/mol
# Density = 1.962966 g / cm^3
# Si number density = 19.674440 Si / 1000 Ang^3
#
#
#
# Elastic Constant Matrix: (Units=GPa)
#
#
# Indices 1 2 3 4 5 6 
#
# 1 62.6152 12.8295 21.0232 0.0000 27.0025 0.0000
# 2 12.8295 124.4758 44.9238 0.0000 13.7102 0.0000
# 3 21.0232 44.9238 121.8651 0.0000 24.2432 0.0000
# 4 0.0000 0.0000 0.0000 23.7786 0.0000 2.6576
# 5 27.0025 13.7102 24.2432 0.0000 25.9432 0.0000
# 6 0.0000 0.0000 0.0000 2.6576 0.0000 31.4815
#
#
#
# Elastic Compliance Matrix: (Units=1/GPa)
#
#
# Indices 1 2 3 4 5 6 
#
# 1 0.029128 0.000021 0.001229 0.000000 -0.031477 0.000000
# 2 0.000021 0.009360 -0.003029 0.000000 -0.002138 0.000000
# 3 0.001229 -0.003029 0.011112 0.000000 -0.010063 0.000000
# 4 0.000000 0.000000 0.000000 0.042455 0.000000 -0.003584
# 5 -0.031477 -0.002138 -0.010063 0.000000 0.081842 0.000000
# 6 0.000000 0.000000 0.000000 -0.003584 0.000000 0.032067
#
#
# Mechanical properties :
#
#
# Convention : Reuss Voigt Hill
#
# Bulk Modulus (GPa) = 21.71866 51.83435 36.77651
# Shear Modulus (GPa) = 22.23520 31.58595 26.91058
#
# Velocity S-wave (km/s) = 3.36543 4.01113 3.70238
# Velocity P-wave (km/s) = 5.11512 6.91776 6.08358
#
# Compressibility (1/GPa) = 0.04604335
#
# Stress axis : x y z
#
# Youngs Moduli (GPa) = 34.33133 106.83630 89.99223
#
# Poissons Ratio (x) = -0.00227 -0.11061
# Poissons Ratio (y) = -0.00073 0.27256
# Poissons Ratio (z) = -0.04220 0.32358
#
# Static dielectric constant tensor:
#      x y z
#    x 3.447300 0.000000 0.159470 
#    y 0.000000 3.701910 0.000000 
#    z 0.159470 0.000000 3.771090 
# 
# 
# High freq. dielectric constant tensor:
#      x y z
#    x 1.754970 0.000000 0.011870 
#    y 0.000000 1.775540 0.000000 
#    z 0.011870 0.000000 1.776000 
# 
# From -- ./inp_files/32885.got.cif
#   From: 2010.06.25/outbox.cif.g09.slc.cpg/sg11_17_cif.got.tgz:32885.got - 2010.06.27 23:14:04.
