data_PCOD8074192
_publ_section_title
;
Structure prediction by ZEFSAII (Michael W. Deem and Ramdas Pophale) SiO2 
 PCOD8074192
Probable space group: P 21/M
;
_chemical_formula_sum "Si O2"
_cell_formula_units_Z 32
_cell_length_a 12.136720
_cell_length_b 8.823770
_cell_length_c 30.547151
_cell_angle_alpha 90.000000
_cell_angle_beta 29.595332
_cell_angle_gamma 90.000000
_cell_volume 1615.622048
_symmetry_space_group_name_H-M "P 21/M"
_symmetry_group_IT_number 11
_symmetry_cell_setting 'monoclinic'
loop_
_space_group_symop_operation_xyz
x,y,z
-x,1/2+y,-z
-x,-y,-z
x,1/2-y,z
loop_
_atom_site_type_symbol
_atom_site_label
_atom_site_fract_x
_atom_site_fract_y
_atom_site_fract_z
Si Si1 0.866545 0.072303 0.760365
Si Si2 0.184772 0.077594 0.010915
Si Si3 0.685977 0.072575 0.627554
Si Si4 0.739977 0.069585 0.427069
Si Si5 0.466490 0.081165 0.833278
Si Si6 0.922987 0.071304 0.458121
Si Si7 0.441435 0.427238 0.066058
Si Si8 0.318513 0.574810 0.801633
O O1 0.911465 0.250000 0.751153
O O2 0.681296 0.039691 0.787752
O O3 0.778837 0.004162 0.836649
O O4 0.093153 0.989656 0.667976
O O5 0.224134 0.250000 0.015082
O O6 0.935264 0.021244 0.105834
O O7 0.241007 0.074725 0.940034
O O8 0.343539 0.956540 0.978668
O O9 0.701989 0.250000 0.626632
O O10 0.755972 0.020151 0.554741
O O11 0.433254 0.015905 0.722203
O O12 0.838717 0.002530 0.613384
O O13 0.724621 0.250000 0.430462
O O14 0.825650 0.014041 0.445342
O O15 0.500000 0.000000 0.500000
O O16 0.491991 0.250000 0.804325
O O17 0.450238 0.959013 0.800778
O O18 0.957007 0.250000 0.445505
O O19 0.395238 0.250000 0.077086
O O20 0.500000 0.500000 0.000000
O O21 0.335131 0.750000 0.785060
#
# Coordination Sequence:
#
# PCOD8074192 Si02
#       8
#     4   4   4   4   4   4   4   4
#     4  10  21  39  61  87 116 149 192 239 286 344
#     4   9  20  37  53  76 112 149 188 233 279 330
#     4  10  20  35  57  83 111 147 189 234 285 346
#     4  11  23  40  61  87 118 154 195 246 302 353
#     4   9  18  33  55  80 110 148 188 232 279 332
#     4   9  20  39  60  81 109 146 190 238 287 344
#     4  11  22  39  63  87 112 149 192 237 286 340
#     4  11  21  32  50  80 116 150 184 227 278 335
#
# _framework density 19.806612999999999
#
# number of rings (size 3 to 8) (size 9 to 14) (size 15 to 20)
#    0.000    2.000    0.000    4.500    0.000    7.000 
#    2.250    0.000    0.000    0.000    0.000    0.000 
#    0.000    0.000    0.000    0.000    0.000    0.000 
#
# Total GULP energy -396807.434486 kJ/mol
# GULP energy per Si atom -12400.232328 kJ/mol
# Density = 1.976153 g / cm^3
# Si number density = 19.806613 Si / 1000 Ang^3
#
#
#
# Elastic Constant Matrix: (Units=GPa)
#
#
# Indices 1 2 3 4 5 6 
#
# 1 63.1264 31.2010 42.4096 0.0000 11.3789 0.0000
# 2 31.2010 72.6556 41.5918 0.0000 3.0958 0.0000
# 3 42.4096 41.5918 161.8478 0.0000 0.0764 0.0000
# 4 0.0000 0.0000 0.0000 38.7522 0.0000 0.4412
# 5 11.3789 3.0958 0.0764 0.0000 25.8737 0.0000
# 6 0.0000 0.0000 0.0000 0.4412 0.0000 29.0542
#
#
#
# Elastic Compliance Matrix: (Units=1/GPa)
#
#
# Indices 1 2 3 4 5 6 
#
# 1 0.024274 -0.007468 -0.004437 0.000000 -0.009769 0.000000
# 2 -0.007468 0.018531 -0.002806 0.000000 0.001075 0.000000
# 3 -0.004437 -0.002806 0.008061 0.000000 0.002263 0.000000
# 4 0.000000 0.000000 0.000000 0.025809 0.000000 -0.000392
# 5 -0.009769 0.001075 0.002263 0.000000 0.042810 0.000000
# 6 0.000000 0.000000 0.000000 -0.000392 0.000000 0.034424
#
#
# Mechanical properties :
#
#
# Convention : Reuss Voigt Hill
#
# Bulk Modulus (GPa) = 46.63105 58.67049 52.65077
# Shear Modulus (GPa) = 26.24949 30.89783 28.57366
#
# Velocity S-wave (km/s) = 3.64440 3.95394 3.80232
# Velocity P-wave (km/s) = 6.42675 7.10850 6.77621
#
# Compressibility (1/GPa) = 0.02144494
#
# Stress axis : x y z
#
# Youngs Moduli (GPa) = 41.19618 53.96380 124.05091
#
# Poissons Ratio (x) = 0.40300 0.55040
# Poissons Ratio (y) = 0.30766 0.34805
# Poissons Ratio (z) = 0.18278 0.15141
#
# Static dielectric constant tensor:
#      x y z
#    x 3.547810 0.000000 0.223770 
#    y 0.000000 2.793260 0.000000 
#    z 0.223770 0.000000 3.976320 
# 
# 
# High freq. dielectric constant tensor:
#      x y z
#    x 1.745860 0.000000 0.009580 
#    y 0.000000 1.774590 0.000000 
#    z 0.009580 0.000000 1.791570 
# 
# From -- ./inp_files/73048.got.cif
#   From: 2010.06.25/outbox.cif.g09.slc.cpg/sg11_37_cif.got.tgz:73048.got - 2010.06.27 23:14:04.
