data_PCOD8074690
_publ_section_title
;
Structure prediction by ZEFSAII (Michael W. Deem and Ramdas Pophale) SiO2 
 PCOD8074690
Probable space group: P 21/M
;
_chemical_formula_sum "Si O2"
_cell_formula_units_Z 32
_cell_length_a 10.063707
_cell_length_b 15.090403
_cell_length_c 25.785581
_cell_angle_alpha 90.000000
_cell_angle_beta 26.358906
_cell_angle_gamma 90.000000
_cell_volume 1738.647386
_symmetry_space_group_name_H-M "P 21/M"
_symmetry_group_IT_number 11
_symmetry_cell_setting 'monoclinic'
loop_
_space_group_symop_operation_xyz
x,y,z
-x,1/2+y,-z
-x,-y,-z
x,1/2-y,z
loop_
_atom_site_type_symbol
_atom_site_label
_atom_site_fract_x
_atom_site_fract_y
_atom_site_fract_z
Si Si1 0.858106 0.008689 0.654209
Si Si2 0.100883 0.575670 0.768451
Si Si3 0.600963 0.575551 0.268277
Si Si4 0.940222 0.350731 0.482491
Si Si5 0.715386 0.850191 0.535033
Si Si6 0.642532 0.991273 0.845627
Si Si7 0.440795 0.350705 0.982252
Si Si8 0.784522 0.350206 0.965013
O O1 0.578036 0.034133 0.716797
O O2 0.113010 0.084099 0.563695
O O3 0.750705 0.999923 0.749802
O O4 0.000493 0.915688 0.586210
O O5 0.250008 0.500164 0.750145
O O6 0.359575 0.637997 0.654572
O O7 0.922268 0.534009 0.783273
O O8 0.888184 0.634285 0.879276
O O9 0.388690 0.634103 0.379065
O O10 0.859749 0.637882 0.154396
O O11 0.965560 0.250000 0.453611
O O12 0.185421 0.372083 0.440829
O O13 0.803496 0.750000 0.489164
O O14 0.387702 0.915843 0.936082
O O15 0.499818 0.084284 0.913656
O O16 0.466544 0.250000 0.953199
O O17 0.685876 0.372083 0.940652
O O18 0.696536 0.250000 0.010812
#
# Coordination Sequence:
#
# PCOD8074690 Si02
#       8
#     4   4   4   4   4   4   4   4
#     4  11  23  37  57  84 121 152 177 229 289 338
#     4  11  18  37  63  82 105 145 196 231 273 326
#     4  11  18  37  63  82 105 145 196 231 273 326
#     4  10  20  36  58  85 111 147 192 234 278 330
#     4  10  20  37  61  84 110 147 194 236 273 328
#     4  11  23  37  57  84 121 152 177 229 289 338
#     4  10  20  36  58  85 111 147 192 234 278 330
#     4  10  20  37  61  84 110 147 194 236 273 328
#
# _framework density 18.405113
#
# number of rings (size 3 to 8) (size 9 to 14) (size 15 to 20)
#    0.000    1.500    5.000    2.250    0.000    3.000 
#    0.000    0.000    0.000    0.000    0.000    0.000 
#    0.000    0.000    0.000    0.000    0.000    0.000 
#
# Total GULP energy -396912.779637 kJ/mol
# GULP energy per Si atom -12403.524364 kJ/mol
# Density = 1.836322 g / cm^3
# Si number density = 18.405113 Si / 1000 Ang^3
#
#
#
# Elastic Constant Matrix: (Units=GPa)
#
#
# Indices 1 2 3 4 5 6 
#
# 1 66.1356 41.9066 62.9798 0.0000 10.8709 0.0000
# 2 41.9066 131.3683 72.7333 0.0000 19.9729 0.0000
# 3 62.9798 72.7333 148.0345 0.0000 5.9722 0.0000
# 4 0.0000 0.0000 0.0000 24.7764 0.0000 -8.5657
# 5 10.8709 19.9729 5.9722 0.0000 40.2767 0.0000
# 6 0.0000 0.0000 0.0000 -8.5657 0.0000 13.2925
#
#
#
# Elastic Compliance Matrix: (Units=1/GPa)
#
#
# Indices 1 2 3 4 5 6 
#
# 1 0.027037 -0.002269 -0.010200 0.000000 -0.004660 0.000000
# 2 -0.002269 0.011505 -0.004509 0.000000 -0.004424 0.000000
# 3 -0.010200 -0.004509 0.013188 0.000000 0.003033 0.000000
# 4 0.000000 0.000000 0.000000 0.051930 0.000000 0.033464
# 5 -0.004660 -0.004424 0.003033 0.000000 0.027830 0.000000
# 6 0.000000 0.000000 0.000000 0.033464 0.000000 0.096794
#
#
# Mechanical properties :
#
#
# Convention : Reuss Voigt Hill
#
# Bulk Modulus (GPa) = 56.26146 77.86421 67.06284
# Shear Modulus (GPa) = 18.64521 26.86369 22.75445
#
# Velocity S-wave (km/s) = 3.18629 3.82459 3.51994
# Velocity P-wave (km/s) = 6.64615 7.86771 7.28259
#
# Compressibility (1/GPa) = 0.01777416
#
# Stress axis : x y z
#
# Youngs Moduli (GPa) = 36.98574 86.91809 75.82908
#
# Poissons Ratio (x) = 0.19724 0.77345
# Poissons Ratio (y) = 0.08393 0.34190
# Poissons Ratio (z) = 0.37725 0.39190
#
# Static dielectric constant tensor:
#      x y z
#    x 3.187590 0.000000 -0.322860 
#    y 0.000000 3.532610 0.000000 
#    z -0.322860 0.000000 3.589130 
# 
# 
# High freq. dielectric constant tensor:
#      x y z
#    x 1.683110 0.000000 -0.019320 
#    y 0.000000 1.729040 0.000000 
#    z -0.019320 0.000000 1.721100 
# 
# From -- ./inp_files/26844.got.cif
#   From: 2010.06.25/outbox.cif.g09.slc.cpg/sg11_14_cif.got.tgz:26844.got - 2010.06.27 23:14:04.
