data_PCOD8074492
_publ_section_title
;
Structure prediction by ZEFSAII (Michael W. Deem and Ramdas Pophale) SiO2 
 PCOD8074492
Probable space group: P 21/M
;
_chemical_formula_sum "Si O2"
_cell_formula_units_Z 32
_cell_length_a 20.913806
_cell_length_b 8.899640
_cell_length_c 15.527705
_cell_angle_alpha 90.000000
_cell_angle_beta 145.845394
_cell_angle_gamma 90.000000
_cell_volume 1622.582537
_symmetry_space_group_name_H-M "P 21/M"
_symmetry_group_IT_number 11
_symmetry_cell_setting 'monoclinic'
loop_
_space_group_symop_operation_xyz
x,y,z
-x,1/2+y,-z
-x,-y,-z
x,1/2-y,z
loop_
_atom_site_type_symbol
_atom_site_label
_atom_site_fract_x
_atom_site_fract_y
_atom_site_fract_z
Si Si1 0.411248 0.570537 0.334669
Si Si2 0.390988 0.070879 0.130774
Si Si3 0.438676 0.921302 0.010522
Si Si4 0.177076 0.919534 0.671442
Si Si5 0.934698 0.428049 0.810058
Si Si6 0.096927 0.919828 0.406257
Si Si7 0.146929 0.081902 0.802395
Si Si8 0.838269 0.426798 0.881835
O O1 0.500000 0.500000 0.500000
O O2 0.422956 0.750000 0.347642
O O3 0.438783 0.506030 0.270509
O O4 0.284692 0.518308 0.222437
O O5 0.406168 0.250000 0.154573
O O6 0.259195 0.016648 0.974552
O O7 0.460133 0.009931 0.124259
O O8 0.481453 0.750000 0.068715
O O9 0.307857 0.926890 0.840139
O O10 0.500000 0.000000 0.000000
O O11 0.129843 0.750000 0.613638
O O12 0.153146 0.001140 0.552095
O O13 0.109592 0.998640 0.673234
O O14 0.951353 0.250000 0.823951
O O15 0.871500 0.488323 0.652259
O O16 0.854671 0.475465 0.800192
O O17 0.060776 0.497122 0.952746
O O18 0.142149 0.750000 0.459428
O O19 0.959631 0.927817 0.253419
O O20 0.177991 0.250000 0.809343
O O21 0.850621 0.250000 0.906871
#
# Coordination Sequence:
#
# PCOD8074492 Si02
#       8
#     4   4   4   4   4   4   4   4
#     4  11  23  39  57  82 114 147 185 236 288 338
#     4  10  20  36  58  83 106 139 184 226 275 333
#     4  10  20  36  56  79 107 143 185 230 273 323
#     4   9  18  31  47  71 102 136 173 213 260 313
#     4   9  17  32  55  78 103 140 179 219 268 327
#     4   9  16  28  47  74 104 133 170 208 253 317
#     4   9  17  29  49  75 103 135 171 212 258 313
#     4   9  19  35  54  78 107 139 179 224 274 329
#
# _framework density 19.721647999999998
#
# number of rings (size 3 to 8) (size 9 to 14) (size 15 to 20)
#    0.000    2.500    0.000    2.250    0.000    3.000 
#    2.250    1.250    0.000    0.000    0.000    0.000 
#    0.000    0.000    0.000    0.000    0.000    0.000 
#
# Total GULP energy -396576.639430 kJ/mol
# GULP energy per Si atom -12393.019982 kJ/mol
# Density = 1.967676 g / cm^3
# Si number density = 19.721648 Si / 1000 Ang^3
#
#
#
# Elastic Constant Matrix: (Units=GPa)
#
#
# Indices 1 2 3 4 5 6 
#
# 1 99.1562 34.2861 43.7712 0.0000 -29.7121 0.0000
# 2 34.2861 62.6519 28.6343 0.0000 -11.4314 0.0000
# 3 43.7712 28.6343 90.2803 0.0000 -40.7101 0.0000
# 4 0.0000 0.0000 0.0000 24.7730 0.0000 -3.9874
# 5 -29.7121 -11.4314 -40.7101 0.0000 39.6720 0.0000
# 6 0.0000 0.0000 0.0000 -3.9874 0.0000 28.1522
#
#
#
# Elastic Compliance Matrix: (Units=1/GPa)
#
#
# Indices 1 2 3 4 5 6 
#
# 1 0.015398 -0.006075 -0.002099 0.000000 0.007628 0.000000
# 2 -0.006075 0.021100 -0.005690 0.000000 -0.004309 0.000000
# 3 -0.002099 -0.005690 0.023174 0.000000 0.020569 0.000000
# 4 0.000000 0.000000 0.000000 0.041308 0.000000 0.005851
# 5 0.007628 -0.004309 0.020569 0.000000 0.050785 0.000000
# 6 0.000000 0.000000 0.000000 0.005851 0.000000 0.036350
#
#
# Mechanical properties :
#
#
# Convention : Reuss Voigt Hill
#
# Bulk Modulus (GPa) = 31.30491 51.71904 41.51197
# Shear Modulus (GPa) = 22.07582 28.21256 25.14419
#
# Velocity S-wave (km/s) = 3.34933 3.78635 3.57452
# Velocity P-wave (km/s) = 5.55564 6.73771 6.17502
#
# Compressibility (1/GPa) = 0.03194387
#
# Stress axis : x y z
#
# Youngs Moduli (GPa) = 64.94308 47.39277 43.15168
#
# Poissons Ratio (x) = 0.28793 0.09058
# Poissons Ratio (y) = 0.39456 0.24552
# Poissons Ratio (z) = 0.13632 0.26965
#
# Static dielectric constant tensor:
#      x y z
#    x 5.024610 0.000000 0.232780 
#    y 0.000000 3.549060 0.000000 
#    z 0.232780 0.000000 3.837160 
# 
# 
# High freq. dielectric constant tensor:
#      x y z
#    x 1.771880 0.000000 -0.023570 
#    y 0.000000 1.749800 0.000000 
#    z -0.023570 0.000000 1.764410 
# 
# From -- ./inp_files/54308.got.cif
#   From: 2010.06.25/outbox.cif.g09.slc.cpg/sg11_28_cif.got.tgz:54308.got - 2010.06.27 23:14:04.
