data_PCOD8074716
_publ_section_title
;
Structure prediction by ZEFSAII (Michael W. Deem and Ramdas Pophale) SiO2 
 PCOD8074716
Probable space group: P 21/M
;
_chemical_formula_sum "Si O2"
_cell_formula_units_Z 32
_cell_length_a 11.019010
_cell_length_b 17.326616
_cell_length_c 9.737478
_cell_angle_alpha 90.000000
_cell_angle_beta 59.437555
_cell_angle_gamma 90.000000
_cell_volume 1600.825702
_symmetry_space_group_name_H-M "P 21/M"
_symmetry_group_IT_number 11
_symmetry_cell_setting 'monoclinic'
loop_
_space_group_symop_operation_xyz
x,y,z
-x,1/2+y,-z
-x,-y,-z
x,1/2-y,z
loop_
_atom_site_type_symbol
_atom_site_label
_atom_site_fract_x
_atom_site_fract_y
_atom_site_fract_z
Si Si1 0.494146 0.953125 0.142466
Si Si2 0.946169 0.456024 0.363582
Si Si3 0.422406 0.928662 0.699730
Si Si4 0.994842 0.163324 0.111063
Si Si5 0.182189 0.939088 0.286781
Si Si6 0.788137 0.338463 0.999976
Si Si7 0.692853 0.839066 0.147360
Si Si8 0.700665 0.948025 0.405699
O O1 0.330865 0.951738 0.277459
O O2 0.569083 0.869113 0.114179
O O3 0.589461 0.000470 0.190601
O O4 0.500000 0.000000 0.000000
O O5 0.921840 0.393776 0.259768
O O6 0.917800 0.414651 0.527484
O O7 0.849392 0.533285 0.394812
O O8 0.109369 0.484461 0.264887
O O9 0.339648 0.859417 0.821691
O O10 0.585966 0.908075 0.574144
O O11 0.351122 0.964579 0.604246
O O12 0.948332 0.250000 0.177438
O O13 0.934603 0.143505 0.993955
O O14 0.161980 0.154912 0.019225
O O15 0.209542 0.879181 0.148808
O O16 0.768982 0.250000 0.974240
O O17 0.658648 0.750000 0.204767
O O18 0.714732 0.887552 0.273917
#
# Coordination Sequence:
#
# PCOD8074716 Si02
#       8
#     4   4   4   4   4   4   4   4
#     4  11  20  37  60  83 116 157 196 244 294 361
#     4  11  22  39  63  91 120 162 206 253 307 360
#     4  10  20  36  58  88 117 152 204 252 296 357
#     4  10  22  40  62  88 119 157 208 257 305 363
#     4  11  24  37  59  92 122 157 204 246 301 371
#     4  11  23  39  61  90 125 161 200 253 312 367
#     4  10  23  39  60  89 119 155 201 256 311 360
#     4  10  20  36  63  88 117 153 204 257 303 352
#
# _framework density 19.989685000000001
#
# number of rings (size 3 to 8) (size 9 to 14) (size 15 to 20)
#    0.000    1.500    3.750    1.500    1.750    2.500 
#    0.000    1.250    0.000    0.750    0.000    0.000 
#    0.000    0.000    0.000    0.000    0.000    0.000 
#
# Total GULP energy -396435.270310 kJ/mol
# GULP energy per Si atom -12388.602197 kJ/mol
# Density = 1.994419 g / cm^3
# Si number density = 19.989685 Si / 1000 Ang^3
#
#
#
# Elastic Constant Matrix: (Units=GPa)
#
#
# Indices 1 2 3 4 5 6 
#
# 1 98.2164 29.5104 21.7597 0.0000 -10.9535 0.0000
# 2 29.5104 77.3757 44.4583 0.0000 0.3299 0.0000
# 3 21.7597 44.4583 95.2321 0.0000 1.5701 0.0000
# 4 0.0000 0.0000 0.0000 15.8438 0.0000 -2.8336
# 5 -10.9535 0.3299 1.5701 0.0000 33.2656 0.0000
# 6 0.0000 0.0000 0.0000 -2.8336 0.0000 29.8697
#
#
#
# Elastic Compliance Matrix: (Units=1/GPa)
#
#
# Indices 1 2 3 4 5 6 
#
# 1 0.012067 -0.004095 -0.000912 0.000000 0.004057 0.000000
# 2 -0.004095 0.019053 -0.007940 0.000000 -0.001163 0.000000
# 3 -0.000912 -0.007940 0.014431 0.000000 -0.000903 0.000000
# 4 0.000000 0.000000 0.000000 0.064206 0.000000 0.006091
# 5 0.004057 -0.001163 -0.000903 0.000000 0.031451 0.000000
# 6 0.000000 0.000000 0.000000 0.006091 0.000000 0.034057
#
#
# Mechanical properties :
#
#
# Convention : Reuss Voigt Hill
#
# Bulk Modulus (GPa) = 50.87602 51.36455 51.12029
# Shear Modulus (GPa) = 24.07208 27.46886 25.77047
#
# Velocity S-wave (km/s) = 3.47396 3.71098 3.59442
# Velocity P-wave (km/s) = 6.44962 6.64177 6.54640
#
# Compressibility (1/GPa) = 0.01965563
#
# Stress axis : x y z
#
# Youngs Moduli (GPa) = 82.87326 52.48569 69.29742
#
# Poissons Ratio (x) = 0.21494 0.06321
# Poissons Ratio (y) = 0.33939 0.55020
# Poissons Ratio (z) = 0.07559 0.41672
#
# Static dielectric constant tensor:
#      x y z
#    x 3.271130 0.000000 -0.295490 
#    y 0.000000 3.417010 0.000000 
#    z -0.295490 0.000000 3.543290 
# 
# 
# High freq. dielectric constant tensor:
#      x y z
#    x 1.793780 0.000000 -0.002300 
#    y 0.000000 1.752450 0.000000 
#    z -0.002300 0.000000 1.782810 
# 
# From -- ./inp_files/19379.got.cif
#   From: 2010.06.25/outbox.cif.g09.slc.cpg/sg11_10_cif.got.tgz:19379.got - 2010.06.27 23:14:04.
