data_PCOD8074891
_publ_section_title
;
Structure prediction by ZEFSAII (Michael W. Deem and Ramdas Pophale) SiO2 
 PCOD8074891
Probable space group: P 21/M
;
_chemical_formula_sum "Si O2"
_cell_formula_units_Z 26
_cell_length_a 8.369021
_cell_length_b 17.669760
_cell_length_c 9.076004
_cell_angle_alpha 90.000000
_cell_angle_beta 95.832043
_cell_angle_gamma 90.000000
_cell_volume 1335.199795
_symmetry_space_group_name_H-M "P 21/M"
_symmetry_group_IT_number 11
_symmetry_cell_setting 'monoclinic'
loop_
_space_group_symop_operation_xyz
x,y,z
-x,1/2+y,-z
-x,-y,-z
x,1/2-y,z
loop_
_atom_site_type_symbol
_atom_site_label
_atom_site_fract_x
_atom_site_fract_y
_atom_site_fract_z
Si Si1 0.466913 0.013687 0.167530
Si Si2 0.647468 0.750000 0.019100
Si Si3 0.190042 0.094605 0.019794
Si Si4 0.263132 0.900623 0.640420
Si Si5 0.320298 0.750000 0.139252
Si Si6 0.659615 0.250000 0.184322
Si Si7 0.965407 0.486963 0.200437
Si Si8 0.744619 0.099525 0.704456
O O1 0.413178 0.936255 0.238234
O O2 0.324716 0.075284 0.153897
O O3 0.606028 0.043814 0.281877
O O4 0.500000 0.000000 0.000000
O O5 0.770278 0.678760 0.035068
O O6 0.535181 0.750000 0.860641
O O7 0.519083 0.750000 0.145693
O O8 0.021042 0.078350 0.088433
O O9 0.184966 0.035035 0.882059
O O10 0.279454 0.820903 0.719856
O O11 0.092821 0.940755 0.661510
O O12 0.283438 0.888982 0.470245
O O13 0.241160 0.680097 0.216814
O O14 0.252290 0.750000 0.966312
O O15 0.100835 0.547685 0.253704
#
# Coordination Sequence:
#
# PCOD8074891 Si02
#       8
#     4   2   4   4   2   2   4   4
#     4  11  19  37  64  90 117 157 218 257 295 360
#     4  10  20  38  64  92 120 156 212 264 301 359
#     4  10  20  36  60  93 120 156 213 259 294 364
#     4  12  22  40  63  91 130 163 203 261 320 372
#     4  10  23  40  63  90 121 163 213 266 299 371
#     4  10  23  36  65  92 115 163 209 264 304 360
#     4  10  24  37  61  92 127 166 203 254 313 384
#     4  11  24  40  60  93 129 166 203 256 323 373
#
# _framework density 19.472740000000002
#
# number of rings (size 3 to 8) (size 9 to 14) (size 15 to 20)
#    0.462    0.923    3.077    3.231    4.308    1.231 
#    0.000    0.000    0.000    0.000    0.000    0.000 
#    0.000    0.000    0.000    0.000    0.000    0.000 
#
# Total GULP energy -322132.754578 kJ/mol
# GULP energy per Si atom -12389.721330 kJ/mol
# Density = 1.942842 g / cm^3
# Si number density = 19.472740 Si / 1000 Ang^3
#
#
#
# Elastic Constant Matrix: (Units=GPa)
#
#
# Indices 1 2 3 4 5 6 
#
# 1 71.0594 58.8408 37.3912 0.0000 -4.8991 0.0000
# 2 58.8408 135.1718 50.3699 0.0000 -15.6448 0.0000
# 3 37.3912 50.3699 146.0051 0.0000 -18.7674 0.0000
# 4 0.0000 0.0000 0.0000 32.3476 0.0000 -3.1613
# 5 -4.8991 -15.6448 -18.7674 0.0000 28.1491 0.0000
# 6 0.0000 0.0000 0.0000 -3.1613 0.0000 37.6228
#
#
#
# Elastic Compliance Matrix: (Units=1/GPa)
#
#
# Indices 1 2 3 4 5 6 
#
# 1 0.023212 -0.009305 -0.003150 0.000000 -0.003232 0.000000
# 2 -0.009305 0.012461 -0.001350 0.000000 0.004407 0.000000
# 3 -0.003150 -0.001350 0.008700 0.000000 0.004502 0.000000
# 4 0.000000 0.000000 0.000000 0.031170 0.000000 0.002619
# 5 -0.003232 0.004407 0.004502 0.000000 0.040413 0.000000
# 6 0.000000 0.000000 0.000000 0.002619 0.000000 0.026800
#
#
# Mechanical properties :
#
#
# Convention : Reuss Voigt Hill
#
# Bulk Modulus (GPa) = 59.64801 71.71557 65.68179
# Shear Modulus (GPa) = 28.41662 33.33287 30.87474
#
# Velocity S-wave (km/s) = 3.82423 4.14184 3.98620
# Velocity P-wave (km/s) = 7.08503 7.73187 7.41551
#
# Compressibility (1/GPa) = 0.01676502
#
# Stress axis : x y z
#
# Youngs Moduli (GPa) = 43.08100 80.24869 114.94131
#
# Poissons Ratio (x) = 0.74668 0.36206
# Poissons Ratio (y) = 0.40085 0.15514
# Poissons Ratio (z) = 0.13570 0.10831
#
# Static dielectric constant tensor:
#      x y z
#    x 3.387590 0.000000 0.233380 
#    y 0.000000 4.383530 0.000000 
#    z 0.233380 0.000000 3.396080 
# 
# 
# High freq. dielectric constant tensor:
#      x y z
#    x 1.757530 0.000000 -0.003930 
#    y 0.000000 1.764880 0.000000 
#    z -0.003930 0.000000 1.744600 
# 
# From -- ./inp_files/13511.got.cif
#   From: 2010.06.25/outbox.cif.g09.slc.cpg/sg11_7_cif.got.tgz:13511.got - 2010.06.27 23:14:04.
