data_PCOD8074858
_publ_section_title
;
Structure prediction by ZEFSAII (Michael W. Deem and Ramdas Pophale) SiO2 
 PCOD8074858
Probable space group: P 21/M
;
_chemical_formula_sum "Si O2"
_cell_formula_units_Z 32
_cell_length_a 14.747917
_cell_length_b 8.764958
_cell_length_c 12.725931
_cell_angle_alpha 90.000000
_cell_angle_beta 87.305557
_cell_angle_gamma 90.000000
_cell_volume 1643.197190
_symmetry_space_group_name_H-M "P 21/M"
_symmetry_group_IT_number 11
_symmetry_cell_setting 'monoclinic'
loop_
_space_group_symop_operation_xyz
x,y,z
-x,1/2+y,-z
-x,-y,-z
x,1/2-y,z
loop_
_atom_site_type_symbol
_atom_site_label
_atom_site_fract_x
_atom_site_fract_y
_atom_site_fract_z
Si Si1 0.494543 0.918033 0.606926
Si Si2 0.097653 0.430355 0.493188
Si Si3 0.164990 0.430672 0.264740
Si Si4 0.337843 0.930430 0.765389
Si Si5 0.525684 0.927543 0.105123
Si Si6 0.631292 0.577695 0.767850
Si Si7 0.995501 0.568112 0.881386
Si Si8 0.851431 0.929711 0.276667
O O1 0.459030 0.750000 0.586859
O O2 0.415209 0.992422 0.681412
O O3 0.595944 0.915437 0.649886
O O4 0.500000 0.000000 0.500000
O O5 0.091859 0.250000 0.487692
O O6 0.144713 0.494742 0.383765
O O7 0.143514 0.481446 0.600973
O O8 0.000000 0.500000 0.500000
O O9 0.161627 0.250000 0.270945
O O10 0.266234 0.485138 0.229201
O O11 0.095095 0.486717 0.177517
O O12 0.318486 0.750000 0.762227
O O13 0.382519 0.979500 0.872526
O O14 0.247781 0.026243 0.755184
O O15 0.548523 0.750000 0.099307
O O16 0.436583 0.956323 0.179178
O O17 0.500000 0.000000 0.000000
O O18 0.623461 0.750000 0.817010
O O19 0.997959 0.750000 0.892287
O O20 0.078762 0.515260 0.804117
O O21 0.000000 0.500000 0.000000
O O22 0.868470 0.750000 0.263849
#
# Coordination Sequence:
#
# PCOD8074858 Si02
#       8
#     4   4   4   4   4   4   4   4
#     4   9  19  33  53  79 113 150 185 229 283 342
#     4  10  20  36  60  88 119 157 201 247 297 358
#     4   9  19  37  61  86 116 157 199 242 297 354
#     4  10  22  40  59  84 117 155 198 243 291 348
#     4  11  22  39  62  87 117 153 197 248 300 355
#     4   9  19  37  58  82 113 151 196 242 288 344
#     4  11  23  41  63  85 119 159 202 253 306 362
#     4  11  23  38  61  92 123 157 201 250 303 365
#
# _framework density 19.474228
#
# number of rings (size 3 to 8) (size 9 to 14) (size 15 to 20)
#    0.000    2.000    1.250    3.000    1.750    4.000 
#    0.000    5.625    0.000    0.000    0.000    0.000 
#    0.000    0.000    0.000    0.000    0.000    0.000 
#
# Total GULP energy -396439.696699 kJ/mol
# GULP energy per Si atom -12388.740522 kJ/mol
# Density = 1.942990 g / cm^3
# Si number density = 19.474228 Si / 1000 Ang^3
#
#
#
# Elastic Constant Matrix: (Units=GPa)
#
#
# Indices 1 2 3 4 5 6 
#
# 1 145.0021 19.7891 49.5936 0.0000 16.1989 0.0000
# 2 19.7891 44.7960 33.1001 0.0000 2.5330 0.0000
# 3 49.5936 33.1001 128.4373 0.0000 19.5110 0.0000
# 4 0.0000 0.0000 0.0000 32.5325 0.0000 -0.7186
# 5 16.1989 2.5330 19.5110 0.0000 21.3125 0.0000
# 6 0.0000 0.0000 0.0000 -0.7186 0.0000 31.1070
#
#
#
# Elastic Compliance Matrix: (Units=1/GPa)
#
#
# Indices 1 2 3 4 5 6 
#
# 1 0.008341 -0.001901 -0.002093 0.000000 -0.004197 0.000000
# 2 -0.001901 0.028268 -0.007271 0.000000 0.004742 0.000000
# 3 -0.002093 -0.007271 0.011726 0.000000 -0.008279 0.000000
# 4 0.000000 0.000000 0.000000 0.030754 0.000000 0.000710
# 5 -0.004197 0.004742 -0.008279 0.000000 0.057127 0.000000
# 6 0.000000 0.000000 0.000000 0.000710 0.000000 0.032163
#
#
# Mechanical properties :
#
#
# Convention : Reuss Voigt Hill
#
# Bulk Modulus (GPa) = 38.75381 58.13344 48.44363
# Shear Modulus (GPa) = 25.06131 31.37392 28.21761
#
# Velocity S-wave (km/s) = 3.59123 4.01814 3.81067
# Velocity P-wave (km/s) = 6.09419 7.17242 6.65517
#
# Compressibility (1/GPa) = 0.02580391
#
# Stress axis : x y z
#
# Youngs Moduli (GPa) = 119.89501 35.37592 85.28177
#
# Poissons Ratio (x) = 0.06723 0.17851
# Poissons Ratio (y) = 0.22787 0.62012
# Poissons Ratio (z) = 0.25096 0.25723
#
# Static dielectric constant tensor:
#      x y z
#    x 3.727280 0.000000 0.167840 
#    y 0.000000 3.347210 0.000000 
#    z 0.167840 0.000000 4.272550 
# 
# 
# High freq. dielectric constant tensor:
#      x y z
#    x 1.764920 0.000000 0.009490 
#    y 0.000000 1.745970 0.000000 
#    z 0.009490 0.000000 1.764750 
# 
# From -- ./inp_files/38256.got.cif
#   From: 2010.06.25/outbox.cif.g09.slc.cpg/sg11_20_cif.got.tgz:38256.got - 2010.06.27 23:14:04.
