data_PCOD8074456
_publ_section_title
;
Structure prediction by ZEFSAII (Michael W. Deem and Ramdas Pophale) SiO2 
 PCOD8074456
Probable space group: P 21/M
;
_chemical_formula_sum "Si O2"
_cell_formula_units_Z 20
_cell_length_a 11.845599
_cell_length_b 10.192466
_cell_length_c 13.435363
_cell_angle_alpha 90.000000
_cell_angle_beta 42.184195
_cell_angle_gamma 90.000000
_cell_volume 1089.286712
_symmetry_space_group_name_H-M "P 21/M"
_symmetry_group_IT_number 11
_symmetry_cell_setting 'monoclinic'
loop_
_space_group_symop_operation_xyz
x,y,z
-x,1/2+y,-z
-x,-y,-z
x,1/2-y,z
loop_
_atom_site_type_symbol
_atom_site_label
_atom_site_fract_x
_atom_site_fract_y
_atom_site_fract_z
Si Si1 0.595514 0.007878 0.585008
Si Si2 0.706804 0.393915 0.314991
Si Si3 0.101028 0.102394 0.710092
Si Si4 0.479551 0.601450 0.154513
Si Si5 0.275374 0.599851 0.094075
O O1 0.601480 0.109901 0.488174
O O2 0.604713 0.082984 0.683045
O O3 0.420525 0.927736 0.691547
O O4 0.758376 0.912335 0.468840
O O5 0.784649 0.250000 0.244226
O O6 0.856106 0.502170 0.226793
O O7 0.103296 0.250000 0.751129
O O8 0.921431 0.067149 0.780922
O O9 0.549115 0.750000 0.099340
O O10 0.335273 0.574439 0.167508
O O11 0.630508 0.498590 0.042096
O O12 0.312334 0.750000 0.037159
#
# Coordination Sequence:
#
# PCOD8074456 Si02
#       5
#     4   4   4   4   4
#     4   9  19  30  56  76 103 133 172 208 256 304
#     4   9  18  32  53  79 105 133 170 214 257 305
#     4   9  18  33  53  77 107 137 167 211 261 304
#     4  10  20  36  55  76 103 139 175 212 257 307
#     4   9  20  37  54  75 106 138 172 213 258 306
#
# _framework density 18.360638999999999
#
# number of rings (size 3 to 8) (size 9 to 14) (size 15 to 20)
#    1.200    1.600    0.000    1.200    0.000    4.000 
#    0.000    1.000    0.000    0.000    0.000    0.000 
#    0.000    0.000    0.000    0.000    0.000    0.000 
#
# Total GULP energy -247822.751100 kJ/mol
# GULP energy per Si atom -12391.137555 kJ/mol
# Density = 1.831885 g / cm^3
# Si number density = 18.360639 Si / 1000 Ang^3
#
#
#
# Elastic Constant Matrix: (Units=GPa)
#
#
# Indices 1 2 3 4 5 6 
#
# 1 95.1389 51.5709 38.9173 0.0000 -30.7499 0.0000
# 2 51.5709 119.6502 23.7309 0.0000 -22.2802 0.0000
# 3 38.9173 23.7309 39.0787 0.0000 -9.2159 0.0000
# 4 0.0000 0.0000 0.0000 23.6653 0.0000 -4.1554
# 5 -30.7499 -22.2802 -9.2159 0.0000 27.3601 0.0000
# 6 0.0000 0.0000 0.0000 -4.1554 0.0000 26.0192
#
#
#
# Elastic Compliance Matrix: (Units=1/GPa)
#
#
# Indices 1 2 3 4 5 6 
#
# 1 0.027833 -0.004033 -0.020277 0.000000 0.021167 0.000000
# 2 -0.004033 0.011202 -0.001850 0.000000 0.003966 0.000000
# 3 -0.020277 -0.001850 0.044730 0.000000 -0.009230 0.000000
# 4 0.000000 0.000000 0.000000 0.043475 0.000000 0.006943
# 5 0.021167 0.003966 -0.009230 0.000000 0.060459 0.000000
# 6 0.000000 0.000000 0.000000 0.006943 0.000000 0.039542
#
#
# Mechanical properties :
#
#
# Convention : Reuss Voigt Hill
#
# Bulk Modulus (GPa) = 31.80374 53.58955 42.69665
# Shear Modulus (GPa) = 17.23878 24.71883 20.97880
#
# Velocity S-wave (km/s) = 3.06747 3.67317 3.38390
# Velocity P-wave (km/s) = 5.46856 6.87314 6.21069
#
# Compressibility (1/GPa) = 0.03144284
#
# Stress axis : x y z
#
# Youngs Moduli (GPa) = 35.92850 89.27366 22.35641
#
# Poissons Ratio (x) = 0.36006 0.45332
# Poissons Ratio (y) = 0.14491 0.04137
# Poissons Ratio (z) = 0.72853 0.16520
#
# Static dielectric constant tensor:
#      x y z
#    x 3.309480 0.000000 -0.077030 
#    y 0.000000 3.366310 0.000000 
#    z -0.077030 0.000000 2.937000 
# 
# 
# High freq. dielectric constant tensor:
#      x y z
#    x 1.712130 0.000000 -0.005850 
#    y 0.000000 1.716520 0.000000 
#    z -0.005850 0.000000 1.670490 
# 
# From -- ./inp_files/34585.got.cif
#   From: 2010.06.25/outbox.cif.g09.slc.cpg/sg11_18_cif.got.tgz:34585.got - 2010.06.27 23:14:04.
