data_PCOD8074316
_publ_section_title
;
Structure prediction by ZEFSAII (Michael W. Deem and Ramdas Pophale) SiO2 
 PCOD8074316
Probable space group: P 21/M
;
_chemical_formula_sum "Si O2"
_cell_formula_units_Z 32
_cell_length_a 14.358059
_cell_length_b 8.941224
_cell_length_c 23.392731
_cell_angle_alpha 90.000000
_cell_angle_beta 31.833746
_cell_angle_gamma 90.000000
_cell_volume 1584.017944
_symmetry_space_group_name_H-M "P 21/M"
_symmetry_group_IT_number 11
_symmetry_cell_setting 'monoclinic'
loop_
_space_group_symop_operation_xyz
x,y,z
-x,1/2+y,-z
-x,-y,-z
x,1/2-y,z
loop_
_atom_site_type_symbol
_atom_site_label
_atom_site_fract_x
_atom_site_fract_y
_atom_site_fract_z
Si Si1 0.524368 0.072453 0.820961
Si Si2 0.685498 0.928246 0.416375
Si Si3 0.247812 0.423837 0.493569
Si Si4 0.449784 0.922512 0.745770
Si Si5 0.006862 0.575868 0.170448
Si Si6 0.066037 0.578331 0.908526
Si Si7 0.607606 0.075201 0.995350
Si Si8 0.082819 0.577550 0.403205
O O1 0.508640 0.250000 0.835789
O O2 0.725470 0.014494 0.711504
O O3 0.421090 0.018316 0.818351
O O4 0.447086 0.994319 0.916331
O O5 0.672937 0.750000 0.421831
O O6 0.732168 0.993093 0.454378
O O7 0.836666 0.983555 0.293907
O O8 0.500000 0.000000 0.500000
O O9 0.294706 0.250000 0.471277
O O10 0.385393 0.492581 0.375701
O O11 0.045187 0.453459 0.583256
O O12 0.482582 0.750000 0.746228
O O13 0.278002 0.937968 0.795395
O O14 0.988180 0.750000 0.165882
O O15 0.020680 0.491886 0.102771
O O16 0.180815 0.547704 0.118964
O O17 0.006600 0.750000 0.941755
O O18 0.000000 0.500000 0.000000
O O19 0.563140 0.250000 0.017298
O O20 0.500000 0.000000 0.000000
O O21 0.097068 0.750000 0.411129
O O22 0.000000 0.500000 0.500000
#
# Coordination Sequence:
#
# PCOD8074316 Si02
#       8
#     4   4   4   4   4   4   4   4
#     4  11  23  37  59  90 122 156 199 251 303 357
#     4  10  21  39  63  89 120 159 200 247 298 355
#     4   9  18  34  58  82 111 153 194 233 290 353
#     4  10  20  36  58  85 117 156 197 239 294 361
#     4  10  23  42  64  89 122 162 204 249 302 361
#     4  11  23  38  61  89 118 153 198 247 299 358
#     4  11  25  44  65  89 119 160 207 252 301 359
#     4  10  20  35  58  86 118 156 197 243 295 357
#
# _framework density 20.201789999999999
#
# number of rings (size 3 to 8) (size 9 to 14) (size 15 to 20)
#    0.000    1.750    1.250    2.625    1.750    7.000 
#    0.000    1.250    0.000    0.000    0.000    0.000 
#    0.000    0.000    0.000    0.000    0.000    0.000 
#
# Total GULP energy -396815.902662 kJ/mol
# GULP energy per Si atom -12400.496958 kJ/mol
# Density = 2.015581 g / cm^3
# Si number density = 20.201790 Si / 1000 Ang^3
#
#
#
# Elastic Constant Matrix: (Units=GPa)
#
#
# Indices 1 2 3 4 5 6 
#
# 1 133.3024 47.2447 42.1637 0.0000 9.9977 0.0000
# 2 47.2447 73.7031 39.9348 0.0000 1.8410 0.0000
# 3 42.1637 39.9348 106.8820 0.0000 4.8028 0.0000
# 4 0.0000 0.0000 0.0000 26.9792 0.0000 -1.0936
# 5 9.9977 1.8410 4.8028 0.0000 40.0298 0.0000
# 6 0.0000 0.0000 0.0000 -1.0936 0.0000 34.6563
#
#
#
# Elastic Compliance Matrix: (Units=1/GPa)
#
#
# Indices 1 2 3 4 5 6 
#
# 1 0.010187 -0.005456 -0.001887 0.000000 -0.002067 0.000000
# 2 -0.005456 0.019934 -0.005345 0.000000 0.001087 0.000000
# 3 -0.001887 -0.005345 0.012131 0.000000 -0.000738 0.000000
# 4 0.000000 0.000000 0.000000 0.037113 0.000000 0.001171
# 5 -0.002067 0.001087 -0.000738 0.000000 0.025536 0.000000
# 6 0.000000 0.000000 0.000000 0.001171 0.000000 0.028892
#
#
# Mechanical properties :
#
#
# Convention : Reuss Voigt Hill
#
# Bulk Modulus (GPa) = 59.25467 63.61933 61.43700
# Shear Modulus (GPa) = 30.34079 32.63602 31.48841
#
# Velocity S-wave (km/s) = 3.87962 4.02369 3.95231
# Velocity P-wave (km/s) = 7.03304 7.29020 7.16278
#
# Compressibility (1/GPa) = 0.01687631
#
# Stress axis : x y z
#
# Youngs Moduli (GPa) = 98.15989 50.16539 82.43513
#
# Poissons Ratio (x) = 0.27370 0.15559
# Poissons Ratio (y) = 0.53556 0.44058
# Poissons Ratio (z) = 0.18527 0.26811
#
# Static dielectric constant tensor:
#      x y z
#    x 3.670660 0.000000 -0.023050 
#    y 0.000000 3.566640 0.000000 
#    z -0.023050 0.000000 3.925560 
# 
# 
# High freq. dielectric constant tensor:
#      x y z
#    x 1.800450 0.000000 -0.007110 
#    y 0.000000 1.771590 0.000000 
#    z -0.007110 0.000000 1.801570 
# 
# From -- ./inp_files/68971.got.cif
#   From: 2010.06.25/outbox.cif.g09.slc.cpg/sg11_35_cif.got.tgz:68971.got - 2010.06.27 23:14:04.
