data_PCOD8074079
_publ_section_title
;
Structure prediction by ZEFSAII (Michael W. Deem and Ramdas Pophale) SiO2 
 PCOD8074079
Probable space group: P 21/M
;
_chemical_formula_sum "Si O2"
_cell_formula_units_Z 28
_cell_length_a 15.887568
_cell_length_b 8.693646
_cell_length_c 20.131377
_cell_angle_alpha 90.000000
_cell_angle_beta 148.166118
_cell_angle_gamma 90.000000
_cell_volume 1466.631398
_symmetry_space_group_name_H-M "P 21/M"
_symmetry_group_IT_number 11
_symmetry_cell_setting 'monoclinic'
loop_
_space_group_symop_operation_xyz
x,y,z
-x,1/2+y,-z
-x,-y,-z
x,1/2-y,z
loop_
_atom_site_type_symbol
_atom_site_label
_atom_site_fract_x
_atom_site_fract_y
_atom_site_fract_z
Si Si1 0.530925 0.430674 0.593481
Si Si2 0.404183 0.923252 0.023594
Si Si3 0.031347 0.072456 0.449204
Si Si4 0.627339 0.923970 0.863587
Si Si5 0.823899 0.068179 0.880720
Si Si6 0.740392 0.923079 0.194998
Si Si7 0.671714 0.074725 0.425302
O O1 0.500000 0.500000 0.500000
O O2 0.506839 0.250000 0.572067
O O3 0.712018 0.469052 0.740929
O O4 0.397978 0.491454 0.556070
O O5 0.353242 0.750000 0.970399
O O6 0.594938 0.941767 0.148727
O O7 0.348863 0.960750 0.060010
O O8 0.321063 0.045230 0.920020
O O9 0.070664 0.250000 0.486050
O O10 0.168850 0.000106 0.496230
O O11 0.000000 0.000000 0.500000
O O12 0.870888 0.049381 0.300105
O O13 0.667465 0.750000 0.912013
O O14 0.449393 0.935338 0.716809
O O15 0.749874 0.979489 0.891854
O O16 0.829183 0.250000 0.896190
O O17 0.000000 0.000000 0.000000
O O18 0.810722 0.750000 0.245347
O O19 0.706528 0.250000 0.469292
#
# Coordination Sequence:
#
# PCOD8074079 Si02
#       7
#     4   4   4   4   4   4   4
#     4  10  21  39  63  90 120 157 198 244 300 360
#     4  10  20  35  56  81 110 146 187 230 281 336
#     4  12  24  38  57  83 116 152 193 238 287 340
#     4  10  20  35  58  84 111 146 187 230 281 338
#     4  10  21  38  60  87 118 149 190 241 292 349
#     4  10  21  37  56  79 111 148 187 234 282 334
#     4  10  21  38  60  86 116 151 194 240 287 345
#
# _framework density 19.091367999999999
#
# number of rings (size 3 to 8) (size 9 to 14) (size 15 to 20)
#    0.000    1.714    0.000    4.714    0.000    7.429 
#    2.571    0.000    0.000    0.000    0.000    0.000 
#    0.000    0.000    0.000    0.000    0.000    0.000 
#
# Total GULP energy -347127.941703 kJ/mol
# GULP energy per Si atom -12397.426489 kJ/mol
# Density = 1.904792 g / cm^3
# Si number density = 19.091368 Si / 1000 Ang^3
#
#
#
# Elastic Constant Matrix: (Units=GPa)
#
#
# Indices 1 2 3 4 5 6 
#
# 1 99.9427 47.5953 51.1963 0.0000 -9.9158 0.0000
# 2 47.5953 102.8675 45.5318 0.0000 -0.0520 0.0000
# 3 51.1963 45.5318 93.9196 0.0000 10.9557 0.0000
# 4 0.0000 0.0000 0.0000 32.6965 0.0000 -1.3509
# 5 -9.9158 -0.0520 10.9557 0.0000 19.7868 0.0000
# 6 0.0000 0.0000 0.0000 -1.3509 0.0000 34.2131
#
#
#
# Elastic Compliance Matrix: (Units=1/GPa)
#
#
# Indices 1 2 3 4 5 6 
#
# 1 0.018440 -0.004229 -0.009705 0.000000 0.014603 0.000000
# 2 -0.004229 0.013590 -0.004319 0.000000 0.000308 0.000000
# 3 -0.009705 -0.004319 0.019885 0.000000 -0.015885 0.000000
# 4 0.000000 0.000000 0.000000 0.030634 0.000000 0.001210
# 5 0.014603 0.000308 -0.015885 0.000000 0.066653 0.000000
# 6 0.000000 0.000000 0.000000 0.001210 0.000000 0.029276
#
#
# Mechanical properties :
#
#
# Convention : Reuss Voigt Hill
#
# Bulk Modulus (GPa) = 64.89993 65.04185 64.97089
# Shear Modulus (GPa) = 22.71486 27.49969 25.10728
#
# Velocity S-wave (km/s) = 3.45309 3.79941 3.63038
# Velocity P-wave (km/s) = 7.06870 7.30685 7.18876
#
# Compressibility (1/GPa) = 0.01540834
#
# Stress axis : x y z
#
# Youngs Moduli (GPa) = 54.22978 73.58522 50.29024
#
# Poissons Ratio (x) = 0.31118 0.48808
# Poissons Ratio (y) = 0.22933 0.21720
# Poissons Ratio (z) = 0.52631 0.31781
#
# Static dielectric constant tensor:
#      x y z
#    x 3.421390 0.000000 0.089010 
#    y 0.000000 3.755250 0.000000 
#    z 0.089010 0.000000 3.810730 
# 
# 
# High freq. dielectric constant tensor:
#      x y z
#    x 1.742960 0.000000 -0.000570 
#    y 0.000000 1.760590 0.000000 
#    z -0.000570 0.000000 1.738900 
# 
# From -- ./inp_files/64276.got.cif
#   From: 2010.06.25/outbox.cif.g09.slc.cpg/sg11_33_cif.got.tgz:64276.got - 2010.06.27 23:14:04.
