data_PCOD8074610
_publ_section_title
;
Structure prediction by ZEFSAII (Michael W. Deem and Ramdas Pophale) SiO2 
 PCOD8074610
Probable space group: P 21/M
;
_chemical_formula_sum "Si O2"
_cell_formula_units_Z 28
_cell_length_a 15.659093
_cell_length_b 8.690087
_cell_length_c 21.136191
_cell_angle_alpha 90.000000
_cell_angle_beta 28.535500
_cell_angle_gamma 90.000000
_cell_volume 1373.964722
_symmetry_space_group_name_H-M "P 21/M"
_symmetry_group_IT_number 11
_symmetry_cell_setting 'monoclinic'
loop_
_space_group_symop_operation_xyz
x,y,z
-x,1/2+y,-z
-x,-y,-z
x,1/2-y,z
loop_
_atom_site_type_symbol
_atom_site_label
_atom_site_fract_x
_atom_site_fract_y
_atom_site_fract_z
Si Si1 0.221827 0.571954 0.207839
Si Si2 0.402280 0.073995 0.980679
Si Si3 0.070012 0.929568 0.519742
Si Si4 0.069030 0.429814 0.889845
Si Si5 0.441842 0.932053 0.604848
Si Si6 0.734589 0.574070 0.065207
Si Si7 0.578870 0.069631 0.638491
O O1 0.170863 0.750000 0.248467
O O2 0.258282 0.531189 0.110927
O O3 0.062803 0.467897 0.336852
O O4 0.396898 0.525725 0.133494
O O5 0.366648 0.250000 0.023543
O O6 0.386789 0.046163 0.916667
O O7 0.081921 0.750000 0.499717
O O8 0.264034 0.991300 0.417018
O O9 0.000000 0.000000 0.500000
O O10 0.109001 0.250000 0.871002
O O11 0.243996 0.511565 0.749972
O O12 0.905433 0.462349 0.948406
O O13 0.000000 0.500000 0.000000
O O14 0.445128 0.750000 0.598023
O O15 0.500000 0.000000 0.500000
O O16 0.580248 0.984932 0.569693
O O17 0.801896 0.750000 0.025025
O O18 0.613272 0.534767 0.204935
O O19 0.606156 0.250000 0.608521
#
# Coordination Sequence:
#
# PCOD8074610 Si02
#       7
#     4   4   4   4   4   4   4
#     4  10  20  36  57  83 118 159 202 253 306 360
#     4   9  19  36  58  85 117 158 201 248 306 365
#     4  11  23  39  61  89 123 165 206 252 309 372
#     4  12  24  41  65  94 126 162 205 256 312 373
#     4  12  26  45  69  97 129 170 214 266 327 388
#     4  10  20  37  63  90 120 159 206 256 309 368
#     4  10  22  41  64  90 125 167 210 259 314 375
#
# _framework density 20.378979000000001
#
# number of rings (size 3 to 8) (size 9 to 14) (size 15 to 20)
#    0.000    1.429    1.429    4.286    0.000    5.714 
#    0.000    2.857    0.000    0.000    0.000    0.000 
#    0.000    0.000    0.000    0.000    0.000    0.000 
#
# Total GULP energy -347242.144426 kJ/mol
# GULP energy per Si atom -12401.505158 kJ/mol
# Density = 2.033260 g / cm^3
# Si number density = 20.378979 Si / 1000 Ang^3
#
#
#
# Elastic Constant Matrix: (Units=GPa)
#
#
# Indices 1 2 3 4 5 6 
#
# 1 120.8918 52.6695 50.1216 0.0000 3.4987 0.0000
# 2 52.6695 93.8424 44.2958 0.0000 -0.1561 0.0000
# 3 50.1216 44.2958 110.5667 0.0000 0.0832 0.0000
# 4 0.0000 0.0000 0.0000 34.8536 0.0000 1.7565
# 5 3.4987 -0.1561 0.0832 0.0000 34.1659 0.0000
# 6 0.0000 0.0000 0.0000 1.7565 0.0000 35.5871
#
#
#
# Elastic Compliance Matrix: (Units=1/GPa)
#
#
# Indices 1 2 3 4 5 6 
#
# 1 0.011927 -0.005111 -0.003358 0.000000 -0.001236 0.000000
# 2 -0.005111 0.015332 -0.003826 0.000000 0.000603 0.000000
# 3 -0.003358 -0.003826 0.012099 0.000000 0.000297 0.000000
# 4 0.000000 0.000000 0.000000 0.028763 0.000000 -0.001420
# 5 -0.001236 0.000603 0.000297 0.000000 0.029398 0.000000
# 6 0.000000 0.000000 0.000000 -0.001420 0.000000 0.028170
#
#
# Mechanical properties :
#
#
# Convention : Reuss Voigt Hill
#
# Bulk Modulus (GPa) = 67.71510 68.83054 68.27282
# Shear Modulus (GPa) = 32.21654 32.80225 32.50940
#
# Velocity S-wave (km/s) = 3.98033 4.01635 3.99838
# Velocity P-wave (km/s) = 7.37727 7.44021 7.40880
#
# Compressibility (1/GPa) = 0.01476775
#
# Stress axis : x y z
#
# Youngs Moduli (GPa) = 83.84667 65.22510 82.65102
#
# Poissons Ratio (x) = 0.33335 0.27754
# Poissons Ratio (y) = 0.42852 0.31621
# Poissons Ratio (z) = 0.28156 0.24954
#
# Static dielectric constant tensor:
#      x y z
#    x 3.938990 0.000000 -0.150310 
#    y 0.000000 3.797260 0.000000 
#    z -0.150310 0.000000 3.869730 
# 
# 
# High freq. dielectric constant tensor:
#      x y z
#    x 1.807590 0.000000 -0.001940 
#    y 0.000000 1.792570 0.000000 
#    z -0.001940 0.000000 1.797280 
# 
# From -- ./inp_files/65337.got.cif
#   From: 2010.06.25/outbox.cif.g09.slc.cpg/sg11_33_cif.got.tgz:65337.got - 2010.06.27 23:14:04.
