data_PCOD8074117
_publ_section_title
;
Structure prediction by ZEFSAII (Michael W. Deem and Ramdas Pophale) SiO2 
 PCOD8074117
Probable space group: P 21/M
;
_chemical_formula_sum "Si O2"
_cell_formula_units_Z 24
_cell_length_a 15.712291
_cell_length_b 8.732307
_cell_length_c 9.613825
_cell_angle_alpha 90.000000
_cell_angle_beta 103.433340
_cell_angle_gamma 90.000000
_cell_volume 1282.972160
_symmetry_space_group_name_H-M "P 21/M"
_symmetry_group_IT_number 11
_symmetry_cell_setting 'monoclinic'
loop_
_space_group_symop_operation_xyz
x,y,z
-x,1/2+y,-z
-x,-y,-z
x,1/2-y,z
loop_
_atom_site_type_symbol
_atom_site_label
_atom_site_fract_x
_atom_site_fract_y
_atom_site_fract_z
Si Si1 0.772469 0.431413 0.171833
Si Si2 0.465863 0.926312 0.127701
Si Si3 0.282547 0.430410 0.123493
Si Si4 0.755733 0.070098 0.602488
Si Si5 0.093988 0.571695 0.550802
Si Si6 0.356093 0.074208 0.667359
O O1 0.760395 0.250000 0.172291
O O2 0.859895 0.481741 0.288085
O O3 0.687756 0.506848 0.210284
O O4 0.778075 0.491338 0.016884
O O5 0.441132 0.750000 0.089510
O O6 0.539719 0.939545 0.274761
O O7 0.381979 0.013914 0.153163
O O8 0.500000 0.000000 0.000000
O O9 0.279192 0.250000 0.102559
O O10 0.241293 0.476926 0.254293
O O11 0.748890 0.250000 0.630363
O O12 0.843995 0.025258 0.554087
O O13 0.672081 0.021298 0.478795
O O14 0.079616 0.750000 0.547651
O O15 0.000000 0.500000 0.500000
O O16 0.326980 0.250000 0.637754
#
# Coordination Sequence:
#
# PCOD8074117 Si02
#       6
#     4   4   4   4   4   4
#     4  10  20  36  58  83 114 151 189 230 282 337
#     4  11  22  35  55  82 115 152 196 240 281 330
#     4  12  24  37  56  84 115 152 194 238 288 333
#     4  10  22  40  59  82 115 152 187 231 289 340
#     4   9  20  38  63  90 112 142 182 227 280 342
#     4  10  20  35  56  83 111 148 196 238 278 330
#
# _framework density 18.706562999999999
#
# number of rings (size 3 to 8) (size 9 to 14) (size 15 to 20)
#    0.000    1.667    1.667    4.500    0.000    6.667 
#    0.000    0.833    0.000    0.000    0.000    0.000 
#    0.000    0.000    0.000    0.000    0.000    0.000 
#
# Total GULP energy -297664.676400 kJ/mol
# GULP energy per Si atom -12402.694850 kJ/mol
# Density = 1.866399 g / cm^3
# Si number density = 18.706563 Si / 1000 Ang^3
#
#
#
# Elastic Constant Matrix: (Units=GPa)
#
#
# Indices 1 2 3 4 5 6 
#
# 1 107.0052 40.7083 53.8716 0.0000 16.6792 0.0000
# 2 40.7083 74.1068 16.4872 0.0000 6.7346 0.0000
# 3 53.8716 16.4872 107.5611 0.0000 4.7931 0.0000
# 4 0.0000 0.0000 0.0000 36.7235 0.0000 0.4123
# 5 16.6792 6.7346 4.7931 0.0000 24.5844 0.0000
# 6 0.0000 0.0000 0.0000 0.4123 0.0000 33.3855
#
#
#
# Elastic Compliance Matrix: (Units=1/GPa)
#
#
# Indices 1 2 3 4 5 6 
#
# 1 0.016746 -0.006912 -0.006966 0.000000 -0.008110 0.000000
# 2 -0.006912 0.017118 0.000845 0.000000 -0.000165 0.000000
# 3 -0.006966 0.000845 0.012565 0.000000 0.002045 0.000000
# 4 0.000000 0.000000 0.000000 0.027234 0.000000 -0.000336
# 5 -0.008110 -0.000165 0.002045 0.000000 0.045825 0.000000
# 6 0.000000 0.000000 0.000000 -0.000336 0.000000 0.029957
#
#
# Mechanical properties :
#
#
# Convention : Reuss Voigt Hill
#
# Bulk Modulus (GPa) = 49.10813 56.75638 52.93225
# Shear Modulus (GPa) = 27.42733 30.77908 29.10321
#
# Velocity S-wave (km/s) = 3.83324 4.06071 3.94861
# Velocity P-wave (km/s) = 6.77498 7.23823 7.01044
#
# Compressibility (1/GPa) = 0.02036323
#
# Stress axis : x y z
#
# Youngs Moduli (GPa) = 59.71483 58.41837 79.58350
#
# Poissons Ratio (x) = 0.40380 0.55441
# Poissons Ratio (y) = 0.41276 -0.06728
# Poissons Ratio (z) = 0.41600 -0.04939
#
# Static dielectric constant tensor:
#      x y z
#    x 2.977350 0.000000 -0.047280 
#    y 0.000000 3.500830 0.000000 
#    z -0.047280 0.000000 3.450430 
# 
# 
# High freq. dielectric constant tensor:
#      x y z
#    x 1.707070 0.000000 0.010180 
#    y 0.000000 1.741750 0.000000 
#    z 0.010180 0.000000 1.732760 
# 
# From -- ./inp_files/20603.got.cif
#   From: 2010.06.25/outbox.cif.g09.slc.cpg/sg11_11_cif.got.tgz:20603.got - 2010.06.27 23:14:04.
