data_PCOD8074344
_publ_section_title
;
Structure prediction by ZEFSAII (Michael W. Deem and Ramdas Pophale) SiO2 
 PCOD8074344
Probable space group: P 21/M
;
_chemical_formula_sum "Si O2"
_cell_formula_units_Z 32
_cell_length_a 21.337129
_cell_length_b 9.198143
_cell_length_c 21.892005
_cell_angle_alpha 90.000000
_cell_angle_beta 158.613076
_cell_angle_gamma 90.000000
_cell_volume 1566.804880
_symmetry_space_group_name_H-M "P 21/M"
_symmetry_group_IT_number 11
_symmetry_cell_setting 'monoclinic'
loop_
_space_group_symop_operation_xyz
x,y,z
-x,1/2+y,-z
-x,-y,-z
x,1/2-y,z
loop_
_atom_site_type_symbol
_atom_site_label
_atom_site_fract_x
_atom_site_fract_y
_atom_site_fract_z
Si Si1 0.555497 0.920101 0.752611
Si Si2 0.178290 0.579644 0.373579
Si Si3 0.150056 0.918494 0.210270
Si Si4 0.113628 0.919015 0.552781
Si Si5 0.822013 0.422835 0.082745
Si Si6 0.142235 0.091416 0.770669
Si Si7 0.648446 0.589616 0.162295
Si Si8 0.769881 0.918150 0.831203
O O1 0.584705 0.750000 0.794134
O O2 0.351487 0.959543 0.569240
O O3 0.620759 0.955940 0.743712
O O4 0.668655 0.014409 0.902174
O O5 0.133651 0.750000 0.340042
O O6 0.217503 0.541741 0.338665
O O7 0.010988 0.489912 0.242404
O O8 0.170019 0.750000 0.214559
O O9 0.265081 0.999695 0.264130
O O10 0.951103 0.968143 0.025051
O O11 0.130263 0.750000 0.585606
O O12 0.056722 0.939183 0.429709
O O13 0.294993 0.001254 0.725676
O O14 0.000000 0.000000 0.500000
O O15 0.828043 0.250000 0.080848
O O16 0.780091 0.467876 0.114945
O O17 0.162415 0.250000 0.821069
O O18 0.215653 0.098809 0.769107
O O19 0.591807 0.750000 0.131891
O O20 0.500000 0.500000 0.000000
O O21 0.772455 0.750000 0.817328
#
# Coordination Sequence:
#
# PCOD8074344 Si02
#       8
#     4   4   4   4   4   4   4   4
#     4  10  21  40  64  85 112 156 203 245 294 360
#     4  10  21  40  64  85 111 155 203 244 294 361
#     4   9  17  31  53  82 114 147 189 238 294 358
#     4   9  17  32  56  83 110 144 184 226 275 333
#     4  12  25  40  61  87 120 156 196 253 306 346
#     4   9  20  39  61  83 112 155 198 228 276 349
#     4  10  20  35  58  89 122 155 189 234 285 340
#     4   9  17  31  53  82 114 147 188 238 295 357
#
# _framework density 20.423729999999999
#
# number of rings (size 3 to 8) (size 9 to 14) (size 15 to 20)
#    0.000    2.250    1.250    2.625    0.000    5.000 
#    2.250    0.000    0.000    0.000    0.000    0.000 
#    0.000    0.000    0.000    0.000    0.000    0.000 
#
# Total GULP energy -396442.558925 kJ/mol
# GULP energy per Si atom -12388.829966 kJ/mol
# Density = 2.037725 g / cm^3
# Si number density = 20.423730 Si / 1000 Ang^3
#
#
#
# Elastic Constant Matrix: (Units=GPa)
#
#
# Indices 1 2 3 4 5 6 
#
# 1 36.6671 26.7613 18.0406 0.0000 -14.5470 0.0000
# 2 26.7613 127.1520 62.9716 0.0000 -17.8303 0.0000
# 3 18.0406 62.9716 121.4570 0.0000 -16.1352 0.0000
# 4 0.0000 0.0000 0.0000 30.8013 0.0000 -5.7052
# 5 -14.5470 -17.8303 -16.1352 0.0000 22.9032 0.0000
# 6 0.0000 0.0000 0.0000 -5.7052 0.0000 30.9915
#
#
#
# Elastic Compliance Matrix: (Units=1/GPa)
#
#
# Indices 1 2 3 4 5 6 
#
# 1 0.039504 -0.005198 -0.000416 0.000000 0.020751 0.000000
# 2 -0.005198 0.011772 -0.005022 0.000000 0.002324 0.000000
# 3 -0.000416 -0.005022 0.011413 0.000000 0.003866 0.000000
# 4 0.000000 0.000000 0.000000 0.033612 0.000000 0.006188
# 5 0.020751 0.002324 0.003866 0.000000 0.061375 0.000000
# 6 0.000000 0.000000 0.000000 0.006188 0.000000 0.033406
#
#
# Mechanical properties :
#
#
# Convention : Reuss Voigt Hill
#
# Bulk Modulus (GPa) = 24.14589 55.64700 39.89644
# Shear Modulus (GPa) = 22.10825 28.77271 25.44048
#
# Velocity S-wave (km/s) = 3.29367 3.75745 3.53318
# Velocity P-wave (km/s) = 5.12957 6.79191 6.01841
#
# Compressibility (1/GPa) = 0.04141492
#
# Stress axis : x y z
#
# Youngs Moduli (GPa) = 25.31419 84.94723 87.62160
#
# Poissons Ratio (x) = 0.44159 0.03643
# Poissons Ratio (y) = 0.13159 0.44008
# Poissons Ratio (z) = 0.01052 0.42664
#
# Static dielectric constant tensor:
#      x y z
#    x 3.460750 0.000000 -0.317600 
#    y 0.000000 3.682520 0.000000 
#    z -0.317600 0.000000 3.746490 
# 
# 
# High freq. dielectric constant tensor:
#      x y z
#    x 1.779690 0.000000 -0.013860 
#    y 0.000000 1.789600 0.000000 
#    z -0.013860 0.000000 1.806230 
# 
# From -- ./inp_files/70001.got.cif
#   From: 2010.06.25/outbox.cif.g09.slc.cpg/sg11_36_cif.got.tgz:70001.got - 2010.06.27 23:14:04.
