data_PCOD8074359
_publ_section_title
;
Structure prediction by ZEFSAII (Michael W. Deem and Ramdas Pophale) SiO2 
 PCOD8074359
Probable space group: P 21/M
;
_chemical_formula_sum "Si O2"
_cell_formula_units_Z 28
_cell_length_a 15.282475
_cell_length_b 9.058380
_cell_length_c 20.945525
_cell_angle_alpha 90.000000
_cell_angle_beta 27.585687
_cell_angle_gamma 90.000000
_cell_volume 1342.723150
_symmetry_space_group_name_H-M "P 21/M"
_symmetry_group_IT_number 11
_symmetry_cell_setting 'monoclinic'
loop_
_space_group_symop_operation_xyz
x,y,z
-x,1/2+y,-z
-x,-y,-z
x,1/2-y,z
loop_
_atom_site_type_symbol
_atom_site_label
_atom_site_fract_x
_atom_site_fract_y
_atom_site_fract_z
Si Si1 0.667704 0.922645 0.427626
Si Si2 0.754736 0.411920 0.875244
Si Si3 0.815311 0.920144 0.593416
Si Si4 0.042928 0.079071 0.147900
Si Si5 0.675031 0.909609 0.814966
Si Si6 0.174678 0.423138 0.921638
Si Si7 0.568741 0.576023 0.635676
O O1 0.653264 0.750000 0.424613
O O2 0.659781 0.959145 0.508078
O O3 0.500000 0.000000 0.500000
O O4 0.856163 0.981913 0.273111
O O5 0.852478 0.250000 0.820373
O O6 0.819931 0.530347 0.884344
O O7 0.798718 0.472381 0.775425
O O8 0.532659 0.396017 0.023458
O O9 0.865958 0.750000 0.549724
O O10 0.662410 0.948422 0.748316
O O11 0.720109 0.983113 0.590256
O O12 0.000000 0.000000 0.500000
O O13 0.988750 0.250000 0.190484
O O14 0.151590 0.048940 0.011856
O O15 0.776219 0.750000 0.757218
O O16 0.174195 0.250000 0.905420
O O17 0.370190 0.492760 0.771117
O O18 0.000000 0.500000 0.000000
O O19 0.529438 0.750000 0.670299
#
# Coordination Sequence:
#
# PCOD8074359 Si02
#       7
#     4   4   4   4   4   4   4
#     4  11  24  42  64  92 125 164 208 254 312 373
#     4  10  20  35  59  86 114 152 197 246 300 357
#     4  10  22  39  59  85 120 162 206 254 305 362
#     4  11  24  40  60  89 124 157 200 253 304 363
#     4   9  19  36  56  82 117 154 194 244 303 355
#     4  11  24  41  65  95 125 161 206 256 315 377
#     4  10  23  43  65  91 128 166 208 262 316 372
#
# _framework density 20.853144
#
# number of rings (size 3 to 8) (size 9 to 14) (size 15 to 20)
#    0.000    1.714    0.000    3.429    2.000    9.714 
#    0.000    0.000    0.000    0.000    0.000    0.000 
#    0.000    0.000    0.000    0.000    0.000    0.000 
#
# Total GULP energy -347127.259538 kJ/mol
# GULP energy per Si atom -12397.402126 kJ/mol
# Density = 2.080568 g / cm^3
# Si number density = 20.853144 Si / 1000 Ang^3
#
#
#
# Elastic Constant Matrix: (Units=GPa)
#
#
# Indices 1 2 3 4 5 6 
#
# 1 104.7156 38.9164 -5.3977 0.0000 -0.3847 0.0000
# 2 38.9164 91.4156 28.9933 0.0000 2.4838 0.0000
# 3 -5.3977 28.9933 45.5497 0.0000 -1.1519 0.0000
# 4 0.0000 0.0000 0.0000 34.5792 0.0000 -3.4607
# 5 -0.3847 2.4838 -1.1519 0.0000 32.6160 0.0000
# 6 0.0000 0.0000 0.0000 -3.4607 0.0000 38.5993
#
#
#
# Elastic Compliance Matrix: (Units=1/GPa)
#
#
# Indices 1 2 3 4 5 6 
#
# 1 0.012608 -0.007360 0.006202 0.000000 0.000928 0.000000
# 2 -0.007360 0.018062 -0.012417 0.000000 -0.001901 0.000000
# 3 0.006202 -0.012417 0.030646 0.000000 0.002101 0.000000
# 4 0.000000 0.000000 0.000000 0.029181 0.000000 0.002616
# 5 0.000928 -0.001901 0.002101 0.000000 0.030890 0.000000
# 6 0.000000 0.000000 0.000000 0.002616 0.000000 0.026142
#
#
# Mechanical properties :
#
#
# Convention : Reuss Voigt Hill
#
# Bulk Modulus (GPa) = 29.26837 40.74500 35.00669
# Shear Modulus (GPa) = 26.87224 33.10348 29.98786
#
# Velocity S-wave (km/s) = 3.59366 3.98861 3.79628
# Velocity P-wave (km/s) = 5.59331 6.38698 6.00327
#
# Compressibility (1/GPa) = 0.03416657
#
# Stress axis : x y z
#
# Youngs Moduli (GPa) = 79.31556 55.36530 32.63098
#
# Poissons Ratio (x) = 0.40746 -0.20238
# Poissons Ratio (y) = 0.58372 0.40518
# Poissons Ratio (z) = -0.49191 0.68747
#
# Static dielectric constant tensor:
#      x y z
#    x 4.042070 0.000000 0.400940 
#    y 0.000000 4.248100 0.000000 
#    z 0.400940 0.000000 3.632500 
# 
# 
# High freq. dielectric constant tensor:
#      x y z
#    x 1.828950 0.000000 0.009880 
#    y 0.000000 1.821190 0.000000 
#    z 0.009880 0.000000 1.816270 
# 
# From -- ./inp_files/65343.got.cif
#   From: 2010.06.25/outbox.cif.g09.slc.cpg/sg11_33_cif.got.tgz:65343.got - 2010.06.27 23:14:04.
