data_PCOD8074476
_publ_section_title
;
Structure prediction by ZEFSAII (Michael W. Deem and Ramdas Pophale) SiO2 
 PCOD8074476
Probable space group: P 21/M
;
_chemical_formula_sum "Si O2"
_cell_formula_units_Z 32
_cell_length_a 11.715339
_cell_length_b 8.832876
_cell_length_c 21.604110
_cell_angle_alpha 90.000000
_cell_angle_beta 123.727170
_cell_angle_gamma 90.000000
_cell_volume 1859.325102
_symmetry_space_group_name_H-M "P 21/M"
_symmetry_group_IT_number 11
_symmetry_cell_setting 'monoclinic'
loop_
_space_group_symop_operation_xyz
x,y,z
-x,1/2+y,-z
-x,-y,-z
x,1/2-y,z
loop_
_atom_site_type_symbol
_atom_site_label
_atom_site_fract_x
_atom_site_fract_y
_atom_site_fract_z
Si Si1 0.341042 0.930953 0.236122
Si Si2 0.636816 0.569842 0.514639
Si Si3 0.931718 0.582707 0.069067
Si Si4 0.207273 0.916994 0.073938
Si Si5 0.079073 0.428284 0.580698
Si Si6 0.370150 0.071341 0.628184
Si Si7 0.092108 0.570280 0.352477
Si Si8 0.919581 0.570885 0.779332
O O1 0.325348 0.750000 0.238451
O O2 0.317265 0.979380 0.157198
O O3 0.489985 0.994841 0.300435
O O4 0.228930 0.006766 0.246624
O O5 0.500000 0.500000 0.500000
O O6 0.635286 0.750000 0.520534
O O7 0.650535 0.515097 0.448045
O O8 0.760641 0.502223 0.590991
O O9 0.894714 0.750000 0.082745
O O10 0.062193 0.591099 0.064289
O O11 0.963113 0.472941 0.135937
O O12 0.802773 0.521777 0.989929
O O13 0.250629 0.750000 0.064474
O O14 0.069686 0.250000 0.568654
O O15 0.238118 0.482240 0.627933
O O16 0.000000 0.500000 0.500000
O O17 0.013181 0.479616 0.625478
O O18 0.384361 0.250000 0.633380
O O19 0.106591 0.750000 0.352124
O O20 0.034346 0.502493 0.271500
O O21 0.910920 0.750000 0.770957
#
# Coordination Sequence:
#
# PCOD8074476 Si02
#       8
#     4   4   4   4   4   4   4   4
#     4   9  17  31  50  72 102 134 163 200 245 296
#     4  11  21  33  51  73 101 131 164 201 243 297
#     4   9  16  27  44  66  96 132 165 197 237 288
#     4   8  14  24  41  67  97 130 163 193 233 288
#     4  10  20  36  56  74  93 123 165 212 253 294
#     4   9  18  33  52  72  95 126 162 202 247 290
#     4  11  22  35  51  71  97 129 166 206 251 298
#     4  11  21  32  48  71 101 132 165 205 247 294
#
# _framework density 17.210545
#
# number of rings (size 3 to 8) (size 9 to 14) (size 15 to 20)
#    0.000    2.250    1.250    3.750    0.000    4.500 
#    0.000    1.250    0.000    0.000    0.000    0.875 
#    0.000    0.000    0.000    0.000    0.000    0.000 
#
# Total GULP energy -396727.406623 kJ/mol
# GULP energy per Si atom -12397.731457 kJ/mol
# Density = 1.717137 g / cm^3
# Si number density = 17.210545 Si / 1000 Ang^3
#
#
#
# Elastic Constant Matrix: (Units=GPa)
#
#
# Indices 1 2 3 4 5 6 
#
# 1 82.1664 31.6789 39.1264 0.0000 -16.4419 0.0000
# 2 31.6789 73.5967 37.3590 0.0000 -8.2843 0.0000
# 3 39.1264 37.3590 119.3820 0.0000 -11.8220 0.0000
# 4 0.0000 0.0000 0.0000 29.3199 0.0000 -1.6573
# 5 -16.4419 -8.2843 -11.8220 0.0000 13.6441 0.0000
# 6 0.0000 0.0000 0.0000 -1.6573 0.0000 15.9519
#
#
#
# Elastic Compliance Matrix: (Units=1/GPa)
#
#
# Indices 1 2 3 4 5 6 
#
# 1 0.018855 -0.004639 -0.003016 0.000000 0.017292 0.000000
# 2 -0.004639 0.017747 -0.003850 0.000000 0.001849 0.000000
# 3 -0.003016 -0.003850 0.010915 0.000000 0.003486 0.000000
# 4 0.000000 0.000000 0.000000 0.034308 0.000000 0.003564
# 5 0.017292 0.001849 0.003486 0.000000 0.098273 0.000000
# 6 0.000000 0.000000 0.000000 0.003564 0.000000 0.063059
#
#
# Mechanical properties :
#
#
# Convention : Reuss Voigt Hill
#
# Bulk Modulus (GPa) = 40.80344 54.60820 47.70582
# Shear Modulus (GPa) = 18.22590 22.91521 20.57056
#
# Velocity S-wave (km/s) = 3.25775 3.65288 3.46096
# Velocity P-wave (km/s) = 6.15715 7.04200 6.61439
#
# Compressibility (1/GPa) = 0.02450774
#
# Stress axis : x y z
#
# Youngs Moduli (GPa) = 53.03604 56.34794 91.61847
#
# Poissons Ratio (x) = 0.26138 0.27628
# Poissons Ratio (y) = 0.24602 0.35275
# Poissons Ratio (z) = 0.15993 0.21695
#
# Static dielectric constant tensor:
#      x y z
#    x 3.097240 0.000000 0.041910 
#    y 0.000000 3.226430 0.000000 
#    z 0.041910 0.000000 3.553980 
# 
# 
# High freq. dielectric constant tensor:
#      x y z
#    x 1.624000 0.000000 -0.001890 
#    y 0.000000 1.660520 0.000000 
#    z -0.001890 0.000000 1.676140 
# 
# From -- ./inp_files/64212.got.cif
#   From: 2010.06.25/outbox.cif.g09.slc.cpg/sg11_33_cif.got.tgz:64212.got - 2010.06.27 23:14:04.
