data_PCOD8074080
_publ_section_title
;
Structure prediction by ZEFSAII (Michael W. Deem and Ramdas Pophale) SiO2 
 PCOD8074080
Probable space group: P 21/M
;
_chemical_formula_sum "Si O2"
_cell_formula_units_Z 24
_cell_length_a 9.540904
_cell_length_b 8.813312
_cell_length_c 15.589347
_cell_angle_alpha 90.000000
_cell_angle_beta 77.737903
_cell_angle_gamma 90.000000
_cell_volume 1280.955252
_symmetry_space_group_name_H-M "P 21/M"
_symmetry_group_IT_number 11
_symmetry_cell_setting 'monoclinic'
loop_
_space_group_symop_operation_xyz
x,y,z
-x,1/2+y,-z
-x,-y,-z
x,1/2-y,z
loop_
_atom_site_type_symbol
_atom_site_label
_atom_site_fract_x
_atom_site_fract_y
_atom_site_fract_z
Si Si1 0.362751 0.071012 0.973058
Si Si2 0.916533 0.076565 0.251562
Si Si3 0.832777 0.425184 0.869824
Si Si4 0.325088 0.573010 0.286155
Si Si5 0.616288 0.074006 0.212506
Si Si6 0.936863 0.572151 0.592841
O O1 0.381130 0.250000 0.969901
O O2 0.347884 0.013492 0.878831
O O3 0.500000 0.000000 0.000000
O O4 0.220392 0.023677 0.043021
O O5 0.960664 0.250000 0.227502
O O6 0.748286 0.049782 0.260191
O O7 0.954356 0.032307 0.344092
O O8 0.005616 0.972855 0.174073
O O9 0.830871 0.250000 0.896547
O O10 0.728621 0.457816 0.803261
O O11 0.337743 0.750000 0.304384
O O12 0.478697 0.494939 0.277717
O O13 0.218216 0.499367 0.368567
O O14 0.589686 0.250000 0.194951
O O15 0.917940 0.750000 0.582154
O O16 0.000000 0.500000 0.500000
#
# Coordination Sequence:
#
# PCOD8074080 Si02
#       6
#     4   4   4   4   4   4
#     4  12  23  35  54  80 112 150 194 238 277 325
#     4   9  21  39  58  82 114 149 185 229 283 337
#     4  10  20  35  56  81 110 148 193 236 278 327
#     4  10  20  35  57  84 113 146 187 230 278 334
#     4  11  22  37  57  82 114 151 188 232 283 330
#     4  10  20  38  63  88 113 142 183 229 277 338
#
# _framework density 18.736017
#
# number of rings (size 3 to 8) (size 9 to 14) (size 15 to 20)
#    0.000    1.667    1.667    3.500    0.000    4.000 
#    0.000    0.833    0.000    0.000    0.000    0.000 
#    0.000    0.000    0.000    0.000    0.000    0.000 
#
# Total GULP energy -297733.404693 kJ/mol
# GULP energy per Si atom -12405.558529 kJ/mol
# Density = 1.869337 g / cm^3
# Si number density = 18.736017 Si / 1000 Ang^3
#
#
#
# Elastic Constant Matrix: (Units=GPa)
#
#
# Indices 1 2 3 4 5 6 
#
# 1 126.5489 62.5913 60.6896 0.0000 -16.3291 0.0000
# 2 62.5913 136.9958 65.1622 0.0000 -16.0939 0.0000
# 3 60.6896 65.1622 125.5599 0.0000 -24.6840 0.0000
# 4 0.0000 0.0000 0.0000 34.5600 0.0000 -7.7451
# 5 -16.3291 -16.0939 -24.6840 0.0000 26.0243 0.0000
# 6 0.0000 0.0000 0.0000 -7.7451 0.0000 31.4877
#
#
#
# Elastic Compliance Matrix: (Units=1/GPa)
#
#
# Indices 1 2 3 4 5 6 
#
# 1 0.011456 -0.003393 -0.003412 0.000000 0.001853 0.000000
# 2 -0.003393 0.010745 -0.003747 0.000000 0.000962 0.000000
# 3 -0.003412 -0.003747 0.013130 0.000000 0.007996 0.000000
# 4 0.000000 0.000000 0.000000 0.030623 0.000000 0.007532
# 5 0.001853 0.000962 0.007996 0.000000 0.047767 0.000000
# 6 0.000000 0.000000 0.000000 0.007532 0.000000 0.033611
#
#
# Mechanical properties :
#
#
# Convention : Reuss Voigt Hill
#
# Bulk Modulus (GPa) = 70.29255 85.11011 77.70133
# Shear Modulus (GPa) = 28.87175 31.79182 30.33179
#
# Velocity S-wave (km/s) = 3.92979 4.12373 4.02792
# Velocity P-wave (km/s) = 7.62822 8.25821 7.94946
#
# Compressibility (1/GPa) = 0.01422626
#
# Stress axis : x y z
#
# Youngs Moduli (GPa) = 87.29188 93.06436 76.16161
#
# Poissons Ratio (x) = 0.31581 0.25984
# Poissons Ratio (y) = 0.29622 0.28539
# Poissons Ratio (z) = 0.29781 0.34873
#
# Static dielectric constant tensor:
#      x y z
#    x 3.475760 0.000000 -0.075340 
#    y 0.000000 3.618720 0.000000 
#    z -0.075340 0.000000 3.355750 
# 
# 
# High freq. dielectric constant tensor:
#      x y z
#    x 1.726570 0.000000 -0.013150 
#    y 0.000000 1.743980 0.000000 
#    z -0.013150 0.000000 1.713750 
# 
# From -- ./inp_files/20371.got.cif
#   From: 2010.06.25/outbox.cif.g09.slc.cpg/sg11_11_cif.got.tgz:20371.got - 2010.06.27 23:14:04.
