data_PCOD8074309
_publ_section_title
;
Structure prediction by ZEFSAII (Michael W. Deem and Ramdas Pophale) SiO2 
 PCOD8074309
Probable space group: P 21/M
;
_chemical_formula_sum "Si O2"
_cell_formula_units_Z 28
_cell_length_a 20.181507
_cell_length_b 9.238063
_cell_length_c 14.341033
_cell_angle_alpha 90.000000
_cell_angle_beta 149.297133
_cell_angle_gamma 90.000000
_cell_volume 1365.160777
_symmetry_space_group_name_H-M "P 21/M"
_symmetry_group_IT_number 11
_symmetry_cell_setting 'monoclinic'
loop_
_space_group_symop_operation_xyz
x,y,z
-x,1/2+y,-z
-x,-y,-z
x,1/2-y,z
loop_
_atom_site_type_symbol
_atom_site_label
_atom_site_fract_x
_atom_site_fract_y
_atom_site_fract_z
Si Si1 0.271245 0.082896 0.993209
Si Si2 0.423254 0.899248 0.308951
Si Si3 0.357226 0.581339 0.722407
Si Si4 0.377339 0.917502 0.961407
Si Si5 0.821984 0.576005 0.635605
Si Si6 0.706920 0.971335 0.688644
Si Si7 0.072785 0.092497 0.909220
O O1 0.290228 0.250000 0.989757
O O2 0.139038 0.055068 0.890156
O O3 0.266797 0.985067 0.894665
O O4 0.393088 0.034625 0.205662
O O5 0.386668 0.750000 0.211254
O O6 0.335509 0.894619 0.297371
O O7 0.573708 0.882799 0.517661
O O8 0.356645 0.750000 0.691640
O O9 0.328386 0.564904 0.797007
O O10 0.246197 0.488973 0.537835
O O11 0.494674 0.511302 0.863348
O O12 0.405419 0.750000 0.018596
O O13 0.806305 0.750000 0.623132
O O14 0.760072 0.494512 0.649900
O O15 0.973377 0.534827 0.814047
O O16 0.819665 0.886992 0.880108
O O17 0.002903 0.250000 0.816664
#
# Coordination Sequence:
#
# PCOD8074309 Si02
#       7
#     4   4   4   4   4   4   4
#     4  10  21  37  59  86 117 152 188 234 290 341
#     4  10  20  35  58  86 115 148 189 236 286 343
#     4  10  22  39  60  88 119 150 186 229 282 341
#     4  10  20  37  63  91 118 147 183 231 283 339
#     4  12  24  38  58  83 114 152 194 239 286 337
#     4  10  22  36  55  82 114 148 188 236 285 334
#     4  10  22  40  57  77 111 152 196 239 280 335
#
# _framework density 20.510403
#
# number of rings (size 3 to 8) (size 9 to 14) (size 15 to 20)
#    0.000    1.714    0.000    4.286    0.000    9.714 
#    0.000    0.714    0.000    0.000    0.000    0.000 
#    0.000    0.000    0.000    0.000    0.000    0.000 
#
# Total GULP energy -346945.014681 kJ/mol
# GULP energy per Si atom -12390.893381 kJ/mol
# Density = 2.046372 g / cm^3
# Si number density = 20.510403 Si / 1000 Ang^3
#
#
#
# Elastic Constant Matrix: (Units=GPa)
#
#
# Indices 1 2 3 4 5 6 
#
# 1 131.8725 57.2489 50.8172 0.0000 -2.2332 0.0000
# 2 57.2489 106.1574 31.3473 0.0000 1.4082 0.0000
# 3 50.8172 31.3473 70.8723 0.0000 5.8040 0.0000
# 4 0.0000 0.0000 0.0000 3.0532 0.0000 -22.7247
# 5 -2.2332 1.4082 5.8040 0.0000 25.2168 0.0000
# 6 0.0000 0.0000 0.0000 -22.7247 0.0000 -12.5068
#
#
#
# Elastic Compliance Matrix: (Units=1/GPa)
#
#
# Indices 1 2 3 4 5 6 
#
# 1 0.012361 -0.004620 -0.007064 0.000000 0.002979 0.000000
# 2 -0.004620 0.012568 -0.002197 0.000000 -0.000605 0.000000
# 3 -0.007064 -0.002197 0.020575 0.000000 -0.005239 0.000000
# 4 0.000000 0.000000 0.000000 0.022551 0.000000 -0.040975
# 5 0.002979 -0.000605 -0.005239 0.000000 0.041159 0.000000
# 6 0.000000 0.000000 0.000000 -0.040975 0.000000 -0.005505
#
#
# Mechanical properties :
#
#
# Convention : Reuss Voigt Hill
#
# Bulk Modulus (GPa) = 56.35770 65.30323 60.83047
# Shear Modulus (GPa) = 36.39392 14.45188 25.42290
#
# Velocity S-wave (km/s) = 4.21695 2.65733 3.52449
# Velocity P-wave (km/s) = 7.15873 6.42833 6.80334
#
# Compressibility (1/GPa) = 0.01774380
#
# Stress axis : x y z
#
# Youngs Moduli (GPa) = 80.89892 79.56655 48.60149
#
# Poissons Ratio (x) = 0.36758 0.34331
# Poissons Ratio (y) = 0.37373 0.10677
# Poissons Ratio (z) = 0.57145 0.17480
#
# Static dielectric constant tensor:
#      x y z
#    x 3.876680 0.000000 -0.043960 
#    y 0.000000 3.708910 0.000000 
#    z -0.043960 0.000000 3.448460 
# 
# 
# High freq. dielectric constant tensor:
#      x y z
#    x 1.812390 0.000000 -0.004610 
#    y 0.000000 1.807230 0.000000 
#    z -0.004610 0.000000 1.777130 
# 
# From -- ./inp_files/54586.got.cif
#   From: 2010.06.25/outbox.cif.g09.slc.cpg/sg11_28_cif.got.tgz:54586.got - 2010.06.27 23:14:04.
