data_PCOD8074758
_publ_section_title
;
Structure prediction by ZEFSAII (Michael W. Deem and Ramdas Pophale) SiO2 
 PCOD8074758
Probable space group: P 21/M
;
_chemical_formula_sum "Si O2"
_cell_formula_units_Z 32
_cell_length_a 5.285394
_cell_length_b 18.908284
_cell_length_c 16.314178
_cell_angle_alpha 90.000000
_cell_angle_beta 60.294726
_cell_angle_gamma 90.000000
_cell_volume 1416.144134
_symmetry_space_group_name_H-M "P 21/M"
_symmetry_group_IT_number 11
_symmetry_cell_setting 'monoclinic'
loop_
_space_group_symop_operation_xyz
x,y,z
-x,1/2+y,-z
-x,-y,-z
x,1/2-y,z
loop_
_atom_site_type_symbol
_atom_site_label
_atom_site_fract_x
_atom_site_fract_y
_atom_site_fract_z
Si Si1 0.858792 0.672490 0.810516
Si Si2 0.845012 0.832761 0.563193
Si Si3 0.514999 0.667812 0.448236
Si Si4 0.255660 0.430604 0.727007
Si Si5 0.335714 0.929352 0.895843
Si Si6 0.130961 0.171475 0.998198
Si Si7 0.433681 0.924213 0.149530
Si Si8 0.360537 0.581532 0.710402
O O1 0.800566 0.750000 0.782598
O O2 0.589615 0.624431 0.836081
O O3 0.134677 0.641333 0.715786
O O4 0.911121 0.678649 0.898745
O O5 0.811229 0.750000 0.590904
O O6 0.691681 0.850934 0.501695
O O7 0.680706 0.882879 0.655900
O O8 0.179823 0.856837 0.509233
O O9 0.528668 0.750000 0.425848
O O10 0.669310 0.630506 0.348064
O O11 0.454061 0.418032 0.775504
O O12 0.339265 0.505445 0.668624
O O13 0.912829 0.424959 0.801131
O O14 0.229458 0.943003 0.820194
O O15 0.441194 0.004335 0.915409
O O16 0.101937 0.889575 0.992650
O O17 0.076206 0.250000 0.968030
O O18 0.448502 0.143091 0.921128
#
# Coordination Sequence:
#
# PCOD8074758 Si02
#       8
#     4   4   4   4   4   4   4   4
#     4  10  20  36  59  85 122 160 195 247 307 358
#     4  10  22  39  63  92 122 157 199 247 302 367
#     4  10  23  42  62  89 123 160 201 250 306 356
#     4  11  24  42  64  89 121 161 205 252 305 356
#     4  10  21  39  59  87 125 163 193 252 304 363
#     4  10  23  39  58  90 121 159 209 253 300 357
#     4  11  24  41  64  90 120 162 209 252 299 359
#     4  10  22  38  58  91 124 154 204 242 302 365
#
# _framework density 22.596568999999999
#
# number of rings (size 3 to 8) (size 9 to 14) (size 15 to 20)
#    0.000    1.750    1.250    1.875    3.500    4.000 
#    0.000    0.000    0.000    0.000    0.000    0.000 
#    0.000    0.000    0.000    0.000    0.000    0.000 
#
# Total GULP energy -396586.137764 kJ/mol
# GULP energy per Si atom -12393.316805 kJ/mol
# Density = 2.254514 g / cm^3
# Si number density = 22.596569 Si / 1000 Ang^3
#
#
#
# Elastic Constant Matrix: (Units=GPa)
#
#
# Indices 1 2 3 4 5 6 
#
# 1 80.6266 13.0862 20.7742 0.0000 -16.9216 0.0000
# 2 13.0862 101.8660 41.7237 0.0000 -20.5211 0.0000
# 3 20.7742 41.7237 63.0889 0.0000 -23.3665 0.0000
# 4 0.0000 0.0000 0.0000 37.4311 0.0000 -14.6181
# 5 -16.9216 -20.5211 -23.3665 0.0000 34.4164 0.0000
# 6 0.0000 0.0000 0.0000 -14.6181 0.0000 24.2523
#
#
#
# Elastic Compliance Matrix: (Units=1/GPa)
#
#
# Indices 1 2 3 4 5 6 
#
# 1 0.014205 0.000478 -0.003075 0.000000 0.005182 0.000000
# 2 0.000478 0.013663 -0.008135 0.000000 0.002859 0.000000
# 3 -0.003075 -0.008135 0.026567 0.000000 0.011675 0.000000
# 4 0.000000 0.000000 0.000000 0.034941 0.000000 0.021060
# 5 0.005182 0.002859 0.011675 0.000000 0.041235 0.000000
# 6 0.000000 0.000000 0.000000 0.021060 0.000000 0.053927
#
#
# Mechanical properties :
#
#
# Convention : Reuss Voigt Hill
#
# Bulk Modulus (GPa) = 30.32733 44.08328 37.20530
# Shear Modulus (GPa) = 23.04235 30.55313 26.79774
#
# Velocity S-wave (km/s) = 3.19678 3.68110 3.44746
# Velocity P-wave (km/s) = 5.20348 6.13339 5.68747
#
# Compressibility (1/GPa) = 0.03297356
#
# Stress axis : x y z
#
# Youngs Moduli (GPa) = 70.39786 73.18886 37.64039
#
# Poissons Ratio (x) = -0.03502 0.11573
# Poissons Ratio (y) = -0.03368 0.30620
# Poissons Ratio (z) = 0.21645 0.59537
#
# Static dielectric constant tensor:
#      x y z
#    x 4.039230 0.000000 -0.114300 
#    y 0.000000 4.488060 0.000000 
#    z -0.114300 0.000000 3.861230 
# 
# 
# High freq. dielectric constant tensor:
#      x y z
#    x 1.889280 0.000000 -0.012580 
#    y 0.000000 1.903170 0.000000 
#    z -0.012580 0.000000 1.874240 
# 
# From -- ./inp_files/57229.got.cif
#   From: 2010.06.25/outbox.cif.g09.slc.cpg/sg11_29_cif.got.tgz:57229.got - 2010.06.27 23:14:04.
