data_PCOD8074986
_publ_section_title
;
Structure prediction by ZEFSAII (Michael W. Deem and Ramdas Pophale) SiO2 
 PCOD8074986
Probable space group: P 21/M
;
_chemical_formula_sum "Si O2"
_cell_formula_units_Z 28
_cell_length_a 19.508139
_cell_length_b 11.095451
_cell_length_c 12.305452
_cell_angle_alpha 90.000000
_cell_angle_beta 32.441885
_cell_angle_gamma 90.000000
_cell_volume 1428.836936
_symmetry_space_group_name_H-M "P 21/M"
_symmetry_group_IT_number 11
_symmetry_cell_setting 'monoclinic'
loop_
_space_group_symop_operation_xyz
x,y,z
-x,1/2+y,-z
-x,-y,-z
x,1/2-y,z
loop_
_atom_site_type_symbol
_atom_site_label
_atom_site_fract_x
_atom_site_fract_y
_atom_site_fract_z
Si Si1 0.129872 0.457844 0.381276
Si Si2 0.215961 0.114922 0.666209
Si Si3 0.337203 0.617732 0.207278
Si Si4 0.457221 0.460168 0.226512
Si Si5 0.664551 0.881312 0.058525
Si Si6 0.024283 0.111495 0.740045
Si Si7 0.163734 0.106875 0.975728
O O1 0.215010 0.570463 0.305740
O O2 0.000000 0.500000 0.500000
O O3 0.100741 0.375289 0.524736
O O4 0.211919 0.383522 0.184909
O O5 0.173241 0.250000 0.738686
O O6 0.198108 0.057760 0.809279
O O7 0.118164 0.061591 0.708672
O O8 0.362575 0.112333 0.431093
O O9 0.301989 0.750000 0.293119
O O10 0.367472 0.546617 0.276096
O O11 0.462551 0.623342 0.962404
O O12 0.555155 0.526418 0.174363
O O13 0.602083 0.750000 0.130515
O O14 0.708699 0.903134 0.122988
O O15 0.970391 0.250000 0.834920
O O16 0.927671 0.998838 0.854724
O O17 0.114856 0.250000 0.045819
#
# Coordination Sequence:
#
# PCOD8074986 Si02
#       7
#     4   4   4   4   4   4   4
#     4  11  21  37  57  86 117 152 189 237 294 352
#     4  10  21  39  62  83 113 154 196 238 289 345
#     4  10  21  35  56  84 116 150 189 238 288 344
#     4  10  20  37  56  82 115 147 197 233 290 339
#     4  10  21  37  57  84 118 153 189 237 292 345
#     4  11  22  39  61  89 118 153 196 243 294 347
#     4  10  22  41  61  85 118 156 195 240 291 346
#
# _framework density 19.596359
#
# number of rings (size 3 to 8) (size 9 to 14) (size 15 to 20)
#    0.000    1.714    2.857    1.714    0.000    2.286 
#    0.000    2.143    0.000    0.000    0.000    0.000 
#    0.000    0.000    0.000    0.000    0.000    0.000 
#
# Total GULP energy -346888.282661 kJ/mol
# GULP energy per Si atom -12388.867238 kJ/mol
# Density = 1.955176 g / cm^3
# Si number density = 19.596359 Si / 1000 Ang^3
#
#
#
# Elastic Constant Matrix: (Units=GPa)
#
#
# Indices 1 2 3 4 5 6 
#
# 1 117.0418 25.7027 13.8453 0.0000 4.7199 0.0000
# 2 25.7027 86.1343 10.6381 0.0000 -7.9075 0.0000
# 3 13.8453 10.6381 47.4732 0.0000 4.5984 0.0000
# 4 0.0000 0.0000 0.0000 19.0282 0.0000 1.2372
# 5 4.7199 -7.9075 4.5984 0.0000 36.0949 0.0000
# 6 0.0000 0.0000 0.0000 1.2372 0.0000 14.5316
#
#
#
# Elastic Compliance Matrix: (Units=1/GPa)
#
#
# Indices 1 2 3 4 5 6 
#
# 1 0.009439 -0.002715 -0.001992 0.000000 -0.001575 0.000000
# 2 -0.002715 0.013050 -0.002474 0.000000 0.003529 0.000000
# 3 -0.001992 -0.002474 0.022505 0.000000 -0.003149 0.000000
# 4 0.000000 0.000000 0.000000 0.052846 0.000000 -0.004499
# 5 -0.001575 0.003529 -0.003149 0.000000 0.029085 0.000000
# 6 0.000000 0.000000 0.000000 -0.004499 0.000000 0.069198
#
#
# Mechanical properties :
#
#
# Convention : Reuss Voigt Hill
#
# Bulk Modulus (GPa) = 32.64661 39.00239 35.82450
# Shear Modulus (GPa) = 22.65553 27.29517 24.97535
#
# Velocity S-wave (km/s) = 3.40385 3.73617 3.57387
# Velocity P-wave (km/s) = 5.66956 6.20951 5.94567
#
# Compressibility (1/GPa) = 0.03063106
#
# Stress axis : x y z
#
# Youngs Moduli (GPa) = 105.93879 76.63065 44.43488
#
# Poissons Ratio (x) = 0.20808 0.08851
# Poissons Ratio (y) = 0.28766 0.10994
# Poissons Ratio (z) = 0.21102 0.18960
#
# Static dielectric constant tensor:
#      x y z
#    x 3.848700 0.000000 0.216240 
#    y 0.000000 3.452900 0.000000 
#    z 0.216240 0.000000 3.476840 
# 
# 
# High freq. dielectric constant tensor:
#      x y z
#    x 1.779990 0.000000 0.008500 
#    y 0.000000 1.755220 0.000000 
#    z 0.008500 0.000000 1.745980 
# 
# From -- ./inp_files/43217.got.cif
#   From: 2010.06.25/outbox.cif.g09.slc.cpg/sg11_22_cif.got.tgz:43217.got - 2010.06.27 23:14:04.
