data_PCOD8074043
_publ_section_title
;
Structure prediction by ZEFSAII (Michael W. Deem and Ramdas Pophale) SiO2 
 PCOD8074043
Probable space group: P 21/M
;
_chemical_formula_sum "Si O2"
_cell_formula_units_Z 32
_cell_length_a 20.322042
_cell_length_b 14.148680
_cell_length_c 13.459894
_cell_angle_alpha 90.000000
_cell_angle_beta 154.898584
_cell_angle_gamma 90.000000
_cell_volume 1641.791087
_symmetry_space_group_name_H-M "P 21/M"
_symmetry_group_IT_number 11
_symmetry_cell_setting 'monoclinic'
loop_
_space_group_symop_operation_xyz
x,y,z
-x,1/2+y,-z
-x,-y,-z
x,1/2-y,z
loop_
_atom_site_type_symbol
_atom_site_label
_atom_site_fract_x
_atom_site_fract_y
_atom_site_fract_z
Si Si1 0.456616 0.007857 0.603181
Si Si2 0.128066 0.004521 0.258680
Si Si3 0.447120 0.852100 0.924817
Si Si4 0.894261 0.354329 0.607656
Si Si5 0.600446 0.361346 0.639703
Si Si6 0.595477 0.511062 0.993979
Si Si7 0.057775 0.489205 0.469350
Si Si8 0.958135 0.360065 0.171837
O O1 0.294741 0.026404 0.438212
O O2 0.499249 0.096707 0.591979
O O3 0.451941 0.911267 0.533807
O O4 0.594253 0.997857 0.873100
O O5 0.082223 0.088006 0.271192
O O6 0.129618 0.904211 0.318269
O O7 0.000000 0.000000 0.000000
O O8 0.525681 0.750000 0.050761
O O9 0.264448 0.838848 0.667186
O O10 0.492090 0.919920 0.078412
O O11 0.503420 0.894446 0.896970
O O12 0.972047 0.250000 0.729418
O O13 0.995246 0.422112 0.672914
O O14 0.566792 0.250000 0.586620
O O15 0.781838 0.383665 0.901251
O O16 0.758783 0.519846 0.271605
O O17 0.000000 0.500000 0.500000
O O18 0.986507 0.394617 0.323503
O O19 0.992175 0.250000 0.211740
#
# Coordination Sequence:
#
# PCOD8074043 Si02
#       8
#     4   4   4   4   4   4   4   4
#     4  11  22  39  63  86 119 155 201 244 296 352
#     4  11  21  37  61  89 117 153 194 249 302 342
#     4   9  18  33  54  81 109 140 182 229 279 337
#     4   9  19  36  58  83 111 147 193 237 282 347
#     4  10  23  42  62  84 115 159 203 242 289 355
#     4  10  20  35  55  84 113 148 185 232 285 345
#     4  10  21  37  58  83 118 155 192 234 291 344
#     4  10  22  40  61  87 119 156 199 243 294 354
#
# _framework density 19.490908999999998
#
# number of rings (size 3 to 8) (size 9 to 14) (size 15 to 20)
#    0.000    2.000    2.500    0.750    1.750    3.500 
#    0.000    2.500    0.000    0.000    0.000    0.000 
#    0.000    0.000    0.000    0.000    0.000    0.000 
#
# Total GULP energy -396685.300904 kJ/mol
# GULP energy per Si atom -12396.415653 kJ/mol
# Density = 1.944655 g / cm^3
# Si number density = 19.490909 Si / 1000 Ang^3
#
#
#
# Elastic Constant Matrix: (Units=GPa)
#
#
# Indices 1 2 3 4 5 6 
#
# 1 118.1568 60.0308 20.5606 0.0000 -13.3958 0.0000
# 2 60.0308 154.5784 41.8123 0.0000 -7.1452 0.0000
# 3 20.5606 41.8123 60.9943 0.0000 -21.2041 0.0000
# 4 0.0000 0.0000 0.0000 23.7431 0.0000 0.5406
# 5 -13.3958 -7.1452 -21.2041 0.0000 33.6589 0.0000
# 6 0.0000 0.0000 0.0000 0.5406 0.0000 18.2137
#
#
#
# Elastic Compliance Matrix: (Units=1/GPa)
#
#
# Indices 1 2 3 4 5 6 
#
# 1 0.010944 -0.004215 0.000516 0.000000 0.003786 0.000000
# 2 -0.004215 0.009698 -0.006524 0.000000 -0.003728 0.000000
# 3 0.000516 -0.006524 0.025971 0.000000 0.015181 0.000000
# 4 0.000000 0.000000 0.000000 0.042146 0.000000 -0.001251
# 5 0.003786 -0.003728 0.015181 0.000000 0.039989 0.000000
# 6 0.000000 0.000000 0.000000 -0.001251 0.000000 0.054941
#
#
# Mechanical properties :
#
#
# Convention : Reuss Voigt Hill
#
# Bulk Modulus (GPa) = 38.21344 64.28188 51.24766
# Shear Modulus (GPa) = 23.49009 29.21155 26.35082
#
# Velocity S-wave (km/s) = 3.47534 3.87554 3.68088
# Velocity P-wave (km/s) = 5.97932 7.28550 6.66449
#
# Compressibility (1/GPa) = 0.02616880
#
# Stress axis : x y z
#
# Youngs Moduli (GPa) = 91.37340 103.11090 38.50510
#
# Poissons Ratio (x) = 0.43459 -0.01988
# Poissons Ratio (y) = 0.38512 0.25119
# Poissons Ratio (z) = -0.04718 0.67266
#
# Static dielectric constant tensor:
#      x y z
#    x 3.610150 0.000000 -0.263430 
#    y 0.000000 3.626450 0.000000 
#    z -0.263430 0.000000 3.198420 
# 
# 
# High freq. dielectric constant tensor:
#      x y z
#    x 1.759920 0.000000 -0.009110 
#    y 0.000000 1.759700 0.000000 
#    z -0.009110 0.000000 1.753640 
# 
# From -- ./inp_files/41730.got.cif
#   From: 2010.06.25/outbox.cif.g09.slc.cpg/sg11_21_cif.got.tgz:41730.got - 2010.06.27 23:14:04.
