data_PCOD8074898
_publ_section_title
;
Structure prediction by ZEFSAII (Michael W. Deem and Ramdas Pophale) SiO2 
 PCOD8074898
Probable space group: P 21/M
;
_chemical_formula_sum "Si O2"
_cell_formula_units_Z 32
_cell_length_a 21.120453
_cell_length_b 12.441936
_cell_length_c 9.602273
_cell_angle_alpha 90.000000
_cell_angle_beta 44.340495
_cell_angle_gamma 90.000000
_cell_volume 1763.572404
_symmetry_space_group_name_H-M "P 21/M"
_symmetry_group_IT_number 11
_symmetry_cell_setting 'monoclinic'
loop_
_space_group_symop_operation_xyz
x,y,z
-x,1/2+y,-z
-x,-y,-z
x,1/2-y,z
loop_
_atom_site_type_symbol
_atom_site_label
_atom_site_fract_x
_atom_site_fract_y
_atom_site_fract_z
Si Si1 0.135647 0.003628 0.375796
Si Si2 0.093889 0.023424 0.928070
Si Si3 0.626281 0.004264 0.685161
Si Si4 0.257018 0.876060 0.721392
Si Si5 0.448043 0.626387 0.938107
Si Si6 0.039124 0.125380 0.300025
Si Si7 0.797886 0.627214 0.469804
Si Si8 0.712503 0.127690 0.008142
O O1 0.106198 0.100503 0.321542
O O2 0.148276 0.053011 0.507484
O O3 0.227279 0.951302 0.177991
O O4 0.061251 0.910333 0.499756
O O5 0.150130 0.115243 0.758703
O O6 0.156696 0.917321 0.838343
O O7 0.074997 0.060888 0.112414
O O8 0.000000 0.000000 0.000000
O O9 0.666384 0.072334 0.495438
O O10 0.535479 0.946790 0.776010
O O11 0.694499 0.910567 0.624006
O O12 0.608652 0.084752 0.840416
O O13 0.256537 0.750000 0.697053
O O14 0.283308 0.907141 0.837621
O O15 0.475578 0.750000 0.922388
O O16 0.389289 0.616800 0.889618
O O17 0.038638 0.250000 0.266247
O O18 0.798991 0.750000 0.516686
O O19 0.747529 0.250000 0.936223
#
# Coordination Sequence:
#
# PCOD8074898 Si02
#       8
#     4   4   4   4   4   4   4   4
#     4  11  21  39  56  84 115 146 197 232 278 334
#     4  11  22  40  54  84 114 148 192 239 283 337
#     4  10  21  37  58  87 118 146 183 235 276 342
#     4  10  22  39  60  82 114 153 191 234 282 333
#     4  10  20  36  61  88 114 147 185 229 284 336
#     4  11  23  38  58  80 114 153 190 236 282 334
#     4  11  22  37  58  81 114 152 186 232 288 334
#     4  10  20  37  61  85 113 150 189 234 280 331
#
# _framework density 18.144988000000001
#
# number of rings (size 3 to 8) (size 9 to 14) (size 15 to 20)
#    0.000    1.500    3.750    1.875    0.000    1.500 
#    0.000    0.000    0.000    0.000    0.000    0.000 
#    0.000    0.000    0.000    0.000    0.000    0.000 
#
# Total GULP energy -396912.098693 kJ/mol
# GULP energy per Si atom -12403.503084 kJ/mol
# Density = 1.810369 g / cm^3
# Si number density = 18.144988 Si / 1000 Ang^3
#
#
#
# Elastic Constant Matrix: (Units=GPa)
#
#
# Indices 1 2 3 4 5 6 
#
# 1 100.8284 28.7829 37.4874 0.0000 -3.0546 0.0000
# 2 28.7829 92.4510 35.2025 0.0000 -7.7614 0.0000
# 3 37.4874 35.2025 92.5547 0.0000 -1.1793 0.0000
# 4 0.0000 0.0000 0.0000 18.4169 0.0000 3.7609
# 5 -3.0546 -7.7614 -1.1793 0.0000 26.0167 0.0000
# 6 0.0000 0.0000 0.0000 3.7609 0.0000 22.1358
#
#
#
# Elastic Compliance Matrix: (Units=1/GPa)
#
#
# Indices 1 2 3 4 5 6 
#
# 1 0.012060 -0.002161 -0.004055 0.000000 0.000587 0.000000
# 2 -0.002161 0.013373 -0.004166 0.000000 0.003547 0.000000
# 3 -0.004055 -0.004166 0.014018 0.000000 -0.001084 0.000000
# 4 0.000000 0.000000 0.000000 0.056249 0.000000 -0.009557
# 5 0.000587 0.003547 -0.001084 0.000000 0.039515 0.000000
# 6 0.000000 0.000000 0.000000 -0.009557 0.000000 0.046799
#
#
# Mechanical properties :
#
#
# Convention : Reuss Voigt Hill
#
# Bulk Modulus (GPa) = 53.51488 54.30887 53.91188
# Shear Modulus (GPa) = 23.92245 25.60464 24.76354
#
# Velocity S-wave (km/s) = 3.63492 3.76055 3.69827
# Velocity P-wave (km/s) = 6.86832 6.98936 6.92911
#
# Compressibility (1/GPa) = 0.01868639
#
# Stress axis : x y z
#
# Youngs Moduli (GPa) = 82.91636 74.77500 71.33897
#
# Poissons Ratio (x) = 0.16161 0.28930
# Poissons Ratio (y) = 0.17921 0.29719
# Poissons Ratio (z) = 0.33625 0.31151
#
# Static dielectric constant tensor:
#      x y z
#    x 3.459590 0.000000 0.061460 
#    y 0.000000 3.292180 0.000000 
#    z 0.061460 0.000000 3.365770 
# 
# 
# High freq. dielectric constant tensor:
#      x y z
#    x 1.712430 0.000000 0.002870 
#    y 0.000000 1.703620 0.000000 
#    z 0.002870 0.000000 1.709170 
# 
# From -- ./inp_files/21554.got.cif
#   From: 2010.06.25/outbox.cif.g09.slc.cpg/sg11_11_cif.got.tgz:21554.got - 2010.06.27 23:14:04.
