data_PCOD8074611
_publ_section_title
;
Structure prediction by ZEFSAII (Michael W. Deem and Ramdas Pophale) SiO2 
 PCOD8074611
Probable space group: P 21/M
;
_chemical_formula_sum "Si O2"
_cell_formula_units_Z 28
_cell_length_a 11.537607
_cell_length_b 13.374179
_cell_length_c 10.969635
_cell_angle_alpha 90.000000
_cell_angle_beta 126.659440
_cell_angle_gamma 90.000000
_cell_volume 1357.865953
_symmetry_space_group_name_H-M "P 21/M"
_symmetry_group_IT_number 11
_symmetry_cell_setting 'monoclinic'
loop_
_space_group_symop_operation_xyz
x,y,z
-x,1/2+y,-z
-x,-y,-z
x,1/2-y,z
loop_
_atom_site_type_symbol
_atom_site_label
_atom_site_fract_x
_atom_site_fract_y
_atom_site_fract_z
Si Si1 0.004194 0.362745 0.753427
Si Si2 0.458134 0.447355 0.167309
Si Si3 0.146173 0.362487 0.351910
Si Si4 0.746563 0.452780 0.469501
Si Si5 0.863728 0.449063 0.278672
Si Si6 0.174610 0.136645 0.093237
Si Si7 0.565768 0.134692 0.995273
O O1 0.039403 0.250000 0.733047
O O2 0.110065 0.437237 0.747570
O O3 0.834119 0.385895 0.623201
O O4 0.037009 0.376790 0.917934
O O5 0.585611 0.413417 0.340636
O O6 0.305666 0.435735 0.137408
O O7 0.488962 0.563293 0.148967
O O8 0.462857 0.378926 0.048694
O O9 0.201303 0.250000 0.403771
O O10 0.266270 0.434937 0.485564
O O11 0.121389 0.390394 0.194774
O O12 0.995657 0.377847 0.326390
O O13 0.846415 0.450245 0.412510
O O14 0.725117 0.402386 0.127627
O O15 0.233658 0.250000 0.124670
O O16 0.563935 0.250000 0.952051
#
# Coordination Sequence:
#
# PCOD8074611 Si02
#       7
#     4   4   4   4   4   4   4
#     4  10  20  36  57  84 113 150 195 237 284 342
#     4  10  21  39  56  85 119 152 194 240 288 347
#     4  10  21  37  59  85 117 154 194 239 288 344
#     4  10  23  36  57  87 118 149 190 238 298 344
#     4  10  20  37  57  88 117 149 189 242 296 342
#     4  10  21  38  61  84 112 156 200 234 284 347
#     4  10  20  36  60  85 115 154 196 239 290 345
#
# _framework density 20.620591999999998
#
# number of rings (size 3 to 8) (size 9 to 14) (size 15 to 20)
#    0.000    2.000    1.429    2.571    0.000    8.571 
#    0.000    0.000    0.000    0.000    0.000    0.000 
#    0.000    0.000    0.000    0.000    0.000    0.000 
#
# Total GULP energy -347148.528298 kJ/mol
# GULP energy per Si atom -12398.161725 kJ/mol
# Density = 2.057366 g / cm^3
# Si number density = 20.620592 Si / 1000 Ang^3
#
#
#
# Elastic Constant Matrix: (Units=GPa)
#
#
# Indices 1 2 3 4 5 6 
#
# 1 40.4106 25.7681 41.5278 0.0000 1.1423 0.0000
# 2 25.7681 105.6138 26.2082 0.0000 -1.8151 0.0000
# 3 41.5278 26.2082 115.3178 0.0000 1.0622 0.0000
# 4 0.0000 0.0000 0.0000 26.0781 0.0000 -3.4767
# 5 1.1423 -1.8151 1.0622 0.0000 21.7771 0.0000
# 6 0.0000 0.0000 0.0000 -3.4767 0.0000 17.6345
#
#
#
# Elastic Compliance Matrix: (Units=1/GPa)
#
#
# Indices 1 2 3 4 5 6 
#
# 1 0.044005 -0.007257 -0.014177 0.000000 -0.002222 0.000000
# 2 -0.007257 0.011251 0.000044 0.000000 0.001316 0.000000
# 3 -0.014177 0.000044 0.013766 0.000000 0.000076 0.000000
# 4 0.000000 0.000000 0.000000 0.039382 0.000000 0.007764
# 5 -0.002222 0.001316 0.000076 0.000000 0.046142 0.000000
# 6 0.000000 0.000000 0.000000 0.007764 0.000000 0.058238
#
#
# Mechanical properties :
#
#
# Convention : Reuss Voigt Hill
#
# Bulk Modulus (GPa) = 38.10575 49.81674 43.96125
# Shear Modulus (GPa) = 18.91708 24.28714 21.60211
#
# Velocity S-wave (km/s) = 3.03213 3.43565 3.24017
# Velocity P-wave (km/s) = 5.54779 6.32055 5.94674
#
# Compressibility (1/GPa) = 0.02624276
#
# Stress axis : x y z
#
# Youngs Moduli (GPa) = 22.72451 88.88400 72.64040
#
# Poissons Ratio (x) = 0.64500 1.02985
# Poissons Ratio (y) = 0.16490 -0.00321
# Poissons Ratio (z) = 0.32217 -0.00393
#
# Static dielectric constant tensor:
#      x y z
#    x 3.419660 0.000000 0.014160 
#    y 0.000000 3.750690 0.000000 
#    z 0.014160 0.000000 3.919140 
# 
# 
# High freq. dielectric constant tensor:
#      x y z
#    x 1.781020 0.000000 0.006010 
#    y 0.000000 1.805640 0.000000 
#    z 0.006010 0.000000 1.812880 
# 
# From -- ./inp_files/18167.got.cif
#   From: 2010.06.25/outbox.cif.g09.slc.cpg/sg11_10_cif.got.tgz:18167.got - 2010.06.27 23:14:04.
