data_PCOD8074972
_publ_section_title
;
Structure prediction by ZEFSAII (Michael W. Deem and Ramdas Pophale) SiO2 
 PCOD8074972
Probable space group: P 21/M
;
_chemical_formula_sum "Si O2"
_cell_formula_units_Z 32
_cell_length_a 11.659352
_cell_length_b 14.989524
_cell_length_c 16.408572
_cell_angle_alpha 90.000000
_cell_angle_beta 146.337939
_cell_angle_gamma 90.000000
_cell_volume 1589.544772
_symmetry_space_group_name_H-M "P 21/M"
_symmetry_group_IT_number 11
_symmetry_cell_setting 'monoclinic'
loop_
_space_group_symop_operation_xyz
x,y,z
-x,1/2+y,-z
-x,-y,-z
x,1/2-y,z
loop_
_atom_site_type_symbol
_atom_site_label
_atom_site_fract_x
_atom_site_fract_y
_atom_site_fract_z
Si Si1 0.866528 0.424834 0.662244
Si Si2 0.224060 0.850978 0.222231
Si Si3 0.515836 0.516973 0.663716
Si Si4 0.099903 0.351374 0.105296
Si Si5 0.426513 0.002641 0.792100
Si Si6 0.783770 0.852066 0.234913
Si Si7 0.602018 0.149880 0.101489
Si Si8 0.150878 0.922601 0.897294
O O1 0.842568 0.357446 0.723271
O O2 0.641143 0.452115 0.498225
O O3 0.988201 0.375292 0.661792
O O4 0.980330 0.513288 0.758761
O O5 0.296328 0.750000 0.245888
O O6 0.412756 0.916458 0.313211
O O7 0.026195 0.876860 0.050503
O O8 0.708546 0.583037 0.775335
O O9 0.400696 0.519422 0.682203
O O10 0.181506 0.250000 0.148998
O O11 0.950808 0.360365 0.094801
O O12 0.346197 0.917674 0.795427
O O13 0.280189 0.086749 0.726485
O O14 0.665347 0.021180 0.953119
O O15 0.771677 0.750000 0.257175
O O16 0.627005 0.871515 0.067690
O O17 0.614954 0.250000 0.143919
O O18 0.764555 0.140131 0.124343
#
# Coordination Sequence:
#
# PCOD8074972 Si02
#       8
#     4   4   4   4   4   4   4   4
#     4  12  23  41  64  88 128 172 204 252 318 372
#     4  11  24  43  66  92 122 166 214 259 311 371
#     4  12  26  41  63  94 131 168 206 256 310 376
#     4  11  24  41  67  96 126 162 210 266 310 359
#     4  11  21  40  66  90 124 159 212 262 300 364
#     4  10  21  38  64  92 121 161 209 257 308 367
#     4  10  20  36  63  96 121 159 211 262 307 357
#     4  11  19  40  66  90 123 161 209 259 310 363
#
# _framework density 20.131550000000001
#
# number of rings (size 3 to 8) (size 9 to 14) (size 15 to 20)
#    0.000    1.000    5.000    3.000    0.000    3.000 
#    0.000    0.625    0.000    0.000    0.000    0.000 
#    0.000    0.000    0.000    0.000    0.000    0.000 
#
# Total GULP energy -396994.627585 kJ/mol
# GULP energy per Si atom -12406.082112 kJ/mol
# Density = 2.008573 g / cm^3
# Si number density = 20.131550 Si / 1000 Ang^3
#
#
#
# Elastic Constant Matrix: (Units=GPa)
#
#
# Indices 1 2 3 4 5 6 
#
# 1 119.8701 38.6131 38.7151 0.0000 3.5754 0.0000
# 2 38.6131 105.3106 38.5258 0.0000 7.2467 0.0000
# 3 38.7151 38.5258 91.5519 0.0000 3.0637 0.0000
# 4 0.0000 0.0000 0.0000 14.6692 0.0000 -0.9227
# 5 3.5754 7.2467 3.0637 0.0000 15.2282 0.0000
# 6 0.0000 0.0000 0.0000 -0.9227 0.0000 22.5291
#
#
#
# Elastic Compliance Matrix: (Units=1/GPa)
#
#
# Indices 1 2 3 4 5 6 
#
# 1 0.010218 -0.002523 -0.003241 0.000000 -0.000546 0.000000
# 2 -0.002523 0.012150 -0.003898 0.000000 -0.004405 0.000000
# 3 -0.003241 -0.003898 0.013940 0.000000 -0.000189 0.000000
# 4 0.000000 0.000000 0.000000 0.068346 0.000000 0.002799
# 5 -0.000546 -0.004405 -0.000189 0.000000 0.067930 0.000000
# 6 0.000000 0.000000 0.000000 0.002799 0.000000 0.044502
#
#
# Mechanical properties :
#
#
# Convention : Reuss Voigt Hill
#
# Bulk Modulus (GPa) = 58.88207 60.93785 59.90996
# Shear Modulus (GPa) = 20.65493 23.87721 22.26607
#
# Velocity S-wave (km/s) = 3.20660 3.44766 3.32931
# Velocity P-wave (km/s) = 6.55910 6.79588 6.67854
#
# Compressibility (1/GPa) = 0.01698310
#
# Stress axis : x y z
#
# Youngs Moduli (GPa) = 97.86429 82.30287 71.73571
#
# Poissons Ratio (x) = 0.20768 0.23249
# Poissons Ratio (y) = 0.24695 0.27966
# Poissons Ratio (z) = 0.31717 0.32085
#
# Static dielectric constant tensor:
#      x y z
#    x 3.802870 0.000000 0.033670 
#    y 0.000000 3.660420 0.000000 
#    z 0.033670 0.000000 3.447030 
# 
# 
# High freq. dielectric constant tensor:
#      x y z
#    x 1.796310 0.000000 0.003830 
#    y 0.000000 1.794570 0.000000 
#    z 0.003830 0.000000 1.761980 
# 
# From -- ./inp_files/27822.got.cif
#   From: 2010.06.25/outbox.cif.g09.slc.cpg/sg11_14_cif.got.tgz:27822.got - 2010.06.27 23:14:04.
