data_PCOD8074943
_publ_section_title
;
Structure prediction by ZEFSAII (Michael W. Deem and Ramdas Pophale) SiO2 
 PCOD8074943
Probable space group: P 21/M
;
_chemical_formula_sum "Si O2"
_cell_formula_units_Z 32
_cell_length_a 11.628704
_cell_length_b 14.564789
_cell_length_c 14.960046
_cell_angle_alpha 90.000000
_cell_angle_beta 42.660417
_cell_angle_gamma 90.000000
_cell_volume 1717.018727
_symmetry_space_group_name_H-M "P 21/M"
_symmetry_group_IT_number 11
_symmetry_cell_setting 'monoclinic'
loop_
_space_group_symop_operation_xyz
x,y,z
-x,1/2+y,-z
-x,-y,-z
x,1/2-y,z
loop_
_atom_site_type_symbol
_atom_site_label
_atom_site_fract_x
_atom_site_fract_y
_atom_site_fract_z
Si Si1 0.906347 0.918403 0.599656
Si Si2 0.298372 0.004709 0.605760
Si Si3 0.807523 0.509582 0.136248
Si Si4 0.471803 0.139550 0.782002
Si Si5 0.265203 0.349305 0.475021
Si Si6 0.599561 0.145669 0.179147
Si Si7 0.438804 0.010848 0.135018
Si Si8 0.222345 0.853138 0.523882
O O1 0.840453 0.856983 0.555970
O O2 0.757628 0.958126 0.748046
O O3 0.039593 0.860950 0.581610
O O4 0.000000 0.000000 0.500000
O O5 0.227355 0.907561 0.613542
O O6 0.500000 0.000000 0.500000
O O7 0.210028 0.029190 0.748784
O O8 0.229750 0.076130 0.570942
O O9 0.705909 0.593238 0.146453
O O10 0.748555 0.408568 0.141911
O O11 0.000000 0.500000 0.000000
O O12 0.451936 0.250000 0.806565
O O13 0.620911 0.113320 0.627286
O O14 0.531609 0.089559 0.838317
O O15 0.223974 0.250000 0.540913
O O16 0.459009 0.355933 0.335979
O O17 0.651582 0.250000 0.123667
O O18 0.546602 0.091363 0.120190
O O19 0.500000 0.000000 0.000000
O O20 0.254569 0.750000 0.533657
#
# Coordination Sequence:
#
# PCOD8074943 Si02
#       8
#     4   4   4   4   4   4   4   4
#     4  11  19  38  62  85 122 155 191 240 296 345
#     4  12  21  38  61  87 116 151 199 246 289 346
#     4  11  24  40  58  82 117 157 196 240 297 355
#     4  10  21  40  60  84 119 159 195 240 306 361
#     4  10  20  36  62  90 114 150 197 243 293 345
#     4   9  19  38  60  81 113 154 193 236 292 350
#     4  10  21  37  61  89 118 157 194 238 293 353
#     4  11  22  37  63  94 119 153 201 252 300 348
#
# _framework density 18.636955
#
# number of rings (size 3 to 8) (size 9 to 14) (size 15 to 20)
#    0.000    1.500    5.000    1.125    0.000    5.000 
#    0.000    1.250    0.000    0.000    0.000    0.000 
#    0.000    0.000    0.000    0.000    0.000    0.000 
#
# Total GULP energy -396639.435535 kJ/mol
# GULP energy per Si atom -12394.982360 kJ/mol
# Density = 1.859454 g / cm^3
# Si number density = 18.636955 Si / 1000 Ang^3
#
#
#
# Elastic Constant Matrix: (Units=GPa)
#
#
# Indices 1 2 3 4 5 6 
#
# 1 93.2837 40.2089 46.4888 0.0000 -9.8918 0.0000
# 2 40.2089 127.6415 37.6388 0.0000 3.5822 0.0000
# 3 46.4888 37.6388 103.4701 0.0000 -0.0592 0.0000
# 4 0.0000 0.0000 0.0000 13.1149 0.0000 -4.0221
# 5 -9.8918 3.5822 -0.0592 0.0000 37.0330 0.0000
# 6 0.0000 0.0000 0.0000 -4.0221 0.0000 19.6482
#
#
#
# Elastic Compliance Matrix: (Units=1/GPa)
#
#
# Indices 1 2 3 4 5 6 
#
# 1 0.015483 -0.003306 -0.005751 0.000000 0.004446 0.000000
# 2 -0.003306 0.009509 -0.001975 0.000000 -0.001806 0.000000
# 3 -0.005751 -0.001975 0.012966 0.000000 -0.001324 0.000000
# 4 0.000000 0.000000 0.000000 0.081357 0.000000 0.016654
# 5 0.004446 -0.001806 -0.001324 0.000000 0.028363 0.000000
# 6 0.000000 0.000000 0.000000 0.016654 0.000000 0.054304
#
#
# Mechanical properties :
#
#
# Convention : Reuss Voigt Hill
#
# Bulk Modulus (GPa) = 62.91701 63.67426 63.29564
# Shear Modulus (GPa) = 21.80137 27.29648 24.54893
#
# Velocity S-wave (km/s) = 3.42393 3.83122 3.63329
# Velocity P-wave (km/s) = 7.03304 7.33558 7.18590
#
# Compressibility (1/GPa) = 0.01589395
#
# Stress axis : x y z
#
# Youngs Moduli (GPa) = 64.58846 105.16491 77.12419
#
# Poissons Ratio (x) = 0.34769 0.44355
# Poissons Ratio (y) = 0.21354 0.15229
# Poissons Ratio (z) = 0.37145 0.20766
#
# Static dielectric constant tensor:
#      x y z
#    x 3.025820 0.000000 0.012080 
#    y 0.000000 2.780970 0.000000 
#    z 0.012080 0.000000 3.138780 
# 
# 
# High freq. dielectric constant tensor:
#      x y z
#    x 1.729880 0.000000 -0.003710 
#    y 0.000000 1.735290 0.000000 
#    z -0.003710 0.000000 1.702250 
# 
# From -- ./inp_files/39679.got.cif
#   From: 2010.06.25/outbox.cif.g09.slc.cpg/sg11_20_cif.got.tgz:39679.got - 2010.06.27 23:14:04.
