data_PCOD8074001
_publ_section_title
;
Structure prediction by ZEFSAII (Michael W. Deem and Ramdas Pophale) SiO2 
 PCOD8074001
Probable space group: P 21/M
;
_chemical_formula_sum "Si O2"
_cell_formula_units_Z 32
_cell_length_a 33.161092
_cell_length_b 9.004903
_cell_length_c 12.004311
_cell_angle_alpha 90.000000
_cell_angle_beta 25.712678
_cell_angle_gamma 90.000000
_cell_volume 1555.224786
_symmetry_space_group_name_H-M "P 21/M"
_symmetry_group_IT_number 11
_symmetry_cell_setting 'monoclinic'
loop_
_space_group_symop_operation_xyz
x,y,z
-x,1/2+y,-z
-x,-y,-z
x,1/2-y,z
loop_
_atom_site_type_symbol
_atom_site_label
_atom_site_fract_x
_atom_site_fract_y
_atom_site_fract_z
Si Si1 0.450227 0.415855 0.759894
Si Si2 0.071953 0.072600 0.236105
Si Si3 0.368178 0.419293 0.739309
Si Si4 0.997441 0.576513 0.832133
Si Si5 0.402209 0.577044 0.270133
Si Si6 0.131796 0.076788 0.643210
Si Si7 0.266685 0.924272 0.805906
Si Si8 0.681561 0.918217 0.717002
O O1 0.492368 0.250000 0.635135
O O2 0.367138 0.441791 0.876086
O O3 0.527599 0.540943 0.557899
O O4 0.412806 0.425240 0.978009
O O5 0.072184 0.250000 0.249281
O O6 0.038383 0.021028 0.197762
O O7 0.000000 0.000000 0.500000
O O8 0.175710 0.012114 0.994162
O O9 0.346629 0.250000 0.759209
O O10 0.293263 0.523686 0.864582
O O11 0.013392 0.750000 0.789957
O O12 0.095761 0.502776 0.620815
O O13 0.923940 0.526595 0.108184
O O14 0.420607 0.750000 0.212765
O O15 0.355896 0.539240 0.505026
O O16 0.326178 0.524411 0.369596
O O17 0.500000 0.500000 0.000000
O O18 0.122769 0.250000 0.643391
O O19 0.236825 0.026656 0.405087
O O20 0.243907 0.750000 0.862588
O O21 0.701849 0.750000 0.624838
#
# Coordination Sequence:
#
# PCOD8074001 Si02
#       8
#     4   4   4   4   4   4   4   4
#     4   9  19  35  54  79 111 145 184 234 287 339
#     4  11  24  42  63  87 117 154 196 242 291 345
#     4  10  20  35  56  81 110 148 192 233 281 340
#     4   9  19  36  56  80 110 142 180 227 281 339
#     4  11  24  39  58  86 120 157 196 240 289 343
#     4   9  18  33  56  83 109 141 179 225 282 339
#     4  11  24  41  60  85 118 155 196 243 292 343
#     4  10  20  35  55  80 111 144 182 229 281 338
#
# _framework density 20.575804000000002
#
# number of rings (size 3 to 8) (size 9 to 14) (size 15 to 20)
#    0.000    2.000    0.000    3.000    0.000    9.500 
#    0.000    3.750    0.000    0.000    0.000    0.000 
#    0.000    0.000    0.000    0.000    0.000    0.000 
#
# Total GULP energy -396759.802810 kJ/mol
# GULP energy per Si atom -12398.743838 kJ/mol
# Density = 2.052897 g / cm^3
# Si number density = 20.575804 Si / 1000 Ang^3
#
#
#
# Elastic Constant Matrix: (Units=GPa)
#
#
# Indices 1 2 3 4 5 6 
#
# 1 119.3595 43.4655 17.1357 0.0000 -11.2949 0.0000
# 2 43.4655 74.5865 32.5022 0.0000 -0.5335 0.0000
# 3 17.1357 32.5022 61.7685 0.0000 -11.4466 0.0000
# 4 0.0000 0.0000 0.0000 30.1503 0.0000 -7.1620
# 5 -11.2949 -0.5335 -11.4466 0.0000 29.8490 0.0000
# 6 0.0000 0.0000 0.0000 -7.1620 0.0000 37.8788
#
#
#
# Elastic Compliance Matrix: (Units=1/GPa)
#
#
# Indices 1 2 3 4 5 6 
#
# 1 0.011214 -0.007169 0.001533 0.000000 0.004703 0.000000
# 2 -0.007169 0.022315 -0.010961 0.000000 -0.006517 0.000000
# 3 0.001533 -0.010961 0.023256 0.000000 0.009302 0.000000
# 4 0.000000 0.000000 0.000000 0.034727 0.000000 0.006566
# 5 0.004703 -0.006517 0.009302 0.000000 0.038732 0.000000
# 6 0.000000 0.000000 0.000000 0.006566 0.000000 0.027641
#
#
# Mechanical properties :
#
#
# Convention : Reuss Voigt Hill
#
# Bulk Modulus (GPa) = 42.39054 49.10236 45.74645
# Shear Modulus (GPa) = 25.13290 30.41636 27.77463
#
# Velocity S-wave (km/s) = 3.49876 3.84898 3.67804
# Velocity P-wave (km/s) = 6.08018 6.60824 6.34970
#
# Compressibility (1/GPa) = 0.02359017
#
# Stress axis : x y z
#
# Youngs Moduli (GPa) = 89.17642 44.81314 43.00041
#
# Poissons Ratio (x) = 0.32128 -0.06592
# Poissons Ratio (y) = 0.63933 0.47132
# Poissons Ratio (z) = -0.13671 0.49119
#
# Static dielectric constant tensor:
#      x y z
#    x 4.025540 0.000000 -0.017020 
#    y 0.000000 3.717690 0.000000 
#    z -0.017020 0.000000 3.612220 
# 
# 
# High freq. dielectric constant tensor:
#      x y z
#    x 1.821280 0.000000 -0.006710 
#    y 0.000000 1.800670 0.000000 
#    z -0.006710 0.000000 1.790880 
# 
# From -- ./inp_files/45162.got.cif
#   From: 2010.06.25/outbox.cif.g09.slc.cpg/sg11_23_cif.got.tgz:45162.got - 2010.06.27 23:14:04.
