data_PCOD8074871
_publ_section_title
;
Structure prediction by ZEFSAII (Michael W. Deem and Ramdas Pophale) SiO2 
 PCOD8074871
Probable space group: P 21/M
;
_chemical_formula_sum "Si O2"
_cell_formula_units_Z 28
_cell_length_a 23.466602
_cell_length_b 9.092271
_cell_length_c 20.581951
_cell_angle_alpha 90.000000
_cell_angle_beta 19.343253
_cell_angle_gamma 90.000000
_cell_volume 1454.569788
_symmetry_space_group_name_H-M "P 21/M"
_symmetry_group_IT_number 11
_symmetry_cell_setting 'monoclinic'
loop_
_space_group_symop_operation_xyz
x,y,z
-x,1/2+y,-z
-x,-y,-z
x,1/2-y,z
loop_
_atom_site_type_symbol
_atom_site_label
_atom_site_fract_x
_atom_site_fract_y
_atom_site_fract_z
Si Si1 0.643901 0.591469 0.875703
Si Si2 0.092891 0.577299 0.044841
Si Si3 0.018954 0.087389 0.546374
Si Si4 0.764160 0.924111 0.887086
Si Si5 0.258105 0.922790 0.600533
Si Si6 0.605950 0.075371 0.177874
Si Si7 0.321558 0.580301 0.680091
O O1 0.570919 0.750000 0.973880
O O2 0.776503 0.605950 0.673023
O O3 0.707003 0.523914 0.876323
O O4 0.500000 0.500000 0.000000
O O5 0.049595 0.750000 0.092405
O O6 0.914354 0.488850 0.247172
O O7 0.231959 0.536053 0.950603
O O8 0.177226 0.526644 0.886097
O O9 0.931581 0.250000 0.638466
O O10 0.000000 0.000000 0.500000
O O11 0.955999 0.996484 0.678533
O O12 0.772372 0.750000 0.890150
O O13 0.641616 0.001417 0.070361
O O14 0.271688 0.750000 0.568820
O O15 0.245162 0.949886 0.691384
O O16 0.428856 0.005890 0.393400
O O17 0.582310 0.250000 0.197159
O O18 0.500000 0.500000 0.500000
O O19 0.362858 0.750000 0.647918
#
# Coordination Sequence:
#
# PCOD8074871 Si02
#       7
#     4   4   4   4   4   4   4
#     4   9  19  34  55  84 115 144 181 230 281 335
#     4  10  22  40  61  87 119 157 202 248 301 361
#     4   9  17  32  54  80 107 140 182 227 276 334
#     4  10  21  38  58  83 114 150 191 237 289 349
#     4  11  23  38  61  91 121 156 200 251 305 359
#     4  11  23  41  63  85 118 163 203 247 299 360
#     4  10  20  36  60  89 119 155 198 249 305 358
#
# _framework density 19.249677999999999
#
# number of rings (size 3 to 8) (size 9 to 14) (size 15 to 20)
#    0.000    2.000    1.429    3.000    0.000    5.714 
#    2.571    0.000    0.000    0.000    0.000    0.000 
#    0.000    0.000    0.000    0.000    0.000    0.000 
#
# Total GULP energy -346902.659524 kJ/mol
# GULP energy per Si atom -12389.380697 kJ/mol
# Density = 1.920586 g / cm^3
# Si number density = 19.249678 Si / 1000 Ang^3
#
#
#
# Elastic Constant Matrix: (Units=GPa)
#
#
# Indices 1 2 3 4 5 6 
#
# 1 66.1259 39.7605 58.4816 0.0000 4.1257 0.0000
# 2 39.7605 117.0533 73.5083 0.0000 -2.0210 0.0000
# 3 58.4816 73.5083 124.0444 0.0000 -2.3136 0.0000
# 4 0.0000 0.0000 0.0000 41.6638 0.0000 -0.4301
# 5 4.1257 -2.0210 -2.3136 0.0000 36.1453 0.0000
# 6 0.0000 0.0000 0.0000 -0.4301 0.0000 27.6493
#
#
#
# Elastic Compliance Matrix: (Units=1/GPa)
#
#
# Indices 1 2 3 4 5 6 
#
# 1 0.026715 -0.001890 -0.011547 0.000000 -0.003894 0.000000
# 2 -0.001890 0.013743 -0.007243 0.000000 0.000520 0.000000
# 3 -0.011547 -0.007243 0.017836 0.000000 0.002055 0.000000
# 4 0.000000 0.000000 0.000000 0.024005 0.000000 0.000373
# 5 -0.003894 0.000520 0.002055 0.000000 0.028271 0.000000
# 6 0.000000 0.000000 0.000000 0.000373 0.000000 0.036173
#
#
# Mechanical properties :
#
#
# Convention : Reuss Voigt Hill
#
# Bulk Modulus (GPa) = 59.05780 72.30271 65.68025
# Shear Modulus (GPa) = 25.80666 30.12323 27.96494
#
# Velocity S-wave (km/s) = 3.66543 3.96013 3.81563
# Velocity P-wave (km/s) = 6.97570 7.65194 7.32163
#
# Compressibility (1/GPa) = 0.01693256
#
# Stress axis : x y z
#
# Youngs Moduli (GPa) = 37.43283 72.76593 56.06539
#
# Poissons Ratio (x) = 0.13752 0.64741
# Poissons Ratio (y) = 0.07075 0.40609
# Poissons Ratio (z) = 0.43225 0.52705
#
# Static dielectric constant tensor:
#      x y z
#    x 3.248820 0.000000 0.092350 
#    y 0.000000 4.121670 0.000000 
#    z 0.092350 0.000000 3.913800 
# 
# 
# High freq. dielectric constant tensor:
#      x y z
#    x 1.725780 0.000000 0.008120 
#    y 0.000000 1.761530 0.000000 
#    z 0.008120 0.000000 1.759750 
# 
# From -- ./inp_files/66664.got.cif
#   From: 2010.06.25/outbox.cif.g09.slc.cpg/sg11_34_cif.got.tgz:66664.got - 2010.06.27 23:14:04.
