data_PCOD8074927
_publ_section_title
;
Structure prediction by ZEFSAII (Michael W. Deem and Ramdas Pophale) SiO2 
 PCOD8074927
Probable space group: P 21/M
;
_chemical_formula_sum "Si O2"
_cell_formula_units_Z 32
_cell_length_a 12.206553
_cell_length_b 13.419446
_cell_length_c 18.455850
_cell_angle_alpha 90.000000
_cell_angle_beta 150.284667
_cell_angle_gamma 90.000000
_cell_volume 1498.555413
_symmetry_space_group_name_H-M "P 21/M"
_symmetry_group_IT_number 11
_symmetry_cell_setting 'monoclinic'
loop_
_space_group_symop_operation_xyz
x,y,z
-x,1/2+y,-z
-x,-y,-z
x,1/2-y,z
loop_
_atom_site_type_symbol
_atom_site_label
_atom_site_fract_x
_atom_site_fract_y
_atom_site_fract_z
Si Si1 0.709274 0.132656 0.834751
Si Si2 0.542366 0.361145 0.169323
Si Si3 0.739733 0.634312 0.496263
Si Si4 0.988659 0.361496 0.489468
Si Si5 0.965620 0.634975 0.101234
Si Si6 0.008575 0.001463 0.254678
Si Si7 0.301937 0.861776 0.011219
Si Si8 0.741782 0.552085 0.231765
O O1 0.683197 0.250000 0.829949
O O2 0.488742 0.094108 0.668497
O O3 0.727447 0.086558 0.926063
O O4 0.924576 0.103156 0.911870
O O5 0.551644 0.250000 0.139306
O O6 0.612482 0.445788 0.152231
O O7 0.720461 0.367484 0.337427
O O8 0.296328 0.384454 0.056269
O O9 0.722933 0.750000 0.511522
O O10 0.935201 0.619919 0.549935
O O11 0.789622 0.562406 0.593410
O O12 0.065247 0.250000 0.557154
O O13 0.094684 0.442570 0.604460
O O14 0.018974 0.750000 0.148381
O O15 0.082628 0.571531 0.232418
O O16 0.883735 0.931338 0.241276
O O17 0.839300 0.082268 0.128736
O O18 0.213952 0.750000 0.962420
O O19 0.558895 0.862435 0.135534
#
# Coordination Sequence:
#
# PCOD8074927 Si02
#       8
#     4   4   4   4   4   4   4   4
#     4   9  20  42  69  87 114 163 214 255 293 352
#     4  10  21  37  59  86 121 160 201 250 302 357
#     4  10  20  38  64  93 122 158 204 258 306 351
#     4  10  20  36  61  91 120 158 204 252 305 355
#     4  10  23  43  62  86 123 167 209 246 301 370
#     4  12  25  37  58  95 130 162 192 250 319 370
#     4  11  23  40  63  93 122 157 207 258 302 356
#     4  12  22  37  59  92 126 160 199 249 304 375
#
# _framework density 21.353899999999999
#
# number of rings (size 3 to 8) (size 9 to 14) (size 15 to 20)
#    0.000    1.500    3.750    1.500    0.000    2.500 
#    0.000    0.000    2.750    0.000    0.000    0.000 
#    0.000    0.000    0.000    0.000    0.000    0.000 
#
# Total GULP energy -396749.989678 kJ/mol
# GULP energy per Si atom -12398.437177 kJ/mol
# Density = 2.130530 g / cm^3
# Si number density = 21.353900 Si / 1000 Ang^3
#
#
#
# Elastic Constant Matrix: (Units=GPa)
#
#
# Indices 1 2 3 4 5 6 
#
# 1 66.3597 12.6203 17.8395 0.0000 -0.8682 0.0000
# 2 12.6203 65.1053 7.6439 0.0000 -3.9715 0.0000
# 3 17.8395 7.6439 87.5139 0.0000 -2.7776 0.0000
# 4 0.0000 0.0000 0.0000 29.4128 0.0000 -4.4484
# 5 -0.8682 -3.9715 -2.7776 0.0000 29.5423 0.0000
# 6 0.0000 0.0000 0.0000 -4.4484 0.0000 26.3220
#
#
#
# Elastic Compliance Matrix: (Units=1/GPa)
#
#
# Indices 1 2 3 4 5 6 
#
# 1 0.016442 -0.002834 -0.003110 0.000000 -0.000190 0.000000
# 2 -0.002834 0.016122 -0.000767 0.000000 0.002012 0.000000
# 3 -0.003110 -0.000767 0.012158 0.000000 0.000949 0.000000
# 4 0.000000 0.000000 0.000000 0.034891 0.000000 0.005897
# 5 -0.000190 0.002012 0.000949 0.000000 0.034204 0.000000
# 6 0.000000 0.000000 0.000000 0.005897 0.000000 0.038988
#
#
# Mechanical properties :
#
#
# Convention : Reuss Voigt Hill
#
# Bulk Modulus (GPa) = 31.94827 32.79846 32.37337
# Shear Modulus (GPa) = 28.30326 29.11375 28.70850
#
# Velocity S-wave (km/s) = 3.64461 3.69642 3.67060
# Velocity P-wave (km/s) = 5.71880 5.79749 5.75828
#
# Compressibility (1/GPa) = 0.03130060
#
# Stress axis : x y z
#
# Youngs Moduli (GPa) = 60.82016 62.02793 82.25150
#
# Poissons Ratio (x) = 0.17576 0.25582
# Poissons Ratio (y) = 0.17234 0.06306
# Poissons Ratio (z) = 0.18916 0.04755
#
# Static dielectric constant tensor:
#      x y z
#    x 3.674740 0.000000 0.027230 
#    y 0.000000 3.947830 0.000000 
#    z 0.027230 0.000000 3.818950 
# 
# 
# High freq. dielectric constant tensor:
#      x y z
#    x 1.807640 0.000000 -0.000330 
#    y 0.000000 1.846760 0.000000 
#    z -0.000330 0.000000 1.837330 
# 
# From -- ./inp_files/41664.got.cif
#   From: 2010.06.25/outbox.cif.g09.slc.cpg/sg11_21_cif.got.tgz:41664.got - 2010.06.27 23:14:04.
