data_PCOD8074924
_publ_section_title
;
Structure prediction by ZEFSAII (Michael W. Deem and Ramdas Pophale) SiO2 
 PCOD8074924
Probable space group: P 21/M
;
_chemical_formula_sum "Si O2"
_cell_formula_units_Z 32
_cell_length_a 30.979218
_cell_length_b 8.858490
_cell_length_c 11.915428
_cell_angle_alpha 90.000000
_cell_angle_beta 149.720908
_cell_angle_gamma 90.000000
_cell_volume 1648.744755
_symmetry_space_group_name_H-M "P 21/M"
_symmetry_group_IT_number 11
_symmetry_cell_setting 'monoclinic'
loop_
_space_group_symop_operation_xyz
x,y,z
-x,1/2+y,-z
-x,-y,-z
x,1/2-y,z
loop_
_atom_site_type_symbol
_atom_site_label
_atom_site_fract_x
_atom_site_fract_y
_atom_site_fract_z
Si Si1 0.764959 0.576268 0.698583
Si Si2 0.289518 0.074297 0.671003
Si Si3 0.529932 0.427698 0.952360
Si Si4 0.895650 0.924204 0.381688
Si Si5 0.408464 0.576329 0.302226
Si Si6 0.249677 0.571310 0.802754
Si Si7 0.616905 0.423868 0.503107
Si Si8 0.930282 0.576529 0.204827
O O1 0.741894 0.750000 0.673512
O O2 0.762049 0.543824 0.559370
O O3 0.697662 0.472470 0.611281
O O4 0.859877 0.536363 0.953288
O O5 0.310710 0.250000 0.733064
O O6 0.233085 0.014002 0.647952
O O7 0.376031 0.979788 0.867474
O O8 0.527906 0.250000 0.961138
O O9 0.466170 0.477236 0.711208
O O10 0.500000 0.500000 0.000000
O O11 0.878614 0.750000 0.372721
O O12 0.889950 0.955438 0.236190
O O13 0.825266 0.028219 0.280852
O O14 0.989060 0.969775 0.637314
O O15 0.500000 0.500000 0.500000
O O16 0.426244 0.750000 0.319747
O O17 0.364123 0.550042 0.323397
O O18 0.340894 0.515736 0.058538
O O19 0.248736 0.750000 0.782194
O O20 0.596851 0.250000 0.430694
O O21 0.960228 0.750000 0.263606
#
# Coordination Sequence:
#
# PCOD8074924 Si02
#       8
#     4   4   4   4   4   4   4   4
#     4  10  21  37  58  84 114 148 187 234 289 343
#     4  11  23  39  58  83 115 151 196 243 286 339
#     4  12  23  37  56  81 113 152 195 237 285 337
#     4  10  20  36  61  91 118 148 187 233 287 346
#     4  10  23  39  56  82 113 149 190 236 285 336
#     4  11  23  40  60  83 116 157 197 235 285 346
#     4  11  22  36  57  84 114 147 190 240 290 342
#     4   9  19  37  61  89 119 149 184 232 291 350
#
# _framework density 19.408704
#
# number of rings (size 3 to 8) (size 9 to 14) (size 15 to 20)
#    0.000    1.500    1.250    4.125    0.000    5.500 
#    0.000    0.625    0.000    0.000    0.000    0.000 
#    0.000    0.000    0.000    0.000    0.000    0.000 
#
# Total GULP energy -396943.867115 kJ/mol
# GULP energy per Si atom -12404.495847 kJ/mol
# Density = 1.936453 g / cm^3
# Si number density = 19.408704 Si / 1000 Ang^3
#
#
#
# Elastic Constant Matrix: (Units=GPa)
#
#
# Indices 1 2 3 4 5 6 
#
# 1 93.6247 44.2438 50.8951 0.0000 -6.4369 0.0000
# 2 44.2438 100.0351 44.5901 0.0000 -7.5264 0.0000
# 3 50.8951 44.5901 119.5699 0.0000 -10.2178 0.0000
# 4 0.0000 0.0000 0.0000 31.1590 0.0000 4.4849
# 5 -6.4369 -7.5264 -10.2178 0.0000 25.8566 0.0000
# 6 0.0000 0.0000 0.0000 4.4849 0.0000 35.7176
#
#
#
# Elastic Compliance Matrix: (Units=1/GPa)
#
#
# Indices 1 2 3 4 5 6 
#
# 1 0.015559 -0.004686 -0.004824 0.000000 0.000603 0.000000
# 2 -0.004686 0.013481 -0.002895 0.000000 0.001614 0.000000
# 3 -0.004824 -0.002895 0.011717 0.000000 0.002587 0.000000
# 4 0.000000 0.000000 0.000000 0.032684 0.000000 -0.004104
# 5 0.000603 0.001614 0.002587 0.000000 0.040317 0.000000
# 6 0.000000 0.000000 0.000000 -0.004104 0.000000 0.028513
#
#
# Mechanical properties :
#
#
# Convention : Reuss Voigt Hill
#
# Bulk Modulus (GPa) = 62.70378 65.85418 64.27898
# Shear Modulus (GPa) = 29.00306 30.11335 29.55820
#
# Velocity S-wave (km/s) = 3.86985 3.94323 3.90671
# Velocity P-wave (km/s) = 7.23498 7.39838 7.31713
#
# Compressibility (1/GPa) = 0.01594800
#
# Stress axis : x y z
#
# Youngs Moduli (GPa) = 64.27133 74.17987 85.34543
#
# Poissons Ratio (x) = 0.34761 0.41168
# Poissons Ratio (y) = 0.30117 0.24706
# Poissons Ratio (z) = 0.31002 0.21473
#
# Static dielectric constant tensor:
#      x y z
#    x 3.516030 0.000000 -0.199590 
#    y 0.000000 3.831600 0.000000 
#    z -0.199590 0.000000 3.654460 
# 
# 
# High freq. dielectric constant tensor:
#      x y z
#    x 1.755350 0.000000 -0.008490 
#    y 0.000000 1.762950 0.000000 
#    z -0.008490 0.000000 1.755160 
# 
# From -- ./inp_files/45295.got.cif
#   From: 2010.06.25/outbox.cif.g09.slc.cpg/sg11_23_cif.got.tgz:45295.got - 2010.06.27 23:14:04.
