data_PCOD8074952
_publ_section_title
;
Structure prediction by ZEFSAII (Michael W. Deem and Ramdas Pophale) SiO2 
 PCOD8074952
Probable space group: P 21/M
;
_chemical_formula_sum "Si O2"
_cell_formula_units_Z 32
_cell_length_a 30.825773
_cell_length_b 8.832022
_cell_length_c 11.906170
_cell_angle_alpha 90.000000
_cell_angle_beta 30.454689
_cell_angle_gamma 90.000000
_cell_volume 1642.976984
_symmetry_space_group_name_H-M "P 21/M"
_symmetry_group_IT_number 11
_symmetry_cell_setting 'monoclinic'
loop_
_space_group_symop_operation_xyz
x,y,z
-x,1/2+y,-z
-x,-y,-z
x,1/2-y,z
loop_
_atom_site_type_symbol
_atom_site_label
_atom_site_fract_x
_atom_site_fract_y
_atom_site_fract_z
Si Si1 0.709221 0.075363 0.161718
Si Si2 0.770507 0.928386 0.807712
Si Si3 0.902820 0.572837 0.103846
Si Si4 0.591506 0.073710 0.817644
Si Si5 0.470237 0.071387 0.451190
Si Si6 0.248287 0.578795 0.683804
Si Si7 0.385301 0.071595 0.007155
Si Si8 0.075762 0.428718 0.691209
O O1 0.681582 0.250000 0.205493
O O2 0.760330 0.055411 0.163621
O O3 0.628021 0.966581 0.348723
O O4 0.769754 0.020777 0.925332
O O5 0.773310 0.750000 0.826469
O O6 0.853580 0.984874 0.554877
O O7 0.686894 0.970371 0.922001
O O8 0.917071 0.750000 0.067825
O O9 0.816353 0.533471 0.232593
O O10 0.896639 0.514987 0.246288
O O11 0.984058 0.496457 0.861562
O O12 0.577026 0.250000 0.872712
O O13 0.654191 0.044789 0.572139
O O14 0.500000 0.000000 0.000000
O O15 0.638602 0.998337 0.819301
O O16 0.483391 0.250000 0.426140
O O17 0.500000 0.000000 0.500000
O O18 0.524632 0.000451 0.229148
O O19 0.223636 0.750000 0.705149
O O20 0.396023 0.250000 0.995981
O O21 0.069221 0.250000 0.702846
#
# Coordination Sequence:
#
# PCOD8074952 Si02
#       8
#     4   4   4   4   4   4   4   4
#     4  11  23  39  59  83 115 155 199 246 292 342
#     4  10  21  37  58  84 115 152 190 235 292 347
#     4  10  20  36  62  92 115 147 190 234 287 348
#     4  11  23  39  59  84 116 154 196 241 293 349
#     4  12  23  37  57  83 114 154 199 241 291 343
#     4  10  23  41  59  82 116 157 195 237 290 345
#     4  11  22  37  58  85 118 151 191 243 295 346
#     4   9  19  37  60  88 121 150 181 232 293 348
#
# _framework density 19.476839999999999
#
# number of rings (size 3 to 8) (size 9 to 14) (size 15 to 20)
#    0.000    1.500    1.250    4.125    0.000    5.500 
#    0.000    0.625    0.000    0.000    0.000    0.000 
#    0.000    0.000    0.000    0.000    0.000    0.000 
#
# Total GULP energy -396953.106049 kJ/mol
# GULP energy per Si atom -12404.784564 kJ/mol
# Density = 1.943251 g / cm^3
# Si number density = 19.476840 Si / 1000 Ang^3
#
#
#
# Elastic Constant Matrix: (Units=GPa)
#
#
# Indices 1 2 3 4 5 6 
#
# 1 88.9388 36.7088 45.4719 0.0000 9.6858 0.0000
# 2 36.7088 80.7772 43.1528 0.0000 7.3274 0.0000
# 3 45.4719 43.1528 135.3612 0.0000 8.4326 0.0000
# 4 0.0000 0.0000 0.0000 33.0778 0.0000 -0.1309
# 5 9.6858 7.3274 8.4326 0.0000 33.4150 0.0000
# 6 0.0000 0.0000 0.0000 -0.1309 0.0000 34.6968
#
#
#
# Elastic Compliance Matrix: (Units=1/GPa)
#
#
# Indices 1 2 3 4 5 6 
#
# 1 0.015283 -0.004892 -0.003419 0.000000 -0.002494 0.000000
# 2 -0.004892 0.016634 -0.003577 0.000000 -0.001327 0.000000
# 3 -0.003419 -0.003577 0.009719 0.000000 -0.000677 0.000000
# 4 0.000000 0.000000 0.000000 0.030232 0.000000 0.000114
# 5 -0.002494 -0.001327 -0.000677 0.000000 0.031112 0.000000
# 6 0.000000 0.000000 0.000000 0.000114 0.000000 0.028822
#
#
# Mechanical properties :
#
#
# Convention : Reuss Voigt Hill
#
# Bulk Modulus (GPa) = 55.99308 61.74937 58.87122
# Shear Modulus (GPa) = 30.95404 32.22083 31.58744
#
# Velocity S-wave (km/s) = 3.99090 4.07174 4.03152
# Velocity P-wave (km/s) = 7.07441 7.34018 7.20852
#
# Compressibility (1/GPa) = 0.01785935
#
# Stress axis : x y z
#
# Youngs Moduli (GPa) = 65.43398 60.11701 102.89574
#
# Poissons Ratio (x) = 0.29412 0.35178
# Poissons Ratio (y) = 0.32013 0.36803
# Poissons Ratio (z) = 0.22371 0.21502
#
# Static dielectric constant tensor:
#      x y z
#    x 3.613040 0.000000 0.093720 
#    y 0.000000 3.790340 0.000000 
#    z 0.093720 0.000000 3.759210 
# 
# 
# High freq. dielectric constant tensor:
#      x y z
#    x 1.752140 0.000000 0.009010 
#    y 0.000000 1.764080 0.000000 
#    z 0.009010 0.000000 1.761090 
# 
# From -- ./inp_files/45159.got.cif
#   From: 2010.06.25/outbox.cif.g09.slc.cpg/sg11_23_cif.got.tgz:45159.got - 2010.06.27 23:14:04.
