data_PCOD8074822
_publ_section_title
;
Structure prediction by ZEFSAII (Michael W. Deem and Ramdas Pophale) SiO2 
 PCOD8074822
Probable space group: P 21/M
;
_chemical_formula_sum "Si O2"
_cell_formula_units_Z 32
_cell_length_a 22.933533
_cell_length_b 8.961220
_cell_length_c 14.148372
_cell_angle_alpha 90.000000
_cell_angle_beta 36.268747
_cell_angle_gamma 90.000000
_cell_volume 1720.098325
_symmetry_space_group_name_H-M "P 21/M"
_symmetry_group_IT_number 11
_symmetry_cell_setting 'monoclinic'
loop_
_space_group_symop_operation_xyz
x,y,z
-x,1/2+y,-z
-x,-y,-z
x,1/2-y,z
loop_
_atom_site_type_symbol
_atom_site_label
_atom_site_fract_x
_atom_site_fract_y
_atom_site_fract_z
Si Si1 0.307611 0.078789 0.406912
Si Si2 0.559804 0.079554 0.634224
Si Si3 0.659919 0.921512 0.029302
Si Si4 0.754137 0.421775 0.068496
Si Si5 0.399934 0.425427 0.599900
Si Si6 0.929179 0.080085 0.974144
Si Si7 0.598738 0.921291 0.905784
Si Si8 0.127777 0.923155 0.743848
O O1 0.317824 0.250000 0.425354
O O2 0.312836 0.065028 0.286257
O O3 0.403161 0.984619 0.314763
O O4 0.207657 0.014555 0.580524
O O5 0.593205 0.250000 0.578975
O O6 0.442145 0.064384 0.778564
O O7 0.620030 0.981742 0.479840
O O8 0.695348 0.750000 0.979093
O O9 0.742964 0.019137 0.975166
O O10 0.641975 0.987299 0.947594
O O11 0.719580 0.250000 0.119192
O O12 0.688563 0.526722 0.218767
O O13 0.864762 0.439383 0.963311
O O14 0.500000 0.500000 0.500000
O O15 0.412067 0.250000 0.587897
O O16 0.967950 0.250000 0.932046
O O17 0.866114 0.042105 0.151504
O O18 0.020705 0.969402 0.845098
O O19 0.569303 0.750000 0.963401
O O20 0.500000 0.000000 0.000000
O O21 0.145225 0.750000 0.700176
#
# Coordination Sequence:
#
# PCOD8074822 Si02
#       8
#     4   4   4   4   4   4   4   4
#     4  11  22  35  56  83 112 145 184 231 282 336
#     4  11  21  34  52  75 108 146 183 227 273 323
#     4  10  21  36  53  75 108 147 186 229 274 322
#     4  11  22  36  56  80 110 148 186 226 276 334
#     4  12  23  34  49  72 106 146 185 223 264 320
#     4   9  20  38  58  83 114 145 180 224 274 331
#     4  10  21  37  56  79 108 146 189 234 282 328
#     4  10  20  36  60  86 113 145 181 226 279 333
#
# _framework density 18.603587000000001
#
# number of rings (size 3 to 8) (size 9 to 14) (size 15 to 20)
#    0.000    1.500    2.500    3.375    0.000    4.000 
#    0.000    0.000    0.000    0.750    0.000    0.000 
#    0.000    0.000    0.000    0.000    0.000    0.000 
#
# Total GULP energy -396783.849641 kJ/mol
# GULP energy per Si atom -12399.495301 kJ/mol
# Density = 1.856124 g / cm^3
# Si number density = 18.603587 Si / 1000 Ang^3
#
#
#
# Elastic Constant Matrix: (Units=GPa)
#
#
# Indices 1 2 3 4 5 6 
#
# 1 127.4798 46.7378 28.2742 0.0000 7.6627 0.0000
# 2 46.7378 110.3958 28.0650 0.0000 1.6398 0.0000
# 3 28.2742 28.0650 56.2115 0.0000 3.3872 0.0000
# 4 0.0000 0.0000 0.0000 26.2780 0.0000 -2.1668
# 5 7.6627 1.6398 3.3872 0.0000 23.8833 0.0000
# 6 0.0000 0.0000 0.0000 -2.1668 0.0000 32.8120
#
#
#
# Elastic Compliance Matrix: (Units=1/GPa)
#
#
# Indices 1 2 3 4 5 6 
#
# 1 0.009930 -0.003362 -0.003165 0.000000 -0.002506 0.000000
# 2 -0.003362 0.011514 -0.004110 0.000000 0.000871 0.000000
# 3 -0.003165 -0.004110 0.021540 0.000000 -0.001757 0.000000
# 4 0.000000 0.000000 0.000000 0.038263 0.000000 0.002527
# 5 -0.002506 0.000871 -0.001757 0.000000 0.042864 0.000000
# 6 0.000000 0.000000 0.000000 0.002527 0.000000 0.030643
#
#
# Mechanical properties :
#
#
# Convention : Reuss Voigt Hill
#
# Bulk Modulus (GPa) = 46.06332 55.58235 50.82284
# Shear Modulus (GPa) = 27.28318 29.32868 28.30593
#
# Velocity S-wave (km/s) = 3.83372 3.97483 3.90491
# Velocity P-wave (km/s) = 6.66414 7.14197 6.90719
#
# Compressibility (1/GPa) = 0.02170925
#
# Stress axis : x y z
#
# Youngs Moduli (GPa) = 100.70887 86.85416 46.42586
#
# Poissons Ratio (x) = 0.29201 0.14694
# Poissons Ratio (y) = 0.33859 0.19080
# Poissons Ratio (z) = 0.31874 0.35695
#
# Static dielectric constant tensor:
#      x y z
#    x 3.608570 0.000000 0.182830 
#    y 0.000000 3.896850 0.000000 
#    z 0.182830 0.000000 3.230840 
# 
# 
# High freq. dielectric constant tensor:
#      x y z
#    x 1.724980 0.000000 0.009270 
#    y 0.000000 1.730930 0.000000 
#    z 0.009270 0.000000 1.692770 
# 
# From -- ./inp_files/55615.got.cif
#   From: 2010.06.25/outbox.cif.g09.slc.cpg/sg11_28_cif.got.tgz:55615.got - 2010.06.27 23:14:04.
