data_PCOD8074704
_publ_section_title
;
Structure prediction by ZEFSAII (Michael W. Deem and Ramdas Pophale) SiO2 
 PCOD8074704
Probable space group: P 21/M
;
_chemical_formula_sum "Si O2"
_cell_formula_units_Z 32
_cell_length_a 14.496664
_cell_length_b 8.614967
_cell_length_c 21.387310
_cell_angle_alpha 90.000000
_cell_angle_beta 144.338197
_cell_angle_gamma 90.000000
_cell_volume 1557.206413
_symmetry_space_group_name_H-M "P 21/M"
_symmetry_group_IT_number 11
_symmetry_cell_setting 'monoclinic'
loop_
_space_group_symop_operation_xyz
x,y,z
-x,1/2+y,-z
-x,-y,-z
x,1/2-y,z
loop_
_atom_site_type_symbol
_atom_site_label
_atom_site_fract_x
_atom_site_fract_y
_atom_site_fract_z
Si Si1 0.588459 0.067324 0.490343
Si Si2 0.161407 0.066415 0.448430
Si Si3 0.609639 0.070703 0.324176
Si Si4 0.551783 0.429137 0.152804
Si Si5 0.826809 0.434168 0.216132
Si Si6 0.786142 0.433160 0.054074
Si Si7 0.635877 0.066880 0.734732
Si Si8 0.970268 0.933214 0.915533
O O1 0.593996 0.250000 0.499294
O O2 0.500000 0.000000 0.500000
O O3 0.763084 0.998564 0.575145
O O4 0.500382 0.006128 0.381571
O O5 0.184062 0.250000 0.463764
O O6 0.978711 0.015188 0.340927
O O7 0.239856 0.995464 0.554350
O O8 0.587096 0.250000 0.330929
O O9 0.642948 0.051580 0.268997
O O10 0.439625 0.979785 0.239928
O O11 0.508742 0.250000 0.117185
O O12 0.669858 0.495247 0.164789
O O13 0.391277 0.525681 0.062510
O O14 0.822144 0.250000 0.210279
O O15 0.829181 0.501637 0.146536
O O16 0.805488 0.250000 0.065798
O O17 0.907677 0.501020 0.068729
O O18 0.657468 0.250000 0.739555
O O19 0.794868 0.983805 0.800467
O O20 0.985296 0.750000 0.927754
O O21 0.000000 0.000000 0.000000
#
# Coordination Sequence:
#
# PCOD8074704 Si02
#       8
#     4   4   4   4   4   4   4   4
#     4  11  22  37  57  83 116 152 192 236 284 343
#     4  10  20  36  59  85 116 155 196 239 292 348
#     4  10  20  36  58  85 119 155 193 242 294 347
#     4  10  21  38  61  85 113 152 195 242 296 349
#     4   9  20  39  60  85 117 152 192 240 296 353
#     4  10  22  39  60  85 114 151 193 240 295 352
#     4  11  22  37  57  84 115 152 194 238 288 347
#     4  11  23  38  58  85 117 155 195 243 295 352
#
# _framework density 20.549620999999998
#
# number of rings (size 3 to 8) (size 9 to 14) (size 15 to 20)
#    0.000    1.750    0.000    6.000    1.750    4.500 
#    0.000    2.500    0.000    0.000    0.000    0.000 
#    0.000    0.000    0.000    0.000    0.000    0.000 
#
# Total GULP energy -396636.546084 kJ/mol
# GULP energy per Si atom -12394.892065 kJ/mol
# Density = 2.050285 g / cm^3
# Si number density = 20.549621 Si / 1000 Ang^3
#
#
#
# Elastic Constant Matrix: (Units=GPa)
#
#
# Indices 1 2 3 4 5 6 
#
# 1 159.2840 30.3118 55.0732 0.0000 2.4062 0.0000
# 2 30.3118 73.8922 23.5840 0.0000 -1.9326 0.0000
# 3 55.0732 23.5840 98.6645 0.0000 9.3512 0.0000
# 4 0.0000 0.0000 0.0000 31.1794 0.0000 -0.9269
# 5 2.4062 -1.9326 9.3512 0.0000 38.4004 0.0000
# 6 0.0000 0.0000 0.0000 -0.9269 0.0000 23.9073
#
#
#
# Elastic Compliance Matrix: (Units=1/GPa)
#
#
# Indices 1 2 3 4 5 6 
#
# 1 0.008055 -0.002000 -0.004054 0.000000 0.000382 0.000000
# 2 -0.002000 0.015248 -0.002675 0.000000 0.001544 0.000000
# 3 -0.004054 -0.002675 0.013334 0.000000 -0.003128 0.000000
# 4 0.000000 0.000000 0.000000 0.032109 0.000000 0.001245
# 5 0.000382 0.001544 -0.003128 0.000000 0.026857 0.000000
# 6 0.000000 0.000000 0.000000 0.001245 0.000000 0.041876
#
#
# Mechanical properties :
#
#
# Convention : Reuss Voigt Hill
#
# Bulk Modulus (GPa) = 52.14106 61.08652 56.61379
# Shear Modulus (GPa) = 30.99239 33.55554 32.27397
#
# Velocity S-wave (km/s) = 3.88773 4.04530 3.96730
# Velocity P-wave (km/s) = 6.75137 7.18402 6.97105
#
# Compressibility (1/GPa) = 0.01917874
#
# Stress axis : x y z
#
# Youngs Moduli (GPa) = 124.15114 65.58331 74.99606
#
# Poissons Ratio (x) = 0.13118 0.30404
# Poissons Ratio (y) = 0.24833 0.20058
# Poissons Ratio (z) = 0.50332 0.17541
#
# Static dielectric constant tensor:
#      x y z
#    x 24.718090 0.000000 -2.349310 
#    y 0.000000 3.552670 0.000000 
#    z -2.349310 0.000000 4.114120 
# 
# 
# High freq. dielectric constant tensor:
#      x y z
#    x 1.818660 0.000000 0.000280 
#    y 0.000000 1.792950 0.000000 
#    z 0.000280 0.000000 1.803660 
# 
# From -- ./inp_files/65249.got.cif
#   From: 2010.06.25/outbox.cif.g09.slc.cpg/sg11_33_cif.got.tgz:65249.got - 2010.06.27 23:14:04.
