data_PCOD8074323
_publ_section_title
;
Structure prediction by ZEFSAII (Michael W. Deem and Ramdas Pophale) SiO2 
 PCOD8074323
Probable space group: P 21/M
;
_chemical_formula_sum "Si O2"
_cell_formula_units_Z 32
_cell_length_a 29.912260
_cell_length_b 8.696478
_cell_length_c 12.550058
_cell_angle_alpha 90.000000
_cell_angle_beta 151.372030
_cell_angle_gamma 90.000000
_cell_volume 1564.166677
_symmetry_space_group_name_H-M "P 21/M"
_symmetry_group_IT_number 11
_symmetry_cell_setting 'monoclinic'
loop_
_space_group_symop_operation_xyz
x,y,z
-x,1/2+y,-z
-x,-y,-z
x,1/2-y,z
loop_
_atom_site_type_symbol
_atom_site_label
_atom_site_fract_x
_atom_site_fract_y
_atom_site_fract_z
Si Si1 0.871904 0.569633 0.979953
Si Si2 0.600641 0.068716 0.225476
Si Si3 0.900795 0.569454 0.808540
Si Si4 0.037166 0.933073 0.468886
Si Si5 0.247412 0.567886 0.862658
Si Si6 0.269167 0.431605 0.682461
Si Si7 0.332116 0.071447 0.417167
Si Si8 0.403294 0.430075 0.336916
O O1 0.887618 0.750000 0.011006
O O2 0.861077 0.505237 0.837308
O O3 0.775248 0.528674 0.837742
O O4 0.963987 0.499822 0.228636
O O5 0.600250 0.250000 0.207640
O O6 0.661269 0.991605 0.260809
O O7 0.635294 0.031500 0.416582
O O8 0.500000 0.000000 0.000000
O O9 0.909770 0.750000 0.833143
O O10 0.834227 0.520466 0.572463
O O11 0.000000 0.500000 0.000000
O O12 0.036423 0.750000 0.473197
O O13 0.141700 0.992737 0.661236
O O14 0.000000 0.000000 0.500000
O O15 0.250667 0.750000 0.870689
O O16 0.287153 0.509749 0.833261
O O17 0.314812 0.505590 0.095003
O O18 0.281647 0.250000 0.720194
O O19 0.338692 0.250000 0.465297
O O20 0.395392 0.037109 0.446641
O O21 0.500000 0.500000 0.500000
O O22 0.402289 0.250000 0.310141
#
# Coordination Sequence:
#
# PCOD8074323 Si02
#       8
#     4   4   4   4   4   4   4   4
#     4   9  17  35  60  85 117 159 202 248 306 365
#     4  12  26  43  67  96 129 167 211 265 325 388
#     4  10  20  35  58  86 122 163 205 254 307 369
#     4  10  21  37  61  90 125 168 213 262 314 375
#     4  11  24  42  64  94 134 173 216 267 321 384
#     4  11  23  42  66  93 129 171 216 265 319 381
#     4  10  21  42  68  93 125 165 213 263 318 379
#     4  11  25  44  69  95 126 167 214 268 325 384
#
# _framework density 20.458176999999999
#
# number of rings (size 3 to 8) (size 9 to 14) (size 15 to 20)
#    0.000    1.500    1.250    3.750    1.750    5.000 
#    0.000    1.250    0.000    0.000    0.000    0.000 
#    0.000    0.000    0.000    0.000    0.000    0.000 
#
# Total GULP energy -396789.509969 kJ/mol
# GULP energy per Si atom -12399.672187 kJ/mol
# Density = 2.041161 g / cm^3
# Si number density = 20.458177 Si / 1000 Ang^3
#
#
#
# Elastic Constant Matrix: (Units=GPa)
#
#
# Indices 1 2 3 4 5 6 
#
# 1 120.5160 25.3066 37.7196 0.0000 5.5499 0.0000
# 2 25.3066 45.8536 28.0041 0.0000 0.2025 0.0000
# 3 37.7196 28.0041 116.3737 0.0000 7.9190 0.0000
# 4 0.0000 0.0000 0.0000 34.8560 0.0000 -0.7485
# 5 5.5499 0.2025 7.9190 0.0000 40.5569 0.0000
# 6 0.0000 0.0000 0.0000 -0.7485 0.0000 35.2623
#
#
#
# Elastic Compliance Matrix: (Units=1/GPa)
#
#
# Indices 1 2 3 4 5 6 
#
# 1 0.009880 -0.004139 -0.002144 0.000000 -0.000913 0.000000
# 2 -0.004139 0.027347 -0.005339 0.000000 0.001472 0.000000
# 3 -0.002144 -0.005339 0.010693 0.000000 -0.001768 0.000000
# 4 0.000000 0.000000 0.000000 0.028703 0.000000 0.000609
# 5 -0.000913 0.001472 -0.001768 0.000000 0.025119 0.000000
# 6 0.000000 0.000000 0.000000 0.000609 0.000000 0.028372
#
#
# Mechanical properties :
#
#
# Convention : Reuss Voigt Hill
#
# Bulk Modulus (GPa) = 40.52705 51.64486 46.08596
# Shear Modulus (GPa) = 30.94350 34.91593 32.92971
#
# Velocity S-wave (km/s) = 3.89334 4.13570 4.01635
# Velocity P-wave (km/s) = 6.32957 6.93573 6.63957
#
# Compressibility (1/GPa) = 0.02467488
#
# Stress axis : x y z
#
# Youngs Moduli (GPa) = 101.21519 36.56657 93.51764
#
# Poissons Ratio (x) = 0.15136 0.20052
# Poissons Ratio (y) = 0.41895 0.49933
# Poissons Ratio (z) = 0.21702 0.19525
#
# Static dielectric constant tensor:
#      x y z
#    x 3.973610 0.000000 -0.050940 
#    y 0.000000 3.667790 0.000000 
#    z -0.050940 0.000000 4.052470 
# 
# 
# High freq. dielectric constant tensor:
#      x y z
#    x 1.814160 0.000000 0.002260 
#    y 0.000000 1.786320 0.000000 
#    z 0.002260 0.000000 1.814480 
# 
# From -- ./inp_files/45246.got.cif
#   From: 2010.06.25/outbox.cif.g09.slc.cpg/sg11_23_cif.got.tgz:45246.got - 2010.06.27 23:14:04.
