data_PCOD8074319
_publ_section_title
;
Structure prediction by ZEFSAII (Michael W. Deem and Ramdas Pophale) SiO2 
 PCOD8074319
Probable space group: P 21/M
;
_chemical_formula_sum "Si O2"
_cell_formula_units_Z 32
_cell_length_a 7.869074
_cell_length_b 16.985828
_cell_length_c 12.296191
_cell_angle_alpha 90.000000
_cell_angle_beta 118.489109
_cell_angle_gamma 90.000000
_cell_volume 1444.522362
_symmetry_space_group_name_H-M "P 21/M"
_symmetry_group_IT_number 11
_symmetry_cell_setting 'monoclinic'
loop_
_space_group_symop_operation_xyz
x,y,z
-x,1/2+y,-z
-x,-y,-z
x,1/2-y,z
loop_
_atom_site_type_symbol
_atom_site_label
_atom_site_fract_x
_atom_site_fract_y
_atom_site_fract_z
Si Si1 0.698691 0.516792 0.497419
Si Si2 0.223301 0.917383 0.149916
Si Si3 0.462268 0.836384 0.916024
Si Si4 0.921173 0.097701 0.130307
Si Si5 0.472781 0.058976 0.264068
Si Si6 0.722522 0.840229 0.638292
Si Si7 0.020318 0.438579 0.730496
Si Si8 0.381292 0.340132 0.804183
O O1 0.500000 0.500000 0.500000
O O2 0.653817 0.497397 0.356425
O O3 0.751705 0.608839 0.536267
O O4 0.873165 0.462208 0.590023
O O5 0.096662 0.886538 0.213857
O O6 0.427558 0.872594 0.198456
O O7 0.273441 0.008390 0.198089
O O8 0.088742 0.915159 0.002657
O O9 0.497642 0.750000 0.874117
O O10 0.244534 0.840828 0.889838
O O11 0.496127 0.907366 0.844725
O O12 0.601121 0.848502 0.060700
O O13 0.110315 0.145170 0.222703
O O14 0.890627 0.015113 0.182835
O O15 0.463749 0.128448 0.351643
O O16 0.700482 0.750000 0.597256
O O17 0.186247 0.388648 0.720076
O O18 0.355458 0.250000 0.759647
#
# Coordination Sequence:
#
# PCOD8074319 Si02
#       8
#     4   4   4   4   4   4   4   4
#     4   9  19  39  61  86 120 156 212 253 296 362
#     4  11  21  37  64  89 125 161 202 252 314 370
#     4  10  21  37  57  86 126 163 195 259 326 364
#     4  10  20  35  58  91 120 153 201 247 306 385
#     4  11  20  37  62  87 118 158 212 252 301 373
#     4  10  20  35  58  86 119 153 197 257 305 360
#     4  11  20  38  65  86 118 165 209 255 309 368
#     4  10  24  41  57  90 130 162 209 259 312 379
#
# _framework density 22.152650000000001
#
# number of rings (size 3 to 8) (size 9 to 14) (size 15 to 20)
#    0.000    1.750    3.750    2.625    1.750    3.000 
#    0.000    9.375    0.000    0.000    0.000    0.000 
#    0.000    0.000    0.000    0.000    0.000    0.000 
#
# Total GULP energy -396608.007067 kJ/mol
# GULP energy per Si atom -12394.000221 kJ/mol
# Density = 2.210223 g / cm^3
# Si number density = 22.152650 Si / 1000 Ang^3
#
#
#
# Elastic Constant Matrix: (Units=GPa)
#
#
# Indices 1 2 3 4 5 6 
#
# 1 60.8333 27.3494 -0.7323 0.0000 12.2245 0.0000
# 2 27.3494 119.5347 28.9662 0.0000 7.8779 0.0000
# 3 -0.7323 28.9662 51.0803 0.0000 24.4252 0.0000
# 4 0.0000 0.0000 0.0000 26.3153 0.0000 -3.5208
# 5 12.2245 7.8779 24.4252 0.0000 28.3445 0.0000
# 6 0.0000 0.0000 0.0000 -3.5208 0.0000 24.2843
#
#
#
# Elastic Compliance Matrix: (Units=1/GPa)
#
#
# Indices 1 2 3 4 5 6 
#
# 1 0.024378 -0.007792 0.014899 0.000000 -0.021187 0.000000
# 2 -0.007792 0.012395 -0.012076 0.000000 0.010322 0.000000
# 3 0.014899 -0.012076 0.047804 0.000000 -0.044264 0.000000
# 4 0.000000 0.000000 0.000000 0.038752 0.000000 0.005618
# 5 -0.021187 0.010322 -0.044264 0.000000 0.079692 0.000000
# 6 0.000000 0.000000 0.000000 0.005618 0.000000 0.041993
#
#
# Mechanical properties :
#
#
# Convention : Reuss Voigt Hill
#
# Bulk Modulus (GPa) = 13.39760 38.06831 25.73295
# Shear Modulus (GPa) = 17.86787 27.51316 22.69051
#
# Velocity S-wave (km/s) = 2.84311 3.52800 3.20391
# Velocity P-wave (km/s) = 4.10350 5.81528 5.03271
#
# Compressibility (1/GPa) = 0.07464023
#
# Stress axis : x y z
#
# Youngs Moduli (GPa) = 41.01992 80.68059 20.91872
#
# Poissons Ratio (x) = 0.62865 -0.31167
# Poissons Ratio (y) = 0.31962 0.25261
# Poissons Ratio (z) = -0.61117 0.97429
#
# Static dielectric constant tensor:
#      x y z
#    x 3.856490 0.000000 0.082900 
#    y 0.000000 4.024470 0.000000 
#    z 0.082900 0.000000 4.267840 
# 
# 
# High freq. dielectric constant tensor:
#      x y z
#    x 1.864180 0.000000 0.008470 
#    y 0.000000 1.857940 0.000000 
#    z 0.008470 0.000000 1.873430 
# 
# From -- ./inp_files/47649.got.cif
#   From: 2010.06.25/outbox.cif.g09.slc.cpg/sg11_24_cif.got.tgz:47649.got - 2010.06.27 23:14:04.
