data_PCOD8074653
_publ_section_title
;
Structure prediction by ZEFSAII (Michael W. Deem and Ramdas Pophale) SiO2 
 PCOD8074653
Probable space group: P 21/M
;
_chemical_formula_sum "Si O2"
_cell_formula_units_Z 32
_cell_length_a 19.709862
_cell_length_b 14.686398
_cell_length_c 12.032445
_cell_angle_alpha 90.000000
_cell_angle_beta 152.119985
_cell_angle_gamma 90.000000
_cell_volume 1628.723099
_symmetry_space_group_name_H-M "P 21/M"
_symmetry_group_IT_number 11
_symmetry_cell_setting 'monoclinic'
loop_
_space_group_symop_operation_xyz
x,y,z
-x,1/2+y,-z
-x,-y,-z
x,1/2-y,z
loop_
_atom_site_type_symbol
_atom_site_label
_atom_site_fract_x
_atom_site_fract_y
_atom_site_fract_z
Si Si1 0.327992 0.148567 0.895667
Si Si2 0.164256 0.434779 0.451545
Si Si3 0.140239 0.009355 0.019953
Si Si4 0.370335 0.644449 0.336871
Si Si5 0.504956 0.351440 0.720188
Si Si6 0.315488 0.147724 0.126599
Si Si7 0.549256 0.008252 0.195079
Si Si8 0.171161 0.151080 0.237520
O O1 0.352349 0.250000 0.886720
O O2 0.226593 0.098193 0.659691
O O3 0.258073 0.146536 0.916592
O O4 0.487111 0.104440 0.145334
O O5 0.275826 0.504630 0.550957
O O6 0.148636 0.354250 0.338315
O O7 0.009497 0.478453 0.253090
O O8 0.215708 0.077659 0.045404
O O9 0.096240 0.065474 0.067645
O O10 0.242137 0.922044 0.193654
O O11 0.324999 0.750000 0.290384
O O12 0.396670 0.625539 0.244132
O O13 0.515014 0.619898 0.615852
O O14 0.543268 0.250000 0.821565
O O15 0.528844 0.426463 0.849788
O O16 0.338336 0.353853 0.440756
O O17 0.296763 0.250000 0.148563
O O18 0.500000 0.000000 0.000000
O O19 0.107498 0.250000 0.109819
#
# Coordination Sequence:
#
# PCOD8074653 Si02
#       8
#     4   4   4   4   4   4   4   4
#     4  10  21  39  62  81 109 152 195 238 286 341
#     4  10  23  38  55  83 116 154 197 231 284 342
#     4  12  22  35  60  87 120 153 184 238 295 349
#     4  10  21  35  55  88 118 148 193 243 290 340
#     4   9  17  33  58  84 110 146 192 240 283 329
#     4  10  21  37  59  86 114 150 193 239 294 343
#     4   9  19  35  56  81 109 144 194 239 276 335
#     4  10  20  36  58  81 114 154 193 231 281 347
#
# _framework density 19.647293000000001
#
# number of rings (size 3 to 8) (size 9 to 14) (size 15 to 20)
#    0.000    2.000    1.250    2.250    3.500    4.500 
#    0.000    1.250    0.000    4.500    0.000    0.000 
#    0.000    0.000    0.000    0.000    0.000    0.000 
#
# Total GULP energy -396559.154808 kJ/mol
# GULP energy per Si atom -12392.473588 kJ/mol
# Density = 1.960257 g / cm^3
# Si number density = 19.647293 Si / 1000 Ang^3
#
#
#
# Elastic Constant Matrix: (Units=GPa)
#
#
# Indices 1 2 3 4 5 6 
#
# 1 66.7924 43.6750 39.6291 0.0000 -13.4710 0.0000
# 2 43.6750 123.5543 71.1405 0.0000 2.5211 0.0000
# 3 39.6291 71.1405 96.8619 0.0000 3.6846 0.0000
# 4 0.0000 0.0000 0.0000 24.5236 0.0000 -9.4216
# 5 -13.4710 2.5211 3.6846 0.0000 28.6483 0.0000
# 6 0.0000 0.0000 0.0000 -9.4216 0.0000 22.0114
#
#
#
# Elastic Compliance Matrix: (Units=1/GPa)
#
#
# Indices 1 2 3 4 5 6 
#
# 1 0.025144 -0.005103 -0.007040 0.000000 0.013178 0.000000
# 2 -0.005103 0.015060 -0.008875 0.000000 -0.002584 0.000000
# 3 -0.007040 -0.008875 0.019916 0.000000 -0.005091 0.000000
# 4 0.000000 0.000000 0.000000 0.048802 0.000000 0.020889
# 5 0.013178 -0.002584 -0.005091 0.000000 0.041985 0.000000
# 6 0.000000 0.000000 0.000000 0.020889 0.000000 0.054372
#
#
# Mechanical properties :
#
#
# Convention : Reuss Voigt Hill
#
# Bulk Modulus (GPa) = 55.29937 66.23309 60.76623
# Shear Modulus (GPa) = 19.73606 23.88760 21.81183
#
# Velocity S-wave (km/s) = 3.17285 3.49065 3.33554
# Velocity P-wave (km/s) = 6.45212 7.07322 6.76979
#
# Compressibility (1/GPa) = 0.01808339
#
# Stress axis : x y z
#
# Youngs Moduli (GPa) = 39.77171 66.39980 50.21037
#
# Poissons Ratio (x) = 0.33885 0.35349
# Poissons Ratio (y) = 0.20296 0.44561
# Poissons Ratio (z) = 0.28000 0.58929
#
# Static dielectric constant tensor:
#      x y z
#    x 2.372990 0.000000 -0.656290 
#    y 0.000000 3.372440 0.000000 
#    z -0.656290 0.000000 3.095840 
# 
# 
# High freq. dielectric constant tensor:
#      x y z
#    x 1.771670 0.000000 -0.013650 
#    y 0.000000 1.774850 0.000000 
#    z -0.013650 0.000000 1.730690 
# 
# From -- ./inp_files/41719.got.cif
#   From: 2010.06.25/outbox.cif.g09.slc.cpg/sg11_21_cif.got.tgz:41719.got - 2010.06.27 23:14:04.
