data_PCOD8074544
_publ_section_title
;
Structure prediction by ZEFSAII (Michael W. Deem and Ramdas Pophale) SiO2 
 PCOD8074544
Probable space group: P 21/M
;
_chemical_formula_sum "Si O2"
_cell_formula_units_Z 24
_cell_length_a 12.085360
_cell_length_b 13.409823
_cell_length_c 14.268340
_cell_angle_alpha 90.000000
_cell_angle_beta 148.493817
_cell_angle_gamma 90.000000
_cell_volume 1208.419315
_symmetry_space_group_name_H-M "P 21/M"
_symmetry_group_IT_number 11
_symmetry_cell_setting 'monoclinic'
loop_
_space_group_symop_operation_xyz
x,y,z
-x,1/2+y,-z
-x,-y,-z
x,1/2-y,z
loop_
_atom_site_type_symbol
_atom_site_label
_atom_site_fract_x
_atom_site_fract_y
_atom_site_fract_z
Si Si1 0.815890 0.864194 0.332435
Si Si2 0.358359 0.430467 0.462505
Si Si3 0.285766 0.935502 0.151622
Si Si4 0.966798 0.972518 0.620947
Si Si5 0.334367 0.864264 0.982123
Si Si6 0.828180 0.860123 0.851939
O O1 0.888922 0.750000 0.391754
O O2 0.830270 0.913993 0.445030
O O3 0.970739 0.918282 0.370874
O O4 0.575650 0.873010 0.121480
O O5 0.500000 0.500000 0.500000
O O6 0.518461 0.380612 0.653537
O O7 0.241313 0.354440 0.307946
O O8 0.173141 0.487301 0.386509
O O9 0.297297 0.054692 0.181736
O O10 0.305457 0.926158 0.055750
O O11 0.075405 0.884978 0.039097
O O12 0.180565 0.909633 0.792915
O O13 0.271418 0.750000 0.955838
O O14 0.786204 0.750000 0.864868
#
# Coordination Sequence:
#
# PCOD8074544 Si02
#       6
#     4   4   4   4   4   4
#     4  10  23  40  61  87 116 154 196 239 290 346
#     4  10  21  37  59  84 115 154 192 240 290 340
#     4  10  20  36  56  84 120 147 192 245 288 332
#     4  11  21  39  63  85 118 152 192 244 290 341
#     4  11  21  36  62  89 112 148 197 242 289 344
#     4  10  21  36  56  82 116 159 197 234 287 346
#
# _framework density 19.860655999999999
#
# number of rings (size 3 to 8) (size 9 to 14) (size 15 to 20)
#    0.000    1.667    3.333    1.500    0.000    2.000 
#    0.000    4.167    0.000    0.000    0.000    0.000 
#    0.000    0.000    0.000    0.000    0.000    0.000 
#
# Total GULP energy -297524.093382 kJ/mol
# GULP energy per Si atom -12396.837224 kJ/mol
# Density = 1.981545 g / cm^3
# Si number density = 19.860656 Si / 1000 Ang^3
#
#
#
# Elastic Constant Matrix: (Units=GPa)
#
#
# Indices 1 2 3 4 5 6 
#
# 1 79.4155 42.4637 6.2614 0.0000 10.6048 0.0000
# 2 42.4637 123.7599 19.8260 0.0000 9.1706 0.0000
# 3 6.2614 19.8260 101.3389 0.0000 5.1214 0.0000
# 4 0.0000 0.0000 0.0000 17.2599 0.0000 -0.7121
# 5 10.6048 9.1706 5.1214 0.0000 23.5156 0.0000
# 6 0.0000 0.0000 0.0000 -0.7121 0.0000 18.1904
#
#
#
# Elastic Compliance Matrix: (Units=1/GPa)
#
#
# Indices 1 2 3 4 5 6 
#
# 1 0.016031 -0.005155 0.000285 0.000000 -0.005281 0.000000
# 2 -0.005155 0.010204 -0.001612 0.000000 -0.001304 0.000000
# 3 0.000285 -0.001612 0.010253 0.000000 -0.001733 0.000000
# 4 0.000000 0.000000 0.000000 0.058031 0.000000 0.002272
# 5 -0.005281 -0.001304 -0.001733 0.000000 0.045792 0.000000
# 6 0.000000 0.000000 0.000000 0.002272 0.000000 0.055063
#
#
# Mechanical properties :
#
#
# Convention : Reuss Voigt Hill
#
# Bulk Modulus (GPa) = 42.50912 49.06849 45.78880
# Shear Modulus (GPa) = 23.12891 27.52406 25.32648
#
# Velocity S-wave (km/s) = 3.41627 3.72675 3.57488
# Velocity P-wave (km/s) = 6.08369 6.57862 6.33599
#
# Compressibility (1/GPa) = 0.02352437
#
# Stress axis : x y z
#
# Youngs Moduli (GPa) = 62.37893 98.00420 97.53054
#
# Poissons Ratio (x) = 0.50519 -0.02778
# Poissons Ratio (y) = 0.32155 0.15721
# Poissons Ratio (z) = -0.01777 0.15797
#
# Static dielectric constant tensor:
#      x y z
#    x 3.401960 0.000000 -0.096840 
#    y 0.000000 3.463880 0.000000 
#    z -0.096840 0.000000 4.262150 
# 
# 
# High freq. dielectric constant tensor:
#      x y z
#    x 1.756540 0.000000 0.000260 
#    y 0.000000 1.754580 0.000000 
#    z 0.000260 0.000000 1.801770 
# 
# From -- ./inp_files/39518.got.cif
#   From: 2010.06.25/outbox.cif.g09.slc.cpg/sg11_20_cif.got.tgz:39518.got - 2010.06.27 23:14:04.
