data_PCOD8074263
_publ_section_title
;
Structure prediction by ZEFSAII (Michael W. Deem and Ramdas Pophale) SiO2 
 PCOD8074263
Probable space group: P 21/M
;
_chemical_formula_sum "Si O2"
_cell_formula_units_Z 24
_cell_length_a 12.366054
_cell_length_b 8.469128
_cell_length_c 11.501603
_cell_angle_alpha 90.000000
_cell_angle_beta 105.200722
_cell_angle_gamma 90.000000
_cell_volume 1162.415676
_symmetry_space_group_name_H-M "P 21/M"
_symmetry_group_IT_number 11
_symmetry_cell_setting 'monoclinic'
loop_
_space_group_symop_operation_xyz
x,y,z
-x,1/2+y,-z
-x,-y,-z
x,1/2-y,z
loop_
_atom_site_type_symbol
_atom_site_label
_atom_site_fract_x
_atom_site_fract_y
_atom_site_fract_z
Si Si1 0.375186 0.934173 0.475382
Si Si2 0.941254 0.934574 0.249775
Si Si3 0.179741 0.937276 0.255948
Si Si4 0.732374 0.934376 0.326077
Si Si5 0.806925 0.934385 0.990991
Si Si6 0.615580 0.066517 0.074471
O O1 0.386353 0.750000 0.463888
O O2 0.292997 0.998930 0.350261
O O3 0.500000 0.000000 0.500000
O O4 0.316254 0.970605 0.579874
O O5 0.925169 0.750000 0.256872
O O6 0.856097 0.003389 0.324262
O O7 0.071066 0.983539 0.305158
O O8 0.904925 0.984310 0.108679
O O9 0.182129 0.750000 0.235837
O O10 0.159083 0.025733 0.129939
O O11 0.733903 0.750000 0.358536
O O12 0.651073 0.962691 0.194798
O O13 0.777639 0.750000 0.993954
O O14 0.699444 0.039782 0.991130
O O15 0.608660 0.250000 0.106467
O O16 0.500000 0.000000 0.000000
#
# Coordination Sequence:
#
# PCOD8074263 Si02
#       6
#     4   4   4   4   4   4
#     4  11  25  42  60  83 116 159 205 251 298 351
#     4   8  17  36  61  89 120 152 190 243 300 356
#     4  10  21  38  60  86 118 159 203 244 294 353
#     4  10  21  40  63  87 118 152 193 245 300 354
#     4  10  20  35  57  89 124 155 191 240 297 354
#     4  11  22  37  59  86 117 155 197 241 293 350
#
# _framework density 20.646657999999999
#
# number of rings (size 3 to 8) (size 9 to 14) (size 15 to 20)
#    0.000    2.000    0.000    4.500    2.333    2.000 
#    0.000    4.167    0.000    0.000    0.000    0.000 
#    0.000    0.000    0.000    0.000    0.000    0.000 
#
# Total GULP energy -297488.769875 kJ/mol
# GULP energy per Si atom -12395.365411 kJ/mol
# Density = 2.059966 g / cm^3
# Si number density = 20.646658 Si / 1000 Ang^3
#
#
#
# Elastic Constant Matrix: (Units=GPa)
#
#
# Indices 1 2 3 4 5 6 
#
# 1 158.1683 30.3844 62.9085 0.0000 9.8443 0.0000
# 2 30.3844 42.3680 4.2989 0.0000 3.1851 0.0000
# 3 62.9085 4.2989 79.8481 0.0000 -15.3133 0.0000
# 4 0.0000 0.0000 0.0000 31.7331 0.0000 -4.3311
# 5 9.8443 3.1851 -15.3133 0.0000 29.1571 0.0000
# 6 0.0000 0.0000 0.0000 -4.3311 0.0000 26.0964
#
#
#
# Elastic Compliance Matrix: (Units=1/GPa)
#
#
# Indices 1 2 3 4 5 6 
#
# 1 0.013015 -0.007412 -0.011723 0.000000 -0.009742 0.000000
# 2 -0.007412 0.028304 0.004674 0.000000 0.001865 0.000000
# 3 -0.011723 0.004674 0.024653 0.000000 0.016395 0.000000
# 4 0.000000 0.000000 0.000000 0.032243 0.000000 0.005351
# 5 -0.009742 0.001865 0.016395 0.000000 0.045993 0.000000
# 6 0.000000 0.000000 0.000000 0.005351 0.000000 0.039208
#
#
# Mechanical properties :
#
#
# Convention : Reuss Voigt Hill
#
# Bulk Modulus (GPa) = 26.99194 52.84088 39.91641
# Shear Modulus (GPa) = 22.25294 29.58349 25.91822
#
# Velocity S-wave (km/s) = 3.28655 3.78940 3.54690
# Velocity P-wave (km/s) = 5.24438 6.69288 6.01241
#
# Compressibility (1/GPa) = 0.03704810
#
# Stress axis : x y z
#
# Youngs Moduli (GPa) = 76.83232 35.33073 40.56337
#
# Poissons Ratio (x) = 0.26188 0.47554
# Poissons Ratio (y) = 0.56949 -0.18958
# Poissons Ratio (z) = 0.90074 -0.16512
#
# Static dielectric constant tensor:
#      x y z
#    x 4.113050 0.000000 0.032660 
#    y 0.000000 3.627760 0.000000 
#    z 0.032660 0.000000 3.665210 
# 
# 
# High freq. dielectric constant tensor:
#      x y z
#    x 1.823790 0.000000 -0.003340 
#    y 0.000000 1.794280 0.000000 
#    z -0.003340 0.000000 1.799980 
# 
# From -- ./inp_files/33813.got.cif
#   From: 2010.06.25/outbox.cif.g09.slc.cpg/sg11_17_cif.got.tgz:33813.got - 2010.06.27 23:14:04.
