data_PCOD8074280
_publ_section_title
;
Structure prediction by ZEFSAII (Michael W. Deem and Ramdas Pophale) SiO2 
 PCOD8074280
Probable space group: P 21/M
;
_chemical_formula_sum "Si O2"
_cell_formula_units_Z 28
_cell_length_a 18.443931
_cell_length_b 18.023060
_cell_length_c 10.500509
_cell_angle_alpha 90.000000
_cell_angle_beta 24.428711
_cell_angle_gamma 90.000000
_cell_volume 1443.549413
_symmetry_space_group_name_H-M "P 21/M"
_symmetry_group_IT_number 11
_symmetry_cell_setting 'monoclinic'
loop_
_space_group_symop_operation_xyz
x,y,z
-x,1/2+y,-z
-x,-y,-z
x,1/2-y,z
loop_
_atom_site_type_symbol
_atom_site_label
_atom_site_fract_x
_atom_site_fract_y
_atom_site_fract_z
Si Si1 0.842712 0.663937 0.803179
Si Si2 0.595406 0.529899 0.221359
Si Si3 0.075911 0.462267 0.701593
Si Si4 0.667675 0.166453 0.706481
Si Si5 0.180786 0.571103 0.320908
Si Si6 0.732857 0.670778 0.692604
Si Si7 0.247999 0.938010 0.633334
O O1 0.824115 0.750000 0.886121
O O2 0.815618 0.664207 0.697952
O O3 0.037802 0.632432 0.511228
O O4 0.701561 0.605568 0.089255
O O5 0.500000 0.500000 0.500000
O O6 0.449326 0.548959 0.349298
O O7 0.722933 0.467073 0.954208
O O8 0.086737 0.505933 0.551313
O O9 0.181232 0.386931 0.536564
O O10 0.173214 0.498860 0.663137
O O11 0.872108 0.441096 0.048597
O O12 0.726936 0.250000 0.644285
O O13 0.683469 0.114466 0.805497
O O14 0.777763 0.137264 0.408356
O O15 0.472500 0.159660 0.969018
O O16 0.776061 0.750000 0.562244
#
# Coordination Sequence:
#
# PCOD8074280 Si02
#       7
#     4   4   4   4   4   4   4
#     4  11  23  40  59  87 123 157 197 249 306 362
#     4  12  24  38  63  91 124 163 207 250 304 362
#     4  10  20  37  60  87 117 155 199 251 295 357
#     4  10  20  38  62  86 116 155 197 249 307 358
#     4  11  22  39  63  86 117 159 207 248 297 367
#     4  10  20  35  58  84 115 155 194 239 301 357
#     4  10  21  35  58  89 120 150 197 249 299 350
#
# _framework density 19.396635
#
# number of rings (size 3 to 8) (size 9 to 14) (size 15 to 20)
#    0.000    1.429    2.857    2.571    2.000    2.857 
#    0.000    1.429    0.000    6.000    0.000    0.000 
#    0.000    0.000    0.000    0.000    0.000    0.000 
#
# Total GULP energy -346945.359771 kJ/mol
# GULP energy per Si atom -12390.905706 kJ/mol
# Density = 1.935249 g / cm^3
# Si number density = 19.396635 Si / 1000 Ang^3
#
#
#
# Elastic Constant Matrix: (Units=GPa)
#
#
# Indices 1 2 3 4 5 6 
#
# 1 93.7300 39.5514 70.1974 0.0000 -23.8686 0.0000
# 2 39.5514 157.6077 76.8976 0.0000 6.2690 0.0000
# 3 70.1974 76.8976 143.3451 0.0000 -12.8197 0.0000
# 4 0.0000 0.0000 0.0000 35.4758 0.0000 -3.7816
# 5 -23.8686 6.2690 -12.8197 0.0000 50.1426 0.0000
# 6 0.0000 0.0000 0.0000 -3.7816 0.0000 24.6567
#
#
#
# Elastic Compliance Matrix: (Units=1/GPa)
#
#
# Indices 1 2 3 4 5 6 
#
# 1 0.018993 -0.001113 -0.008067 0.000000 0.007118 0.000000
# 2 -0.001113 0.008928 -0.004494 0.000000 -0.002795 0.000000
# 3 -0.008067 -0.004494 0.013350 0.000000 0.000135 0.000000
# 4 0.000000 0.000000 0.000000 0.028657 0.000000 0.004395
# 5 0.007118 -0.002795 0.000135 0.000000 0.023715 0.000000
# 6 0.000000 0.000000 0.000000 0.004395 0.000000 0.041231
#
#
# Mechanical properties :
#
#
# Convention : Reuss Voigt Hill
#
# Bulk Modulus (GPa) = 71.83251 85.33061 78.58156
# Shear Modulus (GPa) = 29.96443 35.92411 32.94427
#
# Velocity S-wave (km/s) = 3.93469 4.30825 4.12570
# Velocity P-wave (km/s) = 7.59976 8.29675 7.95589
#
# Compressibility (1/GPa) = 0.01392127
#
# Stress axis : x y z
#
# Youngs Moduli (GPa) = 52.65066 112.00404 74.90720
#
# Poissons Ratio (x) = 0.12470 0.60430
# Poissons Ratio (y) = 0.05862 0.33666
# Poissons Ratio (z) = 0.42475 0.50338
#
# Static dielectric constant tensor:
#      x y z
#    x 3.434220 0.000000 -0.111210 
#    y 0.000000 4.023530 0.000000 
#    z -0.111210 0.000000 3.685350 
# 
# 
# High freq. dielectric constant tensor:
#      x y z
#    x 1.756950 0.000000 -0.016310 
#    y 0.000000 1.765750 0.000000 
#    z -0.016310 0.000000 1.748300 
# 
# From -- ./inp_files/43514.got.cif
#   From: 2010.06.25/outbox.cif.g09.slc.cpg/sg11_22_cif.got.tgz:43514.got - 2010.06.27 23:14:04.
