data_PCOD8074545
_publ_section_title
;
Structure prediction by ZEFSAII (Michael W. Deem and Ramdas Pophale) SiO2 
 PCOD8074545
Probable space group: P 21/M
;
_chemical_formula_sum "Si O2"
_cell_formula_units_Z 28
_cell_length_a 22.945985
_cell_length_b 8.925324
_cell_length_c 14.919744
_cell_angle_alpha 90.000000
_cell_angle_beta 26.434014
_cell_angle_gamma 90.000000
_cell_volume 1360.237926
_symmetry_space_group_name_H-M "P 21/M"
_symmetry_group_IT_number 11
_symmetry_cell_setting 'monoclinic'
loop_
_space_group_symop_operation_xyz
x,y,z
-x,1/2+y,-z
-x,-y,-z
x,1/2-y,z
loop_
_atom_site_type_symbol
_atom_site_label
_atom_site_fract_x
_atom_site_fract_y
_atom_site_fract_z
Si Si1 0.636765 0.921231 0.047724
Si Si2 0.065725 0.075588 0.321977
Si Si3 0.614428 0.922717 0.567823
Si Si4 0.963588 0.080197 0.824335
Si Si5 0.119033 0.072000 0.891067
Si Si6 0.251934 0.084672 0.433431
Si Si7 0.618546 0.423049 0.886629
O O1 0.604582 0.750000 0.069854
O O2 0.518264 0.985680 0.272938
O O3 0.777137 0.939256 0.900596
O O4 0.646888 0.015122 0.944299
O O5 0.023679 0.250000 0.379383
O O6 0.018230 0.991863 0.298402
O O7 0.000000 0.000000 0.500000
O O8 0.588971 0.750000 0.579726
O O9 0.740680 0.982005 0.340277
O O10 0.641906 0.947307 0.635555
O O11 0.908766 0.250000 0.891266
O O12 0.106587 0.081915 0.674429
O O13 0.876002 0.982129 0.012257
O O14 0.103716 0.250000 0.907143
O O15 0.000000 0.000000 0.000000
O O16 0.279585 0.250000 0.354266
O O17 0.257853 0.960559 0.346936
O O18 0.591949 0.250000 0.931974
O O19 0.500000 0.500000 0.000000
#
# Coordination Sequence:
#
# PCOD8074545 Si02
#       7
#     4   4   4   4   4   4   4
#     4  11  24  41  61  87 122 161 205 258 311 365
#     4  11  25  45  67  94 126 164 211 262 311 370
#     4  10  21  38  60  88 124 161 200 249 306 366
#     4  11  23  41  65  93 125 164 210 259 312 371
#     4  11  22  39  63  94 130 167 208 259 315 373
#     4  10  20  36  56  85 123 157 197 250 303 360
#     4  12  23  34  53  83 118 156 199 244 302 370
#
# _framework density 20.584634999999999
#
# number of rings (size 3 to 8) (size 9 to 14) (size 15 to 20)
#    0.000    1.143    2.857    3.857    0.000    8.000 
#    0.000    0.714    0.000    0.000    0.000    0.000 
#    0.000    0.000    0.000    0.000    0.000    0.000 
#
# Total GULP energy -347135.495049 kJ/mol
# GULP energy per Si atom -12397.696252 kJ/mol
# Density = 2.053778 g / cm^3
# Si number density = 20.584635 Si / 1000 Ang^3
#
#
#
# Elastic Constant Matrix: (Units=GPa)
#
#
# Indices 1 2 3 4 5 6 
#
# 1 55.7108 30.0649 20.5539 0.0000 9.2497 0.0000
# 2 30.0649 126.6770 48.5667 0.0000 2.3877 0.0000
# 3 20.5539 48.5667 124.9235 0.0000 5.4403 0.0000
# 4 0.0000 0.0000 0.0000 37.5788 0.0000 3.7329
# 5 9.2497 2.3877 5.4403 0.0000 32.6009 0.0000
# 6 0.0000 0.0000 0.0000 3.7329 0.0000 31.3733
#
#
#
# Elastic Compliance Matrix: (Units=1/GPa)
#
#
# Indices 1 2 3 4 5 6 
#
# 1 0.021891 -0.004469 -0.001620 0.000000 -0.005613 0.000000
# 2 -0.004469 0.010189 -0.003273 0.000000 0.001068 0.000000
# 3 -0.001620 -0.003273 0.009583 0.000000 -0.000900 0.000000
# 4 0.000000 0.000000 0.000000 0.026929 0.000000 -0.003204
# 5 -0.005613 0.001068 -0.000900 0.000000 0.032339 0.000000
# 6 0.000000 0.000000 0.000000 -0.003204 0.000000 0.032255
#
#
# Mechanical properties :
#
#
# Convention : Reuss Voigt Hill
#
# Bulk Modulus (GPa) = 43.59048 56.18693 49.88871
# Shear Modulus (GPa) = 31.33702 34.18565 32.76134
#
# Velocity S-wave (km/s) = 3.90596 4.07963 3.99374
# Velocity P-wave (km/s) = 6.44704 7.03890 6.74946
#
# Compressibility (1/GPa) = 0.02294079
#
# Stress axis : x y z
#
# Youngs Moduli (GPa) = 45.68067 98.14328 104.35247
#
# Poissons Ratio (x) = 0.43856 0.16906
# Poissons Ratio (y) = 0.20413 0.34150
# Poissons Ratio (z) = 0.07401 0.32118
#
# Static dielectric constant tensor:
#      x y z
#    x 3.544550 0.000000 0.034680 
#    y 0.000000 3.289530 0.000000 
#    z 0.034680 0.000000 4.100060 
# 
# 
# High freq. dielectric constant tensor:
#      x y z
#    x 1.781800 0.000000 0.000830 
#    y 0.000000 1.811570 0.000000 
#    z 0.000830 0.000000 1.821400 
# 
# From -- ./inp_files/54458.got.cif
#   From: 2010.06.25/outbox.cif.g09.slc.cpg/sg11_28_cif.got.tgz:54458.got - 2010.06.27 23:14:04.
