data_PCOD8074140
_publ_section_title
;
Structure prediction by ZEFSAII (Michael W. Deem and Ramdas Pophale) SiO2 
 PCOD8074140
Probable space group: P 21/M
;
_chemical_formula_sum "Si O2"
_cell_formula_units_Z 32
_cell_length_a 14.250104
_cell_length_b 9.258319
_cell_length_c 23.217907
_cell_angle_alpha 90.000000
_cell_angle_beta 147.611634
_cell_angle_gamma 90.000000
_cell_volume 1640.811465
_symmetry_space_group_name_H-M "P 21/M"
_symmetry_group_IT_number 11
_symmetry_cell_setting 'monoclinic'
loop_
_space_group_symop_operation_xyz
x,y,z
-x,1/2+y,-z
-x,-y,-z
x,1/2-y,z
loop_
_atom_site_type_symbol
_atom_site_label
_atom_site_fract_x
_atom_site_fract_y
_atom_site_fract_z
Si Si1 0.755052 0.584696 0.504315
Si Si2 0.428321 0.586208 0.409650
Si Si3 0.955474 0.413359 0.255275
Si Si4 0.571237 0.415037 0.091417
Si Si5 0.885808 0.920570 0.988528
Si Si6 0.502281 0.578964 0.820332
Si Si7 0.822044 0.422155 0.424721
Si Si8 0.960486 0.420029 0.810684
O O1 0.800583 0.750000 0.509015
O O2 0.555135 0.572946 0.420834
O O3 0.774541 0.470630 0.463935
O O4 0.882190 0.534465 0.621786
O O5 0.500000 0.500000 0.500000
O O6 0.411570 0.750000 0.421944
O O7 0.239989 0.525829 0.293096
O O8 0.987965 0.250000 0.251488
O O9 0.781192 0.426581 0.202980
O O10 0.935209 0.510443 0.188190
O O11 0.509602 0.250000 0.052347
O O12 0.500633 0.481012 0.115362
O O13 0.500000 0.500000 0.000000
O O14 0.908793 0.750000 0.991485
O O15 0.680836 0.967311 0.879919
O O16 0.954635 0.971989 0.086083
O O17 0.000000 0.000000 0.000000
O O18 0.492656 0.750000 0.819720
O O19 0.333817 0.522755 0.697866
O O20 0.845450 0.250000 0.434301
O O21 0.000000 0.500000 0.500000
O O22 0.977940 0.250000 0.813026
#
# Coordination Sequence:
#
# PCOD8074140 Si02
#       8
#     4   4   4   4   4   4   4   4
#     4  10  21  37  57  83 116 151 189 233 286 340
#     4  10  20  35  56  84 117 153 189 233 287 341
#     4  10  20  35  57  84 113 149 185 225 281 345
#     4  10  20  36  59  83 109 142 183 228 279 336
#     4  10  22  40  60  83 112 151 195 239 288 338
#     4   9  20  40  61  81 113 155 191 227 282 349
#     4  11  23  40  62  87 115 153 197 239 288 345
#     4  10  21  36  57  84 115 149 190 238 286 333
#
# _framework density 19.502545999999999
#
# number of rings (size 3 to 8) (size 9 to 14) (size 15 to 20)
#    0.000    2.000    1.250    1.875    1.750    5.000 
#    0.000    3.750    0.000    0.000    0.000    0.000 
#    0.000    0.000    0.000    0.000    0.000    0.000 
#
# Total GULP energy -396835.286530 kJ/mol
# GULP energy per Si atom -12401.102704 kJ/mol
# Density = 1.945816 g / cm^3
# Si number density = 19.502546 Si / 1000 Ang^3
#
#
#
# Elastic Constant Matrix: (Units=GPa)
#
#
# Indices 1 2 3 4 5 6 
#
# 1 131.6092 41.8389 55.7919 0.0000 -3.8629 0.0000
# 2 41.8389 50.8667 37.0045 0.0000 -5.9264 0.0000
# 3 55.7919 37.0045 126.7852 0.0000 -0.0212 0.0000
# 4 0.0000 0.0000 0.0000 27.7989 0.0000 -2.8616
# 5 -3.8629 -5.9264 -0.0212 0.0000 36.4442 0.0000
# 6 0.0000 0.0000 0.0000 -2.8616 0.0000 38.2391
#
#
#
# Elastic Compliance Matrix: (Units=1/GPa)
#
#
# Indices 1 2 3 4 5 6 
#
# 1 0.011018 -0.007024 -0.002798 0.000000 0.000024 0.000000
# 2 -0.007024 0.030050 -0.005679 0.000000 0.004139 0.000000
# 3 -0.002798 -0.005679 0.010776 0.000000 -0.001214 0.000000
# 4 0.000000 0.000000 0.000000 0.036252 0.000000 0.002713
# 5 0.000024 0.004139 -0.001214 0.000000 0.028114 0.000000
# 6 0.000000 0.000000 0.000000 0.002713 0.000000 0.026354
#
#
# Mechanical properties :
#
#
# Convention : Reuss Voigt Hill
#
# Bulk Modulus (GPa) = 47.98135 64.28130 56.13132
# Shear Modulus (GPa) = 27.69847 32.13817 29.91832
#
# Velocity S-wave (km/s) = 3.77271 4.06383 3.92097
# Velocity P-wave (km/s) = 6.60559 7.41968 7.02444
#
# Compressibility (1/GPa) = 0.02084143
#
# Stress axis : x y z
#
# Youngs Moduli (GPa) = 90.75822 33.27753 92.79744
#
# Poissons Ratio (x) = 0.23375 0.25969
# Poissons Ratio (y) = 0.63750 0.52700
# Poissons Ratio (z) = 0.25399 0.18898
#
# Static dielectric constant tensor:
#      x y z
#    x 3.719090 0.000000 0.220680 
#    y 0.000000 3.361810 0.000000 
#    z 0.220680 0.000000 3.944010 
# 
# 
# High freq. dielectric constant tensor:
#      x y z
#    x 1.768420 0.000000 0.009410 
#    y 0.000000 1.736770 0.000000 
#    z 0.009410 0.000000 1.772810 
# 
# From -- ./inp_files/69066.got.cif
#   From: 2010.06.25/outbox.cif.g09.slc.cpg/sg11_35_cif.got.tgz:69066.got - 2010.06.27 23:14:04.
