data_PCOD8074788
_publ_section_title
;
Structure prediction by ZEFSAII (Michael W. Deem and Ramdas Pophale) SiO2 
 PCOD8074788
Probable space group: P 21/M
;
_chemical_formula_sum "Si O2"
_cell_formula_units_Z 28
_cell_length_a 25.902575
_cell_length_b 9.046457
_cell_length_c 9.886888
_cell_angle_alpha 90.000000
_cell_angle_beta 140.903218
_cell_angle_gamma 90.000000
_cell_volume 1461.023607
_symmetry_space_group_name_H-M "P 21/M"
_symmetry_group_IT_number 11
_symmetry_cell_setting 'monoclinic'
loop_
_space_group_symop_operation_xyz
x,y,z
-x,1/2+y,-z
-x,-y,-z
x,1/2-y,z
loop_
_atom_site_type_symbol
_atom_site_label
_atom_site_fract_x
_atom_site_fract_y
_atom_site_fract_z
Si Si1 0.740303 0.424426 0.943813
Si Si2 0.432303 0.425447 0.455150
Si Si3 0.155804 0.419096 0.065657
Si Si4 0.437101 0.077075 0.773960
Si Si5 0.810913 0.423887 0.374027
Si Si6 0.265025 0.080080 0.537999
Si Si7 0.984769 0.422228 0.828035
O O1 0.722814 0.250000 0.902220
O O2 0.656006 0.511892 0.761987
O O3 0.801887 0.468184 0.949964
O O4 0.784140 0.473557 0.170975
O O5 0.500000 0.500000 0.500000
O O6 0.431751 0.250000 0.431804
O O7 0.454099 0.467161 0.653674
O O8 0.174782 0.250000 0.059801
O O9 0.189002 0.446958 0.284084
O O10 0.058972 0.452022 0.874206
O O11 0.446754 0.250000 0.814167
O O12 0.346193 0.023807 0.627176
O O13 0.500000 0.000000 0.000000
O O14 0.807853 0.250000 0.382538
O O15 0.746403 0.488894 0.348787
O O16 0.902456 0.483740 0.589963
O O17 0.273126 0.250000 0.596108
O O18 0.977176 0.250000 0.844783
O O19 0.000000 0.500000 0.000000
#
# Coordination Sequence:
#
# PCOD8074788 Si02
#       7
#     4   4   4   4   4   4   4
#     4  11  24  41  60  87 122 160 201 242 294 357
#     4  11  24  44  65  89 122 158 197 244 296 353
#     4  10  20  38  62  86 117 157 199 246 298 352
#     4  10  23  41  61  88 120 150 193 244 292 348
#     4  10  23  39  57  88 124 156 196 249 298 349
#     4  10  20  38  61  87 116 154 199 242 292 354
#     4  10  20  36  59  87 120 155 197 249 302 352
#
# _framework density 19.164643999999999
#
# number of rings (size 3 to 8) (size 9 to 14) (size 15 to 20)
#    0.000    1.714    2.857    0.857    2.000    4.571 
#    0.000    0.000    0.000    0.000    0.000    0.000 
#    0.000    0.000    0.000    0.000    0.000    0.000 
#
# Total GULP energy -347291.056361 kJ/mol
# GULP energy per Si atom -12403.252013 kJ/mol
# Density = 1.912102 g / cm^3
# Si number density = 19.164644 Si / 1000 Ang^3
#
#
#
# Elastic Constant Matrix: (Units=GPa)
#
#
# Indices 1 2 3 4 5 6 
#
# 1 124.3776 44.4101 60.2799 0.0000 4.9301 0.0000
# 2 44.4101 51.5099 52.8530 0.0000 -1.7495 0.0000
# 3 60.2799 52.8530 135.9240 0.0000 1.1635 0.0000
# 4 0.0000 0.0000 0.0000 29.3541 0.0000 -2.8046
# 5 4.9301 -1.7495 1.1635 0.0000 25.7307 0.0000
# 6 0.0000 0.0000 0.0000 -2.8046 0.0000 39.0531
#
#
#
# Elastic Compliance Matrix: (Units=1/GPa)
#
#
# Indices 1 2 3 4 5 6 
#
# 1 0.012184 -0.008453 -0.002092 0.000000 -0.002815 0.000000
# 2 -0.008453 0.038364 -0.011209 0.000000 0.004735 0.000000
# 3 -0.002092 -0.011209 0.012652 0.000000 -0.000933 0.000000
# 4 0.000000 0.000000 0.000000 0.034302 0.000000 0.002463
# 5 -0.002815 0.004735 -0.000933 0.000000 0.039768 0.000000
# 6 0.000000 0.000000 0.000000 0.002463 0.000000 0.025783
#
#
# Mechanical properties :
#
#
# Convention : Reuss Voigt Hill
#
# Bulk Modulus (GPa) = 50.78714 69.65528 60.22121
# Shear Modulus (GPa) = 23.46033 29.11214 26.28624
#
# Velocity S-wave (km/s) = 3.50258 3.90173 3.70753
# Velocity P-wave (km/s) = 6.55098 7.53144 7.05826
#
# Compressibility (1/GPa) = 0.01969002
#
# Stress axis : x y z
#
# Youngs Moduli (GPa) = 82.07506 26.06592 79.04169
#
# Poissons Ratio (x) = 0.22034 0.16538
# Poissons Ratio (y) = 0.69381 0.88600
# Poissons Ratio (z) = 0.17172 0.29218
#
# Static dielectric constant tensor:
#      x y z
#    x 3.640850 0.000000 0.152540 
#    y 0.000000 3.349750 0.000000 
#    z 0.152540 0.000000 3.718830 
# 
# 
# High freq. dielectric constant tensor:
#      x y z
#    x 1.756680 0.000000 0.006140 
#    y 0.000000 1.740850 0.000000 
#    z 0.006140 0.000000 1.751840 
# 
# From -- ./inp_files/28373.got.cif
#   From: 2010.06.25/outbox.cif.g09.slc.cpg/sg11_15_cif.got.tgz:28373.got - 2010.06.27 23:14:04.
