data_PCOD8074854
_publ_section_title
;
Structure prediction by ZEFSAII (Michael W. Deem and Ramdas Pophale) SiO2 
 PCOD8074854
Probable space group: P 21/M
;
_chemical_formula_sum "Si O2"
_cell_formula_units_Z 24
_cell_length_a 12.548621
_cell_length_b 8.741651
_cell_length_c 11.509228
_cell_angle_alpha 90.000000
_cell_angle_beta 89.253369
_cell_angle_gamma 90.000000
_cell_volume 1262.405230
_symmetry_space_group_name_H-M "P 21/M"
_symmetry_group_IT_number 11
_symmetry_cell_setting 'monoclinic'
loop_
_space_group_symop_operation_xyz
x,y,z
-x,1/2+y,-z
-x,-y,-z
x,1/2-y,z
loop_
_atom_site_type_symbol
_atom_site_label
_atom_site_fract_x
_atom_site_fract_y
_atom_site_fract_z
Si Si1 0.899859 0.572550 0.851837
Si Si2 0.119605 0.428186 0.881153
Si Si3 0.290567 0.570178 0.267225
Si Si4 0.615167 0.574188 0.510337
Si Si5 0.522228 0.929295 0.875843
Si Si6 0.332402 0.075224 0.748974
O O1 0.885806 0.750000 0.822332
O O2 0.829786 0.474053 0.763750
O O3 0.022284 0.525708 0.831773
O O4 0.863004 0.535112 0.983541
O O5 0.094574 0.250000 0.862280
O O6 0.224166 0.481526 0.810596
O O7 0.307500 0.750000 0.262198
O O8 0.315048 0.513111 0.396020
O O9 0.366795 0.492403 0.172315
O O10 0.500000 0.500000 0.500000
O O11 0.600531 0.750000 0.548519
O O12 0.679538 0.560757 0.389117
O O13 0.532813 0.750000 0.889558
O O14 0.428924 0.969005 0.787580
O O15 0.500000 0.000000 0.000000
O O16 0.357614 0.250000 0.785200
#
# Coordination Sequence:
#
# PCOD8074854 Si02
#       6
#     4   4   4   4   4   4
#     4  10  20  36  60  88 118 152 192 239 294 353
#     4   9  19  37  60  86 117 152 189 236 292 352
#     4  12  24  39  59  84 117 155 199 244 293 349
#     4  11  22  38  60  85 116 156 199 243 294 351
#     4  12  24  37  57  85 119 152 190 239 294 353
#     4  10  21  38  60  85 116 153 196 240 290 351
#
# _framework density 19.011327999999999
#
# number of rings (size 3 to 8) (size 9 to 14) (size 15 to 20)
#    0.000    1.333    1.667    5.000    0.000    3.333 
#    0.000    0.833    0.000    0.000    0.000    0.000 
#    0.000    0.000    0.000    0.000    0.000    0.000 
#
# Total GULP energy -297759.414947 kJ/mol
# GULP energy per Si atom -12406.642289 kJ/mol
# Density = 1.896806 g / cm^3
# Si number density = 19.011328 Si / 1000 Ang^3
#
#
#
# Elastic Constant Matrix: (Units=GPa)
#
#
# Indices 1 2 3 4 5 6 
#
# 1 88.0768 32.7554 23.4957 0.0000 12.9913 0.0000
# 2 32.7554 125.8733 30.3325 0.0000 14.8637 0.0000
# 3 23.4957 30.3325 68.8779 0.0000 18.7427 0.0000
# 4 0.0000 0.0000 0.0000 31.4657 0.0000 4.2261
# 5 12.9913 14.8637 18.7427 0.0000 31.5045 0.0000
# 6 0.0000 0.0000 0.0000 4.2261 0.0000 33.7902
#
#
#
# Elastic Compliance Matrix: (Units=1/GPa)
#
#
# Indices 1 2 3 4 5 6 
#
# 1 0.013418 -0.002512 -0.002730 0.000000 -0.002724 0.000000
# 2 -0.002512 0.009491 -0.002847 0.000000 -0.001748 0.000000
# 3 -0.002730 -0.002847 0.019128 0.000000 -0.008911 0.000000
# 4 0.000000 0.000000 0.000000 0.032324 0.000000 -0.004043
# 5 -0.002724 -0.001748 -0.008911 0.000000 0.038991 0.000000
# 6 0.000000 0.000000 0.000000 -0.004043 0.000000 0.030100
#
#
# Mechanical properties :
#
#
# Convention : Reuss Voigt Hill
#
# Bulk Modulus (GPa) = 38.67079 50.66614 44.66846
# Shear Modulus (GPa) = 29.71799 32.43505 31.07652
#
# Velocity S-wave (km/s) = 3.95799 4.13497 4.04744
# Velocity P-wave (km/s) = 6.42438 7.03602 6.73714
#
# Compressibility (1/GPa) = 0.02585931
#
# Stress axis : x y z
#
# Youngs Moduli (GPa) = 74.52699 105.36639 52.27921
#
# Poissons Ratio (x) = 0.26471 0.14270
# Poissons Ratio (y) = 0.18723 0.14883
# Poissons Ratio (z) = 0.20343 0.29996
#
# Static dielectric constant tensor:
#      x y z
#    x 3.466390 0.000000 -0.006000 
#    y 0.000000 3.695530 0.000000 
#    z -0.006000 0.000000 3.615960 
# 
# 
# High freq. dielectric constant tensor:
#      x y z
#    x 1.737800 0.000000 0.002480 
#    y 0.000000 1.749150 0.000000 
#    z 0.002480 0.000000 1.739460 
# 
# From -- ./inp_files/33810.got.cif
#   From: 2010.06.25/outbox.cif.g09.slc.cpg/sg11_17_cif.got.tgz:33810.got - 2010.06.27 23:14:04.
