data_PCOD8074558
_publ_section_title
;
Structure prediction by ZEFSAII (Michael W. Deem and Ramdas Pophale) SiO2 
 PCOD8074558
Probable space group: P 21/M
;
_chemical_formula_sum "Si O2"
_cell_formula_units_Z 20
_cell_length_a 5.196616
_cell_length_b 17.893046
_cell_length_c 10.398494
_cell_angle_alpha 90.000000
_cell_angle_beta 99.474410
_cell_angle_gamma 90.000000
_cell_volume 953.697091
_symmetry_space_group_name_H-M "P 21/M"
_symmetry_group_IT_number 11
_symmetry_cell_setting 'monoclinic'
loop_
_space_group_symop_operation_xyz
x,y,z
-x,1/2+y,-z
-x,-y,-z
x,1/2-y,z
loop_
_atom_site_type_symbol
_atom_site_label
_atom_site_fract_x
_atom_site_fract_y
_atom_site_fract_z
Si Si1 0.166435 0.119416 0.803145
Si Si2 0.778734 0.906120 0.480715
Si Si3 0.730648 0.333545 0.944099
Si Si4 0.700705 0.463922 0.114714
Si Si5 0.678374 0.426679 0.391234
O O1 0.202336 0.134649 0.655147
O O2 0.429556 0.147997 0.891792
O O3 0.912412 0.163116 0.832454
O O4 0.105616 0.031381 0.828024
O O5 0.531704 0.878226 0.544752
O O6 0.040692 0.885813 0.581668
O O7 0.731649 0.994023 0.461780
O O8 0.746320 0.250000 0.002649
O O9 0.841760 0.393599 0.057170
O O10 0.570346 0.434475 0.236427
O O11 0.500000 0.500000 0.000000
#
# Coordination Sequence:
#
# PCOD8074558 Si02
#       5
#     4   4   4   4   4
#     4  10  20  36  57  80 106 140 182 226 271 322
#     4   9  17  30  50  77 104 133 172 219 263 307
#     4  11  22  36  55  79 109 143 179 224 274 325
#     4   9  20  35  56  83 112 144 183 223 267 323
#     4   9  17  29  49  78 109 135 168 217 265 305
#
# _framework density 20.971019999999999
#
# number of rings (size 3 to 8) (size 9 to 14) (size 15 to 20)
#    0.000    2.400    0.000    2.400    0.000   12.800 
#    0.000    0.000    0.000    7.200    0.000    0.000 
#    0.000    0.000    0.000    0.000    0.000    0.000 
#
# Total GULP energy -247808.568127 kJ/mol
# GULP energy per Si atom -12390.428406 kJ/mol
# Density = 2.092329 g / cm^3
# Si number density = 20.971020 Si / 1000 Ang^3
#
#
#
# Elastic Constant Matrix: (Units=GPa)
#
#
# Indices 1 2 3 4 5 6 
#
# 1 132.6821 24.2438 44.9477 0.0000 -19.8578 0.0000
# 2 24.2438 87.2308 33.2348 0.0000 -14.4603 0.0000
# 3 44.9477 33.2348 132.5015 0.0000 -9.9748 0.0000
# 4 0.0000 0.0000 0.0000 5.6829 0.0000 -3.3868
# 5 -19.8578 -14.4603 -9.9748 0.0000 28.5450 0.0000
# 6 0.0000 0.0000 0.0000 -3.3868 0.0000 14.4807
#
#
#
# Elastic Compliance Matrix: (Units=1/GPa)
#
#
# Indices 1 2 3 4 5 6 
#
# 1 0.009328 -0.000744 -0.002586 0.000000 0.005209 0.000000
# 2 -0.000744 0.013619 -0.002756 0.000000 0.005418 0.000000
# 3 -0.002586 -0.002756 0.009115 0.000000 -0.000010 0.000000
# 4 0.000000 0.000000 0.000000 0.204468 0.000000 0.047822
# 5 0.005209 0.005418 -0.000010 0.000000 0.041398 0.000000
# 6 0.000000 0.000000 0.000000 0.047822 0.000000 0.080242
#
#
# Mechanical properties :
#
#
# Convention : Reuss Voigt Hill
#
# Bulk Modulus (GPa) = 50.27360 61.91856 56.09608
# Shear Modulus (GPa) = 13.26365 26.40758 19.83562
#
# Velocity S-wave (km/s) = 2.51763 3.55243 3.07882
# Velocity P-wave (km/s) = 5.69879 6.81294 6.28062
#
# Compressibility (1/GPa) = 0.01989115
#
# Stress axis : x y z
#
# Youngs Moduli (GPa) = 107.20109 73.42827 109.71347
#
# Poissons Ratio (x) = 0.05463 0.28368
# Poissons Ratio (y) = 0.07975 0.30233
# Poissons Ratio (z) = 0.27718 0.20234
#
# Static dielectric constant tensor:
#      x y z
#    x 3.840620 0.000000 -0.157340 
#    y 0.000000 3.670470 0.000000 
#    z -0.157340 0.000000 3.849640 
# 
# 
# High freq. dielectric constant tensor:
#      x y z
#    x 1.818510 0.000000 -0.012140 
#    y 0.000000 1.770490 0.000000 
#    z -0.012140 0.000000 1.820360 
# 
# From -- ./inp_files/10094.got.cif
#   From: 2010.06.25/outbox.cif.g09.slc.cpg/sg11_6_cif.got.tgz:10094.got - 2010.06.27 23:14:04.
