data_PCOD8074322
_publ_section_title
;
Structure prediction by ZEFSAII (Michael W. Deem and Ramdas Pophale) SiO2 
 PCOD8074322
Probable space group: P 21/M
;
_chemical_formula_sum "Si O2"
_cell_formula_units_Z 28
_cell_length_a 14.506265
_cell_length_b 9.051699
_cell_length_c 12.556394
_cell_angle_alpha 90.000000
_cell_angle_beta 121.070050
_cell_angle_gamma 90.000000
_cell_volume 1412.201797
_symmetry_space_group_name_H-M "P 21/M"
_symmetry_group_IT_number 11
_symmetry_cell_setting 'monoclinic'
loop_
_space_group_symop_operation_xyz
x,y,z
-x,1/2+y,-z
-x,-y,-z
x,1/2-y,z
loop_
_atom_site_type_symbol
_atom_site_label
_atom_site_fract_x
_atom_site_fract_y
_atom_site_fract_z
Si Si1 0.314431 0.422844 0.637808
Si Si2 0.999912 0.921531 0.818318
Si Si3 0.229302 0.080265 0.238166
Si Si4 0.613448 0.923813 0.082807
Si Si5 0.780421 0.920669 0.006708
Si Si6 0.604376 0.425507 0.514304
Si Si7 0.070424 0.423050 0.454882
O O1 0.334094 0.250000 0.627243
O O2 0.341815 0.465397 0.774846
O O3 0.387698 0.518781 0.602426
O O4 0.192932 0.470816 0.543243
O O5 0.027900 0.750000 0.834640
O O6 0.897927 0.956153 0.833050
O O7 0.969848 0.978282 0.683136
O O8 0.104272 0.004029 0.921256
O O9 0.248647 0.250000 0.286660
O O10 0.292578 0.973617 0.355234
O O11 0.269053 0.055474 0.140765
O O12 0.597755 0.750000 0.059142
O O13 0.697154 0.985672 0.044065
O O14 0.500000 0.000000 0.000000
O O15 0.800337 0.750000 0.043062
O O16 0.500000 0.500000 0.500000
O O17 0.592821 0.250000 0.509260
O O18 0.057502 0.250000 0.461095
O O19 0.000000 0.500000 0.500000
#
# Coordination Sequence:
#
# PCOD8074322 Si02
#       7
#     4   4   4   4   4   4   4
#     4  10  21  42  64  86 124 164 202 251 308 361
#     4  10  20  36  59  88 124 162 198 247 304 357
#     4  10  21  41  64  90 127 163 200 248 306 364
#     4  10  23  41  62  89 121 160 205 256 306 358
#     4  10  22  39  62  90 123 163 204 249 300 363
#     4  12  26  42  65  94 123 158 205 256 309 371
#     4  10  20  35  58  86 122 161 202 251 301 358
#
# _framework density 19.827193999999999
#
# number of rings (size 3 to 8) (size 9 to 14) (size 15 to 20)
#    0.000    1.714    1.429    2.571    2.000    4.571 
#    0.000    0.000    0.000    0.000    0.000    0.000 
#    0.000    0.000    0.000    0.000    0.000    0.000 
#
# Total GULP energy -347290.021406 kJ/mol
# GULP energy per Si atom -12403.215050 kJ/mol
# Density = 1.978207 g / cm^3
# Si number density = 19.827194 Si / 1000 Ang^3
#
#
#
# Elastic Constant Matrix: (Units=GPa)
#
#
# Indices 1 2 3 4 5 6 
#
# 1 127.2074 46.6098 38.8796 0.0000 -21.5884 0.0000
# 2 46.6098 66.8549 33.3748 0.0000 -7.1305 0.0000
# 3 38.8796 33.3748 86.3338 0.0000 -17.4079 0.0000
# 4 0.0000 0.0000 0.0000 31.7242 0.0000 3.9571
# 5 -21.5884 -7.1305 -17.4079 0.0000 39.2254 0.0000
# 6 0.0000 0.0000 0.0000 3.9571 0.0000 36.2607
#
#
#
# Elastic Compliance Matrix: (Units=1/GPa)
#
#
# Indices 1 2 3 4 5 6 
#
# 1 0.011614 -0.006765 -0.001729 0.000000 0.004395 0.000000
# 2 -0.006765 0.022477 -0.006117 0.000000 -0.002352 0.000000
# 3 -0.001729 -0.006117 0.015716 0.000000 0.004911 0.000000
# 4 0.000000 0.000000 0.000000 0.031957 0.000000 -0.003487
# 5 0.004395 -0.002352 0.004911 0.000000 0.029665 0.000000
# 6 0.000000 0.000000 0.000000 -0.003487 0.000000 0.027959
#
#
# Mechanical properties :
#
#
# Convention : Reuss Voigt Hill
#
# Bulk Modulus (GPa) = 48.57678 57.56940 53.07309
# Shear Modulus (GPa) = 28.49457 32.21084 30.35270
#
# Velocity S-wave (km/s) = 3.79508 4.03498 3.91687
# Velocity P-wave (km/s) = 6.61489 7.12788 6.87617
#
# Compressibility (1/GPa) = 0.02058597
#
# Stress axis : x y z
#
# Youngs Moduli (GPa) = 86.09993 44.48960 63.62781
#
# Poissons Ratio (x) = 0.30099 0.11000
# Poissons Ratio (y) = 0.58251 0.38919
# Poissons Ratio (z) = 0.14885 0.27213
#
# Static dielectric constant tensor:
#      x y z
#    x 3.746790 0.000000 -0.194910 
#    y 0.000000 3.362670 0.000000 
#    z -0.194910 0.000000 3.788020 
# 
# 
# High freq. dielectric constant tensor:
#      x y z
#    x 1.787090 0.000000 -0.009100 
#    y 0.000000 1.758530 0.000000 
#    z -0.009100 0.000000 1.784670 
# 
# From -- ./inp_files/38441.got.cif
#   From: 2010.06.25/outbox.cif.g09.slc.cpg/sg11_20_cif.got.tgz:38441.got - 2010.06.27 23:14:04.
