data_PCOD8074218
_publ_section_title
;
Structure prediction by ZEFSAII (Michael W. Deem and Ramdas Pophale) SiO2 
 PCOD8074218
Probable space group: P 21/M
;
_chemical_formula_sum "Si O2"
_cell_formula_units_Z 28
_cell_length_a 7.070940
_cell_length_b 17.051704
_cell_length_c 14.808363
_cell_angle_alpha 90.000000
_cell_angle_beta 132.646708
_cell_angle_gamma 90.000000
_cell_volume 1313.291897
_symmetry_space_group_name_H-M "P 21/M"
_symmetry_group_IT_number 11
_symmetry_cell_setting 'monoclinic'
loop_
_space_group_symop_operation_xyz
x,y,z
-x,1/2+y,-z
-x,-y,-z
x,1/2-y,z
loop_
_atom_site_type_symbol
_atom_site_label
_atom_site_fract_x
_atom_site_fract_y
_atom_site_fract_z
Si Si1 0.004968 0.342204 0.975779
Si Si2 0.419274 0.834666 0.863143
Si Si3 0.741562 0.966230 0.374614
Si Si4 0.043470 0.660637 0.386479
Si Si5 0.984428 0.583952 0.832176
Si Si6 0.565832 0.128869 0.325459
Si Si7 0.233631 0.913928 0.268646
O O1 0.991647 0.250000 0.997070
O O2 0.800936 0.361905 0.832158
O O3 0.288505 0.365289 0.029482
O O4 0.932672 0.396753 0.038211
O O5 0.385437 0.750000 0.900279
O O6 0.379748 0.817285 0.743065
O O7 0.211633 0.893294 0.837574
O O8 0.538188 0.931521 0.381191
O O9 0.803821 0.898189 0.322942
O O10 0.598253 0.042437 0.289139
O O11 0.000000 0.000000 0.500000
O O12 0.944891 0.750000 0.352302
O O13 0.245325 0.650053 0.532634
O O14 0.166141 0.639024 0.331629
O O15 0.724653 0.634745 0.729669
O O16 0.935676 0.492477 0.796117
#
# Coordination Sequence:
#
# PCOD8074218 Si02
#       7
#     4   4   4   4   4   4   4
#     4  10  22  39  57  85 121 152 194 247 295 351
#     4  10  20  35  57  84 114 150 193 246 300 347
#     4   9  21  40  60  82 114 156 199 238 282 340
#     4  11  23  37  57  88 123 157 193 239 298 359
#     4  10  21  38  63  86 111 155 202 245 295 347
#     4   9  20  38  58  84 115 149 198 249 290 346
#     4  11  23  39  61  87 120 158 197 242 295 353
#
# _framework density 21.320468999999999
#
# number of rings (size 3 to 8) (size 9 to 14) (size 15 to 20)
#    0.000    2.000    0.000    2.571    0.000   12.000 
#    0.000    0.000    0.000    0.000    0.000    0.000 
#    0.000    0.000    0.000    0.000    0.000    0.000 
#
# Total GULP energy -346934.205729 kJ/mol
# GULP energy per Si atom -12390.507347 kJ/mol
# Density = 2.127194 g / cm^3
# Si number density = 21.320469 Si / 1000 Ang^3
#
#
#
# Elastic Constant Matrix: (Units=GPa)
#
#
# Indices 1 2 3 4 5 6 
#
# 1 87.6313 35.8324 27.7287 0.0000 -1.1940 0.0000
# 2 35.8324 114.1036 20.0534 0.0000 -3.2275 0.0000
# 3 27.7287 20.0534 79.9621 0.0000 -6.2131 0.0000
# 4 0.0000 0.0000 0.0000 16.7385 0.0000 -9.1631
# 5 -1.1940 -3.2275 -6.2131 0.0000 23.8016 0.0000
# 6 0.0000 0.0000 0.0000 -9.1631 0.0000 30.8213
#
#
#
# Elastic Compliance Matrix: (Units=1/GPa)
#
#
# Indices 1 2 3 4 5 6 
#
# 1 0.014228 -0.003780 -0.004052 0.000000 -0.000857 0.000000
# 2 -0.003780 0.010182 -0.001174 0.000000 0.000885 0.000000
# 3 -0.004052 -0.001174 0.014471 0.000000 0.003415 0.000000
# 4 0.000000 0.000000 0.000000 0.071356 0.000000 0.021214
# 5 -0.000857 0.000885 0.003415 0.000000 0.042982 0.000000
# 6 0.000000 0.000000 0.000000 0.021214 0.000000 0.038752
#
#
# Mechanical properties :
#
#
# Convention : Reuss Voigt Hill
#
# Bulk Modulus (GPa) = 47.91991 49.88065 48.90028
# Shear Modulus (GPa) = 23.04785 27.47777 25.26281
#
# Velocity S-wave (km/s) = 3.29145 3.59388 3.44598
# Velocity P-wave (km/s) = 6.08027 6.37713 6.23047
#
# Compressibility (1/GPa) = 0.02086815
#
# Stress axis : x y z
#
# Youngs Moduli (GPa) = 70.28544 98.20885 69.10394
#
# Poissons Ratio (x) = 0.37123 0.28003
# Poissons Ratio (y) = 0.26568 0.08113
# Poissons Ratio (z) = 0.28482 0.11530
#
# Static dielectric constant tensor:
#      x y z
#    x 3.875400 0.000000 0.184330 
#    y 0.000000 4.183170 0.000000 
#    z 0.184330 0.000000 3.647670 
# 
# 
# High freq. dielectric constant tensor:
#      x y z
#    x 1.836040 0.000000 0.007570 
#    y 0.000000 1.850160 0.000000 
#    z 0.007570 0.000000 1.816750 
# 
# From -- ./inp_files/46090.got.cif
#   From: 2010.06.25/outbox.cif.g09.slc.cpg/sg11_24_cif.got.tgz:46090.got - 2010.06.27 23:14:04.
