data_PCOD8074302
_publ_section_title
;
Structure prediction by ZEFSAII (Michael W. Deem and Ramdas Pophale) SiO2 
 PCOD8074302
Probable space group: P 21/M
;
_chemical_formula_sum "Si O2"
_cell_formula_units_Z 32
_cell_length_a 12.703209
_cell_length_b 8.856653
_cell_length_c 20.826523
_cell_angle_alpha 90.000000
_cell_angle_beta 44.702466
_cell_angle_gamma 90.000000
_cell_volume 1648.230037
_symmetry_space_group_name_H-M "P 21/M"
_symmetry_group_IT_number 11
_symmetry_cell_setting 'monoclinic'
loop_
_space_group_symop_operation_xyz
x,y,z
-x,1/2+y,-z
-x,-y,-z
x,1/2-y,z
loop_
_atom_site_type_symbol
_atom_site_label
_atom_site_fract_x
_atom_site_fract_y
_atom_site_fract_z
Si Si1 0.824858 0.929428 0.374987
Si Si2 0.589516 0.079344 0.905401
Si Si3 0.863382 0.928789 0.719964
Si Si4 0.860395 0.923425 0.092741
Si Si5 0.706746 0.924789 0.658243
Si Si6 0.553411 0.582427 0.166210
Si Si7 0.714228 0.928927 0.284719
Si Si8 0.629337 0.428266 0.565753
O O1 0.837448 0.750000 0.373701
O O2 0.788423 0.985136 0.318641
O O3 0.689708 0.987045 0.477166
O O4 0.977646 0.002480 0.332521
O O5 0.631840 0.250000 0.906720
O O6 0.474886 0.076338 0.896594
O O7 0.742218 0.993070 0.822293
O O8 0.500000 0.000000 0.000000
O O9 0.866697 0.750000 0.726143
O O10 0.822940 0.974298 0.663843
O O11 0.901071 0.750000 0.084888
O O12 0.727005 0.949490 0.100561
O O13 0.812576 0.993483 0.182717
O O14 0.000000 0.000000 0.000000
O O15 0.724489 0.750000 0.633200
O O16 0.540398 0.955857 0.756334
O O17 0.729713 0.021892 0.583674
O O18 0.511418 0.750000 0.212204
O O19 0.712990 0.750000 0.282265
O O20 0.542251 0.982617 0.351808
O O21 0.645296 0.250000 0.548986
#
# Coordination Sequence:
#
# PCOD8074302 Si02
#       8
#     4   4   4   4   4   4   4   4
#     4  11  23  39  59  87 119 154 196 243 290 348
#     4  10  20  35  58  86 113 150 195 241 292 349
#     4  10  22  40  58  82 118 156 194 241 296 348
#     4  10  20  37  57  83 114 148 188 234 286 342
#     4  10  20  35  59  87 113 144 191 243 286 339
#     4   9  18  35  57  78 109 149 189 233 288 347
#     4   9  20  39  61  83 116 155 193 238 292 347
#     4  11  21  38  63  87 115 155 194 236 294 354
#
# _framework density 19.414767000000001
#
# number of rings (size 3 to 8) (size 9 to 14) (size 15 to 20)
#    0.000    2.000    1.250    2.250    0.000    4.000 
#    0.000    5.625    0.000    0.000    0.000    0.000 
#    0.000    0.000    0.000    0.000    0.000    0.000 
#
# Total GULP energy -396781.822813 kJ/mol
# GULP energy per Si atom -12399.431963 kJ/mol
# Density = 1.937058 g / cm^3
# Si number density = 19.414767 Si / 1000 Ang^3
#
#
#
# Elastic Constant Matrix: (Units=GPa)
#
#
# Indices 1 2 3 4 5 6 
#
# 1 120.2265 40.0017 63.6022 0.0000 -1.1031 0.0000
# 2 40.0017 71.7811 36.0987 0.0000 1.6566 0.0000
# 3 63.6022 36.0987 136.6488 0.0000 3.4019 0.0000
# 4 0.0000 0.0000 0.0000 38.0027 0.0000 -2.1535
# 5 -1.1031 1.6566 3.4019 0.0000 27.5199 0.0000
# 6 0.0000 0.0000 0.0000 -2.1535 0.0000 24.8899
#
#
#
# Elastic Compliance Matrix: (Units=1/GPa)
#
#
# Indices 1 2 3 4 5 6 
#
# 1 0.012247 -0.004581 -0.004523 0.000000 0.001326 0.000000
# 2 -0.004581 0.017784 -0.002543 0.000000 -0.000940 0.000000
# 3 -0.004523 -0.002543 0.010127 0.000000 -0.001280 0.000000
# 4 0.000000 0.000000 0.000000 0.026444 0.000000 0.002288
# 5 0.001326 -0.000940 -0.001280 0.000000 0.036605 0.000000
# 6 0.000000 0.000000 0.000000 0.002288 0.000000 0.040375
#
#
# Mechanical properties :
#
#
# Convention : Reuss Voigt Hill
#
# Bulk Modulus (GPa) = 59.29435 67.56241 63.42838
# Shear Modulus (GPa) = 28.98617 30.67941 29.83279
#
# Velocity S-wave (km/s) = 3.86812 3.97950 3.92421
# Velocity P-wave (km/s) = 7.11034 7.48266 7.29888
#
# Compressibility (1/GPa) = 0.01686501
#
# Stress axis : x y z
#
# Youngs Moduli (GPa) = 81.65492 56.22924 98.74775
#
# Poissons Ratio (x) = 0.25757 0.44664
# Poissons Ratio (y) = 0.37404 0.25108
# Poissons Ratio (z) = 0.36933 0.14297
#
# Static dielectric constant tensor:
#      x y z
#    x 3.681920 0.000000 0.072360 
#    y 0.000000 3.640030 0.000000 
#    z 0.072360 0.000000 3.457730 
# 
# 
# High freq. dielectric constant tensor:
#      x y z
#    x 1.764330 0.000000 0.007830 
#    y 0.000000 1.749160 0.000000 
#    z 0.007830 0.000000 1.754820 
# 
# From -- ./inp_files/64397.got.cif
#   From: 2010.06.25/outbox.cif.g09.slc.cpg/sg11_33_cif.got.tgz:64397.got - 2010.06.27 23:14:04.
