data_PCOD8074126
_publ_section_title
;
Structure prediction by ZEFSAII (Michael W. Deem and Ramdas Pophale) SiO2 
 PCOD8074126
Probable space group: P 21/M
;
_chemical_formula_sum "Si O2"
_cell_formula_units_Z 32
_cell_length_a 12.597055
_cell_length_b 9.255851
_cell_length_c 29.458421
_cell_angle_alpha 90.000000
_cell_angle_beta 28.002650
_cell_angle_gamma 90.000000
_cell_volume 1612.656648
_symmetry_space_group_name_H-M "P 21/M"
_symmetry_group_IT_number 11
_symmetry_cell_setting 'monoclinic'
loop_
_space_group_symop_operation_xyz
x,y,z
-x,1/2+y,-z
-x,-y,-z
x,1/2-y,z
loop_
_atom_site_type_symbol
_atom_site_label
_atom_site_fract_x
_atom_site_fract_y
_atom_site_fract_z
Si Si1 0.379384 0.409592 0.507722
Si Si2 0.775776 0.091836 0.288601
Si Si3 0.813985 0.418256 0.859151
Si Si4 0.655674 0.581690 0.006375
Si Si5 0.628492 0.413032 0.720548
Si Si6 0.917738 0.419543 0.443148
Si Si7 0.483764 0.911301 0.339860
Si Si8 0.215557 0.079828 0.940044
O O1 0.500000 0.500000 0.500000
O O2 0.303539 0.250000 0.553704
O O3 0.555539 0.390711 0.401361
O O4 0.164908 0.498736 0.570909
O O5 0.875104 0.250000 0.238987
O O6 0.693577 0.012728 0.273960
O O7 0.963189 0.996912 0.244615
O O8 0.858358 0.250000 0.848959
O O9 0.612134 0.447608 0.899893
O O10 0.782584 0.487712 0.920830
O O11 0.707811 0.750000 0.978528
O O12 0.737317 0.533048 0.025534
O O13 0.713504 0.250000 0.699723
O O14 0.518790 0.417510 0.712804
O O15 0.439914 0.463649 0.827592
O O16 0.831844 0.525241 0.642286
O O17 0.925191 0.250000 0.430460
O O18 0.756812 0.457658 0.546874
O O19 0.538285 0.750000 0.336780
O O20 0.170139 0.250000 0.953612
O O21 0.000000 0.000000 0.000000
#
# Coordination Sequence:
#
# PCOD8074126 Si02
#       8
#     4   4   4   4   4   4   4   4
#     4  10  21  37  56  80 113 151 187 228 279 335
#     4  10  21  35  54  83 115 146 185 230 281 338
#     4  10  20  35  59  85 110 146 190 237 289 341
#     4   9  20  39  58  80 111 145 186 238 292 344
#     4  10  21  37  57  82 112 150 191 233 286 343
#     4  10  20  35  56  83 114 148 189 235 281 336
#     4   9  19  35  55  82 116 150 190 235 279 335
#     4  10  23  41  59  83 116 151 191 238 292 350
#
# _framework density 19.843033999999999
#
# number of rings (size 3 to 8) (size 9 to 14) (size 15 to 20)
#    0.000    2.250    0.000    1.875    1.750    5.000 
#    0.000    1.250    0.000    0.000    0.000    0.000 
#    0.000    0.000    0.000    0.000    0.000    0.000 
#
# Total GULP energy -396711.439387 kJ/mol
# GULP energy per Si atom -12397.232481 kJ/mol
# Density = 1.979787 g / cm^3
# Si number density = 19.843034 Si / 1000 Ang^3
#
#
#
# Elastic Constant Matrix: (Units=GPa)
#
#
# Indices 1 2 3 4 5 6 
#
# 1 111.5284 46.6383 21.5768 0.0000 -5.9842 0.0000
# 2 46.6383 115.3776 29.0734 0.0000 -15.4439 0.0000
# 3 21.5768 29.0734 50.2528 0.0000 -14.0004 0.0000
# 4 0.0000 0.0000 0.0000 34.4894 0.0000 -8.0811
# 5 -5.9842 -15.4439 -14.0004 0.0000 27.9757 0.0000
# 6 0.0000 0.0000 0.0000 -8.0811 0.0000 34.7498
#
#
#
# Elastic Compliance Matrix: (Units=1/GPa)
#
#
# Indices 1 2 3 4 5 6 
#
# 1 0.011093 -0.003935 -0.002824 0.000000 -0.001213 0.000000
# 2 -0.003935 0.011778 -0.004122 0.000000 0.003597 0.000000
# 3 -0.002824 -0.004122 0.026372 0.000000 0.010318 0.000000
# 4 0.000000 0.000000 0.000000 0.030665 0.000000 0.007131
# 5 -0.001213 0.003597 0.010318 0.000000 0.042635 0.000000
# 6 0.000000 0.000000 0.000000 0.007131 0.000000 0.030436
#
#
# Mechanical properties :
#
#
# Convention : Reuss Voigt Hill
#
# Bulk Modulus (GPa) = 36.39085 52.41509 44.40297
# Shear Modulus (GPa) = 27.18843 31.43433 29.31138
#
# Velocity S-wave (km/s) = 3.70560 3.98446 3.84756
# Velocity P-wave (km/s) = 6.05705 6.90218 6.49338
#
# Compressibility (1/GPa) = 0.02747944
#
# Stress axis : x y z
#
# Youngs Moduli (GPa) = 90.14630 84.90403 37.91959
#
# Poissons Ratio (x) = 0.33407 0.10710
# Poissons Ratio (y) = 0.35470 0.15632
# Poissons Ratio (z) = 0.25462 0.35001
#
# Static dielectric constant tensor:
#      x y z
#    x 4.469220 0.000000 0.790940 
#    y 0.000000 3.928720 0.000000 
#    z 0.790940 0.000000 4.393660 
# 
# 
# High freq. dielectric constant tensor:
#      x y z
#    x 1.771800 0.000000 -0.009440 
#    y 0.000000 1.780800 0.000000 
#    z -0.009440 0.000000 1.767870 
# 
# From -- ./inp_files/49398.got.cif
#   From: 2010.06.25/outbox.cif.g09.slc.cpg/sg11_25_cif.got.tgz:49398.got - 2010.06.27 23:14:04.
