data_PCOD8074282
_publ_section_title
;
Structure prediction by ZEFSAII (Michael W. Deem and Ramdas Pophale) SiO2 
 PCOD8074282
Probable space group: P 21/M
;
_chemical_formula_sum "Si O2"
_cell_formula_units_Z 32
_cell_length_a 12.194798
_cell_length_b 17.179009
_cell_length_c 14.234012
_cell_angle_alpha 90.000000
_cell_angle_beta 148.652647
_cell_angle_gamma 90.000000
_cell_volume 1551.284170
_symmetry_space_group_name_H-M "P 21/M"
_symmetry_group_IT_number 11
_symmetry_cell_setting 'monoclinic'
loop_
_space_group_symop_operation_xyz
x,y,z
-x,1/2+y,-z
-x,-y,-z
x,1/2-y,z
loop_
_atom_site_type_symbol
_atom_site_label
_atom_site_fract_x
_atom_site_fract_y
_atom_site_fract_z
Si Si1 0.730346 0.096292 0.655825
Si Si2 0.082416 0.658742 0.565589
Si Si3 0.958623 0.580936 0.281715
Si Si4 0.035940 0.401303 0.335621
Si Si5 0.736465 0.582530 0.679933
Si Si6 0.863914 0.339999 0.944337
Si Si7 0.642095 0.337484 0.956263
Si Si8 0.532250 0.657706 0.984368
O O1 0.873585 0.112319 0.670693
O O2 0.488756 0.115871 0.452383
O O3 0.801321 0.152741 0.791016
O O4 0.748840 0.009145 0.708037
O O5 0.051113 0.750000 0.524569
O O6 0.033371 0.612022 0.436283
O O7 0.320609 0.637626 0.771807
O O8 0.915139 0.629065 0.523057
O O9 0.940678 0.488154 0.269222
O O10 0.730680 0.614129 0.084228
O O11 0.236650 0.400374 0.412571
O O12 0.870502 0.339885 0.173010
O O13 0.913163 0.619401 0.874885
O O14 0.890165 0.250000 0.990173
O O15 0.680754 0.376150 0.881088
O O16 0.565321 0.250000 0.885813
O O17 0.483702 0.374382 0.918158
O O18 0.570324 0.750000 0.011440
#
# Coordination Sequence:
#
# PCOD8074282 Si02
#       8
#     4   4   4   4   4   4   4   4
#     4  10  22  38  55  79 111 148 187 219 261 329
#     4  10  21  37  56  78 108 143 176 216 268 323
#     4  11  22  35  53  80 111 141 179 220 258 314
#     4   9  18  35  58  83 105 133 180 230 269 310
#     4   9  20  40  60  78 108 146 181 227 278 315
#     4  10  20  35  58  85 109 136 178 231 277 319
#     4   8  16  33  55  80 107 135 174 222 272 321
#     4   9  19  36  55  75 105 143 175 211 267 322
#
# _framework density 20.628072
#
# number of rings (size 3 to 8) (size 9 to 14) (size 15 to 20)
#    0.000    2.500    0.000    2.250    0.000    6.000 
#    0.000   10.000    0.000    0.000    0.000    0.000 
#    0.000    0.000    0.000    0.000    0.000    0.000 
#
# Total GULP energy -396529.197586 kJ/mol
# GULP energy per Si atom -12391.537425 kJ/mol
# Density = 2.058112 g / cm^3
# Si number density = 20.628072 Si / 1000 Ang^3
#
#
#
# Elastic Constant Matrix: (Units=GPa)
#
#
# Indices 1 2 3 4 5 6 
#
# 1 93.9522 2.7381 11.5954 0.0000 5.1015 0.0000
# 2 2.7381 29.7080 8.6615 0.0000 5.1791 0.0000
# 3 11.5954 8.6615 44.1701 0.0000 5.8670 0.0000
# 4 0.0000 0.0000 0.0000 16.9338 0.0000 -5.7227
# 5 5.1015 5.1791 5.8670 0.0000 38.4273 0.0000
# 6 0.0000 0.0000 0.0000 -5.7227 0.0000 26.8329
#
#
#
# Elastic Compliance Matrix: (Units=1/GPa)
#
#
# Indices 1 2 3 4 5 6 
#
# 1 0.011041 -0.000033 -0.002754 0.000000 -0.001041 0.000000
# 2 -0.000033 0.036260 -0.006587 0.000000 -0.003877 0.000000
# 3 -0.002754 -0.006587 0.024995 0.000000 -0.002563 0.000000
# 4 0.000000 0.000000 0.000000 0.063640 0.000000 0.013573
# 5 -0.001041 -0.003877 -0.002563 0.000000 0.027075 0.000000
# 6 0.000000 0.000000 0.000000 0.013573 0.000000 0.040162
#
#
# Mechanical properties :
#
#
# Convention : Reuss Voigt Hill
#
# Bulk Modulus (GPa) = 18.67461 23.75780 21.21621
# Shear Modulus (GPa) = 20.85325 26.09450 23.47388
#
# Velocity S-wave (km/s) = 3.18294 3.56054 3.37702
# Velocity P-wave (km/s) = 4.75193 5.33343 5.05105
#
# Compressibility (1/GPa) = 0.05354863
#
# Stress axis : x y z
#
# Youngs Moduli (GPa) = 90.57111 27.57835 40.00853
#
# Poissons Ratio (x) = 0.00092 0.11017
# Poissons Ratio (y) = 0.00302 0.26352
# Poissons Ratio (z) = 0.24940 0.18165
#
# Static dielectric constant tensor:
#      x y z
#    x 4.099280 0.000000 0.126410 
#    y 0.000000 3.582410 0.000000 
#    z 0.126410 0.000000 3.470830 
# 
# 
# High freq. dielectric constant tensor:
#      x y z
#    x 1.820540 0.000000 0.004060 
#    y 0.000000 1.793930 0.000000 
#    z 0.004060 0.000000 1.788660 
# 
# From -- ./inp_files/50641.got.cif
#   From: 2010.06.25/outbox.cif.g09.slc.cpg/sg11_26_cif.got.tgz:50641.got - 2010.06.27 23:14:04.
