data_PCOD8074440
_publ_section_title
;
Structure prediction by ZEFSAII (Michael W. Deem and Ramdas Pophale) SiO2 
 PCOD8074440
Probable space group: P 21/M
;
_chemical_formula_sum "Si O2"
_cell_formula_units_Z 32
_cell_length_a 27.975362
_cell_length_b 9.146975
_cell_length_c 21.747224
_cell_angle_alpha 90.000000
_cell_angle_beta 17.194763
_cell_angle_gamma 90.000000
_cell_volume 1645.098572
_symmetry_space_group_name_H-M "P 21/M"
_symmetry_group_IT_number 11
_symmetry_cell_setting 'monoclinic'
loop_
_space_group_symop_operation_xyz
x,y,z
-x,1/2+y,-z
-x,-y,-z
x,1/2-y,z
loop_
_atom_site_type_symbol
_atom_site_label
_atom_site_fract_x
_atom_site_fract_y
_atom_site_fract_z
Si Si1 0.268678 0.085041 0.271120
Si Si2 0.218987 0.913025 0.079452
Si Si3 0.436508 0.915652 0.168368
Si Si4 0.081418 0.920193 0.117480
Si Si5 0.432818 0.923258 0.642277
Si Si6 0.758040 0.420847 0.472184
Si Si7 0.975577 0.580179 0.592940
Si Si8 0.424088 0.415728 0.406361
O O1 0.203205 0.250000 0.360559
O O2 0.372718 0.042298 0.202352
O O3 0.369454 0.077472 0.082606
O O4 0.126172 0.967651 0.449316
O O5 0.174765 0.750000 0.156294
O O6 0.110478 0.951979 0.153550
O O7 0.185750 0.028654 0.174215
O O8 0.406762 0.923390 0.835926
O O9 0.377035 0.750000 0.224796
O O10 0.381300 0.953979 0.305595
O O11 0.045353 0.750000 0.150120
O O12 0.245206 0.968735 0.880971
O O13 0.929377 0.012527 0.281405
O O14 0.444617 0.750000 0.621479
O O15 0.544335 0.973614 0.563046
O O16 0.500000 0.000000 0.500000
O O17 0.783627 0.250000 0.431534
O O18 0.704799 0.486275 0.471856
O O19 0.968093 0.750000 0.590155
O O20 0.000000 0.500000 0.500000
O O21 0.358163 0.250000 0.488416
#
# Coordination Sequence:
#
# PCOD8074440 Si02
#       8
#     4   4   4   4   4   4   4   4
#     4  10  20  36  54  74 101 137 184 231 283 342
#     4   9  19  38  60  81 105 142 190 236 283 342
#     4   9  20  36  53  75 106 140 178 230 282 332
#     4   9  19  37  60  85 115 150 186 225 275 334
#     4   9  19  38  64  91 118 149 186 226 270 330
#     4  11  22  34  53  84 117 147 189 237 279 324
#     4  12  25  37  51  73 104 140 183 235 288 336
#     4   9  20  38  59  85 117 150 186 227 280 341
#
# _framework density 19.451720999999999
#
# number of rings (size 3 to 8) (size 9 to 14) (size 15 to 20)
#    0.000    2.250    0.000    4.125    1.750    5.500 
#    0.000    3.125    0.000    0.000    0.000    0.000 
#    0.000    0.000    0.000    0.000    0.000    0.000 
#
# Total GULP energy -396644.972616 kJ/mol
# GULP energy per Si atom -12395.155394 kJ/mol
# Density = 1.940745 g / cm^3
# Si number density = 19.451721 Si / 1000 Ang^3
#
#
#
# Elastic Constant Matrix: (Units=GPa)
#
#
# Indices 1 2 3 4 5 6 
#
# 1 89.6902 49.1672 31.6264 0.0000 8.2636 0.0000
# 2 49.1672 106.6326 36.0411 0.0000 6.9064 0.0000
# 3 31.6264 36.0411 54.2137 0.0000 12.4965 0.0000
# 4 0.0000 0.0000 0.0000 32.4482 0.0000 2.3566
# 5 8.2636 6.9064 12.4965 0.0000 34.2674 0.0000
# 6 0.0000 0.0000 0.0000 2.3566 0.0000 31.0640
#
#
#
# Elastic Compliance Matrix: (Units=1/GPa)
#
#
# Indices 1 2 3 4 5 6 
#
# 1 0.016235 -0.005539 -0.005616 0.000000 -0.000751 0.000000
# 2 -0.005539 0.013995 -0.006256 0.000000 0.000797 0.000000
# 3 -0.005616 -0.006256 0.027598 0.000000 -0.007449 0.000000
# 4 0.000000 0.000000 0.000000 0.030989 0.000000 -0.002351
# 5 -0.000751 0.000797 -0.007449 0.000000 0.031919 0.000000
# 6 0.000000 0.000000 0.000000 -0.002351 0.000000 0.032370
#
#
# Mechanical properties :
#
#
# Convention : Reuss Voigt Hill
#
# Bulk Modulus (GPa) = 43.46674 53.80064 48.63369
# Shear Modulus (GPa) = 25.56279 28.46937 27.01608
#
# Velocity S-wave (km/s) = 3.62908 3.82984 3.73081
# Velocity P-wave (km/s) = 6.32097 6.87572 6.60417
#
# Compressibility (1/GPa) = 0.02300610
#
# Stress axis : x y z
#
# Youngs Moduli (GPa) = 61.59368 71.45397 36.23516
#
# Poissons Ratio (x) = 0.39581 0.20348
# Poissons Ratio (y) = 0.34119 0.22669
# Poissons Ratio (z) = 0.34588 0.44702
#
# Static dielectric constant tensor:
#      x y z
#    x 3.711080 0.000000 -0.148870 
#    y 0.000000 3.498680 0.000000 
#    z -0.148870 0.000000 4.110350 
# 
# 
# High freq. dielectric constant tensor:
#      x y z
#    x 1.750240 0.000000 -0.002680 
#    y 0.000000 1.755620 0.000000 
#    z -0.002680 0.000000 1.751080 
# 
# From -- ./inp_files/67000.got.cif
#   From: 2010.06.25/outbox.cif.g09.slc.cpg/sg11_34_cif.got.tgz:67000.got - 2010.06.27 23:14:04.
