data_PCOD8074755
_publ_section_title
;
Structure prediction by ZEFSAII (Michael W. Deem and Ramdas Pophale) SiO2 
 PCOD8074755
Probable space group: P 21/M
;
_chemical_formula_sum "Si O2"
_cell_formula_units_Z 28
_cell_length_a 23.185590
_cell_length_b 10.326628
_cell_length_c 12.417128
_cell_angle_alpha 90.000000
_cell_angle_beta 27.824545
_cell_angle_gamma 90.000000
_cell_volume 1387.703335
_symmetry_space_group_name_H-M "P 21/M"
_symmetry_group_IT_number 11
_symmetry_cell_setting 'monoclinic'
loop_
_space_group_symop_operation_xyz
x,y,z
-x,1/2+y,-z
-x,-y,-z
x,1/2-y,z
loop_
_atom_site_type_symbol
_atom_site_label
_atom_site_fract_x
_atom_site_fract_y
_atom_site_fract_z
Si Si1 0.398706 0.604349 0.700820
Si Si2 0.419279 0.899057 0.304712
Si Si3 0.771187 0.098917 0.209008
Si Si4 0.242462 0.606389 0.410479
Si Si5 0.672481 0.020798 0.951800
Si Si6 0.078892 0.107693 0.429433
Si Si7 0.042146 0.396708 0.739845
O O1 0.500000 0.500000 0.500000
O O2 0.446108 0.750000 0.594558
O O3 0.276600 0.571582 0.833215
O O4 0.366696 0.603135 0.879804
O O5 0.433584 0.750000 0.310916
O O6 0.323371 0.963861 0.548433
O O7 0.368837 0.920853 0.267243
O O8 0.554092 0.957452 0.092603
O O9 0.781494 0.250000 0.214120
O O10 0.909980 0.045230 0.996561
O O11 0.191916 0.750000 0.524345
O O12 0.267169 0.607861 0.241684
O O13 0.145995 0.496974 0.607882
O O14 0.773918 0.916379 0.821985
O O15 0.053063 0.250000 0.421282
O O16 0.035700 0.107846 0.622723
O O17 0.000000 0.000000 0.500000
O O18 0.069454 0.250000 0.737966
#
# Coordination Sequence:
#
# PCOD8074755 Si02
#       7
#     4   4   4   4   4   4   4
#     4  11  22  37  58  84 115 150 187 232 287 348
#     4  10  20  36  59  85 116 154 194 237 287 343
#     4   9  18  35  59  83 112 152 192 232 283 344
#     4  10  22  38  58  86 117 151 192 241 292 335
#     4  11  21  37  59  85 117 152 193 236 289 345
#     4  10  21  35  56  84 115 152 194 239 289 344
#     4   9  19  37  58  81 111 151 196 236 282 341
#
# _framework density 20.177223999999999
#
# number of rings (size 3 to 8) (size 9 to 14) (size 15 to 20)
#    0.000    2.000    1.429    2.143    0.000    5.714 
#    0.000    2.143    0.000    0.000    0.000    0.000 
#    0.000    0.000    0.000    0.000    0.000    0.000 
#
# Total GULP energy -347047.639127 kJ/mol
# GULP energy per Si atom -12394.558540 kJ/mol
# Density = 2.013130 g / cm^3
# Si number density = 20.177224 Si / 1000 Ang^3
#
#
#
# Elastic Constant Matrix: (Units=GPa)
#
#
# Indices 1 2 3 4 5 6 
#
# 1 83.4698 39.6236 22.0246 0.0000 -11.2437 0.0000
# 2 39.6236 116.7042 42.5215 0.0000 -26.5108 0.0000
# 3 22.0246 42.5215 103.7998 0.0000 -23.2969 0.0000
# 4 0.0000 0.0000 0.0000 22.1500 0.0000 -6.2809
# 5 -11.2437 -26.5108 -23.2969 0.0000 36.4851 0.0000
# 6 0.0000 0.0000 0.0000 -6.2809 0.0000 28.4615
#
#
#
# Elastic Compliance Matrix: (Units=1/GPa)
#
#
# Indices 1 2 3 4 5 6 
#
# 1 0.014425 -0.004353 -0.001155 0.000000 0.000545 0.000000
# 2 -0.004353 0.012415 -0.002847 0.000000 0.005862 0.000000
# 3 -0.001155 -0.002847 0.012258 0.000000 0.005402 0.000000
# 4 0.000000 0.000000 0.000000 0.048161 0.000000 0.010628
# 5 0.000545 0.005862 0.005402 0.000000 0.035286 0.000000
# 6 0.000000 0.000000 0.000000 0.010628 0.000000 0.037481
#
#
# Mechanical properties :
#
#
# Convention : Reuss Voigt Hill
#
# Bulk Modulus (GPa) = 44.66597 56.92369 50.79483
# Shear Modulus (GPa) = 27.14481 30.73959 28.94220
#
# Velocity S-wave (km/s) = 3.67184 3.90741 3.79146
# Velocity P-wave (km/s) = 6.33730 6.97354 6.66302
#
# Compressibility (1/GPa) = 0.02238841
#
# Stress axis : x y z
#
# Youngs Moduli (GPa) = 69.32432 80.54499 81.58121
#
# Poissons Ratio (x) = 0.35060 0.09425
# Poissons Ratio (y) = 0.30176 0.23223
# Poissons Ratio (z) = 0.08009 0.22928
#
# Static dielectric constant tensor:
#      x y z
#    x 3.665510 0.000000 0.033870 
#    y 0.000000 3.606970 0.000000 
#    z 0.033870 0.000000 3.898850 
# 
# 
# High freq. dielectric constant tensor:
#      x y z
#    x 1.789200 0.000000 -0.003310 
#    y 0.000000 1.767520 0.000000 
#    z -0.003310 0.000000 1.790490 
# 
# From -- ./inp_files/43212.got.cif
#   From: 2010.06.25/outbox.cif.g09.slc.cpg/sg11_22_cif.got.tgz:43212.got - 2010.06.27 23:14:04.
