data_PCOD8074625
_publ_section_title
;
Structure prediction by ZEFSAII (Michael W. Deem and Ramdas Pophale) SiO2 
 PCOD8074625
Probable space group: P 21/M
;
_chemical_formula_sum "Si O2"
_cell_formula_units_Z 28
_cell_length_a 15.380873
_cell_length_b 9.052517
_cell_length_c 11.978004
_cell_angle_alpha 90.000000
_cell_angle_beta 120.182227
_cell_angle_gamma 90.000000
_cell_volume 1441.667206
_symmetry_space_group_name_H-M "P 21/M"
_symmetry_group_IT_number 11
_symmetry_cell_setting 'monoclinic'
loop_
_space_group_symop_operation_xyz
x,y,z
-x,1/2+y,-z
-x,-y,-z
x,1/2-y,z
loop_
_atom_site_type_symbol
_atom_site_label
_atom_site_fract_x
_atom_site_fract_y
_atom_site_fract_z
Si Si1 0.609760 0.426387 0.082821
Si Si2 0.505837 0.918270 0.619729
Si Si3 0.689822 0.415967 0.746865
Si Si4 0.195889 0.075763 0.370814
Si Si5 0.993502 0.425963 0.116907
Si Si6 0.695983 0.417779 0.374766
Si Si7 0.781809 0.084832 0.035973
O O1 0.592674 0.250000 0.065839
O O2 0.666053 0.474703 0.232866
O O3 0.687387 0.490695 0.038540
O O4 0.500000 0.500000 0.000000
O O5 0.538408 0.750000 0.624252
O O6 0.403665 0.933757 0.618319
O O7 0.500000 0.000000 0.500000
O O8 0.593696 0.005055 0.742122
O O9 0.663334 0.250000 0.689650
O O10 0.723004 0.506207 0.660115
O O11 0.772676 0.415109 0.896107
O O12 0.209729 0.250000 0.381063
O O13 0.086076 0.028568 0.256028
O O14 0.216222 0.014093 0.509274
O O15 0.989107 0.250000 0.095532
O O16 0.894089 0.483080 0.121530
O O17 0.000000 0.500000 0.000000
O O18 0.734947 0.250000 0.394939
O O19 0.782238 0.250000 0.084991
#
# Coordination Sequence:
#
# PCOD8074625 Si02
#       7
#     4   4   4   4   4   4   4
#     4  10  21  40  63  86 112 151 193 236 283 338
#     4  11  21  32  48  75 109 145 183 228 280 338
#     4  11  20  32  53  80 111 146 182 228 284 343
#     4  11  22  34  54  82 113 147 185 232 285 337
#     4  10  20  36  57  85 116 150 189 235 286 344
#     4  10  22  38  56  78 112 152 190 232 283 339
#     4   9  19  36  59  83 112 149 189 231 288 345
#
# _framework density 19.421959000000001
#
# number of rings (size 3 to 8) (size 9 to 14) (size 15 to 20)
#    0.000    1.714    2.857    2.143    0.000    1.714 
#    0.000    2.143    0.000    0.000    0.000    0.000 
#    0.000    0.000    0.000    0.000    0.000    0.000 
#
# Total GULP energy -346962.424098 kJ/mol
# GULP energy per Si atom -12391.515146 kJ/mol
# Density = 1.937775 g / cm^3
# Si number density = 19.421959 Si / 1000 Ang^3
#
#
#
# Elastic Constant Matrix: (Units=GPa)
#
#
# Indices 1 2 3 4 5 6 
#
# 1 108.0986 34.2323 54.3962 0.0000 12.9709 0.0000
# 2 34.2323 71.6771 43.4364 0.0000 10.6163 0.0000
# 3 54.3962 43.4364 129.8806 0.0000 10.8713 0.0000
# 4 0.0000 0.0000 0.0000 29.2228 0.0000 3.7632
# 5 12.9709 10.6163 10.8713 0.0000 34.7006 0.0000
# 6 0.0000 0.0000 0.0000 3.7632 0.0000 20.3684
#
#
#
# Elastic Compliance Matrix: (Units=1/GPa)
#
#
# Indices 1 2 3 4 5 6 
#
# 1 0.012571 -0.003227 -0.003979 0.000000 -0.002465 0.000000
# 2 -0.003227 0.018779 -0.004671 0.000000 -0.003075 0.000000
# 3 -0.003979 -0.004671 0.010972 0.000000 -0.000521 0.000000
# 4 0.000000 0.000000 0.000000 0.035054 0.000000 -0.006477
# 5 -0.002465 -0.003075 -0.000521 0.000000 0.030843 0.000000
# 6 0.000000 0.000000 0.000000 -0.006477 0.000000 0.050292
#
#
# Mechanical properties :
#
#
# Convention : Reuss Voigt Hill
#
# Bulk Modulus (GPa) = 53.86138 63.75402 58.80770
# Shear Modulus (GPa) = 26.53141 28.69779 27.61460
#
# Velocity S-wave (km/s) = 3.70002 3.84812 3.77480
# Velocity P-wave (km/s) = 6.78572 7.25541 7.02449
#
# Compressibility (1/GPa) = 0.01856618
#
# Stress axis : x y z
#
# Youngs Moduli (GPa) = 79.54801 53.25073 91.14253
#
# Poissons Ratio (x) = 0.17185 0.36269
# Poissons Ratio (y) = 0.25672 0.42575
# Poissons Ratio (z) = 0.31655 0.24875
#
# Static dielectric constant tensor:
#      x y z
#    x 6.870900 0.000000 0.717730 
#    y 0.000000 4.713920 0.000000 
#    z 0.717730 0.000000 3.873780 
# 
# 
# High freq. dielectric constant tensor:
#      x y z
#    x 1.750290 0.000000 0.015590 
#    y 0.000000 1.740130 0.000000 
#    z 0.015590 0.000000 1.763180 
# 
# From -- ./inp_files/38435.got.cif
#   From: 2010.06.25/outbox.cif.g09.slc.cpg/sg11_20_cif.got.tgz:38435.got - 2010.06.27 23:14:04.
