data_PCOD8074560
_publ_section_title
;
Structure prediction by ZEFSAII (Michael W. Deem and Ramdas Pophale) SiO2 
 PCOD8074560
Probable space group: P 21/M
;
_chemical_formula_sum "Si O2"
_cell_formula_units_Z 28
_cell_length_a 28.897458
_cell_length_b 9.018964
_cell_length_c 8.974224
_cell_angle_alpha 90.000000
_cell_angle_beta 140.976387
_cell_angle_gamma 90.000000
_cell_volume 1472.671686
_symmetry_space_group_name_H-M "P 21/M"
_symmetry_group_IT_number 11
_symmetry_cell_setting 'monoclinic'
loop_
_space_group_symop_operation_xyz
x,y,z
-x,1/2+y,-z
-x,-y,-z
x,1/2-y,z
loop_
_atom_site_type_symbol
_atom_site_label
_atom_site_fract_x
_atom_site_fract_y
_atom_site_fract_z
Si Si1 0.068373 0.578802 0.596099
Si Si2 0.505955 0.423696 0.356415
Si Si3 0.647709 0.575558 0.695603
Si Si4 0.068521 0.921798 0.246089
Si Si5 0.345708 0.423018 0.951500
Si Si6 0.203815 0.425982 0.430923
Si Si7 0.797612 0.923898 0.914615
O O1 0.066264 0.750000 0.635600
O O2 0.062376 0.555373 0.405967
O O3 0.000000 0.500000 0.500000
O O4 0.144194 0.510581 0.841463
O O5 0.500000 0.500000 0.500000
O O6 0.520118 0.250000 0.410641
O O7 0.574923 0.497291 0.442726
O O8 0.426300 0.454033 0.079767
O O9 0.632998 0.750000 0.658500
O O10 0.716586 0.531869 0.766676
O O11 0.660631 0.513302 0.895796
O O12 0.068490 0.750000 0.201289
O O13 0.142565 0.996589 0.375799
O O14 0.000000 0.000000 0.000000
O O15 0.331705 0.250000 0.930642
O O16 0.282325 0.487921 0.686338
O O17 0.196485 0.250000 0.430260
O O18 0.194613 0.472864 0.236798
O O19 0.811954 0.750000 0.971563
#
# Coordination Sequence:
#
# PCOD8074560 Si02
#       7
#     4   4   4   4   4   4   4
#     4  11  24  40  59  83 111 141 177 218 264 317
#     4   9  16  28  48  74 102 135 176 221 267 317
#     4   9  17  31  50  74 104 139 177 219 266 316
#     4  11  24  40  58  83 110 139 175 216 262 314
#     4   8  15  29  50  73 100 136 175 214 262 313
#     4  10  20  36  57  80 107 142 181 221 264 315
#     4  10  21  36  56  81 109 142 181 221 266 318
#
# _framework density 19.013062999999999
#
# number of rings (size 3 to 8) (size 9 to 14) (size 15 to 20)
#    0.000    2.286    0.000    3.857    0.000    8.000 
#    0.000    5.714    0.000    0.000    0.000    0.000 
#    0.000    0.000    0.000    0.000    0.000    0.000 
#
# Total GULP energy -347117.883494 kJ/mol
# GULP energy per Si atom -12397.067268 kJ/mol
# Density = 1.896979 g / cm^3
# Si number density = 19.013063 Si / 1000 Ang^3
#
#
#
# Elastic Constant Matrix: (Units=GPa)
#
#
# Indices 1 2 3 4 5 6 
#
# 1 86.6595 43.6758 34.9123 0.0000 24.8734 0.0000
# 2 43.6758 69.8831 48.4271 0.0000 15.1000 0.0000
# 3 34.9123 48.4271 118.4297 0.0000 27.3697 0.0000
# 4 0.0000 0.0000 0.0000 29.5255 0.0000 7.5452
# 5 24.8734 15.1000 27.3697 0.0000 34.8069 0.0000
# 6 0.0000 0.0000 0.0000 7.5452 0.0000 30.2350
#
#
#
# Elastic Compliance Matrix: (Units=1/GPa)
#
#
# Indices 1 2 3 4 5 6 
#
# 1 0.019366 -0.010591 0.000926 0.000000 -0.009973 0.000000
# 2 -0.010591 0.025976 -0.008120 0.000000 0.002684 0.000000
# 3 0.000926 -0.008120 0.013235 0.000000 -0.007547 0.000000
# 4 0.000000 0.000000 0.000000 0.036176 0.000000 -0.009028
# 5 -0.009973 0.002684 -0.007547 0.000000 0.040627 0.000000
# 6 0.000000 0.000000 0.000000 -0.009028 0.000000 0.035327
#
#
# Mechanical properties :
#
#
# Convention : Reuss Voigt Hill
#
# Bulk Modulus (GPa) = 43.46195 58.77810 51.12003
# Shear Modulus (GPa) = 23.37050 28.77727 26.07389
#
# Velocity S-wave (km/s) = 3.50977 3.89466 3.70721
# Velocity P-wave (km/s) = 6.27162 7.15585 6.72828
#
# Compressibility (1/GPa) = 0.02300863
#
# Stress axis : x y z
#
# Youngs Moduli (GPa) = 51.63572 38.49778 75.55659
#
# Poissons Ratio (x) = 0.40772 -0.07000
# Poissons Ratio (y) = 0.54686 0.61352
# Poissons Ratio (z) = -0.04784 0.31260
#
# Static dielectric constant tensor:
#      x y z
#    x 3.521810 0.000000 0.273800 
#    y 0.000000 3.492490 0.000000 
#    z 0.273800 0.000000 3.896070 
# 
# 
# High freq. dielectric constant tensor:
#      x y z
#    x 1.737650 0.000000 0.020460 
#    y 0.000000 1.726110 0.000000 
#    z 0.020460 0.000000 1.748700 
# 
# From -- ./inp_files/28557.got.cif
#   From: 2010.06.25/outbox.cif.g09.slc.cpg/sg11_15_cif.got.tgz:28557.got - 2010.06.27 23:14:04.
