data_PCOD8074648
_publ_section_title
;
Structure prediction by ZEFSAII (Michael W. Deem and Ramdas Pophale) SiO2 
 PCOD8074648
Probable space group: P 21/M
;
_chemical_formula_sum "Si O2"
_cell_formula_units_Z 32
_cell_length_a 22.096246
_cell_length_b 8.866403
_cell_length_c 28.002171
_cell_angle_alpha 90.000000
_cell_angle_beta 18.634109
_cell_angle_gamma 90.000000
_cell_volume 1752.913294
_symmetry_space_group_name_H-M "P 21/M"
_symmetry_group_IT_number 11
_symmetry_cell_setting 'monoclinic'
loop_
_space_group_symop_operation_xyz
x,y,z
-x,1/2+y,-z
-x,-y,-z
x,1/2-y,z
loop_
_atom_site_type_symbol
_atom_site_label
_atom_site_fract_x
_atom_site_fract_y
_atom_site_fract_z
Si Si1 0.999989 0.079014 0.201916
Si Si2 0.005411 0.071480 0.944274
Si Si3 0.298145 0.575235 0.150163
Si Si4 0.281323 0.424628 0.909191
Si Si5 0.280172 0.927012 0.416123
Si Si6 0.017247 0.072950 0.685917
Si Si7 0.297786 0.574579 0.656369
Si Si8 0.010863 0.427066 0.543216
O O1 0.006537 0.250000 0.216458
O O2 0.812937 0.052598 0.310419
O O3 0.996273 0.964437 0.248478
O O4 0.185916 0.042851 0.031731
O O5 0.021559 0.250000 0.935916
O O6 0.188810 0.007772 0.780369
O O7 0.000000 0.000000 0.000000
O O8 0.813627 0.027100 0.060201
O O9 0.337136 0.750000 0.117129
O O10 0.175709 0.520292 0.196141
O O11 0.183677 0.534761 0.283796
O O12 0.500000 0.500000 0.000000
O O13 0.248734 0.250000 0.919485
O O14 0.499560 0.468109 0.749273
O O15 0.244687 0.750000 0.438749
O O16 0.187989 0.006455 0.439426
O O17 0.194317 0.987270 0.529916
O O18 0.049423 0.250000 0.654250
O O19 0.500000 0.500000 0.500000
O O20 0.317046 0.750000 0.655027
O O21 0.042166 0.250000 0.514938
O O22 0.000000 0.500000 0.500000
#
# Coordination Sequence:
#
# PCOD8074648 Si02
#       8
#     4   4   4   4   4   4   4   4
#     4   9  19  36  56  78 106 140 175 216 265 315
#     4  11  22  37  58  82 110 145 184 226 274 326
#     4   9  20  36  53  76 105 137 175 219 262 308
#     4   9  20  38  57  80 110 140 178 226 272 323
#     4  10  20  36  58  81 107 141 178 220 271 320
#     4  10  21  36  53  78 110 140 176 220 262 314
#     4  10  21  38  58  82 112 144 182 226 272 324
#     4  10  21  37  55  79 110 141 178 221 265 318
#
# _framework density 18.255324000000002
#
# number of rings (size 3 to 8) (size 9 to 14) (size 15 to 20)
#    0.000    2.250    0.000    4.125    0.000    8.500 
#    0.000    5.000    0.000    0.000    0.000    0.000 
#    0.000    0.000    0.000    0.000    0.000    0.000 
#
# Total GULP energy -396885.758102 kJ/mol
# GULP energy per Si atom -12402.679941 kJ/mol
# Density = 1.821377 g / cm^3
# Si number density = 18.255324 Si / 1000 Ang^3
#
#
#
# Elastic Constant Matrix: (Units=GPa)
#
#
# Indices 1 2 3 4 5 6 
#
# 1 124.2529 68.7855 76.7802 0.0000 14.2275 0.0000
# 2 68.7855 117.3359 75.5695 0.0000 -0.7005 0.0000
# 3 76.7802 75.5695 159.8545 0.0000 -13.2273 0.0000
# 4 0.0000 0.0000 0.0000 33.2476 0.0000 0.4301
# 5 14.2275 -0.7005 -13.2273 0.0000 21.2890 0.0000
# 6 0.0000 0.0000 0.0000 0.4301 0.0000 37.5362
#
#
#
# Elastic Compliance Matrix: (Units=1/GPa)
#
#
# Indices 1 2 3 4 5 6 
#
# 1 0.017418 -0.005835 -0.006944 0.000000 -0.016147 0.000000
# 2 -0.005835 0.014442 -0.003861 0.000000 0.001976 0.000000
# 3 -0.006944 -0.003861 0.012428 0.000000 0.012235 0.000000
# 4 0.000000 0.000000 0.000000 0.030082 0.000000 -0.000345
# 5 -0.016147 0.001976 0.012235 0.000000 0.065431 0.000000
# 6 0.000000 0.000000 0.000000 -0.000345 0.000000 0.026645
#
#
# Mechanical properties :
#
#
# Convention : Reuss Voigt Hill
#
# Bulk Modulus (GPa) = 90.83824 93.74594 92.29209
# Shear Modulus (GPa) = 24.58273 30.43511 27.50892
#
# Velocity S-wave (km/s) = 3.67359 4.08755 3.88609
# Velocity P-wave (km/s) = 8.23782 8.58729 8.41437
#
# Compressibility (1/GPa) = 0.01100858
#
# Stress axis : x y z
#
# Youngs Moduli (GPa) = 57.41155 69.24372 80.46081
#
# Poissons Ratio (x) = 0.40406 0.55869
# Poissons Ratio (y) = 0.33502 0.31065
# Poissons Ratio (z) = 0.39864 0.26734
#
# Static dielectric constant tensor:
#      x y z
#    x 3.398640 0.000000 -0.017820 
#    y 0.000000 3.448840 0.000000 
#    z -0.017820 0.000000 3.435330 
# 
# 
# High freq. dielectric constant tensor:
#      x y z
#    x 1.708940 0.000000 0.000990 
#    y 0.000000 1.717640 0.000000 
#    z 0.000990 0.000000 1.712760 
# 
# From -- ./inp_files/72111.got.cif
#   From: 2010.06.25/outbox.cif.g09.slc.cpg/sg11_37_cif.got.tgz:72111.got - 2010.06.27 23:14:04.
