data_PCOD8074997
_publ_section_title
;
Structure prediction by ZEFSAII (Michael W. Deem and Ramdas Pophale) SiO2 
 PCOD8074997
Probable space group: P 21/M
;
_chemical_formula_sum "Si O2"
_cell_formula_units_Z 28
_cell_length_a 20.537465
_cell_length_b 9.250237
_cell_length_c 23.338030
_cell_angle_alpha 90.000000
_cell_angle_beta 19.803374
_cell_angle_gamma 90.000000
_cell_volume 1502.099619
_symmetry_space_group_name_H-M "P 21/M"
_symmetry_group_IT_number 11
_symmetry_cell_setting 'monoclinic'
loop_
_space_group_symop_operation_xyz
x,y,z
-x,1/2+y,-z
-x,-y,-z
x,1/2-y,z
loop_
_atom_site_type_symbol
_atom_site_label
_atom_site_fract_x
_atom_site_fract_y
_atom_site_fract_z
Si Si1 0.682836 0.580158 0.096159
Si Si2 0.352960 0.089368 0.083436
Si Si3 0.182404 0.922287 0.821663
Si Si4 0.822020 0.593699 0.658499
Si Si5 0.497916 0.418742 0.630671
Si Si6 0.562504 0.078859 0.086077
Si Si7 0.883418 0.418618 0.252398
O O1 0.676416 0.750000 0.086696
O O2 0.570579 0.549247 0.248198
O O3 0.568678 0.487568 0.143917
O O4 0.902147 0.517280 0.914718
O O5 0.430547 0.250000 0.002406
O O6 0.178763 0.106504 0.271856
O O7 0.500000 0.000000 0.000000
O O8 0.284780 0.001010 0.082879
O O9 0.164921 0.750000 0.844884
O O10 0.193065 0.967252 0.746294
O O11 0.375698 0.981290 0.689836
O O12 0.000000 0.000000 0.000000
O O13 0.853494 0.750000 0.604463
O O14 0.634574 0.529968 0.781874
O O15 0.000000 0.500000 0.500000
O O16 0.464452 0.250000 0.643110
O O17 0.723670 0.460461 0.432995
O O18 0.597819 0.250000 0.058171
O O19 0.917530 0.250000 0.223512
#
# Coordination Sequence:
#
# PCOD8074997 Si02
#       7
#     4   4   4   4   4   4   4
#     4  10  20  37  57  78 111 153 189 225 277 338
#     4   9  17  32  54  79 104 135 174 216 261 314
#     4  11  20  34  57  84 113 147 188 236 286 335
#     4   9  19  34  54  81 111 139 175 223 271 320
#     4  10  20  37  59  82 111 146 186 235 286 334
#     4  10  21  37  55  79 110 144 181 224 273 325
#     4   9  19  36  57  82 111 143 187 235 279 337
#
# _framework density 18.640574999999998
#
# number of rings (size 3 to 8) (size 9 to 14) (size 15 to 20)
#    0.000    2.286    1.429    2.571    0.000    4.000 
#    2.571    1.429    0.000    0.000    0.000    0.000 
#    0.000    0.000    0.000    0.000    0.000    0.000 
#
# Total GULP energy -346872.351418 kJ/mol
# GULP energy per Si atom -12388.298265 kJ/mol
# Density = 1.859815 g / cm^3
# Si number density = 18.640575 Si / 1000 Ang^3
#
#
#
# Elastic Constant Matrix: (Units=GPa)
#
#
# Indices 1 2 3 4 5 6 
#
# 1 120.9295 51.6657 52.4267 0.0000 12.7065 0.0000
# 2 51.6657 89.9243 38.5743 0.0000 10.1526 0.0000
# 3 52.4267 38.5743 121.2440 0.0000 14.0304 0.0000
# 4 0.0000 0.0000 0.0000 24.4856 0.0000 -1.1933
# 5 12.7065 10.1526 14.0304 0.0000 19.1017 0.0000
# 6 0.0000 0.0000 0.0000 -1.1933 0.0000 33.3974
#
#
#
# Elastic Compliance Matrix: (Units=1/GPa)
#
#
# Indices 1 2 3 4 5 6 
#
# 1 0.012266 -0.005312 -0.003275 0.000000 -0.002931 0.000000
# 2 -0.005312 0.015493 -0.002282 0.000000 -0.003025 0.000000
# 3 -0.003275 -0.002282 0.010926 0.000000 -0.004634 0.000000
# 4 0.000000 0.000000 0.000000 0.040912 0.000000 0.001462
# 5 -0.002931 -0.003025 -0.004634 0.000000 0.059312 0.000000
# 6 0.000000 0.000000 0.000000 0.001462 0.000000 0.029995
#
#
# Mechanical properties :
#
#
# Convention : Reuss Voigt Hill
#
# Bulk Modulus (GPa) = 59.00568 68.60349 63.80458
# Shear Modulus (GPa) = 25.47234 28.02570 26.74902
#
# Velocity S-wave (km/s) = 3.70063 3.88168 3.79223
# Velocity P-wave (km/s) = 7.06984 7.54805 7.31286
#
# Compressibility (1/GPa) = 0.01694752
#
# Stress axis : x y z
#
# Youngs Moduli (GPa) = 81.52300 64.54581 91.52254
#
# Poissons Ratio (x) = 0.34286 0.29973
# Poissons Ratio (y) = 0.43304 0.20887
# Poissons Ratio (z) = 0.26698 0.14731
#
# Static dielectric constant tensor:
#      x y z
#    x -7.153670 0.000000 3.535610 
#    y 0.000000 3.636600 0.000000 
#    z 3.535610 0.000000 2.628340 
# 
# 
# High freq. dielectric constant tensor:
#      x y z
#    x 1.717790 0.000000 0.016980 
#    y 0.000000 1.719540 0.000000 
#    z 0.016980 0.000000 1.716610 
# 
# From -- ./inp_files/66654.got.cif
#   From: 2010.06.25/outbox.cif.g09.slc.cpg/sg11_34_cif.got.tgz:66654.got - 2010.06.27 23:14:04.
