data_PCOD8074374
_publ_section_title
;
Structure prediction by ZEFSAII (Michael W. Deem and Ramdas Pophale) SiO2 
 PCOD8074374
Probable space group: P 21/M
;
_chemical_formula_sum "Si O2"
_cell_formula_units_Z 32
_cell_length_a 11.894363
_cell_length_b 9.158406
_cell_length_c 27.941324
_cell_angle_alpha 90.000000
_cell_angle_beta 150.191306
_cell_angle_gamma 90.000000
_cell_volume 1513.062065
_symmetry_space_group_name_H-M "P 21/M"
_symmetry_group_IT_number 11
_symmetry_cell_setting 'monoclinic'
loop_
_space_group_symop_operation_xyz
x,y,z
-x,1/2+y,-z
-x,-y,-z
x,1/2-y,z
loop_
_atom_site_type_symbol
_atom_site_label
_atom_site_fract_x
_atom_site_fract_y
_atom_site_fract_z
Si Si1 0.692653 0.918828 0.665258
Si Si2 0.230532 0.919519 0.642934
Si Si3 0.700452 0.904417 0.088852
Si Si4 0.779870 0.415207 0.469278
Si Si5 0.105835 0.577270 0.994061
Si Si6 0.909875 0.088746 0.833661
Si Si7 0.993132 0.922850 0.282215
Si Si8 0.398825 0.420589 0.791878
O O1 0.770704 0.750000 0.697588
O O2 0.419978 0.929396 0.565738
O O3 0.768576 0.007401 0.740352
O O4 0.775034 0.988574 0.644334
O O5 0.234394 0.750000 0.656359
O O6 0.307073 0.953268 0.616694
O O7 0.407384 0.997211 0.744066
O O8 0.977357 0.977362 0.558371
O O9 0.608454 0.750000 0.075467
O O10 0.843224 0.876952 0.094577
O O11 0.844960 0.980491 0.183154
O O12 0.500000 0.000000 0.000000
O O13 0.876234 0.250000 0.504710
O O14 0.067826 0.750000 0.982231
O O15 0.377854 0.541030 0.093842
O O16 0.000000 0.500000 0.000000
O O17 0.955279 0.515825 0.895158
O O18 0.802480 0.250000 0.807067
O O19 0.045798 0.750000 0.300334
O O20 0.841634 0.966196 0.272086
O O21 0.396356 0.250000 0.780278
#
# Coordination Sequence:
#
# PCOD8074374 Si02
#       8
#     4   4   4   4   4   4   4   4
#     4  10  20  35  59  88 117 151 192 241 292 339
#     4  10  21  37  61  90 115 147 189 235 286 343
#     4   9  17  29  48  72 100 136 183 232 276 322
#     4   9  20  39  60  86 118 147 184 236 290 343
#     4  11  24  40  57  81 113 153 197 239 286 341
#     4  10  21  36  52  77 111 149 190 233 280 332
#     4   9  19  36  54  78 112 150 191 234 283 340
#     4  10  22  40  60  82 116 157 192 233 289 346
#
# _framework density 21.149166000000001
#
# number of rings (size 3 to 8) (size 9 to 14) (size 15 to 20)
#    0.000    2.250    0.000    3.000    1.750    6.500 
#    0.000    0.625    0.000    0.000    0.000    0.000 
#    0.000    0.000    0.000    0.000    0.000    0.000 
#
# Total GULP energy -396426.464670 kJ/mol
# GULP energy per Si atom -12388.327021 kJ/mol
# Density = 2.110103 g / cm^3
# Si number density = 21.149166 Si / 1000 Ang^3
#
#
#
# Elastic Constant Matrix: (Units=GPa)
#
#
# Indices 1 2 3 4 5 6 
#
# 1 65.3895 27.1387 5.8050 0.0000 9.4588 0.0000
# 2 27.1387 98.7474 18.6066 0.0000 6.5106 0.0000
# 3 5.8050 18.6066 24.3507 0.0000 5.8891 0.0000
# 4 0.0000 0.0000 0.0000 32.6320 0.0000 -0.6515
# 5 9.4588 6.5106 5.8891 0.0000 34.0167 0.0000
# 6 0.0000 0.0000 0.0000 -0.6515 0.0000 34.4183
#
#
#
# Elastic Compliance Matrix: (Units=1/GPa)
#
#
# Indices 1 2 3 4 5 6 
#
# 1 0.017802 -0.004684 0.000329 0.000000 -0.004111 0.000000
# 2 -0.004684 0.013080 -0.008963 0.000000 0.000351 0.000000
# 3 0.000329 -0.008963 0.049517 0.000000 -0.006949 0.000000
# 4 0.000000 0.000000 0.000000 0.030656 0.000000 0.000580
# 5 -0.004111 0.000351 -0.006949 0.000000 0.031676 0.000000
# 6 0.000000 0.000000 0.000000 0.000580 0.000000 0.029065
#
#
# Mechanical properties :
#
#
# Convention : Reuss Voigt Hill
#
# Bulk Modulus (GPa) = 18.59955 32.39869 25.49912
# Shear Modulus (GPa) = 23.11040 29.34254 26.22647
#
# Velocity S-wave (km/s) = 3.30924 3.72883 3.52528
# Velocity P-wave (km/s) = 4.83890 5.82163 5.35286
#
# Compressibility (1/GPa) = 0.05376474
#
# Stress axis : x y z
#
# Youngs Moduli (GPa) = 56.17271 76.45436 20.19505
#
# Poissons Ratio (x) = 0.35808 -0.00664
# Poissons Ratio (y) = 0.26309 0.18100
# Poissons Ratio (z) = -0.01848 0.68523
#
# Static dielectric constant tensor:
#      x y z
#    x 2.059070 0.000000 0.139260 
#    y 0.000000 3.660980 0.000000 
#    z 0.139260 0.000000 3.636250 
# 
# 
# High freq. dielectric constant tensor:
#      x y z
#    x 1.828370 0.000000 0.006210 
#    y 0.000000 1.831130 0.000000 
#    z 0.006210 0.000000 1.813400 
# 
# From -- ./inp_files/73205.got.cif
#   From: 2010.06.25/outbox.cif.g09.slc.cpg/sg11_37_cif.got.tgz:73205.got - 2010.06.27 23:14:04.
