data_PCOD8074430
_publ_section_title
;
Structure prediction by ZEFSAII (Michael W. Deem and Ramdas Pophale) SiO2 
 PCOD8074430
Probable space group: P 21/M
;
_chemical_formula_sum "Si O2"
_cell_formula_units_Z 28
_cell_length_a 11.409724
_cell_length_b 15.136622
_cell_length_c 9.223178
_cell_angle_alpha 90.000000
_cell_angle_beta 54.730214
_cell_angle_gamma 90.000000
_cell_volume 1300.499350
_symmetry_space_group_name_H-M "P 21/M"
_symmetry_group_IT_number 11
_symmetry_cell_setting 'monoclinic'
loop_
_space_group_symop_operation_xyz
x,y,z
-x,1/2+y,-z
-x,-y,-z
x,1/2-y,z
loop_
_atom_site_type_symbol
_atom_site_label
_atom_site_fract_x
_atom_site_fract_y
_atom_site_fract_z
Si Si1 0.449788 0.516330 0.870412
Si Si2 0.290416 0.151917 0.939265
Si Si3 0.196549 0.849483 0.091736
Si Si4 0.266258 0.028556 0.478302
Si Si5 0.180013 0.847120 0.444139
Si Si6 0.139150 0.347952 0.342703
Si Si7 0.922149 0.918188 0.128457
O O1 0.408652 0.422958 0.824507
O O2 0.573793 0.560002 0.681002
O O3 0.500000 0.500000 0.000000
O O4 0.314813 0.581545 0.952164
O O5 0.355243 0.250000 0.867696
O O6 0.147089 0.142812 0.945474
O O7 0.252663 0.138406 0.134569
O O8 0.247380 0.750000 0.018106
O O9 0.179227 0.862667 0.273884
O O10 0.041067 0.864517 0.132038
O O11 0.155368 0.075636 0.449092
O O12 0.214454 0.052186 0.675950
O O13 0.270877 0.922540 0.457149
O O14 0.243107 0.750000 0.437926
O O15 0.017533 0.855670 0.616631
O O16 0.157851 0.250000 0.400462
O O17 0.000000 0.000000 0.000000
#
# Coordination Sequence:
#
# PCOD8074430 Si02
#       7
#     4   4   4   4   4   4   4
#     4  12  24  42  66 102 134 173 219 271 335 392
#     4  11  24  43  67  96 136 178 220 272 331 400
#     4  11  23  42  68  98 133 170 217 276 333 395
#     4  12  24  39  69  94 134 172 220 273 328 393
#     4  10  20  35  62  99 128 163 220 280 330 378
#     4  10  20  36  64 100 127 163 223 279 329 379
#     4  12  25  44  71  95 131 176 228 275 335 389
#
# _framework density 21.530190000000001
#
# number of rings (size 3 to 8) (size 9 to 14) (size 15 to 20)
#    0.000    0.857    5.714    1.714    0.000    2.857 
#    0.000    0.714    0.000    0.000    0.000    0.000 
#    0.000    0.000    0.000    0.000    0.000    0.000 
#
# Total GULP energy -347152.168150 kJ/mol
# GULP energy per Si atom -12398.291720 kJ/mol
# Density = 2.148119 g / cm^3
# Si number density = 21.530190 Si / 1000 Ang^3
#
#
#
# Elastic Constant Matrix: (Units=GPa)
#
#
# Indices 1 2 3 4 5 6 
#
# 1 66.6760 31.6859 17.5358 0.0000 -11.8122 0.0000
# 2 31.6859 128.9929 25.2537 0.0000 -0.1651 0.0000
# 3 17.5358 25.2537 90.5395 0.0000 -17.4770 0.0000
# 4 0.0000 0.0000 0.0000 16.2369 0.0000 -2.5464
# 5 -11.8122 -0.1651 -17.4770 0.0000 29.8911 0.0000
# 6 0.0000 0.0000 0.0000 -2.5464 0.0000 24.5551
#
#
#
# Elastic Compliance Matrix: (Units=1/GPa)
#
#
# Indices 1 2 3 4 5 6 
#
# 1 0.018521 -0.004326 -0.001096 0.000000 0.006654 0.000000
# 2 -0.004326 0.009267 -0.002330 0.000000 -0.003021 0.000000
# 3 -0.001096 -0.002330 0.013325 0.000000 0.007345 0.000000
# 4 0.000000 0.000000 0.000000 0.062606 0.000000 0.006492
# 5 0.006654 -0.003021 0.007345 0.000000 0.040362 0.000000
# 6 0.000000 0.000000 0.000000 0.006492 0.000000 0.041398
#
#
# Mechanical properties :
#
#
# Convention : Reuss Voigt Hill
#
# Bulk Modulus (GPa) = 39.04961 48.35102 43.70032
# Shear Modulus (GPa) = 23.86396 28.25216 26.05806
#
# Velocity S-wave (km/s) = 3.33287 3.62638 3.48272
# Velocity P-wave (km/s) = 5.74345 6.32773 6.04266
#
# Compressibility (1/GPa) = 0.02560845
#
# Stress axis : x y z
#
# Youngs Moduli (GPa) = 53.99269 107.90478 75.04743
#
# Poissons Ratio (x) = 0.46685 0.08225
# Poissons Ratio (y) = 0.23360 0.17487
# Poissons Ratio (z) = 0.05917 0.25143
#
# Static dielectric constant tensor:
#      x y z
#    x 3.804810 0.000000 -0.113520 
#    y 0.000000 4.117360 0.000000 
#    z -0.113520 0.000000 3.866170 
# 
# 
# High freq. dielectric constant tensor:
#      x y z
#    x 1.827090 0.000000 -0.012200 
#    y 0.000000 1.857510 0.000000 
#    z -0.012200 0.000000 1.837790 
# 
# From -- ./inp_files/17927.got.cif
#   From: 2010.06.25/outbox.cif.g09.slc.cpg/sg11_9_cif.got.tgz:17927.got - 2010.06.27 23:14:04.
