data_PCOD8074048
_publ_section_title
;
Structure prediction by ZEFSAII (Michael W. Deem and Ramdas Pophale) SiO2 
 PCOD8074048
Probable space group: P 21/M
;
_chemical_formula_sum "Si O2"
_cell_formula_units_Z 28
_cell_length_a 9.600576
_cell_length_b 13.374469
_cell_length_c 14.839007
_cell_angle_alpha 90.000000
_cell_angle_beta 47.089149
_cell_angle_gamma 90.000000
_cell_volume 1395.517528
_symmetry_space_group_name_H-M "P 21/M"
_symmetry_group_IT_number 11
_symmetry_cell_setting 'monoclinic'
loop_
_space_group_symop_operation_xyz
x,y,z
-x,1/2+y,-z
-x,-y,-z
x,1/2-y,z
loop_
_atom_site_type_symbol
_atom_site_label
_atom_site_fract_x
_atom_site_fract_y
_atom_site_fract_z
Si Si1 0.003500 0.641908 0.034226
Si Si2 0.682123 0.135089 0.659154
Si Si3 0.648542 0.636591 0.066310
Si Si4 0.004161 0.365734 0.648692
Si Si5 0.086741 0.493743 0.155062
Si Si6 0.762370 0.362040 0.245503
Si Si7 0.599311 0.527922 0.549381
O O1 0.015627 0.750000 0.077602
O O2 0.031978 0.554891 0.091165
O O3 0.798173 0.629284 0.080973
O O4 0.163316 0.635580 0.888352
O O5 0.636550 0.250000 0.653324
O O6 0.549325 0.101503 0.802017
O O7 0.898484 0.122997 0.599111
O O8 0.653794 0.070333 0.582055
O O9 0.633690 0.750000 0.035484
O O10 0.717426 0.566924 0.952023
O O11 0.002430 0.250000 0.680833
O O12 0.218615 0.403033 0.546563
O O13 0.888020 0.433045 0.771823
O O14 0.907079 0.419509 0.249822
O O15 0.749422 0.250000 0.289501
O O16 0.553829 0.408235 0.328768
O O17 0.500000 0.500000 0.500000
#
# Coordination Sequence:
#
# PCOD8074048 Si02
#       7
#     4   4   4   4   4   4   4
#     4   9  17  29  52  84 116 148 187 243 300 352
#     4  10  23  43  63  87 120 161 198 241 302 362
#     4   9  18  33  57  85 117 154 196 242 291 354
#     4  11  25  41  58  86 127 161 198 247 296 354
#     4  11  18  33  56  87 119 156 194 238 296 355
#     4  10  20  35  55  85 120 148 190 252 304 344
#     4  12  23  41  63  88 111 155 203 254 295 348
#
# _framework density 20.064242
#
# number of rings (size 3 to 8) (size 9 to 14) (size 15 to 20)
#    0.000    1.714    1.429    6.000    0.000    1.714 
#    0.000    0.000    0.000    2.571    0.000    0.000 
#    0.000    0.000    0.000    0.000    0.000    0.000 
#
# Total GULP energy -347141.283470 kJ/mol
# GULP energy per Si atom -12397.902981 kJ/mol
# Density = 2.001858 g / cm^3
# Si number density = 20.064242 Si / 1000 Ang^3
#
#
#
# Elastic Constant Matrix: (Units=GPa)
#
#
# Indices 1 2 3 4 5 6 
#
# 1 90.2399 48.2944 40.6327 0.0000 -2.5395 0.0000
# 2 48.2944 131.6532 33.4285 0.0000 8.1765 0.0000
# 3 40.6327 33.4285 53.0672 0.0000 -8.0795 0.0000
# 4 0.0000 0.0000 0.0000 32.9809 0.0000 -0.6952
# 5 -2.5395 8.1765 -8.0795 0.0000 24.4927 0.0000
# 6 0.0000 0.0000 0.0000 -0.6952 0.0000 29.1160
#
#
#
# Elastic Compliance Matrix: (Units=1/GPa)
#
#
# Indices 1 2 3 4 5 6 
#
# 1 0.018372 -0.003677 -0.011870 0.000000 -0.000783 0.000000
# 2 -0.003677 0.010442 -0.004581 0.000000 -0.005378 0.000000
# 3 -0.011870 -0.004581 0.032496 0.000000 0.011018 0.000000
# 4 0.000000 0.000000 0.000000 0.030336 0.000000 0.000724
# 5 -0.000783 -0.005378 0.011018 0.000000 0.046177 0.000000
# 6 0.000000 0.000000 0.000000 0.000724 0.000000 0.034363
#
#
# Mechanical properties :
#
#
# Convention : Reuss Voigt Hill
#
# Bulk Modulus (GPa) = 47.49795 57.74130 52.61962
# Shear Modulus (GPa) = 22.78314 27.49157 25.13735
#
# Velocity S-wave (km/s) = 3.37339 3.70561 3.54339
# Velocity P-wave (km/s) = 6.23677 6.86654 6.55922
#
# Compressibility (1/GPa) = 0.02105354
#
# Stress axis : x y z
#
# Youngs Moduli (GPa) = 54.42994 95.77004 30.77272
#
# Poissons Ratio (x) = 0.35212 0.36529
# Poissons Ratio (y) = 0.20013 0.14097
# Poissons Ratio (z) = 0.64611 0.43873
#
# Static dielectric constant tensor:
#      x y z
#    x 3.390530 0.000000 -0.224110 
#    y 0.000000 4.134800 0.000000 
#    z -0.224110 0.000000 3.608660 
# 
# 
# High freq. dielectric constant tensor:
#      x y z
#    x 1.756960 0.000000 -0.017730 
#    y 0.000000 1.801740 0.000000 
#    z -0.017730 0.000000 1.780480 
# 
# From -- ./inp_files/47579.got.cif
#   From: 2010.06.25/outbox.cif.g09.slc.cpg/sg11_24_cif.got.tgz:47579.got - 2010.06.27 23:14:04.
