data_PCOD8074848
_publ_section_title
;
Structure prediction by ZEFSAII (Michael W. Deem and Ramdas Pophale) SiO2 
 PCOD8074848
Probable space group: P 21/M
;
_chemical_formula_sum "Si O2"
_cell_formula_units_Z 20
_cell_length_a 9.707571
_cell_length_b 14.717399
_cell_length_c 12.468933
_cell_angle_alpha 90.000000
_cell_angle_beta 144.910907
_cell_angle_gamma 90.000000
_cell_volume 1024.059253
_symmetry_space_group_name_H-M "P 21/M"
_symmetry_group_IT_number 11
_symmetry_cell_setting 'monoclinic'
loop_
_space_group_symop_operation_xyz
x,y,z
-x,1/2+y,-z
-x,-y,-z
x,1/2-y,z
loop_
_atom_site_type_symbol
_atom_site_label
_atom_site_fract_x
_atom_site_fract_y
_atom_site_fract_z
Si Si1 0.016232 0.853687 0.699918
Si Si2 0.248091 0.537534 0.201888
Si Si3 0.041722 0.353511 0.577989
Si Si4 0.739813 0.031785 0.551602
Si Si5 0.569223 0.355733 0.876821
O O1 0.936540 0.750000 0.679294
O O2 0.084460 0.858493 0.618229
O O3 0.251126 0.884002 0.914573
O O4 0.806024 0.924109 0.595522
O O5 0.212585 0.574699 0.300422
O O6 0.458278 0.460608 0.341085
O O7 0.332293 0.615908 0.175841
O O8 0.000000 0.500000 0.000000
O O9 0.046123 0.250000 0.623595
O O10 0.307851 0.397207 0.736716
O O11 0.896934 0.414620 0.567399
O O12 0.528363 0.250000 0.842977
#
# Coordination Sequence:
#
# PCOD8074848 Si02
#       5
#     4   4   4   4   4
#     4  10  20  36  60  88 115 150 197 241 290 351
#     4  11  23  39  56  88 120 152 201 240 292 357
#     4  10  22  40  60  88 120 152 197 247 294 348
#     4  11  23  38  61  88 118 158 196 242 301 344
#     4  10  21  38  62  86 115 157 199 241 294 352
#
# _framework density 19.530121000000001
#
# number of rings (size 3 to 8) (size 9 to 14) (size 15 to 20)
#    0.000    1.600    4.000    0.600    0.000    3.200 
#    0.000    4.000    0.000    0.000    0.000    0.000 
#    0.000    0.000    0.000    0.000    0.000    0.000 
#
# Total GULP energy -247934.211083 kJ/mol
# GULP energy per Si atom -12396.710554 kJ/mol
# Density = 1.948567 g / cm^3
# Si number density = 19.530121 Si / 1000 Ang^3
#
#
#
# Elastic Constant Matrix: (Units=GPa)
#
#
# Indices 1 2 3 4 5 6 
#
# 1 137.2371 42.2131 64.1866 0.0000 -2.0883 0.0000
# 2 42.2131 56.5665 31.0289 0.0000 0.0197 0.0000
# 3 64.1866 31.0289 158.7985 0.0000 -4.4959 0.0000
# 4 0.0000 0.0000 0.0000 17.3086 0.0000 -4.4414
# 5 -2.0883 0.0197 -4.4959 0.0000 27.6574 0.0000
# 6 0.0000 0.0000 0.0000 -4.4414 0.0000 24.3918
#
#
#
# Elastic Compliance Matrix: (Units=1/GPa)
#
#
# Indices 1 2 3 4 5 6 
#
# 1 0.010657 -0.006266 -0.003074 0.000000 0.000309 0.000000
# 2 -0.006266 0.023497 -0.002082 0.000000 -0.000828 0.000000
# 3 -0.003074 -0.002082 0.007977 0.000000 0.001066 0.000000
# 4 0.000000 0.000000 0.000000 0.060606 0.000000 0.011036
# 5 0.000309 -0.000828 0.001066 0.000000 0.036354 0.000000
# 6 0.000000 0.000000 0.000000 0.011036 0.000000 0.043007
#
#
# Mechanical properties :
#
#
# Convention : Reuss Voigt Hill
#
# Bulk Modulus (GPa) = 51.85230 69.71769 60.78499
# Shear Modulus (GPa) = 23.65508 28.21647 25.93578
#
# Velocity S-wave (km/s) = 3.48402 3.80513 3.64811
# Velocity P-wave (km/s) = 6.54157 7.42162 6.99544
#
# Compressibility (1/GPa) = 0.01928555
#
# Stress axis : x y z
#
# Youngs Moduli (GPa) = 93.83753 42.55878 125.36246
#
# Poissons Ratio (x) = 0.26669 0.38540
# Poissons Ratio (y) = 0.58802 0.26098
# Poissons Ratio (z) = 0.28848 0.08860
#
# Static dielectric constant tensor:
#      x y z
#    x 3.610970 0.000000 -0.041630 
#    y 0.000000 3.446930 0.000000 
#    z -0.041630 0.000000 3.996330 
# 
# 
# High freq. dielectric constant tensor:
#      x y z
#    x 1.762220 0.000000 -0.006020 
#    y 0.000000 1.736400 0.000000 
#    z -0.006020 0.000000 1.782160 
# 
# From -- ./inp_files/13632.got.cif
#   From: 2010.06.25/outbox.cif.g09.slc.cpg/sg11_7_cif.got.tgz:13632.got - 2010.06.27 23:14:04.
