data_PCOD8074502
_publ_section_title
;
Structure prediction by ZEFSAII (Michael W. Deem and Ramdas Pophale) SiO2 
 PCOD8074502
Probable space group: P 21/M
;
_chemical_formula_sum "Si O2"
_cell_formula_units_Z 32
_cell_length_a 24.460301
_cell_length_b 9.120110
_cell_length_c 19.095727
_cell_angle_alpha 90.000000
_cell_angle_beta 156.109095
_cell_angle_gamma 90.000000
_cell_volume 1725.239101
_symmetry_space_group_name_H-M "P 21/M"
_symmetry_group_IT_number 11
_symmetry_cell_setting 'monoclinic'
loop_
_space_group_symop_operation_xyz
x,y,z
-x,1/2+y,-z
-x,-y,-z
x,1/2-y,z
loop_
_atom_site_type_symbol
_atom_site_label
_atom_site_fract_x
_atom_site_fract_y
_atom_site_fract_z
Si Si1 0.124806 0.088892 0.332589
Si Si2 0.873586 0.421513 0.530226
Si Si3 0.546746 0.578784 0.845981
Si Si4 0.177425 0.583354 0.033024
Si Si5 0.172316 0.421278 0.884365
Si Si6 0.581939 0.423803 0.156652
Si Si7 0.626333 0.917085 0.471435
Si Si8 0.373198 0.576512 0.383350
O O1 0.133950 0.250000 0.379866
O O2 0.226451 0.078191 0.388527
O O3 0.156199 0.962677 0.424730
O O4 0.977874 0.064637 0.128477
O O5 0.875471 0.250000 0.524465
O O6 0.739107 0.477673 0.331945
O O7 0.023605 0.483180 0.683699
O O8 0.516794 0.750000 0.797903
O O9 0.484066 0.527049 0.846516
O O10 0.482554 0.485459 0.708552
O O11 0.709738 0.548860 0.034666
O O12 0.217405 0.750000 0.062093
O O13 0.252613 0.528991 0.190545
O O14 0.215972 0.491513 0.009198
O O15 0.155720 0.250000 0.879374
O O16 0.569906 0.250000 0.134585
O O17 0.500000 0.500000 0.000000
O O18 0.581845 0.750000 0.436858
O O19 0.645993 0.014100 0.562374
O O20 0.500000 0.500000 0.500000
O O21 0.391349 0.750000 0.409245
#
# Coordination Sequence:
#
# PCOD8074502 Si02
#       8
#     4   4   4   4   4   4   4   4
#     4   9  18  33  53  77 103 134 173 219 264 311
#     4   9  17  33  55  79 106 137 175 213 257 312
#     4  10  20  36  56  80 108 138 177 220 264 315
#     4   9  19  35  52  73 104 139 177 219 266 313
#     4   9  18  32  55  81 104 136 176 220 263 308
#     4  10  21  36  56  80 109 141 173 213 261 315
#     4  11  22  34  53  79 106 137 176 222 268 316
#     4  11  23  37  52  71 102 142 181 224 272 320
#
# _framework density 18.548155000000001
#
# number of rings (size 3 to 8) (size 9 to 14) (size 15 to 20)
#    0.000    2.250    1.250    1.500    0.000    5.500 
#    0.000    0.625    0.000    0.000    0.000    0.000 
#    0.000    0.000    0.000    0.000    0.000    0.000 
#
# Total GULP energy -396531.401218 kJ/mol
# GULP energy per Si atom -12391.606288 kJ/mol
# Density = 1.850594 g / cm^3
# Si number density = 18.548155 Si / 1000 Ang^3
#
#
#
# Elastic Constant Matrix: (Units=GPa)
#
#
# Indices 1 2 3 4 5 6 
#
# 1 63.1734 18.4871 56.5671 0.0000 9.0655 0.0000
# 2 18.4871 32.2901 41.2741 0.0000 4.9014 0.0000
# 3 56.5671 41.2741 150.6427 0.0000 -0.9304 0.0000
# 4 0.0000 0.0000 0.0000 26.6937 0.0000 -5.3509
# 5 9.0655 4.9014 -0.9304 0.0000 27.9530 0.0000
# 6 0.0000 0.0000 0.0000 -5.3509 0.0000 27.5495
#
#
#
# Elastic Compliance Matrix: (Units=1/GPa)
#
#
# Indices 1 2 3 4 5 6 
#
# 1 0.025852 -0.001615 -0.009317 0.000000 -0.008411 0.000000
# 2 -0.001615 0.050025 -0.013153 0.000000 -0.008686 0.000000
# 3 -0.009317 -0.013153 0.013776 0.000000 0.005786 0.000000
# 4 0.000000 0.000000 0.000000 0.038980 0.000000 0.007571
# 5 -0.008411 -0.008686 0.005786 0.000000 0.040218 0.000000
# 6 0.000000 0.000000 0.000000 0.007571 0.000000 0.037769
#
#
# Mechanical properties :
#
#
# Convention : Reuss Voigt Hill
#
# Bulk Modulus (GPa) = 24.10655 53.19587 38.65121
# Shear Modulus (GPa) = 18.61381 25.09111 21.85246
#
# Velocity S-wave (km/s) = 3.17131 3.68197 3.43614
# Velocity P-wave (km/s) = 5.14145 6.84237 6.05196
#
# Compressibility (1/GPa) = 0.04148250
#
# Stress axis : x y z
#
# Youngs Moduli (GPa) = 38.68240 19.98984 72.58830
#
# Poissons Ratio (x) = 0.03229 0.67629
# Poissons Ratio (y) = 0.06248 0.95479
# Poissons Ratio (z) = 0.36040 0.26293
#
# Static dielectric constant tensor:
#      x y z
#    x 3.277150 0.000000 0.280980 
#    y 0.000000 3.488840 0.000000 
#    z 0.280980 0.000000 3.843810 
# 
# 
# High freq. dielectric constant tensor:
#      x y z
#    x 1.700950 0.000000 0.020320 
#    y 0.000000 1.717110 0.000000 
#    z 0.020320 0.000000 1.735470 
# 
# From -- ./inp_files/67173.got.cif
#   From: 2010.06.25/outbox.cif.g09.slc.cpg/sg11_34_cif.got.tgz:67173.got - 2010.06.27 23:14:04.
