data_PCOD8074195
_publ_section_title
;
Structure prediction by ZEFSAII (Michael W. Deem and Ramdas Pophale) SiO2 
 PCOD8074195
Probable space group: P 21/M
;
_chemical_formula_sum "Si O2"
_cell_formula_units_Z 32
_cell_length_a 13.726220
_cell_length_b 12.496042
_cell_length_c 9.898366
_cell_angle_alpha 90.000000
_cell_angle_beta 97.118219
_cell_angle_gamma 90.000000
_cell_volume 1684.715943
_symmetry_space_group_name_H-M "P 21/M"
_symmetry_group_IT_number 11
_symmetry_cell_setting 'monoclinic'
loop_
_space_group_symop_operation_xyz
x,y,z
-x,1/2+y,-z
-x,-y,-z
x,1/2-y,z
loop_
_atom_site_type_symbol
_atom_site_label
_atom_site_fract_x
_atom_site_fract_y
_atom_site_fract_z
Si Si1 0.347604 0.373221 0.962730
Si Si2 0.940412 0.374334 0.851873
Si Si3 0.803215 0.128778 0.288281
Si Si4 0.139770 0.483369 0.937627
Si Si5 0.272374 0.375251 0.461734
Si Si6 0.900584 0.465285 0.553518
Si Si7 0.570112 0.627816 0.731084
Si Si8 0.382938 0.498661 0.712896
O O1 0.338796 0.250000 0.922080
O O2 0.238882 0.417507 0.963571
O O3 0.405081 0.433026 0.852989
O O4 0.409704 0.390075 0.108261
O O5 0.919104 0.250000 0.870722
O O6 0.922958 0.403592 0.694159
O O7 0.051185 0.399297 0.916794
O O8 0.865878 0.441436 0.931919
O O9 0.813230 0.250000 0.241289
O O10 0.866087 0.055206 0.198120
O O11 0.843627 0.116555 0.446572
O O12 0.689230 0.096503 0.264536
O O13 0.253394 0.250000 0.479493
O O14 0.166418 0.430457 0.431483
O O15 0.332424 0.400358 0.336000
O O16 0.334193 0.418441 0.598343
O O17 0.000000 0.500000 0.500000
O O18 0.538579 0.750000 0.695583
O O19 0.483090 0.548301 0.671369
#
# Coordination Sequence:
#
# PCOD8074195 Si02
#       8
#     4   4   4   4   4   4   4   4
#     4  10  20  35  57  83 113 147 186 232 280 329
#     4  11  22  37  57  80 113 151 191 237 287 340
#     4  10  20  36  55  79 112 148 187 232 285 344
#     4  10  21  37  55  82 112 148 194 234 285 335
#     4  10  22  38  59  84 114 148 189 234 281 338
#     4  11  22  39  55  86 112 149 190 236 290 337
#     4  10  20  36  57  83 112 149 187 230 285 336
#     4  10  20  35  57  83 114 145 188 232 283 334
#
# _framework density 18.994299999999999
#
# number of rings (size 3 to 8) (size 9 to 14) (size 15 to 20)
#    0.000    1.750    1.250    3.375    0.000    1.000 
#    0.000    0.625    0.000   10.500    0.000    0.000 
#    0.000    0.000    0.000    0.000    0.000    0.000 
#
# Total GULP energy -396933.154699 kJ/mol
# GULP energy per Si atom -12404.161084 kJ/mol
# Density = 1.895107 g / cm^3
# Si number density = 18.994300 Si / 1000 Ang^3
#
#
#
# Elastic Constant Matrix: (Units=GPa)
#
#
# Indices 1 2 3 4 5 6 
#
# 1 89.9094 46.3583 15.3707 0.0000 -11.9691 0.0000
# 2 46.3583 86.7026 22.5361 0.0000 -1.3950 0.0000
# 3 15.3707 22.5361 82.2511 0.0000 -9.7122 0.0000
# 4 0.0000 0.0000 0.0000 22.9573 0.0000 -0.3711
# 5 -11.9691 -1.3950 -9.7122 0.0000 24.6841 0.0000
# 6 0.0000 0.0000 0.0000 -0.3711 0.0000 21.7863
#
#
#
# Elastic Compliance Matrix: (Units=1/GPa)
#
#
# Indices 1 2 3 4 5 6 
#
# 1 0.016666 -0.008843 0.000214 0.000000 0.007665 0.000000
# 2 -0.008843 0.017121 -0.003598 0.000000 -0.004736 0.000000
# 3 0.000214 -0.003598 0.013730 0.000000 0.005302 0.000000
# 4 0.000000 0.000000 0.000000 0.043571 0.000000 0.000742
# 5 0.007665 -0.004736 0.005302 0.000000 0.046047 0.000000
# 6 0.000000 0.000000 0.000000 0.000742 0.000000 0.045913
#
#
# Mechanical properties :
#
#
# Convention : Reuss Voigt Hill
#
# Bulk Modulus (GPa) = 43.36087 47.48814 45.42451
# Shear Modulus (GPa) = 23.23533 25.52541 24.38037
#
# Velocity S-wave (km/s) = 3.50133 3.66983 3.58657
# Velocity P-wave (km/s) = 6.26288 6.55838 6.41234
#
# Compressibility (1/GPa) = 0.02306227
#
# Stress axis : x y z
#
# Youngs Moduli (GPa) = 60.00300 58.40840 72.83428
#
# Poissons Ratio (x) = 0.51651 -0.01556
# Poissons Ratio (y) = 0.53061 0.26203
# Poissons Ratio (z) = -0.01282 0.21013
#
# Static dielectric constant tensor:
#      x y z
#    x 3.385940 0.000000 -0.080940 
#    y 0.000000 3.445240 0.000000 
#    z -0.080940 0.000000 3.634430 
# 
# 
# High freq. dielectric constant tensor:
#      x y z
#    x 1.735890 0.000000 -0.003690 
#    y 0.000000 1.741050 0.000000 
#    z -0.003690 0.000000 1.750360 
# 
# From -- ./inp_files/21529.got.cif
#   From: 2010.06.25/outbox.cif.g09.slc.cpg/sg11_11_cif.got.tgz:21529.got - 2010.06.27 23:14:04.
