data_PCOD8074563
_publ_section_title
;
Structure prediction by ZEFSAII (Michael W. Deem and Ramdas Pophale) SiO2 
 PCOD8074563
Probable space group: P 21/M
;
_chemical_formula_sum "Si O2"
_cell_formula_units_Z 28
_cell_length_a 11.193029
_cell_length_b 8.900463
_cell_length_c 16.357634
_cell_angle_alpha 90.000000
_cell_angle_beta 61.075740
_cell_angle_gamma 90.000000
_cell_volume 1426.322411
_symmetry_space_group_name_H-M "P 21/M"
_symmetry_group_IT_number 11
_symmetry_cell_setting 'monoclinic'
loop_
_space_group_symop_operation_xyz
x,y,z
-x,1/2+y,-z
-x,-y,-z
x,1/2-y,z
loop_
_atom_site_type_symbol
_atom_site_label
_atom_site_fract_x
_atom_site_fract_y
_atom_site_fract_z
Si Si1 0.106548 0.926927 0.025376
Si Si2 0.695761 0.927780 0.578548
Si Si3 0.336864 0.576888 0.241043
Si Si4 0.610247 0.073400 0.332068
Si Si5 0.170274 0.571988 0.613869
Si Si6 0.922124 0.077109 0.779753
Si Si7 0.615423 0.427419 0.146570
O O1 0.094148 0.750000 0.019558
O O2 0.075528 0.979305 0.127578
O O3 0.259666 0.978036 0.951685
O O4 0.000000 0.000000 0.000000
O O5 0.714434 0.750000 0.573500
O O6 0.544850 0.975838 0.596985
O O7 0.718986 0.987796 0.661996
O O8 0.807503 0.000997 0.482542
O O9 0.356131 0.750000 0.259167
O O10 0.230421 0.556984 0.202966
O O11 0.479512 0.510775 0.160975
O O12 0.624760 0.250000 0.332930
O O13 0.715398 0.002830 0.362387
O O14 0.649672 0.020335 0.227836
O O15 0.178980 0.750000 0.603632
O O16 0.022072 0.526316 0.694390
O O17 0.969361 0.250000 0.757492
O O18 0.587208 0.250000 0.152754
#
# Coordination Sequence:
#
# PCOD8074563 Si02
#       7
#     4   4   4   4   4   4   4
#     4  10  21  38  60  86 115 146 180 222 273 327
#     4  10  20  36  57  80 110 145 180 225 280 329
#     4  10  21  38  57  79 108 143 187 230 268 322
#     4   8  16  31  52  80 110 138 172 217 268 322
#     4  11  21  34  55  82 110 144 187 228 270 326
#     4  10  23  40  55  77 112 148 182 226 276 322
#     4   9  18  35  58  82 111 145 179 222 275 323
#
# _framework density 19.630904000000001
#
# number of rings (size 3 to 8) (size 9 to 14) (size 15 to 20)
#    0.000    2.286    0.000    3.429    0.000    4.571 
#    0.000    7.857    0.000    0.000    0.000    0.000 
#    0.000    0.000    0.000    0.000    0.000    0.000 
#
# Total GULP energy -347258.878068 kJ/mol
# GULP energy per Si atom -12402.102788 kJ/mol
# Density = 1.958622 g / cm^3
# Si number density = 19.630904 Si / 1000 Ang^3
#
#
#
# Elastic Constant Matrix: (Units=GPa)
#
#
# Indices 1 2 3 4 5 6 
#
# 1 99.6546 40.5618 50.7877 0.0000 0.0787 0.0000
# 2 40.5618 73.0565 46.4271 0.0000 -5.6759 0.0000
# 3 50.7877 46.4271 129.1769 0.0000 -20.1240 0.0000
# 4 0.0000 0.0000 0.0000 22.5777 0.0000 -1.8365
# 5 0.0787 -5.6759 -20.1240 0.0000 27.9633 0.0000
# 6 0.0000 0.0000 0.0000 -1.8365 0.0000 31.5941
#
#
#
# Elastic Compliance Matrix: (Units=1/GPa)
#
#
# Indices 1 2 3 4 5 6 
#
# 1 0.014564 -0.005644 -0.004373 0.000000 -0.004333 0.000000
# 2 -0.005644 0.019958 -0.004866 0.000000 0.000565 0.000000
# 3 -0.004373 -0.004866 0.012454 0.000000 0.007987 0.000000
# 4 0.000000 0.000000 0.000000 0.044502 0.000000 0.002587
# 5 -0.004333 0.000565 0.007987 0.000000 0.041636 0.000000
# 6 0.000000 0.000000 0.000000 0.002587 0.000000 0.031802
#
#
# Mechanical properties :
#
#
# Convention : Reuss Voigt Hill
#
# Bulk Modulus (GPa) = 58.10486 64.16015 61.13250
# Shear Modulus (GPa) = 24.94811 27.36780 26.15795
#
# Velocity S-wave (km/s) = 3.56878 3.73784 3.65429
# Velocity P-wave (km/s) = 6.82968 7.16818 7.00097
#
# Compressibility (1/GPa) = 0.01721026
#
# Stress axis : x y z
#
# Youngs Moduli (GPa) = 68.66405 50.10579 80.29820
#
# Poissons Ratio (x) = 0.28279 0.35111
# Poissons Ratio (y) = 0.38753 0.39073
# Poissons Ratio (z) = 0.30024 0.24381
#
# Static dielectric constant tensor:
#      x y z
#    x 3.611980 0.000000 0.004860 
#    y 0.000000 3.413820 0.000000 
#    z 0.004860 0.000000 3.648040 
# 
# 
# High freq. dielectric constant tensor:
#      x y z
#    x 1.764540 0.000000 -0.002530 
#    y 0.000000 1.752170 0.000000 
#    z -0.002530 0.000000 1.770040 
# 
# From -- ./inp_files/49106.got.cif
#   From: 2010.06.25/outbox.cif.g09.slc.cpg/sg11_25_cif.got.tgz:49106.got - 2010.06.27 23:14:04.
