data_PCOD8074915
_publ_section_title
;
Structure prediction by ZEFSAII (Michael W. Deem and Ramdas Pophale) SiO2 
 PCOD8074915
Probable space group: P 21/M
;
_chemical_formula_sum "Si O2"
_cell_formula_units_Z 28
_cell_length_a 21.623258
_cell_length_b 9.059117
_cell_length_c 14.718678
_cell_angle_alpha 90.000000
_cell_angle_beta 30.651773
_cell_angle_gamma 90.000000
_cell_volume 1469.913589
_symmetry_space_group_name_H-M "P 21/M"
_symmetry_group_IT_number 11
_symmetry_cell_setting 'monoclinic'
loop_
_space_group_symop_operation_xyz
x,y,z
-x,1/2+y,-z
-x,-y,-z
x,1/2-y,z
loop_
_atom_site_type_symbol
_atom_site_label
_atom_site_fract_x
_atom_site_fract_y
_atom_site_fract_z
Si Si1 0.769231 0.579969 0.268268
Si Si2 0.850072 0.582543 0.361715
Si Si3 0.377935 0.077086 0.053332
Si Si4 0.288613 0.419112 0.971865
Si Si5 0.123203 0.922809 0.042988
Si Si6 0.653185 0.076609 0.725744
Si Si7 0.529786 0.420544 0.555248
O O1 0.741613 0.750000 0.279374
O O2 0.857585 0.564094 0.242985
O O3 0.645739 0.498483 0.452884
O O4 0.827016 0.507436 0.107013
O O5 0.814714 0.750000 0.431567
O O6 0.749761 0.476204 0.530003
O O7 0.981584 0.541339 0.234881
O O8 0.371001 0.250000 0.081610
O O9 0.316332 0.993418 0.215081
O O10 0.301456 0.034464 0.060699
O O11 0.518527 0.028787 0.863946
O O12 0.245746 0.250000 0.016077
O O13 0.419886 0.440832 0.762554
O O14 0.190283 0.523736 0.049096
O O15 0.146318 0.750000 0.999205
O O16 0.665018 0.250000 0.719893
O O17 0.500000 0.500000 0.500000
O O18 0.559022 0.250000 0.499489
#
# Coordination Sequence:
#
# PCOD8074915 Si02
#       7
#     4   4   4   4   4   4   4
#     4  11  22  37  57  81 111 149 191 233 282 335
#     4  10  23  40  57  80 111 149 190 234 282 332
#     4   9  19  37  60  86 116 146 176 223 282 336
#     4  10  21  37  57  81 113 151 187 225 277 335
#     4  11  23  38  56  79 111 150 192 236 279 328
#     4  10  20  36  61  90 113 140 181 230 280 334
#     4  11  21  34  54  82 115 147 183 227 277 328
#
# _framework density 19.048739000000001
#
# number of rings (size 3 to 8) (size 9 to 14) (size 15 to 20)
#    0.000    1.714    1.429    3.000    0.000    5.143 
#    0.000    0.714    0.000    0.000    0.000    0.000 
#    0.000    0.000    0.000    0.000    0.000    0.000 
#
# Total GULP energy -347300.286194 kJ/mol
# GULP energy per Si atom -12403.581650 kJ/mol
# Density = 1.900538 g / cm^3
# Si number density = 19.048739 Si / 1000 Ang^3
#
#
#
# Elastic Constant Matrix: (Units=GPa)
#
#
# Indices 1 2 3 4 5 6 
#
# 1 118.0094 53.5801 42.0995 0.0000 0.8385 0.0000
# 2 53.5801 93.9998 34.5861 0.0000 -4.5655 0.0000
# 3 42.0995 34.5861 60.1714 0.0000 -4.3252 0.0000
# 4 0.0000 0.0000 0.0000 32.3229 0.0000 1.1214
# 5 0.8385 -4.5655 -4.3252 0.0000 26.7871 0.0000
# 6 0.0000 0.0000 0.0000 1.1214 0.0000 29.5753
#
#
#
# Elastic Compliance Matrix: (Units=1/GPa)
#
#
# Indices 1 2 3 4 5 6 
#
# 1 0.013145 -0.005276 -0.006332 0.000000 -0.002333 0.000000
# 2 -0.005276 0.015639 -0.005154 0.000000 0.001998 0.000000
# 3 -0.006332 -0.005154 0.024244 0.000000 0.003234 0.000000
# 4 0.000000 0.000000 0.000000 0.030979 0.000000 -0.001175
# 5 -0.002333 0.001998 0.003234 0.000000 0.038267 0.000000
# 6 0.000000 0.000000 0.000000 -0.001175 0.000000 0.033857
#
#
# Mechanical properties :
#
#
# Convention : Reuss Voigt Hill
#
# Bulk Modulus (GPa) = 51.27138 59.19020 55.23079
# Shear Modulus (GPa) = 25.48978 27.19805 26.34392
#
# Velocity S-wave (km/s) = 3.66202 3.78274 3.72287
# Velocity P-wave (km/s) = 6.69738 7.08656 6.89471
#
# Compressibility (1/GPa) = 0.01950406
#
# Stress axis : x y z
#
# Youngs Moduli (GPa) = 76.07476 63.94172 41.24650
#
# Poissons Ratio (x) = 0.33737 0.26117
# Poissons Ratio (y) = 0.40139 0.21259
# Poissons Ratio (z) = 0.48170 0.32956
#
# Static dielectric constant tensor:
#      x y z
#    x 3.541770 0.000000 -0.168180 
#    y 0.000000 3.992480 0.000000 
#    z -0.168180 0.000000 3.611540 
# 
# 
# High freq. dielectric constant tensor:
#      x y z
#    x 1.748520 0.000000 -0.000860 
#    y 0.000000 1.748080 0.000000 
#    z -0.000860 0.000000 1.726720 
# 
# From -- ./inp_files/37647.got.cif
#   From: 2010.06.25/outbox.cif.g09.slc.cpg/sg11_19_cif.got.tgz:37647.got - 2010.06.27 23:14:04.
