data_PCOD8074173
_publ_section_title
;
Structure prediction by ZEFSAII (Michael W. Deem and Ramdas Pophale) SiO2 
 PCOD8074173
Probable space group: P 21/M
;
_chemical_formula_sum "Si O2"
_cell_formula_units_Z 20
_cell_length_a 13.299030
_cell_length_b 8.742089
_cell_length_c 21.983771
_cell_angle_alpha 90.000000
_cell_angle_beta 155.149123
_cell_angle_gamma 90.000000
_cell_volume 1074.121395
_symmetry_space_group_name_H-M "P 21/M"
_symmetry_group_IT_number 11
_symmetry_cell_setting 'monoclinic'
loop_
_space_group_symop_operation_xyz
x,y,z
-x,1/2+y,-z
-x,-y,-z
x,1/2-y,z
loop_
_atom_site_type_symbol
_atom_site_label
_atom_site_fract_x
_atom_site_fract_y
_atom_site_fract_z
Si Si1 0.768693 0.072064 0.216122
Si Si2 0.110120 0.570170 0.499989
Si Si3 0.739370 0.071605 0.060499
Si Si4 0.057834 0.428380 0.939518
Si Si5 0.620244 0.072092 0.783826
O O1 0.784223 0.250000 0.241073
O O2 0.822264 0.040702 0.174728
O O3 0.964899 0.980968 0.361287
O O4 0.507325 0.013018 0.090221
O O5 0.097985 0.750000 0.499769
O O6 0.381203 0.519363 0.638893
O O7 0.000000 0.500000 0.500000
O O8 0.705029 0.250000 0.028906
O O9 0.941552 0.999826 0.127713
O O10 0.118550 0.250000 0.971433
O O11 0.797928 0.459230 0.825163
O O12 0.263029 0.513388 0.090050
O O13 0.560431 0.250000 0.758517
#
# Coordination Sequence:
#
# PCOD8074173 Si02
#       5
#     4   4   4   4   4
#     4  10  21  37  56  80 110 142 180 222 265 316
#     4  12  24  38  57  80 109 142 177 220 270 320
#     4  10  20  35  57  82 109 142 179 221 266 315
#     4  10  20  35  57  82 109 142 179 221 266 315
#     4  10  21  37  56  80 110 142 180 222 265 316
#
# _framework density 18.619869000000001
#
# number of rings (size 3 to 8) (size 9 to 14) (size 15 to 20)
#    0.000    1.600    0.000    5.400    0.000    4.800 
#    0.000    1.000    0.000    0.000    0.000    0.000 
#    0.000    0.000    0.000    0.000    0.000    0.000 
#
# Total GULP energy -248112.048128 kJ/mol
# GULP energy per Si atom -12405.602406 kJ/mol
# Density = 1.857749 g / cm^3
# Si number density = 18.619869 Si / 1000 Ang^3
#
#
#
# Elastic Constant Matrix: (Units=GPa)
#
#
# Indices 1 2 3 4 5 6 
#
# 1 132.4047 67.9512 51.6746 0.0000 0.1590 0.0000
# 2 67.9512 147.9100 66.7960 0.0000 -0.0943 0.0000
# 3 51.6746 66.7960 118.8366 0.0000 -0.1319 0.0000
# 4 0.0000 0.0000 0.0000 35.7666 0.0000 0.0140
# 5 0.1590 -0.0943 -0.1319 0.0000 18.6388 0.0000
# 6 0.0000 0.0000 0.0000 0.0140 0.0000 36.6195
#
#
#
# Elastic Compliance Matrix: (Units=1/GPa)
#
#
# Indices 1 2 3 4 5 6 
#
# 1 0.010393 -0.003664 -0.002460 0.000000 -0.000125 0.000000
# 2 -0.003664 0.010352 -0.004226 0.000000 0.000054 0.000000
# 3 -0.002460 -0.004226 0.011860 0.000000 0.000083 0.000000
# 4 0.000000 0.000000 0.000000 0.027959 0.000000 -0.000011
# 5 -0.000125 0.000054 0.000083 0.000000 0.053654 0.000000
# 6 0.000000 0.000000 0.000000 -0.000011 0.000000 0.027308
#
#
# Mechanical properties :
#
#
# Convention : Reuss Voigt Hill
#
# Bulk Modulus (GPa) = 83.98916 85.77723 84.88320
# Shear Modulus (GPa) = 30.08532 32.38693 31.23612
#
# Velocity S-wave (km/s) = 4.02402 4.17511 4.10026
# Velocity P-wave (km/s) = 8.17285 8.33124 8.25243
#
# Compressibility (1/GPa) = 0.01190630
#
# Stress axis : x y z
#
# Youngs Moduli (GPa) = 96.21691 96.59587 84.31739
#
# Poissons Ratio (x) = 0.35391 0.20743
# Poissons Ratio (y) = 0.35252 0.35630
# Poissons Ratio (z) = 0.23670 0.40818
#
# Static dielectric constant tensor:
#      x y z
#    x 3.094870 0.000000 0.006110 
#    y 0.000000 3.613060 0.000000 
#    z 0.006110 0.000000 3.308550 
# 
# 
# High freq. dielectric constant tensor:
#      x y z
#    x 1.734540 0.000000 0.000080 
#    y 0.000000 1.744880 0.000000 
#    z 0.000080 0.000000 1.707900 
# 
# From -- ./inp_files/48682.got.cif
#   From: 2010.06.25/outbox.cif.g09.slc.cpg/sg11_25_cif.got.tgz:48682.got - 2010.06.27 23:14:04.
