data_PCOD8074604
_publ_section_title
;
Structure prediction by ZEFSAII (Michael W. Deem and Ramdas Pophale) SiO2 
 PCOD8074604
Probable space group: P 21/M
;
_chemical_formula_sum "Si O2"
_cell_formula_units_Z 28
_cell_length_a 18.412936
_cell_length_b 9.312796
_cell_length_c 14.587230
_cell_angle_alpha 90.000000
_cell_angle_beta 146.359801
_cell_angle_gamma 90.000000
_cell_volume 1385.692138
_symmetry_space_group_name_H-M "P 21/M"
_symmetry_group_IT_number 11
_symmetry_cell_setting 'monoclinic'
loop_
_space_group_symop_operation_xyz
x,y,z
-x,1/2+y,-z
-x,-y,-z
x,1/2-y,z
loop_
_atom_site_type_symbol
_atom_site_label
_atom_site_fract_x
_atom_site_fract_y
_atom_site_fract_z
Si Si1 0.966316 0.420285 0.801935
Si Si2 0.952730 0.417360 0.587465
Si Si3 0.829456 0.409902 0.275378
Si Si4 0.528977 0.413618 0.938666
Si Si5 0.498515 0.416756 0.270046
Si Si6 0.260265 0.081298 0.147196
Si Si7 0.282167 0.918779 0.350758
O O1 0.968559 0.250000 0.806483
O O2 0.860909 0.475017 0.765475
O O3 0.915341 0.475677 0.648855
O O4 0.113354 0.478603 0.974249
O O5 0.978858 0.250000 0.622293
O O6 0.091085 0.482819 0.703989
O O7 0.840685 0.456075 0.395081
O O8 0.889238 0.250000 0.328423
O O9 0.683421 0.413731 0.087182
O O10 0.475436 0.250000 0.889897
O O11 0.469717 0.491167 0.787243
O O12 0.500000 0.500000 0.000000
O O13 0.507572 0.250000 0.251728
O O14 0.355177 0.453199 0.161143
O O15 0.609082 0.456731 0.459784
O O16 0.260068 0.250000 0.167501
O O17 0.318750 0.001925 0.297021
O O18 0.280717 0.750000 0.328574
#
# Coordination Sequence:
#
# PCOD8074604 Si02
#       7
#     4   4   4   4   4   4   4
#     4   9  18  32  54  80 108 145 185 224 277 335
#     4   9  17  32  56  79 105 144 184 225 272 332
#     4   9  19  34  53  79 109 142 183 229 275 326
#     4  11  24  39  58  84 115 150 189 233 281 334
#     4  10  22  39  60  83 110 149 192 232 282 341
#     4  10  20  36  57  83 113 146 187 233 281 336
#     4  10  21  36  57  83 111 148 189 231 283 338
#
# _framework density 20.206506999999998
#
# number of rings (size 3 to 8) (size 9 to 14) (size 15 to 20)
#    0.000    2.286    0.000    2.143    2.000    3.429 
#    0.000    1.429    0.000    0.000    0.000    0.000 
#    0.000    0.000    0.000    0.000    0.000    0.000 
#
# Total GULP energy -347136.805777 kJ/mol
# GULP energy per Si atom -12397.743063 kJ/mol
# Density = 2.016052 g / cm^3
# Si number density = 20.206507 Si / 1000 Ang^3
#
#
#
# Elastic Constant Matrix: (Units=GPa)
#
#
# Indices 1 2 3 4 5 6 
#
# 1 83.0060 35.8032 22.7466 0.0000 -19.5742 0.0000
# 2 35.8032 57.9905 27.0664 0.0000 -16.5990 0.0000
# 3 22.7466 27.0664 73.9259 0.0000 -7.0296 0.0000
# 4 0.0000 0.0000 0.0000 24.9267 0.0000 -7.7877
# 5 -19.5742 -16.5990 -7.0296 0.0000 38.9547 0.0000
# 6 0.0000 0.0000 0.0000 -7.7877 0.0000 30.3746
#
#
#
# Elastic Compliance Matrix: (Units=1/GPa)
#
#
# Indices 1 2 3 4 5 6 
#
# 1 0.017324 -0.008511 -0.001762 0.000000 0.004760 0.000000
# 2 -0.008511 0.027468 -0.006849 0.000000 0.006192 0.000000
# 3 -0.001762 -0.006849 0.016498 0.000000 -0.000827 0.000000
# 4 0.000000 0.000000 0.000000 0.043611 0.000000 0.011181
# 5 0.004760 0.006192 -0.000827 0.000000 0.030552 0.000000
# 6 0.000000 0.000000 0.000000 0.011181 0.000000 0.035789
#
#
# Mechanical properties :
#
#
# Convention : Reuss Voigt Hill
#
# Bulk Modulus (GPa) = 36.97359 42.90608 39.93983
# Shear Modulus (GPa) = 23.30998 27.47165 25.39081
#
# Velocity S-wave (km/s) = 3.40014 3.69120 3.54865
# Velocity P-wave (km/s) = 5.80966 6.28065 6.04974
#
# Compressibility (1/GPa) = 0.02704633
#
# Stress axis : x y z
#
# Youngs Moduli (GPa) = 57.72471 36.40630 60.61248
#
# Poissons Ratio (x) = 0.30984 0.10678
# Poissons Ratio (y) = 0.49128 0.41515
# Poissons Ratio (z) = 0.10169 0.24936
#
# Static dielectric constant tensor:
#      x y z
#    x 3.771940 0.000000 -0.019110 
#    y 0.000000 3.562900 0.000000 
#    z -0.019110 0.000000 3.781530 
# 
# 
# High freq. dielectric constant tensor:
#      x y z
#    x 1.791350 0.000000 -0.006940 
#    y 0.000000 1.765140 0.000000 
#    z -0.006940 0.000000 1.797340 
# 
# From -- ./inp_files/54482.got.cif
#   From: 2010.06.25/outbox.cif.g09.slc.cpg/sg11_28_cif.got.tgz:54482.got - 2010.06.27 23:14:04.
