data_PCOD8074938
_publ_section_title
;
Structure prediction by ZEFSAII (Michael W. Deem and Ramdas Pophale) SiO2 
 PCOD8074938
Probable space group: P 21/M
;
_chemical_formula_sum "Si O2"
_cell_formula_units_Z 20
_cell_length_a 7.671133
_cell_length_b 17.138784
_cell_length_c 10.980664
_cell_angle_alpha 90.000000
_cell_angle_beta 43.737175
_cell_angle_gamma 90.000000
_cell_volume 998.083631
_symmetry_space_group_name_H-M "P 21/M"
_symmetry_group_IT_number 11
_symmetry_cell_setting 'monoclinic'
loop_
_space_group_symop_operation_xyz
x,y,z
-x,1/2+y,-z
-x,-y,-z
x,1/2-y,z
loop_
_atom_site_type_symbol
_atom_site_label
_atom_site_fract_x
_atom_site_fract_y
_atom_site_fract_z
Si Si1 0.771259 0.836927 0.874260
Si Si2 0.556498 0.992998 0.653422
Si Si3 0.193846 0.336728 0.428787
Si Si4 0.087834 0.978922 0.741964
Si Si5 0.268358 0.910004 0.211324
O O1 0.824969 0.750000 0.897648
O O2 0.828977 0.841990 0.703430
O O3 0.956201 0.897858 0.847599
O O4 0.480062 0.857096 0.043815
O O5 0.606485 0.899940 0.623338
O O6 0.265907 0.007627 0.762804
O O7 0.743478 0.034986 0.463933
O O8 0.607618 0.026375 0.761106
O O9 0.280899 0.250000 0.425769
O O10 0.918924 0.353644 0.622202
O O11 0.874090 0.043555 0.824378
#
# Coordination Sequence:
#
# PCOD8074938 Si02
#       5
#     4   4   4   4   4
#     4  11  22  36  58  84 112 149 186 226 280 330
#     4  10  20  36  62  85 108 149 189 223 281 330
#     4  10  20  37  58  81 114 148 181 230 281 328
#     4  10  20  37  60  86 110 143 192 230 271 331
#     4  11  20  39  59  81 111 150 184 231 274 330
#
# _framework density 20.038401
#
# number of rings (size 3 to 8) (size 9 to 14) (size 15 to 20)
#    0.000    1.600    4.000    2.400    0.000    1.600 
#    0.000    0.000    0.000    2.400    0.000    0.000 
#    0.000    0.000    0.000    0.000    0.000    0.000 
#
# Total GULP energy -248026.386290 kJ/mol
# GULP energy per Si atom -12401.319314 kJ/mol
# Density = 1.999279 g / cm^3
# Si number density = 20.038401 Si / 1000 Ang^3
#
#
#
# Elastic Constant Matrix: (Units=GPa)
#
#
# Indices 1 2 3 4 5 6 
#
# 1 90.5216 30.3184 4.7556 0.0000 -13.8810 0.0000
# 2 30.3184 110.2398 36.3239 0.0000 -5.2104 0.0000
# 3 4.7556 36.3239 56.0020 0.0000 -16.8045 0.0000
# 4 0.0000 0.0000 0.0000 17.2032 0.0000 -3.4602
# 5 -13.8810 -5.2104 -16.8045 0.0000 16.6436 0.0000
# 6 0.0000 0.0000 0.0000 -3.4602 0.0000 16.7166
#
#
#
# Elastic Compliance Matrix: (Units=1/GPa)
#
#
# Indices 1 2 3 4 5 6 
#
# 1 0.015749 -0.006259 0.008717 0.000000 0.019976 0.000000
# 2 -0.006259 0.014408 -0.012950 0.000000 -0.013785 0.000000
# 3 0.008717 -0.012950 0.037991 0.000000 0.041574 0.000000
# 4 0.000000 0.000000 0.000000 0.060654 0.000000 0.012555
# 5 0.019976 -0.013785 0.041574 0.000000 0.114404 0.000000
# 6 0.000000 0.000000 0.000000 0.012555 0.000000 0.062420
#
#
# Mechanical properties :
#
#
# Convention : Reuss Voigt Hill
#
# Bulk Modulus (GPa) = 21.20329 44.39550 32.79939
# Shear Modulus (GPa) = 14.60567 22.47038 18.53803
#
# Velocity S-wave (km/s) = 2.70271 3.35231 3.04489
# Velocity P-wave (km/s) = 4.51042 6.09814 5.36336
#
# Compressibility (1/GPa) = 0.04716250
#
# Stress axis : x y z
#
# Youngs Moduli (GPa) = 63.49693 69.40502 26.32172
#
# Poissons Ratio (x) = 0.43443 -0.22944
# Poissons Ratio (y) = 0.39744 0.34088
# Poissons Ratio (z) = -0.55349 0.89883
#
# Static dielectric constant tensor:
#      x y z
#    x 3.440260 0.000000 -0.133630 
#    y 0.000000 3.809880 0.000000 
#    z -0.133630 0.000000 3.669940 
# 
# 
# High freq. dielectric constant tensor:
#      x y z
#    x 1.760570 0.000000 -0.010640 
#    y 0.000000 1.779020 0.000000 
#    z -0.010640 0.000000 1.790380 
# 
# From -- ./inp_files/12230.got.cif
#   From: 2010.06.25/outbox.cif.g09.slc.cpg/sg11_7_cif.got.tgz:12230.got - 2010.06.27 23:14:04.
