data_PCOD8074622
_publ_section_title
;
Structure prediction by ZEFSAII (Michael W. Deem and Ramdas Pophale) SiO2 
 PCOD8074622
Probable space group: P 21/M
;
_chemical_formula_sum "Si O2"
_cell_formula_units_Z 32
_cell_length_a 11.907695
_cell_length_b 8.852110
_cell_length_c 28.847658
_cell_angle_alpha 90.000000
_cell_angle_beta 31.042756
_cell_angle_gamma 90.000000
_cell_volume 1568.062299
_symmetry_space_group_name_H-M "P 21/M"
_symmetry_group_IT_number 11
_symmetry_cell_setting 'monoclinic'
loop_
_space_group_symop_operation_xyz
x,y,z
-x,1/2+y,-z
-x,-y,-z
x,1/2-y,z
loop_
_atom_site_type_symbol
_atom_site_label
_atom_site_fract_x
_atom_site_fract_y
_atom_site_fract_z
Si Si1 0.088084 0.074438 0.828549
Si Si2 0.194687 0.923305 0.320515
Si Si3 0.271792 0.075586 0.472499
Si Si4 0.878699 0.429817 0.998940
Si Si5 0.608941 0.573927 0.835263
Si Si6 0.391552 0.072000 0.583331
Si Si7 0.024252 0.072241 0.226452
Si Si8 0.591834 0.075797 0.661426
O O1 0.036534 0.250000 0.839020
O O2 0.343109 0.041593 0.737858
O O3 0.977628 0.983925 0.825693
O O4 0.995253 0.017925 0.910414
O O5 0.220976 0.750000 0.296558
O O6 0.364040 0.966527 0.300965
O O7 0.952032 0.958747 0.422875
O O8 0.242040 0.024813 0.259955
O O9 0.339177 0.250000 0.454160
O O10 0.457884 0.966687 0.426414
O O11 0.255077 0.030175 0.424448
O O12 0.886831 0.250000 0.001304
O O13 0.632975 0.496941 0.082163
O O14 0.000000 0.500000 0.000000
O O15 0.575987 0.750000 0.843647
O O16 0.736778 0.532099 0.837386
O O17 0.372437 0.250000 0.582830
O O18 0.500000 0.000000 0.500000
O O19 0.152185 0.008428 0.678169
O O20 0.977318 0.250000 0.244484
O O21 0.656235 0.250000 0.630231
#
# Coordination Sequence:
#
# PCOD8074622 Si02
#       8
#     4   4   4   4   4   4   4   4
#     4  10  21  38  62  89 121 162 202 248 306 364
#     4  10  22  38  58  86 120 159 203 249 302 365
#     4  11  22  36  56  86 119 156 203 251 300 361
#     4  10  22  42  66  94 126 159 200 247 304 366
#     4  10  23  41  61  88 122 158 198 250 304 357
#     4  12  24  39  59  84 118 161 207 255 306 360
#     4  11  23  40  61  88 122 159 205 254 303 361
#     4  10  20  36  57  84 119 158 199 246 302 359
#
# _framework density 20.407354000000002
#
# number of rings (size 3 to 8) (size 9 to 14) (size 15 to 20)
#    0.000    1.500    1.250    3.750    0.000    7.000 
#    0.000    0.000    0.000    0.000    0.000    0.000 
#    0.000    0.000    0.000    0.000    0.000    0.000 
#
# Total GULP energy -396874.447731 kJ/mol
# GULP energy per Si atom -12402.326492 kJ/mol
# Density = 2.036091 g / cm^3
# Si number density = 20.407354 Si / 1000 Ang^3
#
#
#
# Elastic Constant Matrix: (Units=GPa)
#
#
# Indices 1 2 3 4 5 6 
#
# 1 124.5652 51.8495 41.8861 0.0000 0.2633 0.0000
# 2 51.8495 65.7365 39.8036 0.0000 -4.6105 0.0000
# 3 41.8861 39.8036 78.5298 0.0000 13.4147 0.0000
# 4 0.0000 0.0000 0.0000 22.4674 0.0000 3.0159
# 5 0.2633 -4.6105 13.4147 0.0000 35.7890 0.0000
# 6 0.0000 0.0000 0.0000 3.0159 0.0000 33.0299
#
#
#
# Elastic Compliance Matrix: (Units=1/GPa)
#
#
# Indices 1 2 3 4 5 6 
#
# 1 0.012251 -0.008311 -0.002269 0.000000 -0.000310 0.000000
# 2 -0.008311 0.029633 -0.012019 0.000000 0.008384 0.000000
# 3 -0.002269 -0.012019 0.021686 0.000000 -0.009660 0.000000
# 4 0.000000 0.000000 0.000000 0.045061 0.000000 -0.004114
# 5 -0.000310 0.008384 -0.009660 0.000000 0.032645 0.000000
# 6 0.000000 0.000000 0.000000 -0.004114 0.000000 0.030651
#
#
# Mechanical properties :
#
#
# Convention : Reuss Voigt Hill
#
# Bulk Modulus (GPa) = 54.42882 59.54554 56.98718
# Shear Modulus (GPa) = 22.39650 27.27676 24.83663
#
# Velocity S-wave (km/s) = 3.31641 3.65994 3.49240
# Velocity P-wave (km/s) = 6.43380 6.86309 6.65191
#
# Compressibility (1/GPa) = 0.01837262
#
# Stress axis : x y z
#
# Youngs Moduli (GPa) = 81.62724 33.74628 46.11178
#
# Poissons Ratio (x) = 0.28046 0.10462
# Poissons Ratio (y) = 0.67838 0.55422
# Poissons Ratio (z) = 0.18521 0.40560
#
# Static dielectric constant tensor:
#      x y z
#    x 3.944850 0.000000 -0.099620 
#    y 0.000000 3.618460 0.000000 
#    z -0.099620 0.000000 3.805680 
# 
# 
# High freq. dielectric constant tensor:
#      x y z
#    x 1.814610 0.000000 -0.000840 
#    y 0.000000 1.788430 0.000000 
#    z -0.000840 0.000000 1.800580 
# 
# From -- ./inp_files/73087.got.cif
#   From: 2010.06.25/outbox.cif.g09.slc.cpg/sg11_37_cif.got.tgz:73087.got - 2010.06.27 23:14:04.
