data_PCOD8074305
_publ_section_title
;
Structure prediction by ZEFSAII (Michael W. Deem and Ramdas Pophale) SiO2 
 PCOD8074305
Probable space group: P 21/M
;
_chemical_formula_sum "Si O2"
_cell_formula_units_Z 32
_cell_length_a 25.939872
_cell_length_b 8.768966
_cell_length_c 20.428454
_cell_angle_alpha 90.000000
_cell_angle_beta 158.417029
_cell_angle_gamma 90.000000
_cell_volume 1709.308082
_symmetry_space_group_name_H-M "P 21/M"
_symmetry_group_IT_number 11
_symmetry_cell_setting 'monoclinic'
loop_
_space_group_symop_operation_xyz
x,y,z
-x,1/2+y,-z
-x,-y,-z
x,1/2-y,z
loop_
_atom_site_type_symbol
_atom_site_label
_atom_site_fract_x
_atom_site_fract_y
_atom_site_fract_z
Si Si1 0.182672 0.426846 0.267389
Si Si2 0.087156 0.570856 0.544066
Si Si3 0.374581 0.077364 0.044440
Si Si4 0.091773 0.426790 0.013803
Si Si5 0.386409 0.074200 0.911485
Si Si6 0.889294 0.426188 0.215167
Si Si7 0.473889 0.573236 0.646143
Si Si8 0.747797 0.071274 0.915028
O O1 0.161871 0.250000 0.258979
O O2 0.160694 0.460623 0.165108
O O3 0.337605 0.476812 0.468981
O O4 0.069749 0.519632 0.176961
O O5 0.084000 0.750000 0.548230
O O6 0.243754 0.513057 0.730827
O O7 0.000000 0.500000 0.500000
O O8 0.020433 0.523924 0.395472
O O9 0.316892 0.250000 0.985378
O O10 0.493259 0.043799 0.238529
O O11 0.438763 0.055105 0.048197
O O12 0.246112 0.961668 0.900388
O O13 0.097508 0.250000 0.001326
O O14 0.181822 0.523502 0.069305
O O15 0.365572 0.250000 0.868438
O O16 0.500000 0.000000 0.000000
O O17 0.927275 0.250000 0.267774
O O18 0.855902 0.470566 0.100823
O O19 0.445749 0.750000 0.597815
O O20 0.602480 0.518191 0.752950
O O21 0.713517 0.250000 0.874386
#
# Coordination Sequence:
#
# PCOD8074305 Si02
#       8
#     4   4   4   4   4   4   4   4
#     4  10  21  38  59  84 114 150 191 233 280 335
#     4  12  23  37  60  87 113 149 193 236 281 336
#     4   9  19  36  58  81 111 149 188 231 281 337
#     4  10  21  38  60  84 113 151 190 231 282 336
#     4  11  23  40  59  83 115 151 191 236 287 339
#     4  10  20  35  58  86 114 146 188 234 284 336
#     4  10  20  36  59  86 113 148 191 232 280 338
#     4  10  21  37  58  86 118 149 186 235 285 331
#
# _framework density 18.721025000000001
#
# number of rings (size 3 to 8) (size 9 to 14) (size 15 to 20)
#    0.000    1.750    1.250    3.375    0.000    4.500 
#    2.250    0.000    0.000    0.000    0.000    0.000 
#    0.000    0.000    0.000    0.000    0.000    0.000 
#
# Total GULP energy -396922.165472 kJ/mol
# GULP energy per Si atom -12403.817671 kJ/mol
# Density = 1.867841 g / cm^3
# Si number density = 18.721025 Si / 1000 Ang^3
#
#
#
# Elastic Constant Matrix: (Units=GPa)
#
#
# Indices 1 2 3 4 5 6 
#
# 1 95.9765 35.2808 46.7442 0.0000 7.6839 0.0000
# 2 35.2808 91.3397 40.7655 0.0000 -1.4901 0.0000
# 3 46.7442 40.7655 119.1015 0.0000 3.5137 0.0000
# 4 0.0000 0.0000 0.0000 35.9478 0.0000 3.6756
# 5 7.6839 -1.4901 3.5137 0.0000 20.5838 0.0000
# 6 0.0000 0.0000 0.0000 3.6756 0.0000 31.0618
#
#
#
# Elastic Compliance Matrix: (Units=1/GPa)
#
#
# Indices 1 2 3 4 5 6 
#
# 1 0.014197 -0.003706 -0.004160 0.000000 -0.004858 0.000000
# 2 -0.003706 0.013949 -0.003408 0.000000 0.002975 0.000000
# 3 -0.004160 -0.003408 0.011213 0.000000 -0.000608 0.000000
# 4 0.000000 0.000000 0.000000 0.028159 0.000000 -0.003332
# 5 -0.004858 0.002975 -0.000608 0.000000 0.050715 0.000000
# 6 0.000000 0.000000 0.000000 -0.003332 0.000000 0.032588
#
#
# Mechanical properties :
#
#
# Convention : Reuss Voigt Hill
#
# Bulk Modulus (GPa) = 59.48377 61.33319 60.40848
# Shear Modulus (GPa) = 27.93740 29.76048 28.84894
#
# Velocity S-wave (km/s) = 3.86722 3.99141 3.92981
# Velocity P-wave (km/s) = 7.19606 7.35354 7.27523
#
# Compressibility (1/GPa) = 0.01681131
#
# Stress axis : x y z
#
# Youngs Moduli (GPa) = 70.43958 71.68947 89.18110
#
# Poissons Ratio (x) = 0.26570 0.37099
# Poissons Ratio (y) = 0.26106 0.30389
# Poissons Ratio (z) = 0.29302 0.24429
#
# Static dielectric constant tensor:
#      x y z
#    x 3.234350 0.000000 -0.410630 
#    y 0.000000 3.602080 0.000000 
#    z -0.410630 0.000000 3.166180 
# 
# 
# High freq. dielectric constant tensor:
#      x y z
#    x 1.720320 0.000000 -0.008920 
#    y 0.000000 1.743720 0.000000 
#    z -0.008920 0.000000 1.726880 
# 
# From -- ./inp_files/67153.got.cif
#   From: 2010.06.25/outbox.cif.g09.slc.cpg/sg11_34_cif.got.tgz:67153.got - 2010.06.27 23:14:04.
