data_PCOD8074529
_publ_section_title
;
Structure prediction by ZEFSAII (Michael W. Deem and Ramdas Pophale) SiO2 
 PCOD8074529
Probable space group: P 21/M
;
_chemical_formula_sum "Si O2"
_cell_formula_units_Z 28
_cell_length_a 22.625992
_cell_length_b 8.527964
_cell_length_c 9.288318
_cell_angle_alpha 90.000000
_cell_angle_beta 52.195278
_cell_angle_gamma 90.000000
_cell_volume 1416.036986
_symmetry_space_group_name_H-M "P 21/M"
_symmetry_group_IT_number 11
_symmetry_cell_setting 'monoclinic'
loop_
_space_group_symop_operation_xyz
x,y,z
-x,1/2+y,-z
-x,-y,-z
x,1/2-y,z
loop_
_atom_site_type_symbol
_atom_site_label
_atom_site_fract_x
_atom_site_fract_y
_atom_site_fract_z
Si Si1 0.060638 0.067190 0.015038
Si Si2 0.066308 0.568392 0.310337
Si Si3 0.371015 0.934472 0.026573
Si Si4 0.507371 0.434674 0.649257
Si Si5 0.769805 0.065414 0.941494
Si Si6 0.770130 0.930720 0.248363
Si Si7 0.637751 0.566208 0.646185
O O1 0.047063 0.250000 0.066712
O O2 0.047251 0.965391 0.175270
O O3 0.144487 0.036925 0.830715
O O4 0.000000 0.000000 0.000000
O O5 0.068766 0.750000 0.338379
O O6 0.148510 0.493829 0.222935
O O7 0.000000 0.500000 0.500000
O O8 0.384155 0.750000 0.980761
O O9 0.291584 0.992830 0.081197
O O10 0.374387 0.968741 0.190622
O O11 0.433103 0.032853 0.850803
O O12 0.500000 0.500000 0.500000
O O13 0.523382 0.250000 0.620640
O O14 0.574949 0.523906 0.624710
O O15 0.775620 0.250000 0.928280
O O16 0.747211 0.020332 0.137404
O O17 0.756673 0.750000 0.232582
O O18 0.717447 0.983452 0.458809
O O19 0.634102 0.750000 0.687903
#
# Coordination Sequence:
#
# PCOD8074529 Si02
#       7
#     4   4   4   4   4   4   4
#     4  10  20  36  56  82 113 149 189 234 283 336
#     4  10  20  36  56  82 113 149 189 234 283 336
#     4  11  23  40  60  86 117 151 188 232 281 332
#     4  12  25  42  63  88 116 150 188 230 277 334
#     4   9  20  37  58  82 111 146 189 233 280 335
#     4   9  20  37  58  82 111 146 189 233 280 335
#     4  11  23  40  60  86 117 151 188 232 281 332
#
# _framework density 19.773495
#
# number of rings (size 3 to 8) (size 9 to 14) (size 15 to 20)
#    0.000    1.714    0.000    4.286    0.000    6.857 
#    0.000    2.857    0.000    0.000    0.000    0.000 
#    0.000    0.000    0.000    0.000    0.000    0.000 
#
# Total GULP energy -347212.676754 kJ/mol
# GULP energy per Si atom -12400.452741 kJ/mol
# Density = 1.972849 g / cm^3
# Si number density = 19.773495 Si / 1000 Ang^3
#
#
#
# Elastic Constant Matrix: (Units=GPa)
#
#
# Indices 1 2 3 4 5 6 
#
# 1 127.3803 8.3927 47.6371 0.0000 -4.2080 0.0000
# 2 8.3927 39.0368 13.8665 0.0000 -8.4041 0.0000
# 3 47.6371 13.8665 137.8021 0.0000 -11.6782 0.0000
# 4 0.0000 0.0000 0.0000 35.0077 0.0000 3.7563
# 5 -4.2080 -8.4041 -11.6782 0.0000 25.4726 0.0000
# 6 0.0000 0.0000 0.0000 3.7563 0.0000 29.6524
#
#
#
# Elastic Compliance Matrix: (Units=1/GPa)
#
#
# Indices 1 2 3 4 5 6 
#
# 1 0.009045 -0.000904 -0.003053 0.000000 -0.000204 0.000000
# 2 -0.000904 0.028254 -0.001824 0.000000 0.008336 0.000000
# 3 -0.003053 -0.001824 0.008742 0.000000 0.002902 0.000000
# 4 0.000000 0.000000 0.000000 0.028959 0.000000 -0.003668
# 5 -0.000204 0.008336 0.002902 0.000000 0.043305 0.000000
# 6 0.000000 0.000000 0.000000 -0.003668 0.000000 0.034189
#
#
# Mechanical properties :
#
#
# Convention : Reuss Voigt Hill
#
# Bulk Modulus (GPa) = 29.00391 49.33464 39.16927
# Shear Modulus (GPa) = 28.48223 33.64807 31.06515
#
# Velocity S-wave (km/s) = 3.79941 4.12961 3.96795
# Velocity P-wave (km/s) = 5.82643 6.90958 6.39099
#
# Compressibility (1/GPa) = 0.03447811
#
# Stress axis : x y z
#
# Youngs Moduli (GPa) = 110.55666 35.39348 114.39453
#
# Poissons Ratio (x) = 0.03200 0.34926
# Poissons Ratio (y) = 0.09994 0.20867
# Poissons Ratio (z) = 0.33754 0.06456
#
# Static dielectric constant tensor:
#      x y z
#    x 3.916370 0.000000 -0.327180 
#    y 0.000000 3.678160 0.000000 
#    z -0.327180 0.000000 3.867440 
# 
# 
# High freq. dielectric constant tensor:
#      x y z
#    x 1.780540 0.000000 -0.010850 
#    y 0.000000 1.774170 0.000000 
#    z -0.010850 0.000000 1.777900 
# 
# From -- ./inp_files/26078.got.cif
#   From: 2010.06.25/outbox.cif.g09.slc.cpg/sg11_14_cif.got.tgz:26078.got - 2010.06.27 23:14:04.
