data_PCOD8074616
_publ_section_title
;
Structure prediction by ZEFSAII (Michael W. Deem and Ramdas Pophale) SiO2 
 PCOD8074616
Probable space group: P 21/M
;
_chemical_formula_sum "Si O2"
_cell_formula_units_Z 28
_cell_length_a 21.656114
_cell_length_b 8.991535
_cell_length_c 14.593427
_cell_angle_alpha 90.000000
_cell_angle_beta 30.135402
_cell_angle_gamma 90.000000
_cell_volume 1426.640272
_symmetry_space_group_name_H-M "P 21/M"
_symmetry_group_IT_number 11
_symmetry_cell_setting 'monoclinic'
loop_
_space_group_symop_operation_xyz
x,y,z
-x,1/2+y,-z
-x,-y,-z
x,1/2-y,z
loop_
_atom_site_type_symbol
_atom_site_label
_atom_site_fract_x
_atom_site_fract_y
_atom_site_fract_z
Si Si1 0.835072 0.924981 0.509057
Si Si2 0.880460 0.923981 0.252450
Si Si3 0.686301 0.921437 0.012422
Si Si4 0.391097 0.075223 0.086170
Si Si5 0.165355 0.576264 0.870726
Si Si6 0.616640 0.576272 0.303936
Si Si7 0.941321 0.075313 0.662656
O O1 0.822625 0.750000 0.528801
O O2 0.815021 0.977259 0.430203
O O3 0.733710 0.991321 0.708481
O O4 0.971840 0.970196 0.364015
O O5 0.861374 0.750000 0.256053
O O6 0.814335 0.018535 0.258634
O O7 0.025218 0.959289 0.077523
O O8 0.727687 0.750000 0.951922
O O9 0.608452 0.950399 0.204681
O O10 0.606105 0.965178 0.025665
O O11 0.806950 0.020548 0.859960
O O12 0.402079 0.250000 0.086887
O O13 0.500000 0.000000 0.000000
O O14 0.196192 0.750000 0.835895
O O15 0.256223 0.491793 0.822637
O O16 0.500000 0.500000 0.500000
O O17 0.614097 0.750000 0.330908
O O18 0.937455 0.250000 0.650355
O O19 0.000000 0.000000 0.500000
#
# Coordination Sequence:
#
# PCOD8074616 Si02
#       7
#     4   4   4   4   4   4   4
#     4   9  18  34  56  81 113 149 185 233 285 336
#     4   9  18  34  58  85 112 149 192 235 289 347
#     4  10  22  41  61  85 118 152 189 243 299 344
#     4  10  21  39  57  77 111 148 187 231 281 339
#     4  10  20  36  57  84 118 150 188 239 294 349
#     4  11  24  41  62  85 115 154 199 247 296 351
#     4  11  20  34  59  89 121 154 192 237 289 349
#
# _framework density 19.626531
#
# number of rings (size 3 to 8) (size 9 to 14) (size 15 to 20)
#    0.000    2.000    1.429    2.143    0.000    4.571 
#    0.000    5.000    0.000    0.000    0.000    0.000 
#    0.000    0.000    0.000    0.000    0.000    0.000 
#
# Total GULP energy -347160.321623 kJ/mol
# GULP energy per Si atom -12398.582915 kJ/mol
# Density = 1.958186 g / cm^3
# Si number density = 19.626531 Si / 1000 Ang^3
#
#
#
# Elastic Constant Matrix: (Units=GPa)
#
#
# Indices 1 2 3 4 5 6 
#
# 1 152.8991 51.3472 60.9823 0.0000 10.9787 0.0000
# 2 51.3472 78.6772 42.3335 0.0000 1.3759 0.0000
# 3 60.9823 42.3335 89.8412 0.0000 12.2729 0.0000
# 4 0.0000 0.0000 0.0000 29.8560 0.0000 -4.5580
# 5 10.9787 1.3759 12.2729 0.0000 36.7512 0.0000
# 6 0.0000 0.0000 0.0000 -4.5580 0.0000 34.3900
#
#
#
# Elastic Compliance Matrix: (Units=1/GPa)
#
#
# Indices 1 2 3 4 5 6 
#
# 1 0.009779 -0.003857 -0.004654 0.000000 -0.001223 0.000000
# 2 -0.003857 0.018711 -0.006559 0.000000 0.002642 0.000000
# 3 -0.004654 -0.006559 0.017977 0.000000 -0.004368 0.000000
# 4 0.000000 0.000000 0.000000 0.034186 0.000000 0.004531
# 5 -0.001223 0.002642 -0.004368 0.000000 0.028935 0.000000
# 6 0.000000 0.000000 0.000000 0.004531 0.000000 0.029679
#
#
# Mechanical properties :
#
#
# Convention : Reuss Voigt Hill
#
# Bulk Modulus (GPa) = 61.24820 70.08260 65.66540
# Shear Modulus (GPa) = 28.59622 31.31642 29.95632
#
# Velocity S-wave (km/s) = 3.82123 3.99885 3.91105
# Velocity P-wave (km/s) = 7.12346 7.55690 7.34338
#
# Compressibility (1/GPa) = 0.01632701
#
# Stress axis : x y z
#
# Youngs Moduli (GPa) = 102.25615 53.44590 55.62710
#
# Poissons Ratio (x) = 0.20614 0.25886
# Poissons Ratio (y) = 0.39441 0.36488
# Poissons Ratio (z) = 0.47585 0.35057
#
# Static dielectric constant tensor:
#      x y z
#    x 3.756400 0.000000 0.205750 
#    y 0.000000 3.437380 0.000000 
#    z 0.205750 0.000000 4.078710 
# 
# 
# High freq. dielectric constant tensor:
#      x y z
#    x 1.778510 0.000000 0.011950 
#    y 0.000000 1.752690 0.000000 
#    z 0.011950 0.000000 1.759210 
# 
# From -- ./inp_files/37492.got.cif
#   From: 2010.06.25/outbox.cif.g09.slc.cpg/sg11_19_cif.got.tgz:37492.got - 2010.06.27 23:14:04.
