data_PCOD8074772
_publ_section_title
;
Structure prediction by ZEFSAII (Michael W. Deem and Ramdas Pophale) SiO2 
 PCOD8074772
Probable space group: P 21/M
;
_chemical_formula_sum "Si O2"
_cell_formula_units_Z 32
_cell_length_a 29.044720
_cell_length_b 8.758177
_cell_length_c 11.949375
_cell_angle_alpha 90.000000
_cell_angle_beta 149.097270
_cell_angle_gamma 90.000000
_cell_volume 1561.119009
_symmetry_space_group_name_H-M "P 21/M"
_symmetry_group_IT_number 11
_symmetry_cell_setting 'monoclinic'
loop_
_space_group_symop_operation_xyz
x,y,z
-x,1/2+y,-z
-x,-y,-z
x,1/2-y,z
loop_
_atom_site_type_symbol
_atom_site_label
_atom_site_fract_x
_atom_site_fract_y
_atom_site_fract_z
Si Si1 0.670201 0.429868 0.118860
Si Si2 0.725882 0.429967 0.475842
Si Si3 0.191933 0.920236 0.983861
Si Si4 0.835509 0.426672 0.323123
Si Si5 0.497696 0.568287 0.371126
Si Si6 0.020490 0.577302 0.753458
Si Si7 0.333843 0.072497 0.423775
Si Si8 0.080519 0.428944 0.097992
O O1 0.665706 0.250000 0.094524
O O2 0.667741 0.475274 0.244658
O O3 0.764249 0.487915 0.264519
O O4 0.587057 0.498306 0.875263
O O5 0.740085 0.250000 0.514190
O O6 0.669618 0.486755 0.464895
O O7 0.823839 0.503076 0.668124
O O8 0.225064 0.750000 0.086783
O O9 0.210875 0.950563 0.893654
O O10 0.085236 0.934111 0.781021
O O11 0.243436 0.042404 0.166409
O O12 0.862009 0.250000 0.398022
O O13 0.921996 0.530884 0.511956
O O14 0.500000 0.500000 0.500000
O O15 0.495310 0.750000 0.377343
O O16 0.583763 0.513740 0.479660
O O17 0.018225 0.750000 0.796320
O O18 0.061556 0.463490 0.929706
O O19 0.342260 0.250000 0.468388
O O20 0.083491 0.250000 0.125558
O O21 0.000000 0.500000 0.000000
#
# Coordination Sequence:
#
# PCOD8074772 Si02
#       8
#     4   4   4   4   4   4   4   4
#     4   9  20  39  62  86 118 157 200 249 303 362
#     4  11  22  39  62  88 120 163 209 250 302 366
#     4  10  21  37  59  85 119 162 207 249 302 372
#     4  10  20  36  59  86 116 159 206 254 311 363
#     4  10  22  42  66  94 124 157 201 249 306 369
#     4  11  22  36  55  85 121 160 204 251 302 365
#     4  11  23  38  61  91 123 160 203 258 312 362
#     4  12  24  39  60  86 120 163 207 257 307 359
#
# _framework density 20.498118000000002
#
# number of rings (size 3 to 8) (size 9 to 14) (size 15 to 20)
#    0.000    1.500    1.250    4.125    0.000    4.500 
#    0.000    2.500    0.000    0.000    0.000    0.000 
#    0.000    0.000    0.000    0.000    0.000    0.000 
#
# Total GULP energy -396847.407645 kJ/mol
# GULP energy per Si atom -12401.481489 kJ/mol
# Density = 2.045146 g / cm^3
# Si number density = 20.498118 Si / 1000 Ang^3
#
#
#
# Elastic Constant Matrix: (Units=GPa)
#
#
# Indices 1 2 3 4 5 6 
#
# 1 154.2088 49.7492 65.3354 0.0000 -0.9353 0.0000
# 2 49.7492 82.5064 36.0309 0.0000 -2.6821 0.0000
# 3 65.3354 36.0309 121.0691 0.0000 -3.3842 0.0000
# 4 0.0000 0.0000 0.0000 21.3278 0.0000 -2.9630
# 5 -0.9353 -2.6821 -3.3842 0.0000 33.1672 0.0000
# 6 0.0000 0.0000 0.0000 -2.9630 0.0000 28.6514
#
#
#
# Elastic Compliance Matrix: (Units=1/GPa)
#
#
# Indices 1 2 3 4 5 6 
#
# 1 0.009427 -0.003990 -0.003912 0.000000 -0.000456 0.000000
# 2 -0.003990 0.015636 -0.002475 0.000000 0.000899 0.000000
# 3 -0.003912 -0.002475 0.011131 0.000000 0.000825 0.000000
# 4 0.000000 0.000000 0.000000 0.047571 0.000000 0.004920
# 5 -0.000456 0.000899 0.000825 0.000000 0.030294 0.000000
# 6 0.000000 0.000000 0.000000 0.004920 0.000000 0.035411
#
#
# Mechanical properties :
#
#
# Convention : Reuss Voigt Hill
#
# Bulk Modulus (GPa) = 64.77306 73.33503 69.05405
# Shear Modulus (GPa) = 28.51083 30.40720 29.45901
#
# Velocity S-wave (km/s) = 3.73352 3.85569 3.79510
# Velocity P-wave (km/s) = 7.08898 7.46163 7.27769
#
# Compressibility (1/GPa) = 0.01543852
#
# Stress axis : x y z
#
# Youngs Moduli (GPa) = 106.07915 63.95323 89.84142
#
# Poissons Ratio (x) = 0.25520 0.35150
# Poissons Ratio (y) = 0.42330 0.22235
# Poissons Ratio (z) = 0.41503 0.15828
#
# Static dielectric constant tensor:
#      x y z
#    x 4.014400 0.000000 0.050160 
#    y 0.000000 3.715900 0.000000 
#    z 0.050160 0.000000 3.747240 
# 
# 
# High freq. dielectric constant tensor:
#      x y z
#    x 1.818180 0.000000 -0.002080 
#    y 0.000000 1.787540 0.000000 
#    z -0.002080 0.000000 1.800670 
# 
# From -- ./inp_files/45368.got.cif
#   From: 2010.06.25/outbox.cif.g09.slc.cpg/sg11_23_cif.got.tgz:45368.got - 2010.06.27 23:14:04.
