data_PCOD8074973
_publ_section_title
;
Structure prediction by ZEFSAII (Michael W. Deem and Ramdas Pophale) SiO2 
 PCOD8074973
Probable space group: P 21/M
;
_chemical_formula_sum "Si O2"
_cell_formula_units_Z 32
_cell_length_a 11.522655
_cell_length_b 13.874489
_cell_length_c 9.501670
_cell_angle_alpha 90.000000
_cell_angle_beta 81.001721
_cell_angle_gamma 90.000000
_cell_volume 1500.346231
_symmetry_space_group_name_H-M "P 21/M"
_symmetry_group_IT_number 11
_symmetry_cell_setting 'monoclinic'
loop_
_space_group_symop_operation_xyz
x,y,z
-x,1/2+y,-z
-x,-y,-z
x,1/2-y,z
loop_
_atom_site_type_symbol
_atom_site_label
_atom_site_fract_x
_atom_site_fract_y
_atom_site_fract_z
Si Si1 0.828435 0.440112 0.326268
Si Si2 0.051075 0.140111 0.212454
Si Si3 0.070598 0.097312 0.899782
Si Si4 0.188387 0.858948 0.127400
Si Si5 0.604893 0.642836 0.791161
Si Si6 0.681709 0.648255 0.083907
Si Si7 0.353592 0.561948 0.854722
Si Si8 0.219175 0.010862 0.355270
O O1 0.897428 0.512501 0.211095
O O2 0.702708 0.409015 0.285156
O O3 0.811316 0.486324 0.480410
O O4 0.919996 0.351491 0.305814
O O5 0.091493 0.250000 0.170826
O O6 0.129513 0.091143 0.316985
O O7 0.054161 0.071541 0.070200
O O8 0.187563 0.163115 0.879065
O O9 0.951431 0.149123 0.872894
O O10 0.237166 0.750000 0.127664
O O11 0.215950 0.912254 0.268057
O O12 0.256439 0.916168 0.991865
O O13 0.609603 0.750000 0.723823
O O14 0.471218 0.620399 0.860444
O O15 0.652279 0.562191 0.673718
O O16 0.687337 0.636736 0.913358
O O17 0.614314 0.750000 0.132433
O O18 0.618007 0.553058 0.155935
#
# Coordination Sequence:
#
# PCOD8074973 Si02
#       8
#     4   4   4   4   4   4   4   4
#     4  11  25  42  64  93 135 175 206 264 324 387
#     4  12  22  39  67  95 126 170 214 263 325 386
#     4  11  21  40  65  96 131 165 212 263 316 376
#     4  12  24  39  65  98 132 169 216 268 322 382
#     4  11  23  42  68  93 124 170 220 270 320 376
#     4  10  20  36  63  97 127 161 207 264 323 375
#     4  11  23  42  67  95 126 165 221 278 320 368
#     4  12  25  44  62  91 138 173 218 257 321 389
#
# _framework density 21.328409000000001
#
# number of rings (size 3 to 8) (size 9 to 14) (size 15 to 20)
#    0.000    0.750    5.000    3.750    0.000    1.500 
#    0.000    6.875    0.000    0.000    0.000    0.000 
#    0.000    0.000    0.000    0.000    0.000    0.000 
#
# Total GULP energy -396514.815536 kJ/mol
# GULP energy per Si atom -12391.087985 kJ/mol
# Density = 2.127986 g / cm^3
# Si number density = 21.328409 Si / 1000 Ang^3
#
#
#
# Elastic Constant Matrix: (Units=GPa)
#
#
# Indices 1 2 3 4 5 6 
#
# 1 76.5590 40.7342 34.5569 0.0000 0.0447 0.0000
# 2 40.7342 105.8653 43.4798 0.0000 3.2822 0.0000
# 3 34.5569 43.4798 107.6277 0.0000 5.0545 0.0000
# 4 0.0000 0.0000 0.0000 11.8960 0.0000 -7.8150
# 5 0.0447 3.2822 5.0545 0.0000 16.5604 0.0000
# 6 0.0000 0.0000 0.0000 -7.8150 0.0000 19.7938
#
#
#
# Elastic Compliance Matrix: (Units=1/GPa)
#
#
# Indices 1 2 3 4 5 6 
#
# 1 0.017510 -0.005339 -0.003564 0.000000 0.002099 0.000000
# 2 -0.005339 0.012965 -0.003453 0.000000 -0.001501 0.000000
# 3 -0.003564 -0.003453 0.011969 0.000000 -0.002959 0.000000
# 4 0.000000 0.000000 0.000000 0.113502 0.000000 0.044813
# 5 0.002099 -0.001501 -0.002959 0.000000 0.061580 0.000000
# 6 0.000000 0.000000 0.000000 0.044813 0.000000 0.068214
#
#
# Mechanical properties :
#
#
# Convention : Reuss Voigt Hill
#
# Bulk Modulus (GPa) = 56.39146 58.62154 57.50650
# Shear Modulus (GPa) = 15.80466 21.06876 18.43671
#
# Velocity S-wave (km/s) = 2.72511 3.14638 2.94329
# Velocity P-wave (km/s) = 6.03313 6.38314 6.21060
#
# Compressibility (1/GPa) = 0.01773318
#
# Stress axis : x y z
#
# Youngs Moduli (GPa) = 57.11115 77.13168 83.54594
#
# Poissons Ratio (x) = 0.41178 0.29774
# Poissons Ratio (y) = 0.30490 0.28848
# Poissons Ratio (z) = 0.20353 0.26633
#
# Static dielectric constant tensor:
#      x y z
#    x 3.983520 0.000000 0.159740 
#    y 0.000000 3.929520 0.000000 
#    z 0.159740 0.000000 3.550500 
# 
# 
# High freq. dielectric constant tensor:
#      x y z
#    x 1.841470 0.000000 0.008390 
#    y 0.000000 1.846020 0.000000 
#    z 0.008390 0.000000 1.799190 
# 
# From -- ./inp_files/18045.got.cif
#   From: 2010.06.25/outbox.cif.g09.slc.cpg/sg11_10_cif.got.tgz:18045.got - 2010.06.27 23:14:04.
