data_PCOD8074862
_publ_section_title
;
Structure prediction by ZEFSAII (Michael W. Deem and Ramdas Pophale) SiO2 
 PCOD8074862
Probable space group: P 21/M
;
_chemical_formula_sum "Si O2"
_cell_formula_units_Z 32
_cell_length_a 31.848018
_cell_length_b 8.763911
_cell_length_c 12.589599
_cell_angle_alpha 90.000000
_cell_angle_beta 152.289605
_cell_angle_gamma 90.000000
_cell_volume 1633.983680
_symmetry_space_group_name_H-M "P 21/M"
_symmetry_group_IT_number 11
_symmetry_cell_setting 'monoclinic'
loop_
_space_group_symop_operation_xyz
x,y,z
-x,1/2+y,-z
-x,-y,-z
x,1/2-y,z
loop_
_atom_site_type_symbol
_atom_site_label
_atom_site_fract_x
_atom_site_fract_y
_atom_site_fract_z
Si Si1 0.187060 0.572790 0.653174
Si Si2 0.296878 0.428619 0.711173
Si Si3 0.981399 0.577144 0.193676
Si Si4 0.077556 0.925949 0.739027
Si Si5 0.759273 0.571173 0.001725
Si Si6 0.673862 0.430947 0.623272
Si Si7 0.789230 0.924526 0.699247
Si Si8 0.503264 0.927660 0.892848
O O1 0.201395 0.750000 0.702874
O O2 0.250828 0.516825 0.703302
O O3 0.218192 0.496065 0.832704
O O4 0.083224 0.537081 0.384424
O O5 0.276573 0.250000 0.678347
O O6 0.257783 0.490245 0.511841
O O7 0.402900 0.466566 0.955148
O O8 0.982506 0.750000 0.244651
O O9 0.953345 0.443677 0.210279
O O10 0.898707 0.566469 0.924071
O O11 0.095748 0.750000 0.750259
O O12 0.162967 0.029657 0.907028
O O13 0.000000 0.000000 0.500000
O O14 0.746074 0.750000 0.986074
O O15 0.675352 0.500476 0.747191
O O16 0.681065 0.250000 0.649778
O O17 0.755114 0.483135 0.726326
O O18 0.578796 0.488425 0.362707
O O19 0.759166 0.750000 0.650049
O O20 0.492862 0.750000 0.887985
O O21 0.500000 0.000000 0.000000
#
# Coordination Sequence:
#
# PCOD8074862 Si02
#       8
#     4   4   4   4   4   4   4   4
#     4  11  24  41  60  84 120 164 210 254 297 357
#     4  10  22  41  62  87 121 161 204 247 300 367
#     4  10  21  36  56  85 121 161 203 249 300 351
#     4  12  22  33  54  85 118 156 202 251 298 350
#     4  12  24  39  60  86 121 162 204 251 307 364
#     4  11  22  36  59  95 128 152 194 254 309 362
#     4  10  20  36  60  88 122 160 199 244 300 362
#     4  10  21  38  64  95 124 155 195 249 306 364
#
# _framework density 19.584039000000001
#
# number of rings (size 3 to 8) (size 9 to 14) (size 15 to 20)
#    0.000    1.250    3.750    3.000    0.000    2.500 
#    0.000    0.625    0.000    0.000    0.000    0.000 
#    0.000    0.000    0.000    0.000    0.000    0.000 
#
# Total GULP energy -396534.903788 kJ/mol
# GULP energy per Si atom -12391.715743 kJ/mol
# Density = 1.953947 g / cm^3
# Si number density = 19.584039 Si / 1000 Ang^3
#
#
#
# Elastic Constant Matrix: (Units=GPa)
#
#
# Indices 1 2 3 4 5 6 
#
# 1 82.3940 35.8504 44.6820 0.0000 0.8856 0.0000
# 2 35.8504 77.5182 42.6379 0.0000 -4.1298 0.0000
# 3 44.6820 42.6379 152.8271 0.0000 -0.1941 0.0000
# 4 0.0000 0.0000 0.0000 26.8408 0.0000 -3.3455
# 5 0.8856 -4.1298 -0.1941 0.0000 25.1890 0.0000
# 6 0.0000 0.0000 0.0000 -3.3455 0.0000 31.4932
#
#
#
# Elastic Compliance Matrix: (Units=1/GPa)
#
#
# Indices 1 2 3 4 5 6 
#
# 1 0.016456 -0.005962 -0.003150 0.000000 -0.001580 0.000000
# 2 -0.005962 0.017554 -0.003150 0.000000 0.003063 0.000000
# 3 -0.003150 -0.003150 0.008343 0.000000 -0.000341 0.000000
# 4 0.000000 0.000000 0.000000 0.037757 0.000000 0.004011
# 5 -0.001580 0.003063 -0.000341 0.000000 0.040255 0.000000
# 6 0.000000 0.000000 0.000000 0.004011 0.000000 0.032179
#
#
# Mechanical properties :
#
#
# Convention : Reuss Voigt Hill
#
# Bulk Modulus (GPa) = 56.09245 62.11997 59.10621
# Shear Modulus (GPa) = 27.32084 29.34253 28.33169
#
# Velocity S-wave (km/s) = 3.73910 3.87497 3.80764
# Velocity P-wave (km/s) = 6.88079 7.19785 7.04111
#
# Compressibility (1/GPa) = 0.01782771
#
# Stress axis : x y z
#
# Youngs Moduli (GPa) = 60.76747 56.96848 119.86473
#
# Poissons Ratio (x) = 0.33966 0.37756
# Poissons Ratio (y) = 0.36231 0.37761
# Poissons Ratio (z) = 0.19141 0.17947
#
# Static dielectric constant tensor:
#      x y z
#    x 3.350470 0.000000 -0.011490 
#    y 0.000000 3.536040 0.000000 
#    z -0.011490 0.000000 4.067150 
# 
# 
# High freq. dielectric constant tensor:
#      x y z
#    x 1.734170 0.000000 -0.005540 
#    y 0.000000 1.763650 0.000000 
#    z -0.005540 0.000000 1.786320 
# 
# From -- ./inp_files/45258.got.cif
#   From: 2010.06.25/outbox.cif.g09.slc.cpg/sg11_23_cif.got.tgz:45258.got - 2010.06.27 23:14:04.
