data_PCOD8074031
_publ_section_title
;
Structure prediction by ZEFSAII (Michael W. Deem and Ramdas Pophale) SiO2 
 PCOD8074031
Probable space group: P 21/M
;
_chemical_formula_sum "Si O2"
_cell_formula_units_Z 32
_cell_length_a 28.678145
_cell_length_b 8.823718
_cell_length_c 11.875693
_cell_angle_alpha 90.000000
_cell_angle_beta 148.856081
_cell_angle_gamma 90.000000
_cell_volume 1554.215961
_symmetry_space_group_name_H-M "P 21/M"
_symmetry_group_IT_number 11
_symmetry_cell_setting 'monoclinic'
loop_
_space_group_symop_operation_xyz
x,y,z
-x,1/2+y,-z
-x,-y,-z
x,1/2-y,z
loop_
_atom_site_type_symbol
_atom_site_label
_atom_site_fract_x
_atom_site_fract_y
_atom_site_fract_z
Si Si1 0.654246 0.077558 0.082186
Si Si2 0.725376 0.427875 0.463515
Si Si3 0.170618 0.924583 0.917454
Si Si4 0.843382 0.425324 0.359208
Si Si5 0.498672 0.428282 0.373681
Si Si6 0.024817 0.575845 0.786608
Si Si7 0.326447 0.930393 0.397427
Si Si8 0.088626 0.428224 0.129245
O O1 0.622987 0.250000 0.995284
O O2 0.653750 0.039260 0.214805
O O3 0.756100 0.053116 0.253561
O O4 0.591288 0.967355 0.880819
O O5 0.747012 0.250000 0.515135
O O6 0.682597 0.489462 0.492315
O O7 0.818886 0.510707 0.625892
O O8 0.197779 0.750000 0.961478
O O9 0.174536 0.996998 0.801514
O O10 0.069274 0.944149 0.755483
O O11 0.244601 0.998490 0.153568
O O12 0.873260 0.250000 0.412547
O O13 0.922986 0.518709 0.581497
O O14 0.500000 0.500000 0.500000
O O15 0.505116 0.250000 0.403961
O O16 0.581594 0.489588 0.469587
O O17 0.027262 0.750000 0.831190
O O18 0.088539 0.477253 0.998980
O O19 0.324058 0.750000 0.395287
O O20 0.084457 0.250000 0.135946
O O21 0.000000 0.500000 0.000000
#
# Coordination Sequence:
#
# PCOD8074031 Si02
#       8
#     4   4   4   4   4   4   4   4
#     4  10  22  39  61  88 120 156 196 245 301 360
#     4  10  20  39  64  88 119 160 203 244 297 364
#     4   9  17  32  56  81 113 156 199 243 294 360
#     4  10  20  35  55  82 118 160 203 248 303 361
#     4  11  23  40  65  92 121 158 200 251 303 361
#     4  11  21  35  56  83 115 155 201 250 302 357
#     4   9  18  36  62  88 117 159 203 243 302 366
#     4  12  24  38  58  85 119 159 203 251 298 353
#
# _framework density 20.589158999999999
#
# number of rings (size 3 to 8) (size 9 to 14) (size 15 to 20)
#    0.000    1.750    1.250    3.750    0.000    4.500 
#    0.000    1.875    0.000    0.000    0.000    0.000 
#    0.000    0.000    0.000    0.000    0.000    0.000 
#
# Total GULP energy -396787.890608 kJ/mol
# GULP energy per Si atom -12399.621582 kJ/mol
# Density = 2.054230 g / cm^3
# Si number density = 20.589159 Si / 1000 Ang^3
#
#
#
# Elastic Constant Matrix: (Units=GPa)
#
#
# Indices 1 2 3 4 5 6 
#
# 1 103.7423 31.6271 35.4583 0.0000 -4.0231 0.0000
# 2 31.6271 71.6221 33.8396 0.0000 1.5722 0.0000
# 3 35.4583 33.8396 109.4087 0.0000 -4.8718 0.0000
# 4 0.0000 0.0000 0.0000 29.3191 0.0000 -1.3807
# 5 -4.0231 1.5722 -4.8718 0.0000 32.0029 0.0000
# 6 0.0000 0.0000 0.0000 -1.3807 0.0000 22.0150
#
#
#
# Elastic Compliance Matrix: (Units=1/GPa)
#
#
# Indices 1 2 3 4 5 6 
#
# 1 0.011780 -0.004045 -0.002509 0.000000 0.001298 0.000000
# 2 -0.004045 0.017821 -0.004292 0.000000 -0.002037 0.000000
# 3 -0.002509 -0.004292 0.011353 0.000000 0.001624 0.000000
# 4 0.000000 0.000000 0.000000 0.034208 0.000000 0.002145
# 5 0.001298 -0.002037 0.001624 0.000000 0.031758 0.000000
# 6 0.000000 0.000000 0.000000 0.002145 0.000000 0.045558
#
#
# Mechanical properties :
#
#
# Convention : Reuss Voigt Hill
#
# Bulk Modulus (GPa) = 51.91399 54.06924 52.99162
# Shear Modulus (GPa) = 27.68696 28.92394 28.30545
#
# Velocity S-wave (km/s) = 3.67104 3.75215 3.71182
# Velocity P-wave (km/s) = 6.57554 6.71488 6.64557
#
# Compressibility (1/GPa) = 0.01926263
#
# Stress axis : x y z
#
# Youngs Moduli (GPa) = 84.88727 56.11421 88.08346
#
# Poissons Ratio (x) = 0.22698 0.22100
# Poissons Ratio (y) = 0.34337 0.37802
# Poissons Ratio (z) = 0.21298 0.24082
#
# Static dielectric constant tensor:
#      x y z
#    x 3.992900 0.000000 -0.176680 
#    y 0.000000 3.441860 0.000000 
#    z -0.176680 0.000000 3.808880 
# 
# 
# High freq. dielectric constant tensor:
#      x y z
#    x 1.820870 0.000000 -0.009680 
#    y 0.000000 1.770940 0.000000 
#    z -0.009680 0.000000 1.807640 
# 
# From -- ./inp_files/45366.got.cif
#   From: 2010.06.25/outbox.cif.g09.slc.cpg/sg11_23_cif.got.tgz:45366.got - 2010.06.27 23:14:04.
