data_PCOD8074356
_publ_section_title
;
Structure prediction by ZEFSAII (Michael W. Deem and Ramdas Pophale) SiO2 
 PCOD8074356
Probable space group: P 21/M
;
_chemical_formula_sum "Si O2"
_cell_formula_units_Z 24
_cell_length_a 9.136617
_cell_length_b 15.152520
_cell_length_c 15.368312
_cell_angle_alpha 90.000000
_cell_angle_beta 36.950523
_cell_angle_gamma 90.000000
_cell_volume 1278.972927
_symmetry_space_group_name_H-M "P 21/M"
_symmetry_group_IT_number 11
_symmetry_cell_setting 'monoclinic'
loop_
_space_group_symop_operation_xyz
x,y,z
-x,1/2+y,-z
-x,-y,-z
x,1/2-y,z
loop_
_atom_site_type_symbol
_atom_site_label
_atom_site_fract_x
_atom_site_fract_y
_atom_site_fract_z
Si Si1 0.304093 0.647616 0.315248
Si Si2 0.462280 0.995325 0.375297
Si Si3 0.756247 0.851139 0.620851
Si Si4 0.893670 0.502194 0.293215
Si Si5 0.627033 0.410827 0.908482
Si Si6 0.204407 0.346561 0.201185
O O1 0.379792 0.750000 0.290772
O O2 0.412780 0.592671 0.343751
O O3 0.409868 0.607879 0.176049
O O4 0.013058 0.638236 0.450530
O O5 0.736962 0.988787 0.280176
O O6 0.440574 0.084403 0.328982
O O7 0.274462 0.003181 0.542852
O O8 0.662038 0.750000 0.661118
O O9 0.786688 0.884033 0.705305
O O10 0.085536 0.583794 0.205284
O O11 0.038403 0.409731 0.221195
O O12 0.500000 0.500000 0.000000
O O13 0.479908 0.336838 0.032258
O O14 0.082318 0.250000 0.259834
#
# Coordination Sequence:
#
# PCOD8074356 Si02
#       6
#     4   4   4   4   4   4
#     4  11  21  36  59  85 114 152 200 240 280 339
#     4  11  20  36  57  84 119 148 182 244 293 342
#     4  10  20  35  59  85 110 150 199 241 279 337
#     4  10  21  34  56  84 114 148 187 231 298 347
#     4  10  20  37  58  82 109 149 191 234 281 341
#     4  10  20  37  58  81 112 149 192 238 286 341
#
# _framework density 18.765058
#
# number of rings (size 3 to 8) (size 9 to 14) (size 15 to 20)
#    0.000    1.667    3.333    3.000    0.000    0.667 
#    0.000   11.667    0.000    4.000    0.000    0.000 
#    0.000    0.000    0.000    0.000    0.000    0.000 
#
# Total GULP energy -297521.355548 kJ/mol
# GULP energy per Si atom -12396.723148 kJ/mol
# Density = 1.872235 g / cm^3
# Si number density = 18.765058 Si / 1000 Ang^3
#
#
#
# Elastic Constant Matrix: (Units=GPa)
#
#
# Indices 1 2 3 4 5 6 
#
# 1 114.9941 56.3389 24.5910 0.0000 -9.6972 0.0000
# 2 56.3389 94.3487 9.9239 0.0000 -2.0354 0.0000
# 3 24.5910 9.9239 77.8515 0.0000 3.2300 0.0000
# 4 0.0000 0.0000 0.0000 24.8718 0.0000 2.5939
# 5 -9.6972 -2.0354 3.2300 0.0000 27.2285 0.0000
# 6 0.0000 0.0000 0.0000 2.5939 0.0000 18.4638
#
#
#
# Elastic Compliance Matrix: (Units=1/GPa)
#
#
# Indices 1 2 3 4 5 6 
#
# 1 0.013586 -0.007642 -0.003512 0.000000 0.004684 0.000000
# 2 -0.007642 0.015068 0.000562 0.000000 -0.001662 0.000000
# 3 -0.003512 0.000562 0.014002 0.000000 -0.002870 0.000000
# 4 0.000000 0.000000 0.000000 0.040804 0.000000 -0.005732
# 5 0.004684 -0.001662 -0.002870 0.000000 0.038610 0.000000
# 6 0.000000 0.000000 0.000000 -0.005732 0.000000 0.054965
#
#
# Mechanical properties :
#
#
# Convention : Reuss Voigt Hill
#
# Bulk Modulus (GPa) = 46.57265 52.10021 49.33643
# Shear Modulus (GPa) = 24.34557 27.20218 25.77388
#
# Velocity S-wave (km/s) = 3.60584 3.81152 3.71010
# Velocity P-wave (km/s) = 6.49683 6.86986 6.68595
#
# Compressibility (1/GPa) = 0.02147183
#
# Stress axis : x y z
#
# Youngs Moduli (GPa) = 73.60367 66.36785 71.42054
#
# Poissons Ratio (x) = 0.50721 0.25080
# Poissons Ratio (y) = 0.56251 -0.04016
# Poissons Ratio (z) = 0.25847 -0.03732
#
# Static dielectric constant tensor:
#      x y z
#    x 3.346030 0.000000 -0.006760 
#    y 0.000000 3.608020 0.000000 
#    z -0.006760 0.000000 3.871400 
# 
# 
# High freq. dielectric constant tensor:
#      x y z
#    x 1.706630 0.000000 0.013000 
#    y 0.000000 1.733380 0.000000 
#    z 0.013000 0.000000 1.735010 
# 
# From -- ./inp_files/18709.got.cif
#   From: 2010.06.25/outbox.cif.g09.slc.cpg/sg11_10_cif.got.tgz:18709.got - 2010.06.27 23:14:04.
