data_PCOD8074105
_publ_section_title
;
Structure prediction by ZEFSAII (Michael W. Deem and Ramdas Pophale) SiO2 
 PCOD8074105
Probable space group: P 21/M
;
_chemical_formula_sum "Si O2"
_cell_formula_units_Z 32
_cell_length_a 22.580536
_cell_length_b 9.004739
_cell_length_c 15.188483
_cell_angle_alpha 90.000000
_cell_angle_beta 148.440350
_cell_angle_gamma 90.000000
_cell_volume 1616.373941
_symmetry_space_group_name_H-M "P 21/M"
_symmetry_group_IT_number 11
_symmetry_cell_setting 'monoclinic'
loop_
_space_group_symop_operation_xyz
x,y,z
-x,1/2+y,-z
-x,-y,-z
x,1/2-y,z
loop_
_atom_site_type_symbol
_atom_site_label
_atom_site_fract_x
_atom_site_fract_y
_atom_site_fract_z
Si Si1 0.503205 0.073661 0.733175
Si Si2 0.264919 0.425619 0.362559
Si Si3 0.250090 0.925265 0.995471
Si Si4 0.896343 0.421679 0.701710
Si Si5 0.122138 0.926575 0.656295
Si Si6 0.809342 0.919472 0.428896
Si Si7 0.552490 0.917491 0.147601
Si Si8 0.153859 0.079987 0.042103
O O1 0.505865 0.250000 0.743722
O O2 0.396187 0.025273 0.538135
O O3 0.620678 0.012939 0.841735
O O4 0.489140 0.008571 0.814021
O O5 0.248522 0.250000 0.355619
O O6 0.190719 0.506450 0.341352
O O7 0.225594 0.477091 0.216303
O O8 0.251009 0.750000 0.003697
O O9 0.185774 0.975648 0.825725
O O10 0.185362 0.986374 0.997171
O O11 0.864312 0.250000 0.647511
O O12 0.894723 0.503228 0.605224
O O13 0.022329 0.440492 0.899329
O O14 0.111791 0.750000 0.635058
O O15 0.194075 0.990355 0.666348
O O16 0.000000 0.000000 0.500000
O O17 0.849142 0.750000 0.462267
O O18 0.687145 0.924995 0.318066
O O19 0.508667 0.750000 0.085685
O O20 0.500000 0.000000 0.000000
O O21 0.182701 0.250000 0.057561
#
# Coordination Sequence:
#
# PCOD8074105 Si02
#       8
#     4   4   4   4   4   4   4   4
#     4   9  18  37  60  82 113 152 191 235 288 345
#     4  10  20  39  63  85 115 154 193 240 298 357
#     4  10  22  39  60  84 115 155 197 240 290 348
#     4  11  22  37  58  88 122 152 192 247 297 350
#     4  11  23  39  59  85 118 157 199 247 295 347
#     4  11  22  37  59  86 115 155 196 234 292 354
#     4  10  20  35  56  82 112 149 190 234 286 346
#     4  10  23  39  58  85 117 154 194 242 299 349
#
# _framework density 19.797398999999999
#
# number of rings (size 3 to 8) (size 9 to 14) (size 15 to 20)
#    0.000    1.750    1.250    3.000    0.000    7.000 
#    0.000    1.250    0.000    0.000    0.000    0.000 
#    0.000    0.000    0.000    0.000    0.000    0.000 
#
# Total GULP energy -396879.686921 kJ/mol
# GULP energy per Si atom -12402.490216 kJ/mol
# Density = 1.975234 g / cm^3
# Si number density = 19.797399 Si / 1000 Ang^3
#
#
#
# Elastic Constant Matrix: (Units=GPa)
#
#
# Indices 1 2 3 4 5 6 
#
# 1 100.0008 34.0349 45.5282 0.0000 -5.8183 0.0000
# 2 34.0349 62.6882 44.9464 0.0000 -6.6651 0.0000
# 3 45.5282 44.9464 144.3484 0.0000 -11.3716 0.0000
# 4 0.0000 0.0000 0.0000 27.5640 0.0000 -2.3802
# 5 -5.8183 -6.6651 -11.3716 0.0000 38.8720 0.0000
# 6 0.0000 0.0000 0.0000 -2.3802 0.0000 26.8336
#
#
#
# Elastic Compliance Matrix: (Units=1/GPa)
#
#
# Indices 1 2 3 4 5 6 
#
# 1 0.012900 -0.005240 -0.002411 0.000000 0.000327 0.000000
# 2 -0.005240 0.022774 -0.005315 0.000000 0.001566 0.000000
# 3 -0.002411 -0.005315 0.009461 0.000000 0.001495 0.000000
# 4 0.000000 0.000000 0.000000 0.036559 0.000000 0.003243
# 5 0.000327 0.001566 0.001495 0.000000 0.026480 0.000000
# 6 0.000000 0.000000 0.000000 0.003243 0.000000 0.037554
#
#
# Mechanical properties :
#
#
# Convention : Reuss Voigt Hill
#
# Bulk Modulus (GPa) = 52.07751 61.78402 56.93077
# Shear Modulus (GPa) = 28.07981 30.82245 29.45113
#
# Velocity S-wave (km/s) = 3.77020 3.95003 3.86116
# Velocity P-wave (km/s) = 6.73163 7.21662 6.97834
#
# Compressibility (1/GPa) = 0.01920215
#
# Stress axis : x y z
#
# Youngs Moduli (GPa) = 77.51776 43.90900 105.69606
#
# Poissons Ratio (x) = 0.23009 0.25488
# Poissons Ratio (y) = 0.40620 0.56180
# Poissons Ratio (z) = 0.18693 0.23339
#
# Static dielectric constant tensor:
#      x y z
#    x 3.704260 0.000000 0.066290 
#    y 0.000000 3.564180 0.000000 
#    z 0.066290 0.000000 4.025360 
# 
# 
# High freq. dielectric constant tensor:
#      x y z
#    x 1.776510 0.000000 0.000180 
#    y 0.000000 1.756150 0.000000 
#    z 0.000180 0.000000 1.787160 
# 
# From -- ./inp_files/55707.got.cif
#   From: 2010.06.25/outbox.cif.g09.slc.cpg/sg11_28_cif.got.tgz:55707.got - 2010.06.27 23:14:04.
