data_PCOD8074702
_publ_section_title
;
Structure prediction by ZEFSAII (Michael W. Deem and Ramdas Pophale) SiO2 
 PCOD8074702
Probable space group: P 21/M
;
_chemical_formula_sum "Si O2"
_cell_formula_units_Z 32
_cell_length_a 14.989456
_cell_length_b 8.762187
_cell_length_c 22.609582
_cell_angle_alpha 90.000000
_cell_angle_beta 147.748792
_cell_angle_gamma 90.000000
_cell_volume 1584.648958
_symmetry_space_group_name_H-M "P 21/M"
_symmetry_group_IT_number 11
_symmetry_cell_setting 'monoclinic'
loop_
_space_group_symop_operation_xyz
x,y,z
-x,1/2+y,-z
-x,-y,-z
x,1/2-y,z
loop_
_atom_site_type_symbol
_atom_site_label
_atom_site_fract_x
_atom_site_fract_y
_atom_site_fract_z
Si Si1 0.886101 0.930549 0.797488
Si Si2 0.993101 0.431039 0.372159
Si Si3 0.601658 0.930474 0.003387
Si Si4 0.872314 0.426222 0.971604
Si Si5 0.379877 0.930195 0.262126
Si Si6 0.352923 0.930489 0.766391
Si Si7 0.977309 0.930456 0.237273
Si Si8 0.695779 0.068536 0.392882
O O1 0.863004 0.750000 0.776601
O O2 0.732734 0.993880 0.750198
O O3 0.887825 0.013139 0.735284
O O4 0.068968 0.973154 0.929445
O O5 0.011998 0.250000 0.384846
O O6 0.809946 0.487317 0.289280
O O7 0.029377 0.490340 0.327041
O O8 0.122274 0.506152 0.489850
O O9 0.587901 0.750000 0.000864
O O10 0.518208 0.987001 0.894615
O O11 0.792771 0.985384 0.113853
O O12 0.500000 0.000000 0.000000
O O13 0.902038 0.250000 0.980643
O O14 0.689249 0.469657 0.843668
O O15 0.000000 0.500000 0.000000
O O16 0.387261 0.750000 0.278054
O O17 0.564119 0.001924 0.366716
O O18 0.349738 0.750000 0.761349
O O19 0.350761 0.994647 0.698563
O O20 0.988104 0.750000 0.250771
O O21 0.694904 0.250000 0.395716
#
# Coordination Sequence:
#
# PCOD8074702 Si02
#       8
#     4   4   4   4   4   4   4   4
#     4  10  20  36  58  85 118 159 200 241 295 352
#     4  11  22  41  64  84 116 158 202 249 297 352
#     4  10  20  37  59  88 123 158 195 241 296 352
#     4   8  16  30  50  76 109 146 186 231 280 338
#     4  10  20  37  57  84 119 155 199 247 295 347
#     4   9  20  38  61  88 120 156 194 241 298 354
#     4  11  23  37  59  90 123 159 199 244 296 356
#     4  11  23  39  61  88 119 155 200 249 299 353
#
# _framework density 20.193746999999998
#
# number of rings (size 3 to 8) (size 9 to 14) (size 15 to 20)
#    0.000    2.000    1.250    2.250    1.750    1.500 
#    0.000    3.750    0.000    0.000    0.000    0.000 
#    0.000    0.000    0.000    0.000    0.000    0.000 
#
# Total GULP energy -396609.068129 kJ/mol
# GULP energy per Si atom -12394.033379 kJ/mol
# Density = 2.014779 g / cm^3
# Si number density = 20.193747 Si / 1000 Ang^3
#
#
#
# Elastic Constant Matrix: (Units=GPa)
#
#
# Indices 1 2 3 4 5 6 
#
# 1 101.0622 20.2376 25.6646 0.0000 -13.2835 0.0000
# 2 20.2376 42.5516 16.4239 0.0000 -3.0421 0.0000
# 3 25.6646 16.4239 82.3906 0.0000 -14.5385 0.0000
# 4 0.0000 0.0000 0.0000 28.8801 0.0000 -0.5973
# 5 -13.2835 -3.0421 -14.5385 0.0000 28.2829 0.0000
# 6 0.0000 0.0000 0.0000 -0.5973 0.0000 29.1353
#
#
#
# Elastic Compliance Matrix: (Units=1/GPa)
#
#
# Indices 1 2 3 4 5 6 
#
# 1 0.011862 -0.004552 -0.002080 0.000000 0.004013 0.000000
# 2 -0.004552 0.027207 -0.004252 0.000000 -0.001397 0.000000
# 3 -0.002080 -0.004252 0.014714 0.000000 0.006130 0.000000
# 4 0.000000 0.000000 0.000000 0.034641 0.000000 0.000710
# 5 0.004013 -0.001397 0.006130 0.000000 0.040242 0.000000
# 6 0.000000 0.000000 0.000000 0.000710 0.000000 0.034337
#
#
# Mechanical properties :
#
#
# Convention : Reuss Voigt Hill
#
# Bulk Modulus (GPa) = 31.23433 38.96186 35.09810
# Shear Modulus (GPa) = 25.58290 28.17151 26.87720
#
# Velocity S-wave (km/s) = 3.56318 3.73910 3.65220
# Velocity P-wave (km/s) = 5.69466 6.16256 5.93322
#
# Compressibility (1/GPa) = 0.03201605
#
# Stress axis : x y z
#
# Youngs Moduli (GPa) = 84.30320 36.75500 67.96089
#
# Poissons Ratio (x) = 0.16731 0.14133
# Poissons Ratio (y) = 0.38375 0.28898
# Poissons Ratio (z) = 0.17531 0.15629
#
# Static dielectric constant tensor:
#      x y z
#    x 3.529310 0.000000 -0.086200 
#    y 0.000000 3.458740 0.000000 
#    z -0.086200 0.000000 3.849020 
# 
# 
# High freq. dielectric constant tensor:
#      x y z
#    x 1.787170 0.000000 -0.004180 
#    y 0.000000 1.782970 0.000000 
#    z -0.004180 0.000000 1.787490 
# 
# From -- ./inp_files/69100.got.cif
#   From: 2010.06.25/outbox.cif.g09.slc.cpg/sg11_35_cif.got.tgz:69100.got - 2010.06.27 23:14:04.
