data_PCOD8074829
_publ_section_title
;
Structure prediction by ZEFSAII (Michael W. Deem and Ramdas Pophale) SiO2 
 PCOD8074829
Probable space group: P 21/M
;
_chemical_formula_sum "Si O2"
_cell_formula_units_Z 28
_cell_length_a 28.767388
_cell_length_b 8.634783
_cell_length_c 8.993193
_cell_angle_alpha 90.000000
_cell_angle_beta 38.794769
_cell_angle_gamma 90.000000
_cell_volume 1399.617890
_symmetry_space_group_name_H-M "P 21/M"
_symmetry_group_IT_number 11
_symmetry_cell_setting 'monoclinic'
loop_
_space_group_symop_operation_xyz
x,y,z
-x,1/2+y,-z
-x,-y,-z
x,1/2-y,z
loop_
_atom_site_type_symbol
_atom_site_label
_atom_site_fract_x
_atom_site_fract_y
_atom_site_fract_z
Si Si1 0.860051 0.570312 0.520689
Si Si2 0.284322 0.066220 0.622842
Si Si3 0.570263 0.566429 0.908739
Si Si4 0.139995 0.065658 0.816404
Si Si5 0.568384 0.068267 0.240261
Si Si6 0.295254 0.069908 0.934181
Si Si7 0.996790 0.431720 0.345496
O O1 0.882617 0.750000 0.471156
O O2 0.857347 0.507080 0.359514
O O3 0.919978 0.472907 0.460192
O O4 0.780958 0.541384 0.791075
O O5 0.281530 0.250000 0.622848
O O6 0.356393 0.003553 0.356988
O O7 0.210866 0.997236 0.727691
O O8 0.286637 0.010762 0.787175
O O9 0.566801 0.750000 0.912712
O O10 0.500000 0.500000 0.000000
O O11 0.572321 0.511831 0.071732
O O12 0.142436 0.250000 0.813729
O O13 0.065260 0.001027 0.078586
O O14 0.557141 0.250000 0.247037
O O15 0.500000 0.000000 0.500000
O O16 0.643175 0.034801 0.142714
O O17 0.319029 0.250000 0.881732
O O18 0.004953 0.250000 0.338749
O O19 0.000000 0.500000 0.500000
#
# Coordination Sequence:
#
# PCOD8074829 Si02
#       7
#     4   4   4   4   4   4   4
#     4  10  20  36  60  86 115 150 189 234 290 353
#     4   9  18  34  58  85 112 145 188 233 283 344
#     4  11  22  38  61  88 119 155 194 240 294 354
#     4   9  18  34  56  83 112 147 190 236 285 342
#     4  12  25  41  61  86 118 155 197 245 294 348
#     4  10  20  37  62  89 116 150 191 236 288 349
#     4  11  22  36  56  81 113 150 193 242 291 344
#
# _framework density 20.005458999999998
#
# number of rings (size 3 to 8) (size 9 to 14) (size 15 to 20)
#    0.000    1.714    0.000    5.143    0.000    6.286 
#    0.000    1.429    0.000    6.000    0.000    0.000 
#    0.000    0.000    0.000    0.000    0.000    0.000 
#
# Total GULP energy -347314.967619 kJ/mol
# GULP energy per Si atom -12404.105986 kJ/mol
# Density = 1.995993 g / cm^3
# Si number density = 20.005459 Si / 1000 Ang^3
#
#
#
# Elastic Constant Matrix: (Units=GPa)
#
#
# Indices 1 2 3 4 5 6 
#
# 1 160.0384 23.0398 68.2530 0.0000 11.2399 0.0000
# 2 23.0398 50.5573 32.8222 0.0000 -1.9329 0.0000
# 3 68.2530 32.8222 159.3287 0.0000 16.9171 0.0000
# 4 0.0000 0.0000 0.0000 25.4204 0.0000 -1.5025
# 5 11.2399 -1.9329 16.9171 0.0000 45.9692 0.0000
# 6 0.0000 0.0000 0.0000 -1.5025 0.0000 34.2921
#
#
#
# Elastic Compliance Matrix: (Units=1/GPa)
#
#
# Indices 1 2 3 4 5 6 
#
# 1 0.007791 -0.001710 -0.002888 0.000000 -0.000914 0.000000
# 2 -0.001710 0.023561 -0.004444 0.000000 0.003044 0.000000
# 3 -0.002888 -0.004444 0.008714 0.000000 -0.002688 0.000000
# 4 0.000000 0.000000 0.000000 0.039441 0.000000 0.001728
# 5 -0.000914 0.003044 -0.002688 0.000000 0.023094 0.000000
# 6 0.000000 0.000000 0.000000 0.001728 0.000000 0.029237
#
#
# Mechanical properties :
#
#
# Convention : Reuss Voigt Hill
#
# Bulk Modulus (GPa) = 45.49458 68.68381 57.08920
# Shear Modulus (GPa) = 31.79673 37.52364 34.66018
#
# Velocity S-wave (km/s) = 3.99106 4.33560 4.16689
# Velocity P-wave (km/s) = 6.63540 7.71170 7.19371
#
# Compressibility (1/GPa) = 0.02198064
#
# Stress axis : x y z
#
# Youngs Moduli (GPa) = 128.36046 42.44390 114.75354
#
# Poissons Ratio (x) = 0.07259 0.33140
# Poissons Ratio (y) = 0.21954 0.50997
# Poissons Ratio (z) = 0.37070 0.18862
#
# Static dielectric constant tensor:
#      x y z
#    x 3.796770 0.000000 0.043880 
#    y 0.000000 3.393170 0.000000 
#    z 0.043880 0.000000 3.861260 
# 
# 
# High freq. dielectric constant tensor:
#      x y z
#    x 1.801070 0.000000 0.002210 
#    y 0.000000 1.750540 0.000000 
#    z 0.002210 0.000000 1.803510 
# 
# From -- ./inp_files/28352.got.cif
#   From: 2010.06.25/outbox.cif.g09.slc.cpg/sg11_15_cif.got.tgz:28352.got - 2010.06.27 23:14:04.
