data_PCOD8074375
_publ_section_title
;
Structure prediction by ZEFSAII (Michael W. Deem and Ramdas Pophale) SiO2 
 PCOD8074375
Probable space group: P 21/M
;
_chemical_formula_sum "Si O2"
_cell_formula_units_Z 28
_cell_length_a 15.339502
_cell_length_b 8.731394
_cell_length_c 20.881999
_cell_angle_alpha 90.000000
_cell_angle_beta 151.652044
_cell_angle_gamma 90.000000
_cell_volume 1328.007379
_symmetry_space_group_name_H-M "P 21/M"
_symmetry_group_IT_number 11
_symmetry_cell_setting 'monoclinic'
loop_
_space_group_symop_operation_xyz
x,y,z
-x,1/2+y,-z
-x,-y,-z
x,1/2-y,z
loop_
_atom_site_type_symbol
_atom_site_label
_atom_site_fract_x
_atom_site_fract_y
_atom_site_fract_z
Si Si1 0.435631 0.067905 0.646765
Si Si2 0.835890 0.569687 0.936134
Si Si3 0.598863 0.420382 0.144299
Si Si4 0.994975 0.575668 0.176260
Si Si5 0.245190 0.920980 0.882378
Si Si6 0.818032 0.425219 0.411436
Si Si7 0.354468 0.072429 0.451520
O O1 0.448828 0.250000 0.660133
O O2 0.375239 0.009712 0.537255
O O3 0.637028 0.001048 0.792471
O O4 0.270548 0.011541 0.585510
O O5 0.826423 0.750000 0.916850
O O6 0.000000 0.500000 0.000000
O O7 0.881426 0.533064 0.039431
O O8 0.512839 0.250000 0.078291
O O9 0.768785 0.439472 0.203821
O O10 0.663448 0.435803 0.257922
O O11 0.456494 0.555582 0.038835
O O12 0.064949 0.750000 0.218862
O O13 0.162602 0.462110 0.293934
O O14 0.869574 0.552048 0.157287
O O15 0.182079 0.750000 0.862548
O O16 0.861085 0.250000 0.458107
O O17 0.000000 0.500000 0.500000
O O18 0.389833 0.250000 0.476411
O O19 0.500000 0.000000 0.500000
#
# Coordination Sequence:
#
# PCOD8074375 Si02
#       7
#     4   4   4   4   4   4   4
#     4  11  25  44  66  95 132 171 215 268 323 384
#     4  11  24  42  66  96 129 165 210 264 322 386
#     4   9  20  38  57  82 120 157 197 251 303 353
#     4  11  24  40  61  91 125 159 203 255 308 371
#     4  10  20  35  59  88 117 154 198 247 303 362
#     4  11  24  41  62  89 125 169 216 264 313 373
#     4  11  25  44  66  93 127 165 209 262 319 380
#
# _framework density 21.084220999999999
#
# number of rings (size 3 to 8) (size 9 to 14) (size 15 to 20)
#    0.000    1.429    0.000    4.286    2.000   13.143 
#    0.000    0.000    0.000    0.000    0.000    0.000 
#    0.000    0.000    0.000    0.000    0.000    0.000 
#
# Total GULP energy -347127.450244 kJ/mol
# GULP energy per Si atom -12397.408937 kJ/mol
# Density = 2.103623 g / cm^3
# Si number density = 21.084221 Si / 1000 Ang^3
#
#
#
# Elastic Constant Matrix: (Units=GPa)
#
#
# Indices 1 2 3 4 5 6 
#
# 1 135.8997 56.3518 31.1819 0.0000 9.6045 0.0000
# 2 56.3518 92.5828 40.0720 0.0000 -3.8467 0.0000
# 3 31.1819 40.0720 77.3115 0.0000 6.1296 0.0000
# 4 0.0000 0.0000 0.0000 36.0686 0.0000 5.4345
# 5 9.6045 -3.8467 6.1296 0.0000 38.8619 0.0000
# 6 0.0000 0.0000 0.0000 5.4345 0.0000 39.6151
#
#
#
# Elastic Compliance Matrix: (Units=1/GPa)
#
#
# Indices 1 2 3 4 5 6 
#
# 1 0.010248 -0.006029 -0.000770 0.000000 -0.003008 0.000000
# 2 -0.006029 0.017726 -0.007102 0.000000 0.004365 0.000000
# 3 -0.000770 -0.007102 0.017182 0.000000 -0.003223 0.000000
# 4 0.000000 0.000000 0.000000 0.028310 0.000000 -0.003884
# 5 -0.003008 0.004365 -0.003223 0.000000 0.027416 0.000000
# 6 0.000000 0.000000 0.000000 -0.003884 0.000000 0.025776
#
#
# Mechanical properties :
#
#
# Convention : Reuss Voigt Hill
#
# Bulk Modulus (GPa) = 57.62466 62.33393 59.97929
# Shear Modulus (GPa) = 31.20245 34.78834 32.99540
#
# Velocity S-wave (km/s) = 3.85112 4.06639 3.96022
# Velocity P-wave (km/s) = 6.86766 7.18859 7.02996
#
# Compressibility (1/GPa) = 0.01735368
#
# Stress axis : x y z
#
# Youngs Moduli (GPa) = 97.58380 56.41358 58.20123
#
# Poissons Ratio (x) = 0.34013 0.04479
# Poissons Ratio (y) = 0.58835 0.41335
# Poissons Ratio (z) = 0.07510 0.40066
#
# Static dielectric constant tensor:
#      x y z
#    x 4.045310 0.000000 -0.236110 
#    y 0.000000 1.207670 0.000000 
#    z -0.236110 0.000000 3.605420 
# 
# 
# High freq. dielectric constant tensor:
#      x y z
#    x 1.846450 0.000000 -0.002740 
#    y 0.000000 1.834310 0.000000 
#    z -0.002740 0.000000 1.822540 
# 
# From -- ./inp_files/51905.got.cif
#   From: 2010.06.25/outbox.cif.g09.slc.cpg/sg11_26_cif.got.tgz:51905.got - 2010.06.27 23:14:04.
