data_PCOD8074414
_publ_section_title
;
Structure prediction by ZEFSAII (Michael W. Deem and Ramdas Pophale) SiO2 
 PCOD8074414
Probable space group: P 21/M
;
_chemical_formula_sum "Si O2"
_cell_formula_units_Z 28
_cell_length_a 9.875805
_cell_length_b 8.690087
_cell_length_c 28.160971
_cell_angle_alpha 90.000000
_cell_angle_beta 37.102873
_cell_angle_gamma 90.000000
_cell_volume 1457.941615
_symmetry_space_group_name_H-M "P 21/M"
_symmetry_group_IT_number 11
_symmetry_cell_setting 'monoclinic'
loop_
_space_group_symop_operation_xyz
x,y,z
-x,1/2+y,-z
-x,-y,-z
x,1/2-y,z
loop_
_atom_site_type_symbol
_atom_site_label
_atom_site_fract_x
_atom_site_fract_y
_atom_site_fract_z
Si Si1 0.364679 0.932850 0.621796
Si Si2 0.939382 0.569918 0.373412
Si Si3 0.732360 0.428652 0.949974
Si Si4 0.977249 0.927523 0.800185
Si Si5 0.792639 0.927267 0.032819
Si Si6 0.307859 0.924232 0.196113
Si Si7 0.855074 0.433157 0.497017
O O1 0.379808 0.750000 0.610641
O O2 0.205497 0.979468 0.710329
O O3 0.266485 0.004379 0.600532
O O4 0.603842 0.001512 0.568455
O O5 0.893567 0.750000 0.394983
O O6 0.962291 0.483362 0.416979
O O7 0.178090 0.538768 0.281189
O O8 0.709175 0.250000 0.950023
O O9 0.942238 0.483620 0.859184
O O10 0.500000 0.500000 0.000000
O O11 0.773763 0.472084 0.991783
O O12 0.981869 0.750000 0.811430
O O13 0.769079 0.961262 0.823657
O O14 0.833876 0.750000 0.008099
O O15 0.574491 0.945242 0.127823
O O16 0.000000 0.000000 0.000000
O O17 0.250197 0.750000 0.196024
O O18 0.851747 0.250000 0.502068
O O19 0.000000 0.500000 0.500000
#
# Coordination Sequence:
#
# PCOD8074414 Si02
#       7
#     4   4   4   4   4   4   4
#     4  10  21  39  63  92 122 154 196 244 290 348
#     4  10  20  38  64  92 118 153 197 244 293 347
#     4  12  23  37  60  88 119 158 201 246 296 349
#     4  10  20  35  60  91 120 151 195 247 297 343
#     4  11  23  40  59  85 119 160 202 246 297 352
#     4   9  19  36  60  86 117 154 197 243 292 349
#     4  12  25  42  62  87 120 159 196 240 296 353
#
# _framework density 19.205158999999998
#
# number of rings (size 3 to 8) (size 9 to 14) (size 15 to 20)
#    0.000    1.429    1.429    4.714    0.000    2.857 
#    2.571    0.000    0.000    0.000    0.000    0.000 
#    0.000    0.000    0.000    0.000    0.000    0.000 
#
# Total GULP energy -347208.726549 kJ/mol
# GULP energy per Si atom -12400.311662 kJ/mol
# Density = 1.916145 g / cm^3
# Si number density = 19.205159 Si / 1000 Ang^3
#
#
#
# Elastic Constant Matrix: (Units=GPa)
#
#
# Indices 1 2 3 4 5 6 
#
# 1 124.9629 37.9286 64.9998 0.0000 -0.4995 0.0000
# 2 37.9286 102.0770 44.8099 0.0000 2.6121 0.0000
# 3 64.9998 44.8099 132.4689 0.0000 3.2726 0.0000
# 4 0.0000 0.0000 0.0000 31.6139 0.0000 2.4697
# 5 -0.4995 2.6121 3.2726 0.0000 28.3519 0.0000
# 6 0.0000 0.0000 0.0000 2.4697 0.0000 35.8809
#
#
#
# Elastic Compliance Matrix: (Units=1/GPa)
#
#
# Indices 1 2 3 4 5 6 
#
# 1 0.011118 -0.002055 -0.004783 0.000000 0.000937 0.000000
# 2 -0.002055 0.011896 -0.002996 0.000000 -0.000786 0.000000
# 3 -0.004783 -0.002996 0.010936 0.000000 -0.001071 0.000000
# 4 0.000000 0.000000 0.000000 0.031803 0.000000 -0.002189
# 5 0.000937 -0.000786 -0.001071 0.000000 0.035484 0.000000
# 6 0.000000 0.000000 0.000000 -0.002189 0.000000 0.028021
#
#
# Mechanical properties :
#
#
# Convention : Reuss Voigt Hill
#
# Bulk Modulus (GPa) = 70.02649 72.77615 71.40132
# Shear Modulus (GPa) = 32.53400 33.28737 32.91068
#
# Velocity S-wave (km/s) = 4.12032 4.16775 4.14410
# Velocity P-wave (km/s) = 7.69269 7.81898 7.75610
#
# Compressibility (1/GPa) = 0.01428031
#
# Stress axis : x y z
#
# Youngs Moduli (GPa) = 89.94440 84.06540 91.44207
#
# Poissons Ratio (x) = 0.17278 0.43739
# Poissons Ratio (y) = 0.18486 0.27396
# Poissons Ratio (z) = 0.43023 0.25186
#
# Static dielectric constant tensor:
#      x y z
#    x 3.227110 0.000000 0.061550 
#    y 0.000000 3.386290 0.000000 
#    z 0.061550 0.000000 3.877840 
# 
# 
# High freq. dielectric constant tensor:
#      x y z
#    x 1.725650 0.000000 0.004690 
#    y 0.000000 1.763860 0.000000 
#    z 0.004690 0.000000 1.766580 
# 
# From -- ./inp_files/70796.got.cif
#   From: 2010.06.25/outbox.cif.g09.slc.cpg/sg11_36_cif.got.tgz:70796.got - 2010.06.27 23:14:04.
