data_PCOD8074455
_publ_section_title
;
Structure prediction by ZEFSAII (Michael W. Deem and Ramdas Pophale) SiO2 
 PCOD8074455
Probable space group: P 21/M
;
_chemical_formula_sum "Si O2"
_cell_formula_units_Z 32
_cell_length_a 5.284355
_cell_length_b 17.515286
_cell_length_c 20.721134
_cell_angle_alpha 90.000000
_cell_angle_beta 128.757946
_cell_angle_gamma 90.000000
_cell_volume 1495.562859
_symmetry_space_group_name_H-M "P 21/M"
_symmetry_group_IT_number 11
_symmetry_cell_setting 'monoclinic'
loop_
_space_group_symop_operation_xyz
x,y,z
-x,1/2+y,-z
-x,-y,-z
x,1/2-y,z
loop_
_atom_site_type_symbol
_atom_site_label
_atom_site_fract_x
_atom_site_fract_y
_atom_site_fract_z
Si Si1 0.016337 0.163421 0.806120
Si Si2 0.533123 0.962276 0.814936
Si Si3 0.707361 0.887724 0.282285
Si Si4 0.442450 0.560483 0.595794
Si Si5 0.716420 0.669876 0.544239
Si Si6 0.556552 0.165770 0.293577
Si Si7 0.743673 0.512518 0.096762
Si Si8 0.774989 0.596152 0.433859
O O1 0.118054 0.250000 0.841322
O O2 0.082191 0.152162 0.740029
O O3 0.231539 0.102581 0.880761
O O4 0.640587 0.152608 0.763848
O O5 0.463991 0.876704 0.778484
O O6 0.335296 0.022532 0.739630
O O7 0.400352 0.965247 0.866322
O O8 0.913797 0.979858 0.871923
O O9 0.891714 0.879843 0.380824
O O10 0.577634 0.591915 0.550583
O O11 0.611375 0.609627 0.680226
O O12 0.505325 0.470071 0.617234
O O13 0.055011 0.567894 0.528026
O O14 0.548173 0.750000 0.540909
O O15 0.646903 0.667340 0.455511
O O16 0.085067 0.677333 0.624194
O O17 0.388602 0.250000 0.262170
O O18 0.500000 0.500000 0.000000
#
# Coordination Sequence:
#
# PCOD8074455 Si02
#       8
#     4   4   4   4   4   4   4   4
#     4  10  22  39  61  90 122 156 194 239 299 352
#     4  10  21  39  63  92 120 154 198 238 291 364
#     4  10  21  37  59  86 118 157 201 248 294 347
#     4  10  20  36  55  75 109 156 205 253 308 352
#     4  10  22  35  51  77 113 159 202 255 315 355
#     4  10  21  37  56  82 118 156 202 254 302 350
#     4  10  22  42  68  93 123 158 190 234 292 364
#     4  10  21  35  52  79 107 154 210 255 298 357
#
# _framework density 21.396625
#
# number of rings (size 3 to 8) (size 9 to 14) (size 15 to 20)
#    0.000    2.000    1.250    1.500    3.500    2.500 
#    0.000    1.250    0.000    0.000    0.000    0.000 
#    0.000    0.000    0.000    0.000    0.000    0.000 
#
# Total GULP energy -396457.199355 kJ/mol
# GULP energy per Si atom -12389.287480 kJ/mol
# Density = 2.134793 g / cm^3
# Si number density = 21.396625 Si / 1000 Ang^3
#
#
#
# Elastic Constant Matrix: (Units=GPa)
#
#
# Indices 1 2 3 4 5 6 
#
# 1 64.5420 1.7947 -3.1053 0.0000 -12.3725 0.0000
# 2 1.7947 118.0875 27.5824 0.0000 -5.8470 0.0000
# 3 -3.1053 27.5824 73.3976 0.0000 -19.1143 0.0000
# 4 0.0000 0.0000 0.0000 5.0448 0.0000 -2.9676
# 5 -12.3725 -5.8470 -19.1143 0.0000 23.3828 0.0000
# 6 0.0000 0.0000 0.0000 -2.9676 0.0000 19.9043
#
#
#
# Elastic Compliance Matrix: (Units=1/GPa)
#
#
# Indices 1 2 3 4 5 6 
#
# 1 0.018239 -0.000664 0.004435 0.000000 0.013110 0.000000
# 2 -0.000664 0.009316 -0.003829 0.000000 -0.001152 0.000000
# 3 0.004435 -0.003829 0.019835 0.000000 0.017604 0.000000
# 4 0.000000 0.000000 0.000000 0.217279 0.000000 0.032395
# 5 0.013110 -0.001152 0.017604 0.000000 0.063806 0.000000
# 6 0.000000 0.000000 0.000000 0.032395 0.000000 0.055070
#
#
# Mechanical properties :
#
#
# Convention : Reuss Voigt Hill
#
# Bulk Modulus (GPa) = 21.15287 34.28562 27.71925
# Shear Modulus (GPa) = 12.51821 24.98340 18.75080
#
# Velocity S-wave (km/s) = 2.42142 3.42077 2.96352
# Velocity P-wave (km/s) = 4.21013 5.62680 4.96921
#
# Compressibility (1/GPa) = 0.04727492
#
# Stress axis : x y z
#
# Youngs Moduli (GPa) = 54.82798 107.34583 50.41503
#
# Poissons Ratio (x) = 0.07128 -0.22361
# Poissons Ratio (y) = 0.03641 0.19303
# Poissons Ratio (z) = -0.24318 0.41101
#
# Static dielectric constant tensor:
#      x y z
#    x 3.958510 0.000000 -0.199020 
#    y 0.000000 4.234980 0.000000 
#    z -0.199020 0.000000 3.552350 
# 
# 
# High freq. dielectric constant tensor:
#      x y z
#    x 1.840500 0.000000 -0.016560 
#    y 0.000000 1.843790 0.000000 
#    z -0.016560 0.000000 1.803740 
# 
# From -- ./inp_files/9154.got.cif
#   From: 2010.06.25/outbox.cif.g09.slc.cpg/sg11_5_cif.got.tgz:9154.got - 2010.06.27 23:14:04.
