data_PCOD8074839
_publ_section_title
;
Structure prediction by ZEFSAII (Michael W. Deem and Ramdas Pophale) SiO2 
 PCOD8074839
Probable space group: P 21/M
;
_chemical_formula_sum "Si O2"
_cell_formula_units_Z 28
_cell_length_a 15.625013
_cell_length_b 14.321820
_cell_length_c 6.951464
_cell_angle_alpha 90.000000
_cell_angle_beta 117.445253
_cell_angle_gamma 90.000000
_cell_volume 1380.510044
_symmetry_space_group_name_H-M "P 21/M"
_symmetry_group_IT_number 11
_symmetry_cell_setting 'monoclinic'
loop_
_space_group_symop_operation_xyz
x,y,z
-x,1/2+y,-z
-x,-y,-z
x,1/2-y,z
loop_
_atom_site_type_symbol
_atom_site_label
_atom_site_fract_x
_atom_site_fract_y
_atom_site_fract_z
Si Si1 0.111425 0.141119 0.119435
Si Si2 0.760437 0.545076 0.045815
Si Si3 0.097209 0.028465 0.490218
Si Si4 0.435070 0.642895 0.431052
Si Si5 0.913270 0.148491 0.727325
Si Si6 0.460134 0.020653 0.166984
Si Si7 0.228256 0.849940 0.085730
O O1 0.133893 0.250000 0.174901
O O2 0.204753 0.091506 0.119246
O O3 0.081605 0.096601 0.292783
O O4 0.025783 0.125235 0.877952
O O5 0.647447 0.563974 0.954945
O O6 0.777217 0.433579 0.069645
O O7 0.824157 0.580083 0.292583
O O8 0.137734 0.929559 0.454855
O O9 0.000000 0.000000 0.500000
O O10 0.471082 0.750000 0.437900
O O11 0.475539 0.601554 0.671240
O O12 0.469142 0.577054 0.290596
O O13 0.319356 0.638390 0.323409
O O14 0.902047 0.250000 0.615415
O O15 0.868117 0.149712 0.891012
O O16 0.500000 0.000000 0.000000
O O17 0.236871 0.750000 0.984420
#
# Coordination Sequence:
#
# PCOD8074839 Si02
#       7
#     4   4   4   4   4   4   4
#     4  11  24  42  59  82 124 167 206 250 292 353
#     4  11  23  39  61  86 124 157 201 247 305 366
#     4  12  23  36  63  90 120 160 204 245 299 354
#     4   9  20  40  63  86 119 157 197 244 309 373
#     4  10  20  36  60  87 117 151 195 246 298 351
#     4  10  23  39  61  93 121 155 201 260 312 360
#     4   9  18  36  62  88 115 150 190 243 304 358
#
# _framework density 20.282357999999999
#
# number of rings (size 3 to 8) (size 9 to 14) (size 15 to 20)
#    0.000    1.714    2.857    1.286    2.000    4.000 
#    0.000    0.000    0.000    0.000    0.000    0.000 
#    0.000    0.000    0.000    0.000    0.000    0.000 
#
# Total GULP energy -347055.668169 kJ/mol
# GULP energy per Si atom -12394.845292 kJ/mol
# Density = 2.023619 g / cm^3
# Si number density = 20.282358 Si / 1000 Ang^3
#
#
#
# Elastic Constant Matrix: (Units=GPa)
#
#
# Indices 1 2 3 4 5 6 
#
# 1 95.3144 21.5120 25.3960 0.0000 -6.6989 0.0000
# 2 21.5120 121.5499 30.5376 0.0000 -7.5202 0.0000
# 3 25.3960 30.5376 86.5276 0.0000 -8.2649 0.0000
# 4 0.0000 0.0000 0.0000 23.3878 0.0000 4.7926
# 5 -6.6989 -7.5202 -8.2649 0.0000 28.1340 0.0000
# 6 0.0000 0.0000 0.0000 4.7926 0.0000 23.6507
#
#
#
# Elastic Compliance Matrix: (Units=1/GPa)
#
#
# Indices 1 2 3 4 5 6 
#
# 1 0.011639 -0.001252 -0.002821 0.000000 0.001608 0.000000
# 2 -0.001252 0.009226 -0.002759 0.000000 0.001358 0.000000
# 3 -0.002821 -0.002759 0.013606 0.000000 0.002588 0.000000
# 4 0.000000 0.000000 0.000000 0.044610 0.000000 -0.009040
# 5 0.001608 0.001358 0.002588 0.000000 0.037050 0.000000
# 6 0.000000 0.000000 0.000000 -0.009040 0.000000 0.044114
#
#
# Mechanical properties :
#
#
# Convention : Reuss Voigt Hill
#
# Bulk Modulus (GPa) = 48.05925 50.92034 49.48979
# Shear Modulus (GPa) = 27.64839 30.09757 28.87298
#
# Velocity S-wave (km/s) = 3.69612 3.85636 3.77709
# Velocity P-wave (km/s) = 6.47778 6.70738 6.59358
#
# Compressibility (1/GPa) = 0.02080765
#
# Stress axis : x y z
#
# Youngs Moduli (GPa) = 85.92059 108.39253 73.49835
#
# Poissons Ratio (x) = 0.13567 0.20731
# Poissons Ratio (y) = 0.10755 0.20278
# Poissons Ratio (z) = 0.24235 0.29905
#
# Static dielectric constant tensor:
#      x y z
#    x 3.617430 0.000000 0.122160 
#    y 0.000000 3.980610 0.000000 
#    z 0.122160 0.000000 3.543990 
# 
# 
# High freq. dielectric constant tensor:
#      x y z
#    x 1.786180 0.000000 0.006010 
#    y 0.000000 1.801230 0.000000 
#    z 0.006010 0.000000 1.777490 
# 
# From -- ./inp_files/8137.got.cif
#   From: 2010.06.25/outbox.cif.g09.slc.cpg/sg11_5_cif.got.tgz:8137.got - 2010.06.27 23:14:04.
