data_PCOD8074311
_publ_section_title
;
Structure prediction by ZEFSAII (Michael W. Deem and Ramdas Pophale) SiO2 
 PCOD8074311
Probable space group: P 21/M
;
_chemical_formula_sum "Si O2"
_cell_formula_units_Z 28
_cell_length_a 18.912211
_cell_length_b 9.581753
_cell_length_c 12.790535
_cell_angle_alpha 90.000000
_cell_angle_beta 34.642562
_cell_angle_gamma 90.000000
_cell_volume 1317.565206
_symmetry_space_group_name_H-M "P 21/M"
_symmetry_group_IT_number 11
_symmetry_cell_setting 'monoclinic'
loop_
_space_group_symop_operation_xyz
x,y,z
-x,1/2+y,-z
-x,-y,-z
x,1/2-y,z
loop_
_atom_site_type_symbol
_atom_site_label
_atom_site_fract_x
_atom_site_fract_y
_atom_site_fract_z
Si Si1 0.127180 0.915159 0.358461
Si Si2 0.964680 0.905392 0.877765
Si Si3 0.647197 0.905333 0.537637
Si Si4 0.415707 0.963154 0.701110
Si Si5 0.773134 0.597210 0.933087
Si Si6 0.226799 0.591320 0.465675
Si Si7 0.784536 0.402491 0.204996
O O1 0.104399 0.750000 0.369402
O O2 0.186476 0.947219 0.398407
O O3 0.226472 0.974721 0.153771
O O4 0.000000 0.000000 0.500000
O O5 0.937787 0.750000 0.955337
O O6 0.900519 0.918578 0.843005
O O7 0.111280 0.929798 0.685684
O O8 0.913829 0.022963 0.018296
O O9 0.704824 0.750000 0.474865
O O10 0.501825 0.888017 0.682927
O O11 0.665126 0.985644 0.626563
O O12 0.712694 0.998452 0.370961
O O13 0.300782 0.874166 0.794349
O O14 0.500000 0.000000 0.500000
O O15 0.347876 0.090822 0.843777
O O16 0.770986 0.750000 0.881963
O O17 0.276397 0.750000 0.410227
O O18 0.813972 0.250000 0.218527
#
# Coordination Sequence:
#
# PCOD8074311 Si02
#       7
#     4   4   4   4   4   4   4
#     4  11  22  39  63  91 122 157 199 250 302 357
#     4   9  18  35  56  82 117 152 191 243 297 352
#     4  11  23  38  57  83 117 157 199 246 298 353
#     4   9  21  39  61  89 120 156 199 245 292 351
#     4  10  20  37  63  94 122 154 198 250 305 354
#     4  10  22  40  58  81 117 158 197 242 297 355
#     4  10  20  35  58  86 115 151 196 244 297 358
#
# _framework density 21.25132
#
# number of rings (size 3 to 8) (size 9 to 14) (size 15 to 20)
#    0.000    2.000    1.429    1.714    0.000   11.429 
#    0.000    0.714    0.000    0.000    0.000    0.000 
#    0.000    0.000    0.000    0.000    0.000    0.000 
#
# Total GULP energy -346938.948485 kJ/mol
# GULP energy per Si atom -12390.676732 kJ/mol
# Density = 2.120295 g / cm^3
# Si number density = 21.251320 Si / 1000 Ang^3
#
#
#
# Elastic Constant Matrix: (Units=GPa)
#
#
# Indices 1 2 3 4 5 6 
#
# 1 113.2300 56.8494 21.7105 0.0000 -12.2178 0.0000
# 2 56.8494 156.7757 29.5913 0.0000 3.7467 0.0000
# 3 21.7105 29.5913 67.4263 0.0000 2.7859 0.0000
# 4 0.0000 0.0000 0.0000 22.2151 0.0000 10.1185
# 5 -12.2178 3.7467 2.7859 0.0000 19.1964 0.0000
# 6 0.0000 0.0000 0.0000 10.1185 0.0000 23.5792
#
#
#
# Elastic Compliance Matrix: (Units=1/GPa)
#
#
# Indices 1 2 3 4 5 6 
#
# 1 0.012430 -0.004251 -0.002513 0.000000 0.009106 0.000000
# 2 -0.004251 0.008424 -0.002162 0.000000 -0.004036 0.000000
# 3 -0.002513 -0.002162 0.016738 0.000000 -0.003607 0.000000
# 4 0.000000 0.000000 0.000000 0.055950 0.000000 -0.024010
# 5 0.009106 -0.004036 -0.003607 0.000000 0.059200 0.000000
# 6 0.000000 0.000000 0.000000 -0.024010 0.000000 0.052714
#
#
# Mechanical properties :
#
#
# Convention : Reuss Voigt Hill
#
# Bulk Modulus (GPa) = 50.65502 61.52606 56.09054
# Shear Modulus (GPa) = 21.74975 28.28353 25.01664
#
# Velocity S-wave (km/s) = 3.20262 3.65212 3.43473
# Velocity P-wave (km/s) = 6.12891 6.84094 6.49469
#
# Compressibility (1/GPa) = 0.01974138
#
# Stress axis : x y z
#
# Youngs Moduli (GPa) = 80.45009 118.70336 59.74441
#
# Poissons Ratio (x) = 0.50456 0.15014
# Poissons Ratio (y) = 0.34196 0.12915
# Poissons Ratio (z) = 0.20218 0.25661
#
# Static dielectric constant tensor:
#      x y z
#    x 4.209460 0.000000 -0.161790 
#    y 0.000000 3.919440 0.000000 
#    z -0.161790 0.000000 3.699270 
# 
# 
# High freq. dielectric constant tensor:
#      x y z
#    x 1.838950 0.000000 -0.006320 
#    y 0.000000 1.832630 0.000000 
#    z -0.006320 0.000000 1.808020 
# 
# From -- ./inp_files/54529.got.cif
#   From: 2010.06.25/outbox.cif.g09.slc.cpg/sg11_28_cif.got.tgz:54529.got - 2010.06.27 23:14:04.
