data_PCOD8074910
_publ_section_title
;
Structure prediction by ZEFSAII (Michael W. Deem and Ramdas Pophale) SiO2 
 PCOD8074910
Probable space group: P 21/M
;
_chemical_formula_sum "Si O2"
_cell_formula_units_Z 24
_cell_length_a 12.537306
_cell_length_b 8.720583
_cell_length_c 11.550010
_cell_angle_alpha 90.000000
_cell_angle_beta 89.228683
_cell_angle_gamma 90.000000
_cell_volume 1262.678403
_symmetry_space_group_name_H-M "P 21/M"
_symmetry_group_IT_number 11
_symmetry_cell_setting 'monoclinic'
loop_
_space_group_symop_operation_xyz
x,y,z
-x,1/2+y,-z
-x,-y,-z
x,1/2-y,z
loop_
_atom_site_type_symbol
_atom_site_label
_atom_site_fract_x
_atom_site_fract_y
_atom_site_fract_z
Si Si1 0.983081 0.069796 0.625076
Si Si2 0.206352 0.071917 0.243749
Si Si3 0.599635 0.428067 0.647873
Si Si4 0.173265 0.931185 0.763651
Si Si5 0.379810 0.571170 0.618382
Si Si6 0.882951 0.929626 0.004665
O O1 0.997349 0.250000 0.617024
O O2 0.065937 0.001404 0.714393
O O3 0.000000 0.000000 0.500000
O O4 0.865024 0.029543 0.669459
O O5 0.187005 0.250000 0.271047
O O6 0.328485 0.026150 0.265378
O O7 0.179108 0.033026 0.112040
O O8 0.613058 0.250000 0.676147
O O9 0.477459 0.475868 0.669897
O O10 0.635265 0.467049 0.516431
O O11 0.160492 0.750000 0.765218
O O12 0.273798 0.983033 0.685796
O O13 0.187284 0.993769 0.893137
O O14 0.403371 0.750000 0.636862
O O15 0.893667 0.750000 0.027297
O O16 0.000000 0.000000 0.000000
#
# Coordination Sequence:
#
# PCOD8074910 Si02
#       6
#     4   4   4   4   4   4
#     4  12  24  37  57  85 119 153 191 239 294 353
#     4  11  23  39  59  84 117 154 196 242 293 350
#     4  10  20  36  61  89 117 152 194 240 293 352
#     4  11  22  38  60  86 118 154 197 243 294 352
#     4   9  20  38  59  85 118 154 190 237 294 352
#     4  11  23  39  60  84 115 157 200 244 294 351
#
# _framework density 19.007216
#
# number of rings (size 3 to 8) (size 9 to 14) (size 15 to 20)
#    0.000    1.333    1.667    4.500    0.000    5.333 
#    0.000    0.833    0.000    0.000    0.000    0.000 
#    0.000    0.000    0.000    0.000    0.000    0.000 
#
# Total GULP energy -297764.314864 kJ/mol
# GULP energy per Si atom -12406.846453 kJ/mol
# Density = 1.896395 g / cm^3
# Si number density = 19.007216 Si / 1000 Ang^3
#
#
#
# Elastic Constant Matrix: (Units=GPa)
#
#
# Indices 1 2 3 4 5 6 
#
# 1 87.7917 31.2755 28.5594 0.0000 15.7085 0.0000
# 2 31.2755 88.4030 39.1174 0.0000 10.4740 0.0000
# 3 28.5594 39.1174 82.3998 0.0000 14.3458 0.0000
# 4 0.0000 0.0000 0.0000 34.0821 0.0000 0.0476
# 5 15.7085 10.4740 14.3458 0.0000 30.7149 0.0000
# 6 0.0000 0.0000 0.0000 0.0476 0.0000 34.3101
#
#
#
# Elastic Compliance Matrix: (Units=1/GPa)
#
#
# Indices 1 2 3 4 5 6 
#
# 1 0.014293 -0.003364 -0.002486 0.000000 -0.005001 0.000000
# 2 -0.003364 0.015210 -0.005934 0.000000 -0.000695 0.000000
# 3 -0.002486 -0.005934 0.016590 0.000000 -0.004454 0.000000
# 4 0.000000 0.000000 0.000000 0.029341 0.000000 -0.000041
# 5 -0.005001 -0.000695 -0.004454 0.000000 0.037432 0.000000
# 6 0.000000 0.000000 0.000000 -0.000041 0.000000 0.029146
#
#
# Mechanical properties :
#
#
# Convention : Reuss Voigt Hill
#
# Bulk Modulus (GPa) = 44.39487 50.72212 47.55850
# Shear Modulus (GPa) = 28.88718 30.46424 29.67571
#
# Velocity S-wave (km/s) = 3.90269 4.00781 3.95560
# Velocity P-wave (km/s) = 6.61177 6.93977 6.77775
#
# Compressibility (1/GPa) = 0.02252513
#
# Stress axis : x y z
#
# Youngs Moduli (GPa) = 69.96620 65.74716 60.27787
#
# Poissons Ratio (x) = 0.22116 0.14986
# Poissons Ratio (y) = 0.23535 0.35767
# Poissons Ratio (z) = 0.17394 0.39012
#
# Static dielectric constant tensor:
#      x y z
#    x 3.515160 0.000000 0.055090 
#    y 0.000000 3.570220 0.000000 
#    z 0.055090 0.000000 3.675040 
# 
# 
# High freq. dielectric constant tensor:
#      x y z
#    x 1.738550 0.000000 0.003380 
#    y 0.000000 1.752180 0.000000 
#    z 0.003380 0.000000 1.738950 
# 
# From -- ./inp_files/33773.got.cif
#   From: 2010.06.25/outbox.cif.g09.slc.cpg/sg11_17_cif.got.tgz:33773.got - 2010.06.27 23:14:04.
