data_PCOD8074847
_publ_section_title
;
Structure prediction by ZEFSAII (Michael W. Deem and Ramdas Pophale) SiO2 
 PCOD8074847
Probable space group: P 21/M
;
_chemical_formula_sum "Si O2"
_cell_formula_units_Z 32
_cell_length_a 12.181646
_cell_length_b 8.743510
_cell_length_c 28.069790
_cell_angle_alpha 90.000000
_cell_angle_beta 147.230709
_cell_angle_gamma 90.000000
_cell_volume 1618.210318
_symmetry_space_group_name_H-M "P 21/M"
_symmetry_group_IT_number 11
_symmetry_cell_setting 'monoclinic'
loop_
_space_group_symop_operation_xyz
x,y,z
-x,1/2+y,-z
-x,-y,-z
x,1/2-y,z
loop_
_atom_site_type_symbol
_atom_site_label
_atom_site_fract_x
_atom_site_fract_y
_atom_site_fract_z
Si Si1 0.170129 0.069279 0.944021
Si Si2 0.583802 0.430677 0.140531
Si Si3 0.911613 0.429580 0.184848
Si Si4 0.289602 0.571346 0.478784
Si Si5 0.716701 0.427451 0.632977
Si Si6 0.049331 0.069681 0.568987
Si Si7 0.885524 0.570341 0.913485
Si Si8 0.577848 0.430438 0.244717
O O1 0.152093 0.250000 0.943190
O O2 0.171867 0.023894 0.889862
O O3 0.374436 0.003786 0.042793
O O4 0.978362 0.990044 0.898441
O O5 0.562841 0.250000 0.134087
O O6 0.772426 0.483491 0.177849
O O7 0.621349 0.492045 0.207344
O O8 0.894751 0.250000 0.168139
O O9 0.141001 0.473037 0.280930
O O10 0.339543 0.750000 0.503503
O O11 0.488742 0.473953 0.563210
O O12 0.227097 0.536318 0.401454
O O13 0.112456 0.516164 0.449840
O O14 0.747476 0.250000 0.655841
O O15 0.046142 0.250000 0.563091
O O16 0.272788 0.015470 0.664893
O O17 0.000000 0.000000 0.500000
O O18 0.909248 0.750000 0.926482
O O19 0.650916 0.523037 0.826164
O O20 0.000000 0.500000 0.000000
O O21 0.614041 0.250000 0.262456
#
# Coordination Sequence:
#
# PCOD8074847 Si02
#       8
#     4   4   4   4   4   4   4   4
#     4  11  22  39  59  83 119 157 198 247 296 348
#     4   9  19  37  60  85 116 154 195 241 294 352
#     4  11  22  36  56  85 120 156 196 238 294 357
#     4   9  20  39  61  85 116 149 190 241 294 350
#     4  10  20  36  60  88 115 149 192 239 294 352
#     4  11  24  41  61  88 120 155 195 244 296 353
#     4  11  22  39  63  89 120 157 200 248 297 350
#     4  10  21  40  64  89 118 155 196 244 299 353
#
# _framework density 19.774933000000001
#
# number of rings (size 3 to 8) (size 9 to 14) (size 15 to 20)
#    0.000    1.750    1.250    3.000    0.000    3.500 
#    0.000    3.750    0.000    0.000    0.000    0.000 
#    0.000    0.000    0.000    0.000    0.000    0.000 
#
# Total GULP energy -396927.713246 kJ/mol
# GULP energy per Si atom -12403.991039 kJ/mol
# Density = 1.972992 g / cm^3
# Si number density = 19.774933 Si / 1000 Ang^3
#
#
#
# Elastic Constant Matrix: (Units=GPa)
#
#
# Indices 1 2 3 4 5 6 
#
# 1 73.2645 37.4371 57.3839 0.0000 3.3178 0.0000
# 2 37.4371 46.4434 43.5794 0.0000 8.9927 0.0000
# 3 57.3839 43.5794 144.7436 0.0000 -4.3745 0.0000
# 4 0.0000 0.0000 0.0000 33.6832 0.0000 -2.4861
# 5 3.3178 8.9927 -4.3745 0.0000 32.6823 0.0000
# 6 0.0000 0.0000 0.0000 -2.4861 0.0000 32.3512
#
#
#
# Elastic Compliance Matrix: (Units=1/GPa)
#
#
# Indices 1 2 3 4 5 6 
#
# 1 0.026130 -0.016135 -0.005470 0.000000 0.001055 0.000000
# 2 -0.016135 0.043233 -0.006958 0.000000 -0.011189 0.000000
# 3 -0.005470 -0.006958 0.011292 0.000000 0.003981 0.000000
# 4 0.000000 0.000000 0.000000 0.029858 0.000000 0.002294
# 5 0.001055 -0.011189 0.003981 0.000000 0.034102 0.000000
# 6 0.000000 0.000000 0.000000 0.002294 0.000000 0.031087
#
#
# Mechanical properties :
#
#
# Convention : Reuss Voigt Hill
#
# Bulk Modulus (GPa) = 42.49792 60.13915 51.31854
# Shear Modulus (GPa) = 20.77525 28.14675 24.46100
#
# Velocity S-wave (km/s) = 3.24479 3.77683 3.52087
# Velocity P-wave (km/s) = 5.96453 7.03542 6.52199
#
# Compressibility (1/GPa) = 0.02353056
#
# Stress axis : x y z
#
# Youngs Moduli (GPa) = 38.27005 23.13046 88.55476
#
# Poissons Ratio (x) = 0.37321 0.48436
# Poissons Ratio (y) = 0.61748 0.61617
# Poissons Ratio (z) = 0.20932 0.16094
#
# Static dielectric constant tensor:
#      x y z
#    x 3.950290 0.000000 -0.055560 
#    y 0.000000 3.468430 0.000000 
#    z -0.055560 0.000000 3.705300 
# 
# 
# High freq. dielectric constant tensor:
#      x y z
#    x 1.777600 0.000000 0.003120 
#    y 0.000000 1.763630 0.000000 
#    z 0.003120 0.000000 1.779530 
# 
# From -- ./inp_files/49312.got.cif
#   From: 2010.06.25/outbox.cif.g09.slc.cpg/sg11_25_cif.got.tgz:49312.got - 2010.06.27 23:14:04.
