data_PCOD8074107
_publ_section_title
;
Structure prediction by ZEFSAII (Michael W. Deem and Ramdas Pophale) SiO2 
 PCOD8074107
Probable space group: P 21/M
;
_chemical_formula_sum "Si O2"
_cell_formula_units_Z 32
_cell_length_a 15.946225
_cell_length_b 8.675856
_cell_length_c 23.323690
_cell_angle_alpha 90.000000
_cell_angle_beta 29.747162
_cell_angle_gamma 90.000000
_cell_volume 1601.035818
_symmetry_space_group_name_H-M "P 21/M"
_symmetry_group_IT_number 11
_symmetry_cell_setting 'monoclinic'
loop_
_space_group_symop_operation_xyz
x,y,z
-x,1/2+y,-z
-x,-y,-z
x,1/2-y,z
loop_
_atom_site_type_symbol
_atom_site_label
_atom_site_fract_x
_atom_site_fract_y
_atom_site_fract_z
Si Si1 0.699026 0.066536 0.548180
Si Si2 0.012819 0.568281 0.428775
Si Si3 0.368738 0.069432 0.805923
Si Si4 0.521184 0.573345 0.549211
Si Si5 0.157146 0.068028 0.033890
Si Si6 0.334204 0.429882 0.039299
Si Si7 0.692581 0.928963 0.816323
Si Si8 0.180263 0.573203 0.819784
O O1 0.712913 0.250000 0.540611
O O2 0.548397 0.000158 0.678596
O O3 0.872288 0.998408 0.469357
O O4 0.661796 0.012449 0.505057
O O5 0.992458 0.750000 0.445537
O O6 0.000000 0.500000 0.500000
O O7 0.194933 0.528387 0.293810
O O8 0.389274 0.250000 0.790229
O O9 0.317510 0.013122 0.900020
O O10 0.213086 0.020336 0.858190
O O11 0.500000 0.500000 0.500000
O O12 0.577721 0.750000 0.510044
O O13 0.338427 0.554963 0.684794
O O14 0.140678 0.250000 0.038300
O O15 0.189226 0.020662 0.080472
O O16 0.980996 0.996976 0.116415
O O17 0.383507 0.250000 0.005198
O O18 0.258946 0.467707 0.146467
O O19 0.496897 0.529098 0.925804
O O20 0.720920 0.750000 0.785333
O O21 0.148152 0.750000 0.855544
#
# Coordination Sequence:
#
# PCOD8074107 Si02
#       8
#     4   4   4   4   4   4   4   4
#     4  10  21  38  58  85 117 153 194 242 298 359
#     4  12  26  43  64  90 120 156 199 251 308 367
#     4   9  18  32  53  78 110 146 183 223 277 339
#     4  10  20  35  56  82 113 155 198 244 294 349
#     4   9  17  31  53  81 107 142 187 229 277 336
#     4   9  19  36  60  85 115 156 196 239 294 350
#     4  10  21  39  60  86 118 152 194 243 297 355
#     4   9  18  32  50  75 109 144 184 228 280 336
#
# _framework density 19.98706
#
# number of rings (size 3 to 8) (size 9 to 14) (size 15 to 20)
#    0.000    2.250    0.000    2.625    1.750    2.500 
#    0.000    3.750    0.000    0.000    0.000    0.000 
#    0.000    0.000    0.000    0.000    0.000    0.000 
#
# Total GULP energy -396709.488810 kJ/mol
# GULP energy per Si atom -12397.171525 kJ/mol
# Density = 1.994157 g / cm^3
# Si number density = 19.987060 Si / 1000 Ang^3
#
#
#
# Elastic Constant Matrix: (Units=GPa)
#
#
# Indices 1 2 3 4 5 6 
#
# 1 105.5747 26.8130 32.2907 0.0000 8.5795 0.0000
# 2 26.8130 69.4148 27.8605 0.0000 5.4527 0.0000
# 3 32.2907 27.8605 60.9859 0.0000 6.1269 0.0000
# 4 0.0000 0.0000 0.0000 25.8102 0.0000 -1.7264
# 5 8.5795 5.4527 6.1269 0.0000 28.1926 0.0000
# 6 0.0000 0.0000 0.0000 -1.7264 0.0000 32.1531
#
#
#
# Elastic Compliance Matrix: (Units=1/GPa)
#
#
# Indices 1 2 3 4 5 6 
#
# 1 0.011753 -0.002405 -0.004919 0.000000 -0.002043 0.000000
# 2 -0.002405 0.018213 -0.006917 0.000000 -0.001287 0.000000
# 3 -0.004919 -0.006917 0.022365 0.000000 -0.002026 0.000000
# 4 0.000000 0.000000 0.000000 0.038884 0.000000 0.002088
# 5 -0.002043 -0.001287 -0.002026 0.000000 0.036781 0.000000
# 6 0.000000 0.000000 0.000000 0.002088 0.000000 0.031213
#
#
# Mechanical properties :
#
#
# Convention : Reuss Voigt Hill
#
# Bulk Modulus (GPa) = 41.93222 45.54487 43.73854
# Shear Modulus (GPa) = 25.55677 27.16524 26.36101
#
# Velocity S-wave (km/s) = 3.57972 3.69065 3.63561
# Velocity P-wave (km/s) = 6.17342 6.40296 6.28924
#
# Compressibility (1/GPa) = 0.02384801
#
# Stress axis : x y z
#
# Youngs Moduli (GPa) = 85.08198 54.90677 44.71178
#
# Poissons Ratio (x) = 0.13206 0.21995
# Poissons Ratio (y) = 0.20464 0.30929
# Poissons Ratio (z) = 0.41854 0.37981
#
# Static dielectric constant tensor:
#      x y z
#    x 3.813280 0.000000 0.071280 
#    y 0.000000 3.559390 0.000000 
#    z 0.071280 0.000000 3.684250 
# 
# 
# High freq. dielectric constant tensor:
#      x y z
#    x 1.789870 0.000000 0.002170 
#    y 0.000000 1.766260 0.000000 
#    z 0.002170 0.000000 1.777590 
# 
# From -- ./inp_files/69005.got.cif
#   From: 2010.06.25/outbox.cif.g09.slc.cpg/sg11_35_cif.got.tgz:69005.got - 2010.06.27 23:14:04.
