data_PCOD8074200
_publ_section_title
;
Structure prediction by ZEFSAII (Michael W. Deem and Ramdas Pophale) SiO2 
 PCOD8074200
Probable space group: P 21/M
;
_chemical_formula_sum "Si O2"
_cell_formula_units_Z 32
_cell_length_a 22.328090
_cell_length_b 8.891763
_cell_length_c 14.412037
_cell_angle_alpha 90.000000
_cell_angle_beta 141.547519
_cell_angle_gamma 90.000000
_cell_volume 1779.349187
_symmetry_space_group_name_H-M "P 21/M"
_symmetry_group_IT_number 11
_symmetry_cell_setting 'monoclinic'
loop_
_space_group_symop_operation_xyz
x,y,z
-x,1/2+y,-z
-x,-y,-z
x,1/2-y,z
loop_
_atom_site_type_symbol
_atom_site_label
_atom_site_fract_x
_atom_site_fract_y
_atom_site_fract_z
Si Si1 0.010557 0.586082 0.793300
Si Si2 0.744061 0.572124 0.556075
Si Si3 0.893700 0.071494 0.366813
Si Si4 0.386472 0.571715 0.271815
Si Si5 0.588328 0.426386 0.487385
Si Si6 0.168925 0.416980 0.535044
Si Si7 0.924225 0.421954 0.843342
Si Si8 0.793852 0.421743 0.061777
O O1 0.996402 0.750000 0.827475
O O2 0.122036 0.561573 0.911088
O O3 0.946164 0.592831 0.622854
O O4 0.970746 0.442116 0.799020
O O5 0.744173 0.750000 0.564352
O O6 0.643074 0.506544 0.468412
O O7 0.770514 0.524630 0.481759
O O8 0.822072 0.505493 0.722610
O O9 0.906459 0.250000 0.375984
O O10 0.832470 0.005915 0.204603
O O11 0.824679 0.029513 0.370348
O O12 0.000000 0.000000 0.500000
O O13 0.401211 0.750000 0.278049
O O14 0.479987 0.485171 0.350725
O O15 0.366358 0.534970 0.356298
O O16 0.300297 0.507281 0.101796
O O17 0.589996 0.250000 0.470464
O O18 0.206642 0.250000 0.607681
O O19 0.907740 0.250000 0.849803
O O20 0.000000 0.500000 0.000000
O O21 0.769295 0.250000 0.053192
#
# Coordination Sequence:
#
# PCOD8074200 Si02
#       8
#     4   4   4   4   4   4   4   4
#     4   9  17  32  50  69 102 141 177 216 258 310
#     4  10  21  37  56  76 103 141 179 220 268 322
#     4  11  20  32  52  77 107 144 182 221 263 314
#     4   9  19  36  57  79 106 142 177 215 268 326
#     4  10  20  35  57  84 108 135 175 225 272 321
#     4   9  18  34  52  74 105 140 176 215 263 315
#     4  11  22  34  47  71 104 140 180 219 262 314
#     4   9  18  33  53  76 104 142 180 215 263 319
#
# _framework density 17.984103000000001
#
# number of rings (size 3 to 8) (size 9 to 14) (size 15 to 20)
#    0.000    2.250    1.250    3.000    1.750    3.000 
#    0.000    1.875    0.000    0.750    0.000    0.000 
#    0.000    0.000    0.000    0.000    0.000    0.000 
#
# Total GULP energy -396442.179417 kJ/mol
# GULP energy per Si atom -12388.818107 kJ/mol
# Density = 1.794317 g / cm^3
# Si number density = 17.984103 Si / 1000 Ang^3
#
#
#
# Elastic Constant Matrix: (Units=GPa)
#
#
# Indices 1 2 3 4 5 6 
#
# 1 98.6395 38.3222 48.1017 0.0000 6.5927 0.0000
# 2 38.3222 69.9984 28.3914 0.0000 1.3848 0.0000
# 3 48.1017 28.3914 105.4767 0.0000 1.7239 0.0000
# 4 0.0000 0.0000 0.0000 23.4920 0.0000 1.2395
# 5 6.5927 1.3848 1.7239 0.0000 18.8979 0.0000
# 6 0.0000 0.0000 0.0000 1.2395 0.0000 31.3886
#
#
#
# Elastic Compliance Matrix: (Units=1/GPa)
#
#
# Indices 1 2 3 4 5 6 
#
# 1 0.015429 -0.006213 -0.005291 0.000000 -0.004445 0.000000
# 2 -0.006213 0.018550 -0.002176 0.000000 0.001007 0.000000
# 3 -0.005291 -0.002176 0.012465 0.000000 0.000868 0.000000
# 4 0.000000 0.000000 0.000000 0.042657 0.000000 -0.001684
# 5 -0.004445 0.001007 0.000868 0.000000 0.054313 0.000000
# 6 0.000000 0.000000 0.000000 -0.001684 0.000000 0.031925
#
#
# Mechanical properties :
#
#
# Convention : Reuss Voigt Hill
#
# Bulk Modulus (GPa) = 52.40081 55.97168 54.18624
# Shear Modulus (GPa) = 23.91634 25.37567 24.64600
#
# Velocity S-wave (km/s) = 3.65068 3.76041 3.70595
# Velocity P-wave (km/s) = 6.85350 7.07423 6.96474
#
# Compressibility (1/GPa) = 0.01908368
#
# Stress axis : x y z
#
# Youngs Moduli (GPa) = 64.81281 53.90765 80.22181
#
# Poissons Ratio (x) = 0.33492 0.42448
# Poissons Ratio (y) = 0.40268 0.17459
# Poissons Ratio (z) = 0.34294 0.11732
#
# Static dielectric constant tensor:
#      x y z
#    x 3.408560 0.000000 -0.189840 
#    y 0.000000 3.203290 0.000000 
#    z -0.189840 0.000000 3.440510 
# 
# 
# High freq. dielectric constant tensor:
#      x y z
#    x 1.692780 0.000000 -0.003450 
#    y 0.000000 1.687080 0.000000 
#    z -0.003450 0.000000 1.678070 
# 
# From -- ./inp_files/54331.got.cif
#   From: 2010.06.25/outbox.cif.g09.slc.cpg/sg11_28_cif.got.tgz:54331.got - 2010.06.27 23:14:04.
