data_PCOD8074168
_publ_section_title
;
Structure prediction by ZEFSAII (Michael W. Deem and Ramdas Pophale) SiO2 
 PCOD8074168
Probable space group: P 21/M
;
_chemical_formula_sum "Si O2"
_cell_formula_units_Z 32
_cell_length_a 14.637435
_cell_length_b 8.976876
_cell_length_c 19.944384
_cell_angle_alpha 90.000000
_cell_angle_beta 44.133199
_cell_angle_gamma 90.000000
_cell_volume 1824.841637
_symmetry_space_group_name_H-M "P 21/M"
_symmetry_group_IT_number 11
_symmetry_cell_setting 'monoclinic'
loop_
_space_group_symop_operation_xyz
x,y,z
-x,1/2+y,-z
-x,-y,-z
x,1/2-y,z
loop_
_atom_site_type_symbol
_atom_site_label
_atom_site_fract_x
_atom_site_fract_y
_atom_site_fract_z
Si Si1 0.089701 0.081881 0.536437
Si Si2 0.646229 0.075349 0.614112
Si Si3 0.620801 0.075289 0.472535
Si Si4 0.860660 0.577000 0.826884
Si Si5 0.423615 0.425826 0.978371
Si Si6 0.840747 0.580929 0.686043
Si Si7 0.448144 0.078144 0.214268
Si Si8 0.116096 0.417718 0.681374
O O1 0.102091 0.250000 0.502085
O O2 0.092330 0.077126 0.615006
O O3 0.210083 0.988116 0.443837
O O4 0.950126 0.012318 0.587404
O O5 0.645997 0.250000 0.628227
O O6 0.609495 0.037002 0.557140
O O7 0.538207 0.996683 0.719299
O O8 0.618473 0.250000 0.460744
O O9 0.500000 0.000000 0.500000
O O10 0.754156 0.011576 0.369846
O O11 0.896612 0.750000 0.811966
O O12 0.826187 0.526094 0.769801
O O13 0.988420 0.487206 0.785661
O O14 0.731577 0.539233 0.937652
O O15 0.450990 0.250000 0.967968
O O16 0.466179 0.490860 0.884824
O O17 0.500000 0.500000 0.000000
O O18 0.889500 0.750000 0.659339
O O19 0.702654 0.559278 0.724577
O O20 0.492617 0.250000 0.192897
O O21 0.136098 0.250000 0.696957
#
# Coordination Sequence:
#
# PCOD8074168 Si02
#       8
#     4   4   4   4   4   4   4   4
#     4   9  17  29  46  68  93 127 168 208 247 293
#     4  10  21  36  51  71  99 133 165 203 252 304
#     4  10  20  35  57  82 108 134 163 200 248 307
#     4   9  17  31  48  68  98 134 172 216 260 297
#     4  11  21  34  51  72  99 135 180 227 267 304
#     4   9  17  30  45  64  92 129 171 212 253 295
#     4  11  22  35  49  69  97 133 175 219 260 301
#     4   9  17  29  48  76 104 130 165 206 250 300
#
# _framework density 17.535769999999999
#
# number of rings (size 3 to 8) (size 9 to 14) (size 15 to 20)
#    0.000    2.250    1.250    2.250    0.000    7.000 
#    0.000    0.000    0.000    0.000    0.000    0.875 
#    0.000    0.000    0.000    0.000    0.000    0.000 
#
# Total GULP energy -396766.384696 kJ/mol
# GULP energy per Si atom -12398.949522 kJ/mol
# Density = 1.749586 g / cm^3
# Si number density = 17.535770 Si / 1000 Ang^3
#
#
#
# Elastic Constant Matrix: (Units=GPa)
#
#
# Indices 1 2 3 4 5 6 
#
# 1 53.2954 41.7455 43.3192 0.0000 -13.2730 0.0000
# 2 41.7455 118.1814 69.3611 0.0000 -8.6858 0.0000
# 3 43.3192 69.3611 123.4346 0.0000 -3.4465 0.0000
# 4 0.0000 0.0000 0.0000 32.8384 0.0000 -5.5958
# 5 -13.2730 -8.6858 -3.4465 0.0000 19.0623 0.0000
# 6 0.0000 0.0000 0.0000 -5.5958 0.0000 23.5031
#
#
#
# Elastic Compliance Matrix: (Units=1/GPa)
#
#
# Indices 1 2 3 4 5 6 
#
# 1 0.035484 -0.006057 -0.008479 0.000000 0.020414 0.000000
# 2 -0.006057 0.014054 -0.005740 0.000000 0.001149 0.000000
# 3 -0.008479 -0.005740 0.014136 0.000000 -0.005964 0.000000
# 4 0.000000 0.000000 0.000000 0.031740 0.000000 0.007557
# 5 0.020414 0.001149 -0.005964 0.000000 0.066119 0.000000
# 6 0.000000 0.000000 0.000000 0.007557 0.000000 0.044347
#
#
# Mechanical properties :
#
#
# Convention : Reuss Voigt Hill
#
# Bulk Modulus (GPa) = 43.24890 67.08476 55.16683
# Shear Modulus (GPa) = 19.67421 24.44647 22.06034
#
# Velocity S-wave (km/s) = 3.35318 3.73780 3.55070
# Velocity P-wave (km/s) = 6.30147 7.54766 6.95255
#
# Compressibility (1/GPa) = 0.02312197
#
# Stress axis : x y z
#
# Youngs Moduli (GPa) = 28.18157 71.15350 70.74142
#
# Poissons Ratio (x) = 0.43099 0.59985
# Poissons Ratio (y) = 0.17070 0.40602
# Poissons Ratio (z) = 0.23896 0.40839
#
# Static dielectric constant tensor:
#      x y z
#    x 2.951140 0.000000 -0.048380 
#    y 0.000000 3.421710 0.000000 
#    z -0.048380 0.000000 3.410470 
# 
# 
# High freq. dielectric constant tensor:
#      x y z
#    x 1.635120 0.000000 -0.006810 
#    y 0.000000 1.691210 0.000000 
#    z -0.006810 0.000000 1.678840 
# 
# From -- ./inp_files/51317.got.cif
#   From: 2010.06.25/outbox.cif.g09.slc.cpg/sg11_26_cif.got.tgz:51317.got - 2010.06.27 23:14:04.
