data_PCOD8074818
_publ_section_title
;
Structure prediction by ZEFSAII (Michael W. Deem and Ramdas Pophale) SiO2 
 PCOD8074818
Probable space group: P 21/M
;
_chemical_formula_sum "Si O2"
_cell_formula_units_Z 28
_cell_length_a 16.321361
_cell_length_b 8.690136
_cell_length_c 12.494558
_cell_angle_alpha 90.000000
_cell_angle_beta 124.366335
_cell_angle_gamma 90.000000
_cell_volume 1462.824232
_symmetry_space_group_name_H-M "P 21/M"
_symmetry_group_IT_number 11
_symmetry_cell_setting 'monoclinic'
loop_
_space_group_symop_operation_xyz
x,y,z
-x,1/2+y,-z
-x,-y,-z
x,1/2-y,z
loop_
_atom_site_type_symbol
_atom_site_label
_atom_site_fract_x
_atom_site_fract_y
_atom_site_fract_z
Si Si1 0.415627 0.070197 0.803035
Si Si2 0.378980 0.431507 0.013438
Si Si3 0.734803 0.074557 0.465638
Si Si4 0.959423 0.427989 0.576841
Si Si5 0.003539 0.930518 0.827543
Si Si6 0.792475 0.931403 0.956148
Si Si7 0.199484 0.931111 0.253924
O O1 0.432664 0.250000 0.821185
O O2 0.521511 0.993913 0.858060
O O3 0.342269 0.032572 0.652301
O O4 0.371368 0.010883 0.884468
O O5 0.383154 0.250000 0.023013
O O6 0.284298 0.490956 0.010377
O O7 0.699099 0.250000 0.428926
O O8 0.841496 0.052523 0.490349
O O9 0.740547 0.024400 0.594161
O O10 0.990429 0.250000 0.610703
O O11 0.010818 0.522514 0.709237
O O12 0.000000 0.500000 0.500000
O O13 0.983683 0.750000 0.825131
O O14 0.915541 0.022987 0.819603
O O15 0.105994 0.975489 0.958350
O O16 0.811284 0.750000 0.979218
O O17 0.750801 0.976123 0.807729
O O18 0.205143 0.750000 0.237380
#
# Coordination Sequence:
#
# PCOD8074818 Si02
#       7
#     4   4   4   4   4   4   4
#     4  10  20  36  60  86 110 142 183 228 279 337
#     4   9  21  39  57  82 113 145 179 228 284 333
#     4   9  20  37  57  79 109 148 183 224 280 333
#     4  10  21  36  53  80 115 150 189 233 277 329
#     4  11  22  36  55  81 113 153 192 229 279 333
#     4  11  22  37  58  83 113 148 189 235 283 333
#     4  10  21  39  58  81 113 150 191 234 279 331
#
# _framework density 19.141055999999999
#
# number of rings (size 3 to 8) (size 9 to 14) (size 15 to 20)
#    0.000    2.000    0.000    4.286    2.000    5.143 
#    0.000    0.714    0.000    0.000    0.000    0.000 
#    0.000    0.000    0.000    0.000    0.000    0.000 
#
# Total GULP energy -347269.354002 kJ/mol
# GULP energy per Si atom -12402.476929 kJ/mol
# Density = 1.909749 g / cm^3
# Si number density = 19.141056 Si / 1000 Ang^3
#
#
#
# Elastic Constant Matrix: (Units=GPa)
#
#
# Indices 1 2 3 4 5 6 
#
# 1 73.3181 18.4096 42.9487 0.0000 -12.1114 0.0000
# 2 18.4096 41.5249 17.1207 0.0000 -1.1022 0.0000
# 3 42.9487 17.1207 100.9198 0.0000 -0.7776 0.0000
# 4 0.0000 0.0000 0.0000 36.9196 0.0000 -1.5229
# 5 -12.1114 -1.1022 -0.7776 0.0000 23.6545 0.0000
# 6 0.0000 0.0000 0.0000 -1.5229 0.0000 28.9739
#
#
#
# Elastic Compliance Matrix: (Units=1/GPa)
#
#
# Indices 1 2 3 4 5 6 
#
# 1 0.021627 -0.005965 -0.008111 0.000000 0.010529 0.000000
# 2 -0.005965 0.027565 -0.002152 0.000000 -0.001840 0.000000
# 3 -0.008111 -0.002152 0.013696 0.000000 -0.003803 0.000000
# 4 0.000000 0.000000 0.000000 0.027145 0.000000 0.001427
# 5 0.010529 -0.001840 -0.003803 0.000000 0.047456 0.000000
# 6 0.000000 0.000000 0.000000 0.001427 0.000000 0.034589
#
#
# Mechanical properties :
#
#
# Convention : Reuss Voigt Hill
#
# Bulk Modulus (GPa) = 32.85885 41.41342 37.13613
# Shear Modulus (GPa) = 23.29074 27.06184 25.17629
#
# Velocity S-wave (km/s) = 3.49204 3.76415 3.63065
# Velocity P-wave (km/s) = 5.78473 6.36982 6.08431
#
# Compressibility (1/GPa) = 0.03043320
#
# Stress axis : x y z
#
# Youngs Moduli (GPa) = 46.23753 36.27822 73.01149
#
# Poissons Ratio (x) = 0.21639 0.59220
# Poissons Ratio (y) = 0.27579 0.15713
# Poissons Ratio (z) = 0.37503 0.07807
#
# Static dielectric constant tensor:
#      x y z
#    x 3.522500 0.000000 -0.254020 
#    y 0.000000 3.497730 0.000000 
#    z -0.254020 0.000000 3.637240 
# 
# 
# High freq. dielectric constant tensor:
#      x y z
#    x 1.733520 0.000000 -0.013340 
#    y 0.000000 1.749450 0.000000 
#    z -0.013340 0.000000 1.749350 
# 
# From -- ./inp_files/38452.got.cif
#   From: 2010.06.25/outbox.cif.g09.slc.cpg/sg11_20_cif.got.tgz:38452.got - 2010.06.27 23:14:04.
