data_PCOD8074095
_publ_section_title
;
Structure prediction by ZEFSAII (Michael W. Deem and Ramdas Pophale) SiO2 
 PCOD8074095
Probable space group: P 21/M
;
_chemical_formula_sum "Si O2"
_cell_formula_units_Z 28
_cell_length_a 15.595905
_cell_length_b 8.698017
_cell_length_c 17.731365
_cell_angle_alpha 90.000000
_cell_angle_beta 142.866304
_cell_angle_gamma 90.000000
_cell_volume 1452.036705
_symmetry_space_group_name_H-M "P 21/M"
_symmetry_group_IT_number 11
_symmetry_cell_setting 'monoclinic'
loop_
_space_group_symop_operation_xyz
x,y,z
-x,1/2+y,-z
-x,-y,-z
x,1/2-y,z
loop_
_atom_site_type_symbol
_atom_site_label
_atom_site_fract_x
_atom_site_fract_y
_atom_site_fract_z
Si Si1 0.669492 0.578165 0.920105
Si Si2 0.413845 0.575524 0.638017
Si Si3 0.633966 0.426056 0.053541
Si Si4 0.841520 0.933327 0.893980
Si Si5 0.150029 0.425774 0.522663
Si Si6 0.586019 0.430027 0.629957
Si Si7 0.148910 0.077119 0.692027
O O1 0.717620 0.750000 0.975130
O O2 0.506668 0.577770 0.778854
O O3 0.773635 0.515142 0.926854
O O4 0.675114 0.478059 0.998751
O O5 0.400282 0.750000 0.596482
O O6 0.261684 0.503185 0.545731
O O7 0.487898 0.461533 0.632285
O O8 0.596646 0.250000 0.022556
O O9 0.769719 0.455601 0.200145
O O10 0.500000 0.500000 0.000000
O O11 0.844783 0.750000 0.889813
O O12 0.742043 0.995376 0.755519
O O13 0.000000 0.000000 0.000000
O O14 0.118231 0.250000 0.476169
O O15 0.208465 0.431082 0.648844
O O16 0.014287 0.532481 0.420396
O O17 0.500000 0.500000 0.500000
O O18 0.608479 0.250000 0.632578
O O19 0.167401 0.250000 0.736752
#
# Coordination Sequence:
#
# PCOD8074095 Si02
#       7
#     4   4   4   4   4   4   4
#     4   9  20  38  59  84 116 151 192 236 283 343
#     4  10  20  36  59  85 113 148 188 231 284 342
#     4  12  24  37  56  82 114 150 192 238 286 339
#     4  10  21  40  65  92 122 159 200 246 303 364
#     4  10  20  35  56  82 110 145 188 231 282 339
#     4  11  22  39  62  89 121 154 196 247 297 354
#     4  10  21  37  56  78 110 148 187 234 283 335
#
# _framework density 19.283259000000001
#
# number of rings (size 3 to 8) (size 9 to 14) (size 15 to 20)
#    0.000    1.714    0.000    6.000    0.000    7.429 
#    2.571    0.000    0.000    0.000    0.000    0.000 
#    0.000    0.000    0.000    0.000    0.000    0.000 
#
# Total GULP energy -347147.363267 kJ/mol
# GULP energy per Si atom -12398.120117 kJ/mol
# Density = 1.923937 g / cm^3
# Si number density = 19.283259 Si / 1000 Ang^3
#
#
#
# Elastic Constant Matrix: (Units=GPa)
#
#
# Indices 1 2 3 4 5 6 
#
# 1 85.7890 41.6826 48.8720 0.0000 10.4931 0.0000
# 2 41.6826 118.0796 41.9387 0.0000 -3.3686 0.0000
# 3 48.8720 41.9387 103.9990 0.0000 -4.2501 0.0000
# 4 0.0000 0.0000 0.0000 35.1725 0.0000 2.0496
# 5 10.4931 -3.3686 -4.2501 0.0000 27.1660 0.0000
# 6 0.0000 0.0000 0.0000 2.0496 0.0000 32.0946
#
#
#
# Elastic Compliance Matrix: (Units=1/GPa)
#
#
# Indices 1 2 3 4 5 6 
#
# 1 0.019258 -0.004333 -0.007678 0.000000 -0.009177 0.000000
# 2 -0.004333 0.010869 -0.002238 0.000000 0.002671 0.000000
# 3 -0.007678 -0.002238 0.014327 0.000000 0.004930 0.000000
# 4 0.000000 0.000000 0.000000 0.028537 0.000000 -0.001822
# 5 -0.009177 0.002671 0.004930 0.000000 0.041458 0.000000
# 6 0.000000 0.000000 0.000000 -0.001822 0.000000 0.031274
#
#
# Mechanical properties :
#
#
# Convention : Reuss Voigt Hill
#
# Bulk Modulus (GPa) = 62.66519 63.65046 63.15782
# Shear Modulus (GPa) = 27.84884 30.57824 29.21354
#
# Velocity S-wave (km/s) = 3.80438 3.98646 3.89648
# Velocity P-wave (km/s) = 7.20177 7.36674 7.28472
#
# Compressibility (1/GPa) = 0.01595782
#
# Stress axis : x y z
#
# Youngs Moduli (GPa) = 51.92637 92.00063 69.79708
#
# Poissons Ratio (x) = 0.39865 0.53587
# Poissons Ratio (y) = 0.22500 0.15619
# Poissons Ratio (z) = 0.39867 0.20588
#
# Static dielectric constant tensor:
#      x y z
#    x 3.482270 0.000000 -0.017620 
#    y 0.000000 4.280350 0.000000 
#    z -0.017620 0.000000 3.658220 
# 
# 
# High freq. dielectric constant tensor:
#      x y z
#    x 1.745930 0.000000 0.005620 
#    y 0.000000 1.763800 0.000000 
#    z 0.005620 0.000000 1.748430 
# 
# From -- ./inp_files/60132.got.cif
#   From: 2010.06.25/outbox.cif.g09.slc.cpg/sg11_31_cif.got.tgz:60132.got - 2010.06.27 23:14:04.
