data_PCOD8074027
_publ_section_title
;
Structure prediction by ZEFSAII (Michael W. Deem and Ramdas Pophale) SiO2 
 PCOD8074027
Probable space group: P 21/M
;
_chemical_formula_sum "Si O2"
_cell_formula_units_Z 24
_cell_length_a 14.964017
_cell_length_b 8.476352
_cell_length_c 23.156367
_cell_angle_alpha 90.000000
_cell_angle_beta 153.802977
_cell_angle_gamma 90.000000
_cell_volume 1296.636384
_symmetry_space_group_name_H-M "P 21/M"
_symmetry_group_IT_number 11
_symmetry_cell_setting 'monoclinic'
loop_
_space_group_symop_operation_xyz
x,y,z
-x,1/2+y,-z
-x,-y,-z
x,1/2-y,z
loop_
_atom_site_type_symbol
_atom_site_label
_atom_site_fract_x
_atom_site_fract_y
_atom_site_fract_z
Si Si1 0.889963 0.066654 0.144276
Si Si2 0.770657 0.931990 0.192955
Si Si3 0.690913 0.064093 0.577040
Si Si4 0.221670 0.068600 0.617482
Si Si5 0.172319 0.431110 0.460021
Si Si6 0.486525 0.434350 0.120936
O O1 0.921167 0.250000 0.149937
O O2 0.779850 0.039521 0.141597
O O3 0.107874 0.982840 0.271112
O O4 0.747746 0.991382 0.011622
O O5 0.762727 0.750000 0.169600
O O6 0.577359 0.975735 0.118469
O O7 0.969330 0.964848 0.346550
O O8 0.679384 0.250000 0.564581
O O9 0.500000 0.000000 0.500000
O O10 0.686321 0.990811 0.510025
O O11 0.222608 0.250000 0.638103
O O12 0.283306 0.052029 0.585882
O O13 0.394334 0.975423 0.751806
O O14 0.000000 0.000000 0.500000
O O15 0.111490 0.250000 0.412746
O O16 0.499958 0.250000 0.117708
#
# Coordination Sequence:
#
# PCOD8074027 Si02
#       6
#     4   4   4   4   4   4
#     4  11  22  37  55  79 110 142 183 230 282 335
#     4  11  20  32  51  76 109 147 187 227 275 329
#     4  11  22  39  63  88 112 141 180 229 284 335
#     4  11  22  35  54  79 113 154 194 230 270 324
#     4  10  20  35  55  82 113 146 187 232 276 326
#     4  12  23  35  51  75 111 152 191 228 272 327
#
# _framework density 18.509428
#
# number of rings (size 3 to 8) (size 9 to 14) (size 15 to 20)
#    0.000    1.000    1.667    9.500    0.000    2.000 
#    0.000    0.000    0.000    1.000    0.000    0.000 
#    0.000    0.000    0.000    0.000    0.000    0.000 
#
# Total GULP energy -297649.323859 kJ/mol
# GULP energy per Si atom -12402.055161 kJ/mol
# Density = 1.846730 g / cm^3
# Si number density = 18.509428 Si / 1000 Ang^3
#
#
#
# Elastic Constant Matrix: (Units=GPa)
#
#
# Indices 1 2 3 4 5 6 
#
# 1 75.0891 28.7510 54.6359 0.0000 12.2777 0.0000
# 2 28.7510 107.9682 26.6838 0.0000 -0.0128 0.0000
# 3 54.6359 26.6838 121.6198 0.0000 -6.0934 0.0000
# 4 0.0000 0.0000 0.0000 33.5236 0.0000 -0.6667
# 5 12.2777 -0.0128 -6.0934 0.0000 21.7582 0.0000
# 6 0.0000 0.0000 0.0000 -0.6667 0.0000 27.3121
#
#
#
# Elastic Compliance Matrix: (Units=1/GPa)
#
#
# Indices 1 2 3 4 5 6 
#
# 1 0.026612 -0.004131 -0.011969 0.000000 -0.018371 0.000000
# 2 -0.004131 0.010442 -0.000323 0.000000 0.002247 0.000000
# 3 -0.011969 -0.000323 0.014208 0.000000 0.010733 0.000000
# 4 0.000000 0.000000 0.000000 0.029844 0.000000 0.000729
# 5 -0.018371 0.002247 0.010733 0.000000 0.059333 0.000000
# 6 0.000000 0.000000 0.000000 0.000729 0.000000 0.036632
#
#
# Mechanical properties :
#
#
# Convention : Reuss Voigt Hill
#
# Bulk Modulus (GPa) = 54.29898 58.31318 56.30608
# Shear Modulus (GPa) = 23.14230 29.49254 26.31742
#
# Velocity S-wave (km/s) = 3.53979 3.99605 3.77482
# Velocity P-wave (km/s) = 6.79017 7.27077 7.03458
#
# Compressibility (1/GPa) = 0.01841655
#
# Stress axis : x y z
#
# Youngs Moduli (GPa) = 37.57729 95.76733 70.38350
#
# Poissons Ratio (x) = 0.39557 0.84243
# Poissons Ratio (y) = 0.15522 0.02272
# Poissons Ratio (z) = 0.44977 0.03092
#
# Static dielectric constant tensor:
#      x y z
#    x 3.197210 0.000000 -0.160590 
#    y 0.000000 3.605300 0.000000 
#    z -0.160590 0.000000 3.588420 
# 
# 
# High freq. dielectric constant tensor:
#      x y z
#    x 1.683120 0.000000 -0.014300 
#    y 0.000000 1.741340 0.000000 
#    z -0.014300 0.000000 1.719860 
# 
# From -- ./inp_files/64122.got.cif
#   From: 2010.06.25/outbox.cif.g09.slc.cpg/sg11_33_cif.got.tgz:64122.got - 2010.06.27 23:14:04.
