data_PCOD8074494
_publ_section_title
;
Structure prediction by ZEFSAII (Michael W. Deem and Ramdas Pophale) SiO2 
 PCOD8074494
Probable space group: P 21/M
;
_chemical_formula_sum "Si O2"
_cell_formula_units_Z 32
_cell_length_a 9.084330
_cell_length_b 13.555346
_cell_length_c 20.943213
_cell_angle_alpha 90.000000
_cell_angle_beta 142.417257
_cell_angle_gamma 90.000000
_cell_volume 1572.932496
_symmetry_space_group_name_H-M "P 21/M"
_symmetry_group_IT_number 11
_symmetry_cell_setting 'monoclinic'
loop_
_space_group_symop_operation_xyz
x,y,z
-x,1/2+y,-z
-x,-y,-z
x,1/2-y,z
loop_
_atom_site_type_symbol
_atom_site_label
_atom_site_fract_x
_atom_site_fract_y
_atom_site_fract_z
Si Si1 0.260082 0.366194 0.665413
Si Si2 0.709472 0.478696 0.617376
Si Si3 0.936304 0.137721 0.309752
Si Si4 0.533695 0.137334 0.073786
Si Si5 0.851225 0.133460 0.424903
Si Si6 0.395515 0.496075 0.280449
Si Si7 0.843403 0.501993 0.105245
Si Si8 0.122882 0.138818 0.758934
O O1 0.276751 0.250000 0.662224
O O2 0.511604 0.415070 0.731623
O O3 0.245150 0.395190 0.734833
O O4 0.038837 0.407229 0.544098
O O5 0.500000 0.500000 0.500000
O O6 0.584785 0.465393 0.641731
O O7 0.898352 0.569615 0.678411
O O8 0.837971 0.374531 0.645244
O O9 0.032859 0.250000 0.338774
O O10 0.666519 0.131734 0.187911
O O11 0.938767 0.100671 0.384111
O O12 0.459910 0.250000 0.032923
O O13 0.704482 0.099560 0.073811
O O14 0.296817 0.067064 0.996123
O O15 0.839175 0.250000 0.426175
O O16 0.574965 0.097172 0.337237
O O17 0.109713 0.475426 0.169634
O O18 0.827116 0.566802 0.164833
O O19 0.189163 0.250000 0.800288
#
# Coordination Sequence:
#
# PCOD8074494 Si02
#       8
#     4   4   4   4   4   4   4   4
#     4  10  21  36  55  80 116 160 194 222 273 339
#     4  11  21  33  52  83 114 145 189 237 284 332
#     4  10  20  37  59  80 110 154 193 228 274 338
#     4  10  20  39  64  83 110 148 190 235 287 341
#     4  10  21  36  56  82 115 158 194 222 270 338
#     4  11  21  33  54  84 114 145 178 240 286 323
#     4  10  22  38  60  91 109 141 191 242 291 333
#     4  10  20  36  56  79 111 152 189 229 280 338
#
# _framework density 20.344166999999999
#
# number of rings (size 3 to 8) (size 9 to 14) (size 15 to 20)
#    0.000    1.750    2.500    3.000    0.000    4.000 
#    0.000    0.625    0.000    0.000    0.000    0.000 
#    0.000    0.000    0.000    0.000    0.000    0.000 
#
# Total GULP energy -396441.374129 kJ/mol
# GULP energy per Si atom -12388.792942 kJ/mol
# Density = 2.029786 g / cm^3
# Si number density = 20.344167 Si / 1000 Ang^3
#
#
#
# Elastic Constant Matrix: (Units=GPa)
#
#
# Indices 1 2 3 4 5 6 
#
# 1 93.6994 19.7520 6.1175 0.0000 -1.4844 0.0000
# 2 19.7520 34.1638 3.5704 0.0000 -5.6390 0.0000
# 3 6.1175 3.5704 67.8036 0.0000 12.2243 0.0000
# 4 0.0000 0.0000 0.0000 27.5087 0.0000 -1.1617
# 5 -1.4844 -5.6390 12.2243 0.0000 29.6151 0.0000
# 6 0.0000 0.0000 0.0000 -1.1617 0.0000 19.1775
#
#
#
# Elastic Compliance Matrix: (Units=1/GPa)
#
#
# Indices 1 2 3 4 5 6 
#
# 1 0.012195 -0.007061 -0.000644 0.000000 -0.000467 0.000000
# 2 -0.007061 0.034823 -0.002516 0.000000 0.007315 0.000000
# 3 -0.000644 -0.002516 0.016240 0.000000 -0.007215 0.000000
# 4 0.000000 0.000000 0.000000 0.036445 0.000000 0.002208
# 5 -0.000467 0.007315 -0.007215 0.000000 0.038114 0.000000
# 6 0.000000 0.000000 0.000000 0.002208 0.000000 0.052278
#
#
# Mechanical properties :
#
#
# Convention : Reuss Voigt Hill
#
# Bulk Modulus (GPa) = 23.35492 28.28295 25.81894
# Shear Modulus (GPa) = 22.24104 26.34205 24.29154
#
# Velocity S-wave (km/s) = 3.31000 3.60227 3.45922
# Velocity P-wave (km/s) = 5.11009 5.58875 5.35477
#
# Compressibility (1/GPa) = 0.04281753
#
# Stress axis : x y z
#
# Youngs Moduli (GPa) = 81.99752 28.71646 61.57710
#
# Poissons Ratio (x) = 0.20276 0.03967
# Poissons Ratio (y) = 0.57896 0.15490
# Poissons Ratio (z) = 0.05283 0.07224
#
# Static dielectric constant tensor:
#      x y z
#    x 3.602810 0.000000 -0.079320 
#    y 0.000000 3.767670 0.000000 
#    z -0.079320 0.000000 3.779820 
# 
# 
# High freq. dielectric constant tensor:
#      x y z
#    x 1.779380 0.000000 -0.005220 
#    y 0.000000 1.802990 0.000000 
#    z -0.005220 0.000000 1.796530 
# 
# From -- ./inp_files/26820.got.cif
#   From: 2010.06.25/outbox.cif.g09.slc.cpg/sg11_14_cif.got.tgz:26820.got - 2010.06.27 23:14:04.
