data_PCOD8074564
_publ_section_title
;
Structure prediction by ZEFSAII (Michael W. Deem and Ramdas Pophale) SiO2 
 PCOD8074564
Probable space group: P 21/M
;
_chemical_formula_sum "Si O2"
_cell_formula_units_Z 32
_cell_length_a 21.033845
_cell_length_b 9.070750
_cell_length_c 26.079472
_cell_angle_alpha 90.000000
_cell_angle_beta 20.533487
_cell_angle_gamma 90.000000
_cell_volume 1745.276511
_symmetry_space_group_name_H-M "P 21/M"
_symmetry_group_IT_number 11
_symmetry_cell_setting 'monoclinic'
loop_
_space_group_symop_operation_xyz
x,y,z
-x,1/2+y,-z
-x,-y,-z
x,1/2-y,z
loop_
_atom_site_type_symbol
_atom_site_label
_atom_site_fract_x
_atom_site_fract_y
_atom_site_fract_z
Si Si1 0.647672 0.075510 0.663560
Si Si2 0.982635 0.424541 0.341677
Si Si3 0.058810 0.920623 0.744764
Si Si4 0.688018 0.421290 0.849650
Si Si5 0.248765 0.078079 0.943530
Si Si6 0.001498 0.578294 0.052794
Si Si7 0.813698 0.418955 0.641351
Si Si8 0.689200 0.922494 0.367718
O O1 0.635951 0.250000 0.671318
O O2 0.450476 0.013315 0.798218
O O3 0.690469 0.017575 0.688433
O O4 0.801906 0.020994 0.507572
O O5 0.012129 0.250000 0.325142
O O6 0.155530 0.504569 0.235002
O O7 0.962410 0.471725 0.297841
O O8 0.115722 0.750000 0.705028
O O9 0.218511 0.013294 0.650721
O O10 0.866685 0.948833 0.917596
O O11 0.677534 0.250000 0.872618
O O12 0.717171 0.444098 0.767641
O O13 0.500000 0.500000 0.000000
O O14 0.247766 0.250000 0.929398
O O15 0.169735 0.985880 0.956653
O O16 0.032428 0.750000 0.021063
O O17 0.815593 0.545547 0.223280
O O18 0.000000 0.500000 0.000000
O O19 0.857006 0.250000 0.597476
O O20 0.000000 0.500000 0.500000
O O21 0.657411 0.750000 0.400256
O O22 0.500000 0.000000 0.500000
#
# Coordination Sequence:
#
# PCOD8074564 Si02
#       8
#     4   4   4   4   4   4   4   4
#     4   9  18  33  55  80 107 141 180 223 273 326
#     4  10  20  36  57  80 111 146 183 227 275 329
#     4   9  19  34  55  80 109 148 188 226 271 325
#     4  11  24  38  56  82 112 146 188 233 279 332
#     4   9  18  34  55  78 107 145 186 225 268 322
#     4  10  21  37  57  83 114 146 182 226 273 324
#     4  10  20  36  58  81 109 144 184 230 278 330
#     4  10  21  37  58  83 114 149 187 229 274 328
#
# _framework density 18.335204000000001
#
# number of rings (size 3 to 8) (size 9 to 14) (size 15 to 20)
#    0.000    2.250    1.250    1.125    1.750    3.500 
#    0.000    3.750    0.000    0.000    0.000    0.000 
#    0.000    0.000    0.000    0.000    0.000    0.000 
#
# Total GULP energy -396818.274052 kJ/mol
# GULP energy per Si atom -12400.571064 kJ/mol
# Density = 1.829347 g / cm^3
# Si number density = 18.335204 Si / 1000 Ang^3
#
#
#
# Elastic Constant Matrix: (Units=GPa)
#
#
# Indices 1 2 3 4 5 6 
#
# 1 180.3758 73.8811 92.1222 0.0000 -7.8196 0.0000
# 2 73.8811 82.0082 67.6872 0.0000 -7.3074 0.0000
# 3 92.1222 67.6872 151.1929 0.0000 -28.3793 0.0000
# 4 0.0000 0.0000 0.0000 27.7259 0.0000 -5.9713
# 5 -7.8196 -7.3074 -28.3793 0.0000 30.6643 0.0000
# 6 0.0000 0.0000 0.0000 -5.9713 0.0000 31.0821
#
#
#
# Elastic Compliance Matrix: (Units=1/GPa)
#
#
# Indices 1 2 3 4 5 6 
#
# 1 0.009789 -0.005929 -0.003760 0.000000 -0.002396 0.000000
# 2 -0.005929 0.023371 -0.007369 0.000000 -0.002762 0.000000
# 3 -0.003760 -0.007369 0.014153 0.000000 0.010383 0.000000
# 4 0.000000 0.000000 0.000000 0.037624 0.000000 0.007228
# 5 -0.002396 -0.002762 0.010383 0.000000 0.040952 0.000000
# 6 0.000000 0.000000 0.000000 0.007228 0.000000 0.033561
#
#
# Mechanical properties :
#
#
# Convention : Reuss Voigt Hill
#
# Bulk Modulus (GPa) = 75.77207 97.88420 86.82814
# Shear Modulus (GPa) = 25.25697 29.88688 27.57193
#
# Velocity S-wave (km/s) = 3.71551 4.04174 3.88205
# Velocity P-wave (km/s) = 7.73450 8.67656 8.21904
#
# Compressibility (1/GPa) = 0.01319747
#
# Stress axis : x y z
#
# Youngs Moduli (GPa) = 102.15730 42.78731 70.65674
#
# Poissons Ratio (x) = 0.25369 0.26565
# Poissons Ratio (y) = 0.60570 0.52067
# Poissons Ratio (z) = 0.38409 0.31530
#
# Static dielectric constant tensor:
#      x y z
#    x 3.369820 0.000000 -0.012740 
#    y 0.000000 3.333040 0.000000 
#    z -0.012740 0.000000 3.545340 
# 
# 
# High freq. dielectric constant tensor:
#      x y z
#    x 1.722800 0.000000 -0.001420 
#    y 0.000000 1.699770 0.000000 
#    z -0.001420 0.000000 1.717370 
# 
# From -- ./inp_files/71978.got.cif
#   From: 2010.06.25/outbox.cif.g09.slc.cpg/sg11_36_cif.got.tgz:71978.got - 2010.06.27 23:14:04.
