data_PCOD8074198
_publ_section_title
;
Structure prediction by ZEFSAII (Michael W. Deem and Ramdas Pophale) SiO2 
 PCOD8074198
Probable space group: P 21/M
;
_chemical_formula_sum "Si O2"
_cell_formula_units_Z 32
_cell_length_a 28.661757
_cell_length_b 9.001479
_cell_length_c 12.512053
_cell_angle_alpha 90.000000
_cell_angle_beta 149.842141
_cell_angle_gamma 90.000000
_cell_volume 1621.739802
_symmetry_space_group_name_H-M "P 21/M"
_symmetry_group_IT_number 11
_symmetry_cell_setting 'monoclinic'
loop_
_space_group_symop_operation_xyz
x,y,z
-x,1/2+y,-z
-x,-y,-z
x,1/2-y,z
loop_
_atom_site_type_symbol
_atom_site_label
_atom_site_fract_x
_atom_site_fract_y
_atom_site_fract_z
Si Si1 0.148593 0.923984 0.589914
Si Si2 0.792718 0.921525 0.904135
Si Si3 0.689594 0.577286 0.485826
Si Si4 0.509741 0.422988 0.835003
Si Si5 0.264415 0.085902 0.980383
Si Si6 0.979093 0.073213 0.343492
Si Si7 0.528398 0.916574 0.660859
Si Si8 0.291491 0.574399 0.690238
O O1 0.126649 0.750000 0.539965
O O2 0.213985 0.977577 0.621820
O O3 0.053545 0.017186 0.402585
O O4 0.199333 0.958847 0.802543
O O5 0.823589 0.750000 0.951718
O O6 0.737821 0.978163 0.690806
O O7 0.723691 0.939977 0.868970
O O8 0.881193 0.023590 0.101458
O O9 0.708877 0.750000 0.508286
O O10 0.578704 0.545002 0.264748
O O11 0.736021 0.491643 0.478995
O O12 0.519928 0.250000 0.829123
O O13 0.485029 0.504062 0.676565
O O14 0.605653 0.485154 0.074604
O O15 0.219351 0.250000 0.872333
O O16 0.361069 0.078775 0.110845
O O17 0.982370 0.250000 0.362298
O O18 0.000000 0.000000 0.500000
O O19 0.489649 0.750000 0.579057
O O20 0.500000 0.000000 0.500000
O O21 0.293097 0.750000 0.684937
#
# Coordination Sequence:
#
# PCOD8074198 Si02
#       8
#     4   4   4   4   4   4   4   4
#     4  11  22  38  61  90 119 152 193 243 298 349
#     4  10  21  39  60  87 120 156 197 247 301 354
#     4  10  22  39  62  87 119 161 203 247 298 352
#     4  10  20  38  59  85 119 158 202 251 298 347
#     4  10  20  35  57  83 116 155 194 239 296 356
#     4  12  24  39  62  92 121 155 195 242 297 361
#     4  11  22  34  52  82 119 161 201 243 296 356
#     4  10  22  39  61  88 122 158 200 250 296 348
#
# _framework density 19.731894
#
# number of rings (size 3 to 8) (size 9 to 14) (size 15 to 20)
#    0.000    1.500    2.500    3.000    0.000    5.000 
#    0.000    1.875    0.000    0.000    0.000    0.000 
#    0.000    0.000    0.000    0.000    0.000    0.000 
#
# Total GULP energy -396802.604345 kJ/mol
# GULP energy per Si atom -12400.081386 kJ/mol
# Density = 1.968698 g / cm^3
# Si number density = 19.731894 Si / 1000 Ang^3
#
#
#
# Elastic Constant Matrix: (Units=GPa)
#
#
# Indices 1 2 3 4 5 6 
#
# 1 120.4685 43.1551 41.8330 0.0000 -8.1060 0.0000
# 2 43.1551 72.2426 26.6109 0.0000 1.2191 0.0000
# 3 41.8330 26.6109 68.1027 0.0000 -2.7672 0.0000
# 4 0.0000 0.0000 0.0000 31.5821 0.0000 -4.5304
# 5 -8.1060 1.2191 -2.7672 0.0000 32.6478 0.0000
# 6 0.0000 0.0000 0.0000 -4.5304 0.0000 32.3902
#
#
#
# Elastic Compliance Matrix: (Units=1/GPa)
#
#
# Indices 1 2 3 4 5 6 
#
# 1 0.012276 -0.005426 -0.005307 0.000000 0.002801 0.000000
# 2 -0.005426 0.018610 -0.004036 0.000000 -0.002384 0.000000
# 3 -0.005307 -0.004036 0.019540 0.000000 0.000489 0.000000
# 4 0.000000 0.000000 0.000000 0.032312 0.000000 0.004519
# 5 0.002801 -0.002384 0.000489 0.000000 0.031456 0.000000
# 6 0.000000 0.000000 0.000000 0.004519 0.000000 0.031506
#
#
# Mechanical properties :
#
#
# Convention : Reuss Voigt Hill
#
# Bulk Modulus (GPa) = 47.87047 53.77907 50.82477
# Shear Modulus (GPa) = 27.44247 29.27169 28.35708
#
# Velocity S-wave (km/s) = 3.73334 3.85576 3.79505
# Velocity P-wave (km/s) = 6.54958 6.86561 6.70945
#
# Compressibility (1/GPa) = 0.02088970
#
# Stress axis : x y z
#
# Youngs Moduli (GPa) = 81.46151 53.73396 51.17610
#
# Poissons Ratio (x) = 0.29154 0.27158
# Poissons Ratio (y) = 0.44198 0.20655
# Poissons Ratio (z) = 0.43229 0.21687
#
# Static dielectric constant tensor:
#      x y z
#    x 3.867570 0.000000 0.218010 
#    y 0.000000 3.609100 0.000000 
#    z 0.218010 0.000000 3.538720 
# 
# 
# High freq. dielectric constant tensor:
#      x y z
#    x 1.774700 0.000000 0.004450 
#    y 0.000000 1.765290 0.000000 
#    z 0.004450 0.000000 1.755790 
# 
# From -- ./inp_files/45308.got.cif
#   From: 2010.06.25/outbox.cif.g09.slc.cpg/sg11_23_cif.got.tgz:45308.got - 2010.06.27 23:14:04.
