data_PCOD8074283
_publ_section_title
;
Structure prediction by ZEFSAII (Michael W. Deem and Ramdas Pophale) SiO2 
 PCOD8074283
Probable space group: P 21/M
;
_chemical_formula_sum "Si O2"
_cell_formula_units_Z 32
_cell_length_a 15.375621
_cell_length_b 9.078824
_cell_length_c 22.836249
_cell_angle_alpha 90.000000
_cell_angle_beta 29.784180
_cell_angle_gamma 90.000000
_cell_volume 1583.475028
_symmetry_space_group_name_H-M "P 21/M"
_symmetry_group_IT_number 11
_symmetry_cell_setting 'monoclinic'
loop_
_space_group_symop_operation_xyz
x,y,z
-x,1/2+y,-z
-x,-y,-z
x,1/2-y,z
loop_
_atom_site_type_symbol
_atom_site_label
_atom_site_fract_x
_atom_site_fract_y
_atom_site_fract_z
Si Si1 0.315363 0.577469 0.618536
Si Si2 0.788217 0.082241 0.070014
Si Si3 0.938675 0.923056 0.323331
Si Si4 0.135156 0.917043 0.844523
Si Si5 0.228125 0.583608 0.344963
Si Si6 0.334665 0.577674 0.066374
Si Si7 0.400967 0.416825 0.913208
Si Si8 0.880035 0.576717 0.487289
O O1 0.500000 0.500000 0.500000
O O2 0.334923 0.750000 0.593884
O O3 0.161105 0.513226 0.668250
O O4 0.265203 0.547894 0.715309
O O5 0.759533 0.250000 0.066648
O O6 0.759984 0.065743 0.156000
O O7 0.649464 0.974664 0.121338
O O8 0.979218 0.033743 0.936104
O O9 0.910987 0.750000 0.327390
O O10 0.856075 0.971966 0.433951
O O11 0.146597 0.958998 0.205095
O O12 0.060556 0.750000 0.882744
O O13 0.191625 0.750000 0.385717
O O14 0.389877 0.574515 0.205956
O O15 0.262332 0.494185 0.385553
O O16 0.067574 0.519336 0.401265
O O17 0.373877 0.750000 0.045218
O O18 0.500000 0.500000 0.000000
O O19 0.316289 0.521853 0.010852
O O20 0.334597 0.250000 0.961580
O O21 0.863215 0.750000 0.501109
#
# Coordination Sequence:
#
# PCOD8074283 Si02
#       8
#     4   4   4   4   4   4   4   4
#     4  11  24  41  61  85 115 152 194 241 290 343
#     4  10  20  35  58  85 110 140 181 230 285 343
#     4  10  22  40  60  84 117 155 193 237 289 343
#     4   9  20  39  59  80 109 144 183 230 287 345
#     4   9  19  35  54  78 109 145 184 229 278 328
#     4  11  23  39  61  89 122 159 197 238 286 342
#     4  11  22  36  54  80 116 150 184 228 279 336
#     4   9  18  35  57  78 105 143 185 229 279 331
#
# _framework density 20.208718000000001
#
# number of rings (size 3 to 8) (size 9 to 14) (size 15 to 20)
#    0.000    2.000    0.000    3.000    0.000    9.000 
#    0.000    6.250    0.000    0.000    0.000    0.000 
#    0.000    0.000    0.000    0.000    0.000    0.000 
#
# Total GULP energy -396762.826510 kJ/mol
# GULP energy per Si atom -12398.838328 kJ/mol
# Density = 2.016272 g / cm^3
# Si number density = 20.208718 Si / 1000 Ang^3
#
#
#
# Elastic Constant Matrix: (Units=GPa)
#
#
# Indices 1 2 3 4 5 6 
#
# 1 96.7343 45.5606 32.9560 0.0000 9.4367 0.0000
# 2 45.5606 87.5785 39.0743 0.0000 4.3518 0.0000
# 3 32.9560 39.0743 72.7811 0.0000 12.4712 0.0000
# 4 0.0000 0.0000 0.0000 31.8995 0.0000 -0.4540
# 5 9.4367 4.3518 12.4712 0.0000 36.2039 0.0000
# 6 0.0000 0.0000 0.0000 -0.4540 0.0000 35.9986
#
#
#
# Elastic Compliance Matrix: (Units=1/GPa)
#
#
# Indices 1 2 3 4 5 6 
#
# 1 0.014392 -0.006093 -0.002900 0.000000 -0.002020 0.000000
# 2 -0.006093 0.017631 -0.007031 0.000000 0.001891 0.000000
# 3 -0.002900 -0.007031 0.019717 0.000000 -0.005191 0.000000
# 4 0.000000 0.000000 0.000000 0.031354 0.000000 0.000395
# 5 -0.002020 0.001891 -0.005191 0.000000 0.029709 0.000000
# 6 0.000000 0.000000 0.000000 0.000395 0.000000 0.027784
#
#
# Mechanical properties :
#
#
# Convention : Reuss Voigt Hill
#
# Bulk Modulus (GPa) = 50.77812 54.69729 52.73771
# Shear Modulus (GPa) = 27.90211 30.12060 29.01135
#
# Velocity S-wave (km/s) = 3.71980 3.86486 3.79302
# Velocity P-wave (km/s) = 6.60535 6.85865 6.73319
#
# Compressibility (1/GPa) = 0.01969352
#
# Stress axis : x y z
#
# Youngs Moduli (GPa) = 69.48153 56.71830 50.71819
#
# Poissons Ratio (x) = 0.34560 0.14706
# Poissons Ratio (y) = 0.42336 0.35658
# Poissons Ratio (z) = 0.20146 0.39876
#
# Static dielectric constant tensor:
#      x y z
#    x 3.771950 0.000000 0.137190 
#    y 0.000000 3.700540 0.000000 
#    z 0.137190 0.000000 3.591560 
# 
# 
# High freq. dielectric constant tensor:
#      x y z
#    x 1.794140 0.000000 0.009630 
#    y 0.000000 1.790180 0.000000 
#    z 0.009630 0.000000 1.784630 
# 
# From -- ./inp_files/69026.got.cif
#   From: 2010.06.25/outbox.cif.g09.slc.cpg/sg11_35_cif.got.tgz:69026.got - 2010.06.27 23:14:04.
