data_PCOD8074542
_publ_section_title
;
Structure prediction by ZEFSAII (Michael W. Deem and Ramdas Pophale) SiO2 
 PCOD8074542
Probable space group: P 21/M
;
_chemical_formula_sum "Si O2"
_cell_formula_units_Z 32
_cell_length_a 22.456756
_cell_length_b 8.741050
_cell_length_c 15.031864
_cell_angle_alpha 90.000000
_cell_angle_beta 147.835254
_cell_angle_gamma 90.000000
_cell_volume 1570.815649
_symmetry_space_group_name_H-M "P 21/M"
_symmetry_group_IT_number 11
_symmetry_cell_setting 'monoclinic'
loop_
_space_group_symop_operation_xyz
x,y,z
-x,1/2+y,-z
-x,-y,-z
x,1/2-y,z
loop_
_atom_site_type_symbol
_atom_site_label
_atom_site_fract_x
_atom_site_fract_y
_atom_site_fract_z
Si Si1 0.970133 0.925084 0.371732
Si Si2 0.004597 0.929368 0.102348
Si Si3 0.368365 0.569640 0.475049
Si Si4 0.267215 0.429574 0.894430
Si Si5 0.760037 0.929184 0.848897
Si Si6 0.396169 0.929242 0.205771
Si Si7 0.231571 0.930293 0.470639
Si Si8 0.209468 0.928416 0.634327
O O1 0.956666 0.750000 0.376765
O O2 0.843866 0.977773 0.187273
O O3 0.076121 0.955994 0.442019
O O4 0.000000 0.000000 0.500000
O O5 0.018881 0.750000 0.106869
O O6 0.112185 0.000027 0.289066
O O7 0.892564 0.965349 0.016956
O O8 0.000000 0.000000 0.000000
O O9 0.357210 0.750000 0.442447
O O10 0.289902 0.478457 0.308645
O O11 0.495246 0.518231 0.622365
O O12 0.328703 0.524817 0.524405
O O13 0.293642 0.250000 0.932446
O O14 0.255339 0.476193 0.775817
O O15 0.368164 0.519709 0.069252
O O16 0.737519 0.750000 0.836946
O O17 0.705025 0.026848 0.857528
O O18 0.419788 0.750000 0.238858
O O19 0.216130 0.750000 0.456897
O O20 0.267204 0.985622 0.615442
O O21 0.231040 0.750000 0.682873
#
# Coordination Sequence:
#
# PCOD8074542 Si02
#       8
#     4   4   4   4   4   4   4   4
#     4   8  15  27  49  75 108 146 181 223 274 335
#     4  10  20  36  60  90 125 160 194 238 292 350
#     4  11  22  41  64  86 118 156 200 248 297 353
#     4  10  20  36  56  84 118 152 194 244 297 347
#     4  11  23  39  63  92 123 156 194 242 299 356
#     4  12  26  42  61  85 115 154 204 252 299 353
#     4   9  19  35  60  89 120 158 197 237 289 349
#     4   9  17  33  57  84 116 156 195 233 286 350
#
# _framework density 20.371583000000001
#
# number of rings (size 3 to 8) (size 9 to 14) (size 15 to 20)
#    0.000    2.000    1.250    2.625    1.750    1.000 
#    0.000    2.500    0.000    0.000    0.000    0.000 
#    0.000    0.000    0.000    0.000    0.000    0.000 
#
# Total GULP energy -396525.797836 kJ/mol
# GULP energy per Si atom -12391.431182 kJ/mol
# Density = 2.032522 g / cm^3
# Si number density = 20.371583 Si / 1000 Ang^3
#
#
#
# Elastic Constant Matrix: (Units=GPa)
#
#
# Indices 1 2 3 4 5 6 
#
# 1 91.5738 17.2820 17.4634 0.0000 -6.9780 0.0000
# 2 17.2820 31.6923 22.3682 0.0000 4.7498 0.0000
# 3 17.4634 22.3682 56.5138 0.0000 0.2133 0.0000
# 4 0.0000 0.0000 0.0000 25.7972 0.0000 -3.5719
# 5 -6.9780 4.7498 0.2133 0.0000 30.0195 0.0000
# 6 0.0000 0.0000 0.0000 -3.5719 0.0000 24.4629
#
#
#
# Elastic Compliance Matrix: (Units=1/GPa)
#
#
# Indices 1 2 3 4 5 6 
#
# 1 0.012726 -0.006598 -0.001336 0.000000 0.004011 0.000000
# 2 -0.006598 0.048641 -0.017179 0.000000 -0.009108 0.000000
# 3 -0.001336 -0.017179 0.024899 0.000000 0.002231 0.000000
# 4 0.000000 0.000000 0.000000 0.039564 0.000000 0.005777
# 5 0.004011 -0.009108 0.002231 0.000000 0.035669 0.000000
# 6 0.000000 0.000000 0.000000 0.005777 0.000000 0.041722
#
#
# Mechanical properties :
#
#
# Convention : Reuss Voigt Hill
#
# Bulk Modulus (GPa) = 27.74707 32.66745 30.20726
# Shear Modulus (GPa) = 18.83529 24.23367 21.53448
#
# Velocity S-wave (km/s) = 3.04400 3.45277 3.25481
# Velocity P-wave (km/s) = 5.09947 5.65386 5.38381
#
# Compressibility (1/GPa) = 0.03603984
#
# Stress axis : x y z
#
# Youngs Moduli (GPa) = 78.58078 20.55882 40.16260
#
# Poissons Ratio (x) = 0.13564 0.05367
# Poissons Ratio (y) = 0.51844 0.68996
# Poissons Ratio (z) = 0.10500 0.35318
#
# Static dielectric constant tensor:
#      x y z
#    x 3.678110 0.000000 -0.081070 
#    y 0.000000 3.535110 0.000000 
#    z -0.081070 0.000000 3.687000 
# 
# 
# High freq. dielectric constant tensor:
#      x y z
#    x 1.797300 0.000000 -0.002840 
#    y 0.000000 1.779780 0.000000 
#    z -0.002840 0.000000 1.794740 
# 
# From -- ./inp_files/55737.got.cif
#   From: 2010.06.25/outbox.cif.g09.slc.cpg/sg11_28_cif.got.tgz:55737.got - 2010.06.27 23:14:04.
