data_PCOD8074146
_publ_section_title
;
Structure prediction by ZEFSAII (Michael W. Deem and Ramdas Pophale) SiO2 
 PCOD8074146
Probable space group: P 21/M
;
_chemical_formula_sum "Si O2"
_cell_formula_units_Z 32
_cell_length_a 31.422751
_cell_length_b 8.621558
_cell_length_c 12.146214
_cell_angle_alpha 90.000000
_cell_angle_beta 150.090874
_cell_angle_gamma 90.000000
_cell_volume 1640.762203
_symmetry_space_group_name_H-M "P 21/M"
_symmetry_group_IT_number 11
_symmetry_cell_setting 'monoclinic'
loop_
_space_group_symop_operation_xyz
x,y,z
-x,1/2+y,-z
-x,-y,-z
x,1/2-y,z
loop_
_atom_site_type_symbol
_atom_site_label
_atom_site_fract_x
_atom_site_fract_y
_atom_site_fract_z
Si Si1 0.717857 0.567324 0.351015
Si Si2 0.259903 0.431654 0.840040
Si Si3 0.918717 0.930388 0.191434
Si Si4 0.475387 0.433673 0.061696
Si Si5 0.773061 0.566529 0.706453
Si Si6 0.593847 0.067387 0.693583
Si Si7 0.376357 0.433916 0.469687
Si Si8 0.888270 0.071130 0.353362
O O1 0.722152 0.750000 0.373563
O O2 0.761111 0.515640 0.332993
O O3 0.764826 0.494927 0.564455
O O4 0.620334 0.512958 0.128643
O O5 0.280729 0.250000 0.892103
O O6 0.177631 0.466877 0.728293
O O7 0.344416 0.521468 0.067889
O O8 0.905100 0.750000 0.190628
O O9 0.017540 0.965485 0.388097
O O10 0.884607 0.030379 0.216667
O O11 0.864612 0.980096 0.962737
O O12 0.486829 0.250000 0.088498
O O13 0.532192 0.509275 0.283747
O O14 0.500000 0.500000 0.000000
O O15 0.763308 0.750000 0.679460
O O16 0.697251 0.502109 0.614091
O O17 0.585619 0.250000 0.667081
O O18 0.500000 0.000000 0.500000
O O19 0.639164 0.002261 0.685843
O O20 0.374697 0.250000 0.458315
O O21 0.863358 0.250000 0.312970
#
# Coordination Sequence:
#
# PCOD8074146 Si02
#       8
#     4   4   4   4   4   4   4   4
#     4   9  19  35  55  78 106 145 192 237 276 333
#     4  11  22  38  60  82 111 154 196 231 280 344
#     4   9  18  34  60  86 110 144 186 234 289 349
#     4  11  20  34  54  79 111 149 193 239 287 339
#     4   9  17  33  56  82 108 139 184 234 284 337
#     4  12  25  41  59  83 116 150 190 238 286 339
#     4  11  21  35  58  85 114 147 188 238 291 345
#     4  10  20  35  56  85 117 146 183 234 289 345
#
# _framework density 19.503131
#
# number of rings (size 3 to 8) (size 9 to 14) (size 15 to 20)
#    0.000    1.750    1.250    4.125    0.000    2.500 
#    0.000    3.125    0.000    0.000    0.000    0.000 
#    0.000    0.000    0.000    0.000    0.000    0.000 
#
# Total GULP energy -396822.033317 kJ/mol
# GULP energy per Si atom -12400.688541 kJ/mol
# Density = 1.945874 g / cm^3
# Si number density = 19.503131 Si / 1000 Ang^3
#
#
#
# Elastic Constant Matrix: (Units=GPa)
#
#
# Indices 1 2 3 4 5 6 
#
# 1 98.4360 24.0746 56.1248 0.0000 -7.0471 0.0000
# 2 24.0746 68.1740 25.9009 0.0000 -0.9291 0.0000
# 3 56.1248 25.9009 138.0137 0.0000 -14.2894 0.0000
# 4 0.0000 0.0000 0.0000 27.0333 0.0000 -0.4192
# 5 -7.0471 -0.9291 -14.2894 0.0000 32.0830 0.0000
# 6 0.0000 0.0000 0.0000 -0.4192 0.0000 24.2968
#
#
#
# Elastic Compliance Matrix: (Units=1/GPa)
#
#
# Indices 1 2 3 4 5 6 
#
# 1 0.013768 -0.002965 -0.004967 0.000000 0.000726 0.000000
# 2 -0.002965 0.016458 -0.001993 0.000000 -0.001062 0.000000
# 3 -0.004967 -0.001993 0.009981 0.000000 0.003297 0.000000
# 4 0.000000 0.000000 0.000000 0.037001 0.000000 0.000638
# 5 0.000726 -0.001062 0.003297 0.000000 0.032766 0.000000
# 6 0.000000 0.000000 0.000000 0.000638 0.000000 0.041169
#
#
# Mechanical properties :
#
#
# Convention : Reuss Voigt Hill
#
# Bulk Modulus (GPa) = 49.12363 57.42490 53.27427
# Shear Modulus (GPa) = 28.12472 29.91752 29.02112
#
# Velocity S-wave (km/s) = 3.80157 3.92086 3.86168
# Velocity P-wave (km/s) = 6.67169 7.07145 6.87448
#
# Compressibility (1/GPa) = 0.02035680
#
# Stress axis : x y z
#
# Youngs Moduli (GPa) = 72.63098 60.76052 100.18986
#
# Poissons Ratio (x) = 0.18015 0.49769
# Poissons Ratio (y) = 0.21534 0.19967
# Poissons Ratio (z) = 0.36079 0.12109
#
# Static dielectric constant tensor:
#      x y z
#    x 3.694240 0.000000 -0.239960 
#    y 0.000000 3.505870 0.000000 
#    z -0.239960 0.000000 3.656870 
# 
# 
# High freq. dielectric constant tensor:
#      x y z
#    x 1.759500 0.000000 -0.008720 
#    y 0.000000 1.743160 0.000000 
#    z -0.008720 0.000000 1.765660 
# 
# From -- ./inp_files/45326.got.cif
#   From: 2010.06.25/outbox.cif.g09.slc.cpg/sg11_23_cif.got.tgz:45326.got - 2010.06.27 23:14:04.
