data_PCOD8074667
_publ_section_title
;
Structure prediction by ZEFSAII (Michael W. Deem and Ramdas Pophale) SiO2 
 PCOD8074667
Probable space group: P 21/M
;
_chemical_formula_sum "Si O2"
_cell_formula_units_Z 32
_cell_length_a 8.276142
_cell_length_b 27.865375
_cell_length_c 13.707858
_cell_angle_alpha 90.000000
_cell_angle_beta 150.099417
_cell_angle_gamma 90.000000
_cell_volume 1575.885243
_symmetry_space_group_name_H-M "P 21/M"
_symmetry_group_IT_number 11
_symmetry_cell_setting 'monoclinic'
loop_
_space_group_symop_operation_xyz
x,y,z
-x,1/2+y,-z
-x,-y,-z
x,1/2-y,z
loop_
_atom_site_type_symbol
_atom_site_label
_atom_site_fract_x
_atom_site_fract_y
_atom_site_fract_z
Si Si1 0.424366 0.696628 0.141456
Si Si2 0.631630 0.129528 0.338858
Si Si3 0.075311 0.803541 0.358437
Si Si4 0.872681 0.128542 0.160042
Si Si5 0.674886 0.553510 0.691766
Si Si6 0.274474 0.553510 0.291355
Si Si7 0.265234 0.371458 0.552595
Si Si8 0.246684 0.370472 0.953913
O O1 0.296873 0.750000 0.098957
O O2 0.494578 0.669262 0.279765
O O3 0.750194 0.699981 0.250063
O O4 0.149858 0.669262 0.935049
O O5 0.651155 0.168134 0.436730
O O6 0.466539 0.080780 0.288798
O O7 0.987815 0.116284 0.485799
O O8 0.414744 0.151893 0.138248
O O9 0.202618 0.750000 0.400873
O O10 0.007885 0.831866 0.222308
O O11 0.006999 0.079937 0.182910
O O12 0.111975 0.147477 0.370658
O O13 0.518231 0.116284 0.016215
O O14 0.391162 0.551579 0.463721
O O15 0.777132 0.500000 0.777132
O O16 0.534728 0.579937 0.358820
O O17 0.933315 0.580780 0.111057
#
# Coordination Sequence:
#
# PCOD8074667 Si02
#       8
#     4   4   4   4   4   4   4   4
#     4   9  18  34  59  84 107 145 188 225 274 330
#     4  10  20  36  58  83 113 146 185 230 275 328
#     4   9  18  36  59  82 111 147 184 227 278 326
#     4   9  20  37  56  81 115 146 181 231 276 325
#     4  10  21  38  59  81 113 152 186 229 282 333
#     4  10  21  38  59  81 113 152 186 229 282 333
#     4   9  20  37  56  81 115 146 181 231 276 325
#     4  10  20  36  58  83 113 146 185 230 275 328
#
# _framework density 20.306047
#
# number of rings (size 3 to 8) (size 9 to 14) (size 15 to 20)
#    0.000    2.500    1.250    0.000    1.750    2.500 
#    0.000    6.250    0.000    0.000    0.000    0.000 
#    0.000    0.000    0.000    0.000    0.000    0.000 
#
# Total GULP energy -396819.658931 kJ/mol
# GULP energy per Si atom -12400.614342 kJ/mol
# Density = 2.025983 g / cm^3
# Si number density = 20.306047 Si / 1000 Ang^3
#
#
#
# Elastic Constant Matrix: (Units=GPa)
#
#
# Indices 1 2 3 4 5 6 
#
# 1 71.1997 53.7078 45.7328 0.0000 -11.8573 0.0000
# 2 53.7078 176.4611 74.0912 0.0000 -15.2101 0.0000
# 3 45.7328 74.0912 112.0793 0.0000 -18.6480 0.0000
# 4 0.0000 0.0000 0.0000 23.1164 0.0000 1.2841
# 5 -11.8573 -15.2101 -18.6480 0.0000 25.7457 0.0000
# 6 0.0000 0.0000 0.0000 1.2841 0.0000 24.8374
#
#
#
# Elastic Compliance Matrix: (Units=1/GPa)
#
#
# Indices 1 2 3 4 5 6 
#
# 1 0.021007 -0.003790 -0.005491 0.000000 0.003459 0.000000
# 2 -0.003790 0.008551 -0.004043 0.000000 0.000377 0.000000
# 3 -0.005491 -0.004043 0.014801 0.000000 0.005803 0.000000
# 4 0.000000 0.000000 0.000000 0.043384 0.000000 -0.002243
# 5 0.003459 0.000377 0.005803 0.000000 0.044861 0.000000
# 6 0.000000 0.000000 0.000000 -0.002243 0.000000 0.040378
#
#
# Mechanical properties :
#
#
# Convention : Reuss Voigt Hill
#
# Bulk Modulus (GPa) = 56.46360 78.53375 67.49867
# Shear Modulus (GPa) = 24.32707 27.15378 25.74043
#
# Velocity S-wave (km/s) = 3.46500 3.66078 3.56423
# Velocity P-wave (km/s) = 6.62382 7.52512 7.08881
#
# Compressibility (1/GPa) = 0.01771053
#
# Stress axis : x y z
#
# Youngs Moduli (GPa) = 47.60383 116.94945 67.56306
#
# Poissons Ratio (x) = 0.44326 0.37096
# Poissons Ratio (y) = 0.18043 0.27317
# Poissons Ratio (z) = 0.26137 0.47285
#
# Static dielectric constant tensor:
#      x y z
#    x 3.575610 0.000000 -0.140730 
#    y 0.000000 3.755410 0.000000 
#    z -0.140730 0.000000 3.764200 
# 
# 
# High freq. dielectric constant tensor:
#      x y z
#    x 1.787670 0.000000 -0.008430 
#    y 0.000000 1.776730 0.000000 
#    z -0.008430 0.000000 1.798960 
# 
# From -- ./inp_files/48532.got.cif
#   From: 2010.06.25/outbox.cif.g09.slc.cpg/sg11_25_cif.got.tgz:48532.got - 2010.06.27 23:14:04.
