data_PCOD8074987
_publ_section_title
;
Structure prediction by ZEFSAII (Michael W. Deem and Ramdas Pophale) SiO2 
 PCOD8074987
Probable space group: P 21/M
;
_chemical_formula_sum "Si O2"
_cell_formula_units_Z 24
_cell_length_a 14.891888
_cell_length_b 13.883748
_cell_length_c 8.929065
_cell_angle_alpha 90.000000
_cell_angle_beta 137.528095
_cell_angle_gamma 90.000000
_cell_volume 1246.560320
_symmetry_space_group_name_H-M "P 21/M"
_symmetry_group_IT_number 11
_symmetry_cell_setting 'monoclinic'
loop_
_space_group_symop_operation_xyz
x,y,z
-x,1/2+y,-z
-x,-y,-z
x,1/2-y,z
loop_
_atom_site_type_symbol
_atom_site_label
_atom_site_fract_x
_atom_site_fract_y
_atom_site_fract_z
Si Si1 0.900047 0.640643 0.952170
Si Si2 0.250455 0.135056 0.521990
Si Si3 0.835861 0.138885 0.581772
Si Si4 0.680518 0.957872 0.855924
Si Si5 0.154954 0.003969 0.658490
Si Si6 0.388427 0.535999 0.539486
O O1 0.940591 0.750000 0.005823
O O2 0.033544 0.589198 0.179078
O O3 0.868148 0.611831 0.741839
O O4 0.771589 0.627103 0.900649
O O5 0.288528 0.250000 0.570322
O O6 0.199132 0.101400 0.622415
O O7 0.370687 0.066047 0.609411
O O8 0.854967 0.250000 0.572122
O O9 0.807659 0.089306 0.389590
O O10 0.707749 0.120345 0.524887
O O11 0.645702 0.030310 0.678573
O O12 0.538390 0.924251 0.747743
O O13 0.764268 0.008004 0.089250
O O14 0.000000 0.000000 0.500000
#
# Coordination Sequence:
#
# PCOD8074987 Si02
#       6
#     4   4   4   4   4   4
#     4   9  18  34  57  80 110 149 188 223 262 324
#     4   9  20  36  56  81 109 146 188 222 270 331
#     4  10  21  37  55  82 113 147 185 225 273 323
#     4  10  20  37  56  83 111 143 186 223 277 323
#     4  11  22  34  56  83 113 143 176 231 280 321
#     4   9  21  38  60  79 108 150 186 224 266 328
#
# _framework density 19.252979
#
# number of rings (size 3 to 8) (size 9 to 14) (size 15 to 20)
#    0.000    2.333    1.667    0.000    2.333    6.667 
#    0.000    5.833    0.000    0.000    0.000    0.000 
#    0.000    0.000    0.000    0.000    0.000    0.000 
#
# Total GULP energy -297338.121360 kJ/mol
# GULP energy per Si atom -12389.088390 kJ/mol
# Density = 1.920916 g / cm^3
# Si number density = 19.252979 Si / 1000 Ang^3
#
#
#
# Elastic Constant Matrix: (Units=GPa)
#
#
# Indices 1 2 3 4 5 6 
#
# 1 108.4163 11.7675 49.1954 0.0000 13.4623 0.0000
# 2 11.7675 53.9581 6.0236 0.0000 -0.7867 0.0000
# 3 49.1954 6.0236 108.4749 0.0000 7.0006 0.0000
# 4 0.0000 0.0000 0.0000 12.4610 0.0000 3.0061
# 5 13.4623 -0.7867 7.0006 0.0000 35.9886 0.0000
# 6 0.0000 0.0000 0.0000 3.0061 0.0000 19.7638
#
#
#
# Elastic Compliance Matrix: (Units=1/GPa)
#
#
# Indices 1 2 3 4 5 6 
#
# 1 0.012272 -0.002147 -0.005212 0.000000 -0.003624 0.000000
# 2 -0.002147 0.019038 -0.000164 0.000000 0.001251 0.000000
# 3 -0.005212 -0.000164 0.011612 0.000000 -0.000313 0.000000
# 4 0.000000 0.000000 0.000000 0.083307 0.000000 -0.012671
# 5 -0.003624 0.001251 -0.000313 0.000000 0.029230 0.000000
# 6 0.000000 0.000000 0.000000 -0.012671 0.000000 0.052525
#
#
# Mechanical properties :
#
#
# Convention : Reuss Voigt Hill
#
# Bulk Modulus (GPa) = 35.87573 44.98025 40.42799
# Shear Modulus (GPa) = 21.52175 27.23354 24.37765
#
# Velocity S-wave (km/s) = 3.34704 3.76508 3.56220
# Velocity P-wave (km/s) = 5.79752 6.50496 6.16140
#
# Compressibility (1/GPa) = 0.02787400
#
# Stress axis : x y z
#
# Youngs Moduli (GPa) = 81.48673 52.52717 86.11820
#
# Poissons Ratio (x) = 0.11279 0.44889
# Poissons Ratio (y) = 0.17497 0.01413
# Poissons Ratio (z) = 0.42475 0.00862
#
# Static dielectric constant tensor:
#      x y z
#    x 3.902910 0.000000 0.005550 
#    y 0.000000 3.255140 0.000000 
#    z 0.005550 0.000000 3.779190 
# 
# 
# High freq. dielectric constant tensor:
#      x y z
#    x 1.757460 0.000000 -0.001280 
#    y 0.000000 1.723400 0.000000 
#    z -0.001280 0.000000 1.753480 
# 
# From -- ./inp_files/22010.got.cif
#   From: 2010.06.25/outbox.cif.g09.slc.cpg/sg11_12_cif.got.tgz:22010.got - 2010.06.27 23:14:04.
