data_PCOD8074170
_publ_section_title
;
Structure prediction by ZEFSAII (Michael W. Deem and Ramdas Pophale) SiO2 
 PCOD8074170
Probable space group: P 21/M
;
_chemical_formula_sum "Si O2"
_cell_formula_units_Z 32
_cell_length_a 25.877935
_cell_length_b 9.507741
_cell_length_c 15.019238
_cell_angle_alpha 90.000000
_cell_angle_beta 26.334454
_cell_angle_gamma 90.000000
_cell_volume 1639.292240
_symmetry_space_group_name_H-M "P 21/M"
_symmetry_group_IT_number 11
_symmetry_cell_setting 'monoclinic'
loop_
_space_group_symop_operation_xyz
x,y,z
-x,1/2+y,-z
-x,-y,-z
x,1/2-y,z
loop_
_atom_site_type_symbol
_atom_site_label
_atom_site_fract_x
_atom_site_fract_y
_atom_site_fract_z
Si Si1 0.542785 0.416434 0.715323
Si Si2 0.856016 0.589331 0.652635
Si Si3 0.019998 0.414530 0.880718
Si Si4 0.124581 0.587690 0.213795
Si Si5 0.181747 0.914747 0.935329
Si Si6 0.712853 0.585346 0.560875
Si Si7 0.651104 0.915186 0.848529
Si Si8 0.555631 0.086271 0.495626
O O1 0.564936 0.250000 0.689659
O O2 0.662123 0.496946 0.556309
O O3 0.502663 0.450744 0.675217
O O4 0.446826 0.475795 0.933323
O O5 0.833547 0.750000 0.714524
O O6 0.817016 0.497285 0.796728
O O7 0.777494 0.543849 0.690918
O O8 0.987157 0.561318 0.421671
O O9 0.999921 0.250000 0.930999
O O10 0.149145 0.441803 0.643187
O O11 0.000000 0.500000 0.000000
O O12 0.923121 0.475871 0.962226
O O13 0.156009 0.750000 0.179633
O O14 0.176419 0.523417 0.043221
O O15 0.159366 0.750000 0.977773
O O16 0.308249 0.951404 0.701637
O O17 0.688183 0.750000 0.583119
O O18 0.648573 0.529274 0.750700
O O19 0.634752 0.750000 0.871265
O O20 0.538580 0.250000 0.498305
O O21 0.500000 0.000000 0.500000
#
# Coordination Sequence:
#
# PCOD8074170 Si02
#       8
#     4   4   4   4   4   4   4   4
#     4  10  21  37  56  78 109 147 184 224 274 325
#     4   9  17  30  49  73 101 133 170 214 261 309
#     4  10  20  35  57  82 108 140 177 219 270 324
#     4   9  17  30  49  72  99 132 171 214 260 310
#     4   9  18  34  54  74 101 137 174 209 258 321
#     4  10  20  35  57  84 111 141 182 226 267 320
#     4   9  18  33  54  78 107 144 183 219 266 323
#     4  10  22  38  56  78 105 141 182 223 268 318
#
# _framework density 19.520620000000001
#
# number of rings (size 3 to 8) (size 9 to 14) (size 15 to 20)
#    0.000    2.500    0.000    1.875    1.750    5.000 
#    0.000    2.500    0.000    3.000    0.000    0.000 
#    0.000    0.000    0.000    0.000    0.000    0.000 
#
# Total GULP energy -396661.500885 kJ/mol
# GULP energy per Si atom -12395.671903 kJ/mol
# Density = 1.947619 g / cm^3
# Si number density = 19.520620 Si / 1000 Ang^3
#
#
#
# Elastic Constant Matrix: (Units=GPa)
#
#
# Indices 1 2 3 4 5 6 
#
# 1 124.7321 41.2071 41.4641 0.0000 12.6029 0.0000
# 2 41.2071 42.5495 28.9666 0.0000 3.3174 0.0000
# 3 41.4641 28.9666 77.8371 0.0000 13.8303 0.0000
# 4 0.0000 0.0000 0.0000 21.1917 0.0000 0.1863
# 5 12.6029 3.3174 13.8303 0.0000 35.3219 0.0000
# 6 0.0000 0.0000 0.0000 0.1863 0.0000 33.8632
#
#
#
# Elastic Compliance Matrix: (Units=1/GPa)
#
#
# Indices 1 2 3 4 5 6 
#
# 1 0.012445 -0.010245 -0.002364 0.000000 -0.002553 0.000000
# 2 -0.010245 0.040011 -0.010118 0.000000 0.003859 0.000000
# 3 -0.002364 -0.010118 0.018866 0.000000 -0.005593 0.000000
# 4 0.000000 0.000000 0.000000 0.047191 0.000000 -0.000260
# 5 -0.002553 0.003859 -0.005593 0.000000 0.031050 0.000000
# 6 0.000000 0.000000 0.000000 -0.000260 0.000000 0.029532
#
#
# Mechanical properties :
#
#
# Convention : Reuss Voigt Hill
#
# Bulk Modulus (GPa) = 38.65622 52.04380 45.35001
# Shear Modulus (GPa) = 21.44365 26.97409 24.20887
#
# Velocity S-wave (km/s) = 3.31798 3.72132 3.52542
# Velocity P-wave (km/s) = 5.87575 6.72184 6.31298
#
# Compressibility (1/GPa) = 0.02586906
#
# Stress axis : x y z
#
# Youngs Moduli (GPa) = 80.35172 24.99332 53.00630
#
# Poissons Ratio (x) = 0.25605 0.12529
# Poissons Ratio (y) = 0.82317 0.53633
# Poissons Ratio (z) = 0.18992 0.25289
#
# Static dielectric constant tensor:
#      x y z
#    x 3.768660 0.000000 0.112930 
#    y 0.000000 3.227240 0.000000 
#    z 0.112930 0.000000 3.734630 
# 
# 
# High freq. dielectric constant tensor:
#      x y z
#    x 1.771320 0.000000 0.005230 
#    y 0.000000 1.722140 0.000000 
#    z 0.005230 0.000000 1.767310 
# 
# From -- ./inp_files/55532.got.cif
#   From: 2010.06.25/outbox.cif.g09.slc.cpg/sg11_28_cif.got.tgz:55532.got - 2010.06.27 23:14:04.
