data_PCOD8074167
_publ_section_title
;
Structure prediction by ZEFSAII (Michael W. Deem and Ramdas Pophale) SiO2 
 PCOD8074167
Probable space group: P 21/M
;
_chemical_formula_sum "Si O2"
_cell_formula_units_Z 32
_cell_length_a 8.877809
_cell_length_b 18.001808
_cell_length_c 13.519137
_cell_angle_alpha 90.000000
_cell_angle_beta 49.332163
_cell_angle_gamma 90.000000
_cell_volume 1638.802557
_symmetry_space_group_name_H-M "P 21/M"
_symmetry_group_IT_number 11
_symmetry_cell_setting 'monoclinic'
loop_
_space_group_symop_operation_xyz
x,y,z
-x,1/2+y,-z
-x,-y,-z
x,1/2-y,z
loop_
_atom_site_type_symbol
_atom_site_label
_atom_site_fract_x
_atom_site_fract_y
_atom_site_fract_z
Si Si1 0.208575 0.662472 0.367084
Si Si2 0.574519 0.338083 0.341305
Si Si3 0.718197 0.412381 0.872019
Si Si4 0.493151 0.338291 0.593837
Si Si5 0.008564 0.164742 0.095524
Si Si6 0.938638 0.835331 0.157519
Si Si7 0.713449 0.913018 0.871438
Si Si8 0.786614 0.837552 0.635639
O O1 0.235620 0.750000 0.342473
O O2 0.269628 0.624902 0.239498
O O3 0.352596 0.630879 0.391154
O O4 0.983384 0.641743 0.490501
O O5 0.555386 0.250000 0.352587
O O6 0.552106 0.370659 0.461427
O O7 0.400126 0.369438 0.345935
O O8 0.784359 0.363735 0.207597
O O9 0.734427 0.499639 0.850380
O O10 0.892302 0.385555 0.868446
O O11 0.513062 0.389140 0.012117
O O12 0.504131 0.250000 0.589038
O O13 0.271609 0.365099 0.713194
O O14 0.030483 0.250000 0.121677
O O15 0.156361 0.113159 0.092257
O O16 0.063408 0.156074 0.958532
O O17 0.975206 0.750000 0.173610
O O18 0.795742 0.875146 0.738015
O O19 0.771225 0.750000 0.659656
#
# Coordination Sequence:
#
# PCOD8074167 Si02
#       8
#     4   4   4   4   4   4   4   4
#     4  10  20  36  61  88 112 143 184 231 281 330
#     4   9  17  31  53  82 111 136 171 223 277 326
#     4  11  24  39  55  79 114 153 189 227 274 331
#     4   9  17  31  53  82 111 136 171 223 277 326
#     4  10  20  35  57  82 107 140 184 232 278 324
#     4  10  20  35  57  82 107 140 184 232 278 324
#     4  11  24  39  55  79 114 153 189 227 274 331
#     4  10  20  36  61  88 112 143 184 231 281 330
#
# _framework density 19.526453
#
# number of rings (size 3 to 8) (size 9 to 14) (size 15 to 20)
#    0.000    2.000    0.000    3.750    0.000    9.000 
#    0.000    1.250    0.000    3.000    0.000    0.000 
#    0.000    0.000    0.000    0.000    0.000    0.000 
#
# Total GULP energy -396925.006371 kJ/mol
# GULP energy per Si atom -12403.906449 kJ/mol
# Density = 1.948201 g / cm^3
# Si number density = 19.526453 Si / 1000 Ang^3
#
#
#
# Elastic Constant Matrix: (Units=GPa)
#
#
# Indices 1 2 3 4 5 6 
#
# 1 86.4637 16.1016 -6.2020 0.0000 -4.2745 0.0000
# 2 16.1016 31.6540 25.9358 0.0000 -2.4662 0.0000
# 3 -6.2020 25.9358 70.7650 0.0000 0.4434 0.0000
# 4 0.0000 0.0000 0.0000 15.5077 0.0000 -5.5950
# 5 -4.2745 -2.4662 0.4434 0.0000 37.0454 0.0000
# 6 0.0000 0.0000 0.0000 -5.5950 0.0000 10.8735
#
#
#
# Elastic Compliance Matrix: (Units=1/GPa)
#
#
# Indices 1 2 3 4 5 6 
#
# 1 0.014172 -0.011663 0.005512 0.000000 0.000793 0.000000
# 2 -0.011663 0.055132 -0.021245 0.000000 0.002579 0.000000
# 3 0.005512 -0.021245 0.022407 0.000000 -0.001047 0.000000
# 4 0.000000 0.000000 0.000000 0.079184 0.000000 0.040745
# 5 0.000793 0.002579 -0.001047 0.000000 0.027270 0.000000
# 6 0.000000 0.000000 0.000000 0.040745 0.000000 0.112932
#
#
# Mechanical properties :
#
#
# Convention : Reuss Voigt Hill
#
# Bulk Modulus (GPa) = 27.08623 28.95039 28.01831
# Shear Modulus (GPa) = 13.22068 22.88848 18.05458
#
# Velocity S-wave (km/s) = 2.60487 3.42742 3.04406
# Velocity P-wave (km/s) = 4.79049 5.52462 5.17060
#
# Compressibility (1/GPa) = 0.03691913
#
# Stress axis : x y z
#
# Youngs Moduli (GPa) = 70.56130 18.13828 44.62861
#
# Poissons Ratio (x) = 0.21155 -0.24598
# Poissons Ratio (y) = 0.82298 0.94811
# Poissons Ratio (z) = -0.38892 0.38534
#
# Static dielectric constant tensor:
#      x y z
#    x 3.753230 0.000000 -0.067930 
#    y 0.000000 3.237060 0.000000 
#    z -0.067930 0.000000 3.737590 
# 
# 
# High freq. dielectric constant tensor:
#      x y z
#    x 1.778630 0.000000 -0.001370 
#    y 0.000000 1.721220 0.000000 
#    z -0.001370 0.000000 1.780260 
# 
# From -- ./inp_files/32812.got.cif
#   From: 2010.06.25/outbox.cif.g09.slc.cpg/sg11_17_cif.got.tgz:32812.got - 2010.06.27 23:14:04.
