data_PCOD8074568
_publ_section_title
;
Structure prediction by ZEFSAII (Michael W. Deem and Ramdas Pophale) SiO2 
 PCOD8074568
Probable space group: P 21/M
;
_chemical_formula_sum "Si O2"
_cell_formula_units_Z 32
_cell_length_a 23.969076
_cell_length_b 9.292773
_cell_length_c 14.381081
_cell_angle_alpha 90.000000
_cell_angle_beta 32.860043
_cell_angle_gamma 90.000000
_cell_volume 1738.036787
_symmetry_space_group_name_H-M "P 21/M"
_symmetry_group_IT_number 11
_symmetry_cell_setting 'monoclinic'
loop_
_space_group_symop_operation_xyz
x,y,z
-x,1/2+y,-z
-x,-y,-z
x,1/2-y,z
loop_
_atom_site_type_symbol
_atom_site_label
_atom_site_fract_x
_atom_site_fract_y
_atom_site_fract_z
Si Si1 0.012953 0.079865 0.194649
Si Si2 0.795727 0.582126 0.193567
Si Si3 0.057609 0.078937 0.336721
Si Si4 0.605175 0.918606 0.334671
Si Si5 0.291433 0.420568 0.997866
Si Si6 0.817676 0.079710 0.354592
Si Si7 0.365919 0.582831 0.256208
Si Si8 0.597226 0.918262 0.974129
O O1 0.009183 0.250000 0.199483
O O2 0.007115 0.028484 0.309820
O O3 0.916432 0.018941 0.271919
O O4 0.119415 0.028445 0.999336
O O5 0.810361 0.750000 0.195357
O O6 0.683031 0.550973 0.310356
O O7 0.812272 0.493303 0.263019
O O8 0.049944 0.250000 0.361893
O O9 0.175182 0.024837 0.170908
O O10 0.000000 0.000000 0.500000
O O11 0.581439 0.750000 0.358418
O O12 0.656060 0.980779 0.169134
O O13 0.500000 0.000000 0.500000
O O14 0.291171 0.250000 0.991915
O O15 0.356633 0.476635 0.994271
O O16 0.824048 0.250000 0.331155
O O17 0.716926 0.034129 0.552408
O O18 0.355881 0.750000 0.246044
O O19 0.345076 0.497240 0.190672
O O20 0.476771 0.544013 0.143214
O O21 0.617462 0.750000 0.933550
#
# Coordination Sequence:
#
# PCOD8074568 Si02
#       8
#     4   4   4   4   4   4   4   4
#     4   9  18  36  57  76 106 144 178 214 265 325
#     4  10  20  37  57  78 105 141 181 218 262 320
#     4  10  20  36  57  81 108 142 181 221 267 322
#     4  10  21  37  58  82 109 144 183 223 271 325
#     4   9  18  35  58  79 104 143 181 213 264 331
#     4  10  21  34  54  81 106 137 177 221 269 313
#     4   9  19  34  50  75 105 135 170 213 263 311
#     4   9  18  33  53  73 100 137 175 211 253 308
#
# _framework density 18.411579
#
# number of rings (size 3 to 8) (size 9 to 14) (size 15 to 20)
#    0.000    2.500    1.250    0.375    3.500    1.000 
#    0.000    2.500    0.000    0.000    0.000    0.000 
#    0.000    0.000    0.000    0.000    0.000    0.000 
#
# Total GULP energy -396817.044921 kJ/mol
# GULP energy per Si atom -12400.532654 kJ/mol
# Density = 1.836967 g / cm^3
# Si number density = 18.411579 Si / 1000 Ang^3
#
#
#
# Elastic Constant Matrix: (Units=GPa)
#
#
# Indices 1 2 3 4 5 6 
#
# 1 163.2158 42.0039 79.9799 0.0000 8.1174 0.0000
# 2 42.0039 33.1852 41.8646 0.0000 3.5918 0.0000
# 3 79.9799 41.8646 151.9301 0.0000 9.8653 0.0000
# 4 0.0000 0.0000 0.0000 22.2426 0.0000 6.5726
# 5 8.1174 3.5918 9.8653 0.0000 29.5794 0.0000
# 6 0.0000 0.0000 0.0000 6.5726 0.0000 29.1206
#
#
#
# Elastic Compliance Matrix: (Units=1/GPa)
#
#
# Indices 1 2 3 4 5 6 
#
# 1 0.009752 -0.008964 -0.002617 0.000000 -0.000715 0.000000
# 2 -0.008964 0.054488 -0.010247 0.000000 -0.000739 0.000000
# 3 -0.002617 -0.010247 0.010892 0.000000 -0.001670 0.000000
# 4 0.000000 0.000000 0.000000 0.048172 0.000000 -0.010872
# 5 -0.000715 -0.000739 -0.001670 0.000000 0.034650 0.000000
# 6 0.000000 0.000000 0.000000 -0.010872 0.000000 0.036794
#
#
# Mechanical properties :
#
#
# Convention : Reuss Voigt Hill
#
# Bulk Modulus (GPa) = 31.77220 75.11422 53.44321
# Shear Modulus (GPa) = 20.08877 28.48737 24.28807
#
# Velocity S-wave (km/s) = 3.30675 3.93778 3.63598
# Velocity P-wave (km/s) = 5.64567 7.84606 6.83499
#
# Compressibility (1/GPa) = 0.03147406
#
# Stress axis : x y z
#
# Youngs Moduli (GPa) = 102.54475 18.35278 91.81302
#
# Poissons Ratio (x) = 0.16452 0.24028
# Poissons Ratio (y) = 0.91926 0.94082
# Poissons Ratio (z) = 0.26836 0.18806
#
# Static dielectric constant tensor:
#      x y z
#    x 3.652330 0.000000 -0.045130 
#    y 0.000000 3.069350 0.000000 
#    z -0.045130 0.000000 3.552890 
# 
# 
# High freq. dielectric constant tensor:
#      x y z
#    x 1.729740 0.000000 -0.001010 
#    y 0.000000 1.677620 0.000000 
#    z -0.001010 0.000000 1.724280 
# 
# From -- ./inp_files/35110.got.cif
#   From: 2010.06.25/outbox.cif.g09.slc.cpg/sg11_18_cif.got.tgz:35110.got - 2010.06.27 23:14:04.
