data_PCOD8074674
_publ_section_title
;
Structure prediction by ZEFSAII (Michael W. Deem and Ramdas Pophale) SiO2 
 PCOD8074674
Probable space group: P 21/M
;
_chemical_formula_sum "Si O2"
_cell_formula_units_Z 28
_cell_length_a 26.041312
_cell_length_b 8.729595
_cell_length_c 9.518566
_cell_angle_alpha 90.000000
_cell_angle_beta 140.429459
_cell_angle_gamma 90.000000
_cell_volume 1378.436699
_symmetry_space_group_name_H-M "P 21/M"
_symmetry_group_IT_number 11
_symmetry_cell_setting 'monoclinic'
loop_
_space_group_symop_operation_xyz
x,y,z
-x,1/2+y,-z
-x,-y,-z
x,1/2-y,z
loop_
_atom_site_type_symbol
_atom_site_label
_atom_site_fract_x
_atom_site_fract_y
_atom_site_fract_z
Si Si1 0.427235 0.569131 0.435399
Si Si2 0.742865 0.932154 0.915455
Si Si3 0.768855 0.570099 0.656020
Si Si4 0.499361 0.073786 0.847679
Si Si5 0.320350 0.576528 0.765964
Si Si6 0.177874 0.930968 0.664458
Si Si7 0.916179 0.932071 0.775268
O O1 0.500000 0.500000 0.500000
O O2 0.426391 0.750000 0.413439
O O3 0.341370 0.502213 0.206993
O O4 0.439972 0.522675 0.624448
O O5 0.737573 0.750000 0.909807
O O6 0.763111 0.995011 0.801913
O O7 0.815196 0.992114 0.167529
O O8 0.770059 0.750000 0.667278
O O9 0.690653 0.520184 0.400738
O O10 0.849228 0.510404 0.746389
O O11 0.470279 0.250000 0.790879
O O12 0.590552 0.060674 0.981680
O O13 0.500000 0.000000 0.000000
O O14 0.300846 0.750000 0.682427
O O15 0.259365 0.519565 0.756152
O O16 0.166530 0.750000 0.656135
O O17 0.103167 0.001314 0.420400
O O18 0.920226 0.750000 0.775755
O O19 0.000000 0.000000 0.000000
#
# Coordination Sequence:
#
# PCOD8074674 Si02
#       7
#     4   4   4   4   4   4   4
#     4  12  25  40  57  80 111 152 197 245 296 346
#     4  11  22  38  58  83 114 149 188 234 284 340
#     4   9  20  36  57  83 113 146 183 227 279 334
#     4  11  22  36  53  78 110 146 189 240 291 342
#     4   9  19  34  53  75 103 139 184 230 275 328
#     4  10  20  36  58  84 111 145 185 227 274 331
#     4  10  20  38  62  89 117 147 183 227 276 333
#
# _framework density 20.312867000000001
#
# number of rings (size 3 to 8) (size 9 to 14) (size 15 to 20)
#    0.000    1.714    0.000    4.714    0.000    6.857 
#    0.000    0.714    0.000    0.000    0.000    0.000 
#    0.000    0.000    0.000    0.000    0.000    0.000 
#
# Total GULP energy -347271.005873 kJ/mol
# GULP energy per Si atom -12402.535924 kJ/mol
# Density = 2.026663 g / cm^3
# Si number density = 20.312867 Si / 1000 Ang^3
#
#
#
# Elastic Constant Matrix: (Units=GPa)
#
#
# Indices 1 2 3 4 5 6 
#
# 1 45.2077 23.0234 25.4435 0.0000 -10.1097 0.0000
# 2 23.0234 94.1250 39.6553 0.0000 -2.6345 0.0000
# 3 25.4435 39.6553 132.1637 0.0000 -9.0504 0.0000
# 4 0.0000 0.0000 0.0000 41.6858 0.0000 -2.3573
# 5 -10.1097 -2.6345 -9.0504 0.0000 33.3067 0.0000
# 6 0.0000 0.0000 0.0000 -2.3573 0.0000 25.3291
#
#
#
# Elastic Compliance Matrix: (Units=1/GPa)
#
#
# Indices 1 2 3 4 5 6 
#
# 1 0.028345 -0.005312 -0.003365 0.000000 0.007269 0.000000
# 2 -0.005312 0.013157 -0.003020 0.000000 -0.001392 0.000000
# 3 -0.003365 -0.003020 0.009205 0.000000 0.001241 0.000000
# 4 0.000000 0.000000 0.000000 0.024116 0.000000 0.002244
# 5 0.007269 -0.001392 0.001241 0.000000 0.032458 0.000000
# 6 0.000000 0.000000 0.000000 0.002244 0.000000 0.039689
#
#
# Mechanical properties :
#
#
# Convention : Reuss Voigt Hill
#
# Bulk Modulus (GPa) = 36.61372 49.74898 43.18135
# Shear Modulus (GPa) = 27.85985 32.28926 30.07455
#
# Velocity S-wave (km/s) = 3.70744 3.99130 3.85199
# Velocity P-wave (km/s) = 6.03249 6.76647 6.40999
#
# Compressibility (1/GPa) = 0.02731216
#
# Stress axis : x y z
#
# Youngs Moduli (GPa) = 35.27952 76.00467 108.63093
#
# Poissons Ratio (x) = 0.40374 0.36556
# Poissons Ratio (y) = 0.18741 0.32811
# Poissons Ratio (z) = 0.11872 0.22957
#
# Static dielectric constant tensor:
#      x y z
#    x 3.807290 0.000000 -0.078170 
#    y 0.000000 3.700770 0.000000 
#    z -0.078170 0.000000 3.830410 
# 
# 
# High freq. dielectric constant tensor:
#      x y z
#    x 1.779160 0.000000 -0.012410 
#    y 0.000000 1.796610 0.000000 
#    z -0.012410 0.000000 1.801360 
# 
# From -- ./inp_files/28630.got.cif
#   From: 2010.06.25/outbox.cif.g09.slc.cpg/sg11_15_cif.got.tgz:28630.got - 2010.06.27 23:14:04.
