data_PCOD8074717
_publ_section_title
;
Structure prediction by ZEFSAII (Michael W. Deem and Ramdas Pophale) SiO2 
 PCOD8074717
Probable space group: P 21/M
;
_chemical_formula_sum "Si O2"
_cell_formula_units_Z 32
_cell_length_a 13.972132
_cell_length_b 8.867844
_cell_length_c 14.253268
_cell_angle_alpha 90.000000
_cell_angle_beta 118.550056
_cell_angle_gamma 90.000000
_cell_volume 1551.270233
_symmetry_space_group_name_H-M "P 21/M"
_symmetry_group_IT_number 11
_symmetry_cell_setting 'monoclinic'
loop_
_space_group_symop_operation_xyz
x,y,z
-x,1/2+y,-z
-x,-y,-z
x,1/2-y,z
loop_
_atom_site_type_symbol
_atom_site_label
_atom_site_fract_x
_atom_site_fract_y
_atom_site_fract_z
Si Si1 0.332165 0.573456 0.677608
Si Si2 0.604290 0.571150 0.096749
Si Si3 0.890222 0.926475 0.411998
Si Si4 0.955757 0.079274 0.266959
Si Si5 0.109484 0.422316 0.085478
Si Si6 0.192910 0.423413 0.321093
Si Si7 0.810901 0.578508 0.071688
Si Si8 0.400531 0.575339 0.506131
O O1 0.319309 0.750000 0.693162
O O2 0.381906 0.492317 0.791715
O O3 0.215762 0.503516 0.593526
O O4 0.408063 0.545062 0.621877
O O5 0.591886 0.750000 0.097859
O O6 0.703161 0.523724 0.075032
O O7 0.500000 0.500000 0.000000
O O8 0.887809 0.750000 0.432619
O O9 0.890220 0.961483 0.301428
O O10 0.000000 0.000000 0.500000
O O11 0.921353 0.250000 0.275357
O O12 0.085848 0.063003 0.336707
O O13 0.912714 0.031459 0.144452
O O14 0.079149 0.250000 0.094495
O O15 0.162653 0.491938 0.204550
O O16 0.201275 0.434751 0.046624
O O17 0.000000 0.500000 0.000000
O O18 0.230998 0.250000 0.330794
O O19 0.287089 0.518627 0.411698
O O20 0.839482 0.750000 0.112890
O O21 0.500000 0.500000 0.500000
O O22 0.407157 0.750000 0.487620
#
# Coordination Sequence:
#
# PCOD8074717 Si02
#       8
#     4   4   4   4   4   4   4   4
#     4  11  24  44  68  95 126 165 212 264 321 382
#     4  11  24  42  65  96 130 171 216 265 321 378
#     4  12  24  38  59  91 128 168 211 257 317 381
#     4  11  21  35  59  90 126 164 206 256 313 374
#     4  10  20  36  58  88 126 168 209 258 314 377
#     4  10  22  39  61  93 130 169 213 262 317 378
#     4  10  21  37  59  87 123 165 209 257 316 374
#     4  11  26  46  69  94 123 164 212 265 321 379
#
# _framework density 20.628256
#
# number of rings (size 3 to 8) (size 9 to 14) (size 15 to 20)
#    0.000    1.250    2.500    3.375    0.000    7.000 
#    0.000    2.500    0.000    0.000    0.000    0.000 
#    0.000    0.000    0.000    0.000    0.000    0.000 
#
# Total GULP energy -396778.654159 kJ/mol
# GULP energy per Si atom -12399.332942 kJ/mol
# Density = 2.058130 g / cm^3
# Si number density = 20.628256 Si / 1000 Ang^3
#
#
#
# Elastic Constant Matrix: (Units=GPa)
#
#
# Indices 1 2 3 4 5 6 
#
# 1 110.8872 56.1752 41.9231 0.0000 -2.5786 0.0000
# 2 56.1752 110.2256 46.5298 0.0000 1.2731 0.0000
# 3 41.9231 46.5298 95.7614 0.0000 3.4452 0.0000
# 4 0.0000 0.0000 0.0000 37.0932 0.0000 4.0679
# 5 -2.5786 1.2731 3.4452 0.0000 35.1963 0.0000
# 6 0.0000 0.0000 0.0000 4.0679 0.0000 33.7942
#
#
#
# Elastic Compliance Matrix: (Units=1/GPa)
#
#
# Indices 1 2 3 4 5 6 
#
# 1 0.012909 -0.005269 -0.003143 0.000000 0.001444 0.000000
# 2 -0.005269 0.013564 -0.004268 0.000000 -0.000459 0.000000
# 3 -0.003143 -0.004268 0.013944 0.000000 -0.001441 0.000000
# 4 0.000000 0.000000 0.000000 0.027320 0.000000 -0.003289
# 5 0.001444 -0.000459 -0.001441 0.000000 0.028675 0.000000
# 6 0.000000 0.000000 0.000000 -0.003289 0.000000 0.029987
#
#
# Mechanical properties :
#
#
# Convention : Reuss Voigt Hill
#
# Bulk Modulus (GPa) = 66.40956 67.34782 66.87869
# Shear Modulus (GPa) = 31.89199 32.69982 32.29591
#
# Velocity S-wave (km/s) = 3.93623 3.98577 3.96108
# Velocity P-wave (km/s) = 7.27475 7.34173 7.30832
#
# Compressibility (1/GPa) = 0.01505807
#
# Stress axis : x y z
#
# Youngs Moduli (GPa) = 77.46311 73.72275 71.71424
#
# Poissons Ratio (x) = 0.38843 0.22543
# Poissons Ratio (y) = 0.40814 0.30605
# Poissons Ratio (z) = 0.24350 0.31462
#
# Static dielectric constant tensor:
#      x y z
#    x 3.869300 0.000000 -0.282970 
#    y 0.000000 3.413240 0.000000 
#    z -0.282970 0.000000 3.962540 
# 
# 
# High freq. dielectric constant tensor:
#      x y z
#    x 1.807970 0.000000 -0.016050 
#    y 0.000000 1.808150 0.000000 
#    z -0.016050 0.000000 1.816120 
# 
# From -- ./inp_files/51743.got.cif
#   From: 2010.06.25/outbox.cif.g09.slc.cpg/sg11_26_cif.got.tgz:51743.got - 2010.06.27 23:14:04.
