data_PCOD8074926
_publ_section_title
;
Structure prediction by ZEFSAII (Michael W. Deem and Ramdas Pophale) SiO2 
 PCOD8074926
Probable space group: P 21/M
;
_chemical_formula_sum "Si O2"
_cell_formula_units_Z 32
_cell_length_a 25.946591
_cell_length_b 8.735252
_cell_length_c 20.043988
_cell_angle_alpha 90.000000
_cell_angle_beta 21.139925
_cell_angle_gamma 90.000000
_cell_volume 1638.407737
_symmetry_space_group_name_H-M "P 21/M"
_symmetry_group_IT_number 11
_symmetry_cell_setting 'monoclinic'
loop_
_space_group_symop_operation_xyz
x,y,z
-x,1/2+y,-z
-x,-y,-z
x,1/2-y,z
loop_
_atom_site_type_symbol
_atom_site_label
_atom_site_fract_x
_atom_site_fract_y
_atom_site_fract_z
Si Si1 0.331299 0.928944 0.359005
Si Si2 0.647915 0.573975 0.025229
Si Si3 0.155547 0.569811 0.317704
Si Si4 0.596120 0.928538 0.237904
Si Si5 0.653267 0.569533 0.799330
Si Si6 0.881992 0.431005 0.267795
Si Si7 0.296523 0.069358 0.630395
Si Si8 0.203646 0.068340 0.886428
O O1 0.315160 0.750000 0.362050
O O2 0.487871 0.968163 0.196991
O O3 0.217723 0.983677 0.550965
O O4 0.297922 0.026166 0.333686
O O5 0.681817 0.750000 0.966445
O O6 0.667926 0.543081 0.079508
O O7 0.757482 0.465541 0.854584
O O8 0.145652 0.750000 0.340172
O O9 0.231159 0.495585 0.289714
O O10 0.000000 0.500000 0.500000
O O11 0.562978 0.750000 0.288594
O O12 0.703066 0.995340 0.164640
O O13 0.447804 0.016342 0.420137
O O14 0.643431 0.750000 0.819936
O O15 0.500000 0.500000 0.000000
O O16 0.875838 0.250000 0.266109
O O17 0.830169 0.504718 0.261769
O O18 0.041707 0.491193 0.089281
O O19 0.288132 0.250000 0.638663
O O20 0.272998 0.007889 0.734008
O O21 0.203983 0.250000 0.888307
#
# Coordination Sequence:
#
# PCOD8074926 Si02
#       8
#     4   4   4   4   4   4   4   4
#     4  10  20  36  61  91 119 153 202 250 297 356
#     4  10  20  37  62  90 119 154 201 248 295 359
#     4  12  26  44  66  93 126 163 197 244 301 359
#     4  10  20  38  61  85 115 158 202 244 294 357
#     4  12  24  40  64  93 123 159 201 247 297 356
#     4  10  20  38  60  84 115 157 201 244 296 360
#     4  11  21  34  55  86 118 154 199 250 298 351
#     4   9  20  36  57  85 117 151 198 250 299 352
#
# _framework density 19.531157
#
# number of rings (size 3 to 8) (size 9 to 14) (size 15 to 20)
#    0.000    1.500    2.500    3.375    0.000    2.000 
#    0.000    4.375    0.000    0.000    0.000    0.000 
#    0.000    0.000    0.000    0.000    0.000    0.000 
#
# Total GULP energy -396951.567595 kJ/mol
# GULP energy per Si atom -12404.736487 kJ/mol
# Density = 1.948670 g / cm^3
# Si number density = 19.531157 Si / 1000 Ang^3
#
#
#
# Elastic Constant Matrix: (Units=GPa)
#
#
# Indices 1 2 3 4 5 6 
#
# 1 143.6484 42.6799 41.9518 0.0000 -1.8472 0.0000
# 2 42.6799 81.6371 33.4971 0.0000 -0.3443 0.0000
# 3 41.9518 33.4971 91.5683 0.0000 -6.1133 0.0000
# 4 0.0000 0.0000 0.0000 21.9488 0.0000 2.0787
# 5 -1.8472 -0.3443 -6.1133 0.0000 38.3608 0.0000
# 6 0.0000 0.0000 0.0000 2.0787 0.0000 30.6636
#
#
#
# Elastic Compliance Matrix: (Units=1/GPa)
#
#
# Indices 1 2 3 4 5 6 
#
# 1 0.008798 -0.003465 -0.002767 0.000000 -0.000048 0.000000
# 2 -0.003465 0.015797 -0.004238 0.000000 -0.000700 0.000000
# 3 -0.002767 -0.004238 0.013875 0.000000 0.002040 0.000000
# 4 0.000000 0.000000 0.000000 0.045855 0.000000 -0.003108
# 5 -0.000048 -0.000700 0.002040 0.000000 0.026385 0.000000
# 6 0.000000 0.000000 0.000000 -0.003108 0.000000 0.032823
#
#
# Mechanical properties :
#
#
# Convention : Reuss Voigt Hill
#
# Bulk Modulus (GPa) = 57.04217 61.45681 59.24949
# Shear Modulus (GPa) = 29.35739 31.44296 30.40017
#
# Velocity S-wave (km/s) = 3.88120 4.01669 3.94953
# Velocity P-wave (km/s) = 7.02524 7.28328 7.15542
#
# Compressibility (1/GPa) = 0.01753089
#
# Stress axis : x y z
#
# Youngs Moduli (GPa) = 113.65926 63.30439 72.07257
#
# Poissons Ratio (x) = 0.21933 0.19940
# Poissons Ratio (y) = 0.39380 0.30545
# Poissons Ratio (z) = 0.31446 0.26829
#
# Static dielectric constant tensor:
#      x y z
#    x 3.810050 0.000000 0.018680 
#    y 0.000000 3.445910 0.000000 
#    z 0.018680 0.000000 3.663290 
# 
# 
# High freq. dielectric constant tensor:
#      x y z
#    x 1.777210 0.000000 0.003720 
#    y 0.000000 1.745130 0.000000 
#    z 0.003720 0.000000 1.766790 
# 
# From -- ./inp_files/66915.got.cif
#   From: 2010.06.25/outbox.cif.g09.slc.cpg/sg11_34_cif.got.tgz:66915.got - 2010.06.27 23:14:04.
