data_PCOD8074445
_publ_section_title
;
Structure prediction by ZEFSAII (Michael W. Deem and Ramdas Pophale) SiO2 
 PCOD8074445
Probable space group: P 21/M
;
_chemical_formula_sum "Si O2"
_cell_formula_units_Z 28
_cell_length_a 14.504540
_cell_length_b 8.818356
_cell_length_c 14.340573
_cell_angle_alpha 90.000000
_cell_angle_beta 59.394408
_cell_angle_gamma 90.000000
_cell_volume 1578.723343
_symmetry_space_group_name_H-M "P 21/M"
_symmetry_group_IT_number 11
_symmetry_cell_setting 'monoclinic'
loop_
_space_group_symop_operation_xyz
x,y,z
-x,1/2+y,-z
-x,-y,-z
x,1/2-y,z
loop_
_atom_site_type_symbol
_atom_site_label
_atom_site_fract_x
_atom_site_fract_y
_atom_site_fract_z
Si Si1 0.100467 0.071647 0.393686
Si Si2 0.696393 0.072123 0.238821
Si Si3 0.729365 0.421879 0.575226
Si Si4 0.068508 0.430405 0.199774
Si Si5 0.509936 0.429496 0.597678
Si Si6 0.165008 0.578595 0.670975
Si Si7 0.105513 0.928356 0.993012
O O1 0.084698 0.250000 0.410034
O O2 0.107280 0.019826 0.282266
O O3 0.217016 0.024101 0.372817
O O4 0.000000 0.000000 0.500000
O O5 0.668407 0.250000 0.251443
O O6 0.739303 0.010004 0.316969
O O7 0.786200 0.028313 0.117553
O O8 0.586317 0.979236 0.283799
O O9 0.715862 0.250000 0.618855
O O10 0.616755 0.487360 0.595994
O O11 0.814601 0.428718 0.448335
O O12 0.075519 0.250000 0.185203
O O13 0.948548 0.497596 0.249763
O O14 0.131899 0.509950 0.083138
O O15 0.500000 0.500000 0.500000
O O16 0.516138 0.250000 0.581843
O O17 0.155044 0.750000 0.712462
O O18 0.087086 0.750000 0.003807
O O19 0.000000 0.000000 0.000000
#
# Coordination Sequence:
#
# PCOD8074445 Si02
#       7
#     4   4   4   4   4   4   4
#     4  11  22  35  55  82 111 146 184 225 275 327
#     4  10  20  36  54  76 111 148 180 221 273 325
#     4  10  20  36  54  76 111 148 180 221 273 325
#     4  10  20  36  54  76 111 148 180 221 273 325
#     4  11  22  35  55  82 111 146 184 225 275 327
#     4   9  15  30  52  74 109 147 172 212 271 321
#     4  11  22  35  55  82 111 146 184 225 275 327
#
# _framework density 17.735849000000002
#
# number of rings (size 3 to 8) (size 9 to 14) (size 15 to 20)
#    0.000    1.714    4.286    1.286    0.000    3.429 
#    0.000    0.000    0.000    0.857    0.000    0.000 
#    0.000    0.000    0.000    0.000    0.000    0.000 
#
# Total GULP energy -347009.272586 kJ/mol
# GULP energy per Si atom -12393.188307 kJ/mol
# Density = 1.769548 g / cm^3
# Si number density = 17.735849 Si / 1000 Ang^3
#
#
#
# Elastic Constant Matrix: (Units=GPa)
#
#
# Indices 1 2 3 4 5 6 
#
# 1 122.5473 39.7306 54.3304 0.0000 2.0877 0.0000
# 2 39.7306 56.2286 37.4741 0.0000 3.2037 0.0000
# 3 54.3304 37.4741 97.9133 0.0000 4.8657 0.0000
# 4 0.0000 0.0000 0.0000 29.0043 0.0000 -0.1011
# 5 2.0877 3.2037 4.8657 0.0000 32.3467 0.0000
# 6 0.0000 0.0000 0.0000 -0.1011 0.0000 29.2447
#
#
#
# Elastic Compliance Matrix: (Units=1/GPa)
#
#
# Indices 1 2 3 4 5 6 
#
# 1 0.011934 -0.005410 -0.004574 0.000000 0.000454 0.000000
# 2 -0.005410 0.026359 -0.007026 0.000000 -0.001204 0.000000
# 3 -0.004574 -0.007026 0.015507 0.000000 -0.001341 0.000000
# 4 0.000000 0.000000 0.000000 0.034478 0.000000 0.000119
# 5 0.000454 -0.001204 -0.001341 0.000000 0.031207 0.000000
# 6 0.000000 0.000000 0.000000 0.000119 0.000000 0.034195
#
#
# Mechanical properties :
#
#
# Convention : Reuss Voigt Hill
#
# Bulk Modulus (GPa) = 50.55879 59.97326 55.26602
# Shear Modulus (GPa) = 25.73426 27.79609 26.76517
#
# Velocity S-wave (km/s) = 3.81330 3.96312 3.88893
# Velocity P-wave (km/s) = 6.92508 7.40472 7.16891
#
# Compressibility (1/GPa) = 0.01977896
#
# Stress axis : x y z
#
# Youngs Moduli (GPa) = 83.79261 37.93816 64.48674
#
# Poissons Ratio (x) = 0.20525 0.29497
# Poissons Ratio (y) = 0.45332 0.45311
# Poissons Ratio (z) = 0.38327 0.26657
#
# Static dielectric constant tensor:
#      x y z
#    x 3.423450 0.000000 0.021730 
#    y 0.000000 3.145970 0.000000 
#    z 0.021730 0.000000 3.303230 
# 
# 
# High freq. dielectric constant tensor:
#      x y z
#    x 1.683840 0.000000 -0.000080 
#    y 0.000000 1.672210 0.000000 
#    z -0.000080 0.000000 1.677200 
# 
# From -- ./inp_files/51123.got.cif
#   From: 2010.06.25/outbox.cif.g09.slc.cpg/sg11_26_cif.got.tgz:51123.got - 2010.06.27 23:14:04.
