data_PCOD8074503
_publ_section_title
;
Structure prediction by ZEFSAII (Michael W. Deem and Ramdas Pophale) SiO2 
 PCOD8074503
Probable space group: P 21/M
;
_chemical_formula_sum "Si O2"
_cell_formula_units_Z 20
_cell_length_a 13.701052
_cell_length_b 8.852413
_cell_length_c 18.688910
_cell_angle_alpha 90.000000
_cell_angle_beta 27.048391
_cell_angle_gamma 90.000000
_cell_volume 1030.778732
_symmetry_space_group_name_H-M "P 21/M"
_symmetry_group_IT_number 11
_symmetry_cell_setting 'monoclinic'
loop_
_space_group_symop_operation_xyz
x,y,z
-x,1/2+y,-z
-x,-y,-z
x,1/2-y,z
loop_
_atom_site_type_symbol
_atom_site_label
_atom_site_fract_x
_atom_site_fract_y
_atom_site_fract_z
Si Si1 0.157343 0.570700 0.339937
Si Si2 0.368714 0.071062 0.932974
Si Si3 0.963494 0.928647 0.730174
Si Si4 0.562147 0.427542 0.533747
Si Si5 0.774419 0.570578 0.127937
O O1 0.145327 0.750000 0.353235
O O2 0.396258 0.509948 0.200467
O O3 0.091537 0.518194 0.304859
O O4 0.000000 0.500000 0.500000
O O5 0.370957 0.250000 0.928667
O O6 0.299258 0.007523 0.901070
O O7 0.200064 0.015133 0.102200
O O8 0.947300 0.750000 0.726342
O O9 0.199696 0.977439 0.600271
O O10 0.500000 0.500000 0.500000
O O11 0.548087 0.250000 0.533510
O O12 0.400372 0.484649 0.700499
O O13 0.796072 0.750000 0.112939
O O14 0.000000 0.500000 0.000000
#
# Coordination Sequence:
#
# PCOD8074503 Si02
#       5
#     4   4   4   4   4
#     4  11  22  37  57  82 111 145 182 223 268 322
#     4   9  19  36  58  80 107 142 180 221 272 326
#     4  10  20  37  59  82 108 142 180 225 277 325
#     4  10  21  36  57  82 111 145 183 225 272 323
#     4  10  20  36  56  80 108 142 181 222 268 322
#
# _framework density 19.402806999999999
#
# number of rings (size 3 to 8) (size 9 to 14) (size 15 to 20)
#    0.000    2.000    0.000    3.600    0.000    6.400 
#    0.000    6.000    0.000    0.000    0.000    0.000 
#    0.000    0.000    0.000    0.000    0.000    0.000 
#
# Total GULP energy -248067.897563 kJ/mol
# GULP energy per Si atom -12403.394878 kJ/mol
# Density = 1.935865 g / cm^3
# Si number density = 19.402807 Si / 1000 Ang^3
#
#
#
# Elastic Constant Matrix: (Units=GPa)
#
#
# Indices 1 2 3 4 5 6 
#
# 1 206.7962 44.5793 117.8797 0.0000 2.4756 0.0000
# 2 44.5793 35.3073 42.3638 0.0000 -0.7250 0.0000
# 3 117.8797 42.3638 222.1363 0.0000 0.1197 0.0000
# 4 0.0000 0.0000 0.0000 28.9476 0.0000 0.3967
# 5 2.4756 -0.7250 0.1197 0.0000 46.3590 0.0000
# 6 0.0000 0.0000 0.0000 0.3967 0.0000 37.5404
#
#
#
# Elastic Compliance Matrix: (Units=1/GPa)
#
#
# Indices 1 2 3 4 5 6 
#
# 1 0.007930 -0.006450 -0.002978 0.000000 -0.000517 0.000000
# 2 -0.006450 0.041989 -0.004586 0.000000 0.001013 0.000000
# 3 -0.002978 -0.004586 0.006956 0.000000 0.000069 0.000000
# 4 0.000000 0.000000 0.000000 0.034550 0.000000 -0.000365
# 5 -0.000517 0.001013 0.000069 0.000000 0.021614 0.000000
# 6 0.000000 0.000000 0.000000 -0.000365 0.000000 0.026642
#
#
# Mechanical properties :
#
#
# Convention : Reuss Voigt Hill
#
# Bulk Modulus (GPa) = 34.66324 97.09837 65.88080
# Shear Modulus (GPa) = 28.19699 39.86387 34.03043
#
# Velocity S-wave (km/s) = 3.81628 4.53762 4.19249
# Velocity P-wave (km/s) = 6.10921 8.80940 7.58050
#
# Compressibility (1/GPa) = 0.02884901
#
# Stress axis : x y z
#
# Youngs Moduli (GPa) = 126.10994 23.81558 143.75365
#
# Poissons Ratio (x) = 0.15361 0.42804
# Poissons Ratio (y) = 0.81339 0.65920
# Poissons Ratio (z) = 0.37551 0.10921
#
# Static dielectric constant tensor:
#      x y z
#    x 3.701750 0.000000 -0.045340 
#    y 0.000000 2.832480 0.000000 
#    z -0.045340 0.000000 3.811120 
# 
# 
# High freq. dielectric constant tensor:
#      x y z
#    x 1.775720 0.000000 0.000780 
#    y 0.000000 1.727600 0.000000 
#    z 0.000780 0.000000 1.778820 
# 
# From -- ./inp_files/15918.got.cif
#   From: 2010.06.25/outbox.cif.g09.slc.cpg/sg11_8_cif.got.tgz:15918.got - 2010.06.27 23:14:04.
