data_PCOD8074709
_publ_section_title
;
Structure prediction by ZEFSAII (Michael W. Deem and Ramdas Pophale) SiO2 
 PCOD8074709
Probable space group: P 21/M
;
_chemical_formula_sum "Si O2"
_cell_formula_units_Z 32
_cell_length_a 14.656588
_cell_length_b 8.908796
_cell_length_c 12.782953
_cell_angle_alpha 90.000000
_cell_angle_beta 97.668562
_cell_angle_gamma 90.000000
_cell_volume 1654.175295
_symmetry_space_group_name_H-M "P 21/M"
_symmetry_group_IT_number 11
_symmetry_cell_setting 'monoclinic'
loop_
_space_group_symop_operation_xyz
x,y,z
-x,1/2+y,-z
-x,-y,-z
x,1/2-y,z
loop_
_atom_site_type_symbol
_atom_site_label
_atom_site_fract_x
_atom_site_fract_y
_atom_site_fract_z
Si Si1 0.846514 0.082791 0.866802
Si Si2 0.133039 0.573912 0.691633
Si Si3 0.358977 0.919720 0.218976
Si Si4 0.073122 0.426739 0.309976
Si Si5 0.776332 0.072183 0.077037
Si Si6 0.589610 0.572683 0.562018
Si Si7 0.404920 0.072978 0.016270
Si Si8 0.215539 0.074432 0.504270
O O1 0.887624 0.250000 0.880448
O O2 0.750616 0.083444 0.790239
O O3 0.915082 0.984922 0.806946
O O4 0.833126 0.017370 0.982573
O O5 0.144145 0.750000 0.678657
O O6 0.168424 0.525202 0.811423
O O7 0.193597 0.496544 0.612489
O O8 0.027072 0.523331 0.664254
O O9 0.396739 0.750000 0.206989
O O10 0.400775 0.989718 0.327939
O O11 0.388930 0.031634 0.133271
O O12 0.081671 0.250000 0.303128
O O13 0.148698 0.491646 0.402990
O O14 0.759450 0.250000 0.064323
O O15 0.677188 0.992979 0.067512
O O16 0.500000 0.500000 0.500000
O O17 0.577236 0.750000 0.576480
O O18 0.678570 0.537549 0.504571
O O19 0.409050 0.250000 0.001343
O O20 0.500000 0.000000 0.000000
O O21 0.197621 0.250000 0.510123
#
# Coordination Sequence:
#
# PCOD8074709 Si02
#       8
#     4   4   4   4   4   4   4   4
#     4   9  18  33  57  83 111 148 188 236 288 345
#     4  10  22  38  59  84 117 158 196 240 295 351
#     4  10  20  37  59  84 114 148 190 241 291 348
#     4  10  20  36  58  86 116 151 195 243 292 349
#     4   9  20  39  56  81 119 153 193 244 294 345
#     4  11  23  39  59  86 118 155 195 245 301 352
#     4  11  22  37  60  87 114 151 194 238 291 352
#     4  10  22  39  58  82 118 154 194 247 293 344
#
# _framework density 19.344987
#
# number of rings (size 3 to 8) (size 9 to 14) (size 15 to 20)
#    0.000    2.000    1.250    3.000    0.000    6.000 
#    0.000    2.500    0.000    0.000    0.000    0.000 
#    0.000    0.000    0.000    0.000    0.000    0.000 
#
# Total GULP energy -396792.184916 kJ/mol
# GULP energy per Si atom -12399.755779 kJ/mol
# Density = 1.930096 g / cm^3
# Si number density = 19.344987 Si / 1000 Ang^3
#
#
#
# Elastic Constant Matrix: (Units=GPa)
#
#
# Indices 1 2 3 4 5 6 
#
# 1 106.7310 40.3693 57.1350 0.0000 2.3865 0.0000
# 2 40.3693 63.9449 33.7395 0.0000 4.0120 0.0000
# 3 57.1350 33.7395 117.3090 0.0000 13.4128 0.0000
# 4 0.0000 0.0000 0.0000 35.9860 0.0000 -4.7224
# 5 2.3865 4.0120 13.4128 0.0000 24.8863 0.0000
# 6 0.0000 0.0000 0.0000 -4.7224 0.0000 29.1223
#
#
#
# Elastic Compliance Matrix: (Units=1/GPa)
#
#
# Indices 1 2 3 4 5 6 
#
# 1 0.014797 -0.006538 -0.005632 0.000000 0.002670 0.000000
# 2 -0.006538 0.021325 -0.002800 0.000000 -0.001302 0.000000
# 3 -0.005632 -0.002800 0.012745 0.000000 -0.005878 0.000000
# 4 0.000000 0.000000 0.000000 0.028393 0.000000 0.004604
# 5 0.002670 -0.001302 -0.005878 0.000000 0.043304 0.000000
# 6 0.000000 0.000000 0.000000 0.004604 0.000000 0.035085
#
#
# Mechanical properties :
#
#
# Convention : Reuss Voigt Hill
#
# Bulk Modulus (GPa) = 52.83384 61.16359 56.99872
# Shear Modulus (GPa) = 26.05551 28.44833 27.25192
#
# Velocity S-wave (km/s) = 3.67398 3.83897 3.75738
# Velocity P-wave (km/s) = 6.73559 7.16493 6.95357
#
# Compressibility (1/GPa) = 0.01892726
#
# Stress axis : x y z
#
# Youngs Moduli (GPa) = 67.57985 46.89334 78.46224
#
# Poissons Ratio (x) = 0.30657 0.44190
# Poissons Ratio (y) = 0.44181 0.21972
# Poissons Ratio (z) = 0.38061 0.13132
#
# Static dielectric constant tensor:
#      x y z
#    x 3.791340 0.000000 0.016450 
#    y 0.000000 3.492040 0.000000 
#    z 0.016450 0.000000 3.564360 
# 
# 
# High freq. dielectric constant tensor:
#      x y z
#    x 1.752140 0.000000 -0.001580 
#    y 0.000000 1.748740 0.000000 
#    z -0.001580 0.000000 1.759480 
# 
# From -- ./inp_files/38230.got.cif
#   From: 2010.06.25/outbox.cif.g09.slc.cpg/sg11_20_cif.got.tgz:38230.got - 2010.06.27 23:14:04.
