data_PCOD8074878
_publ_section_title
;
Structure prediction by ZEFSAII (Michael W. Deem and Ramdas Pophale) SiO2 
 PCOD8074878
Probable space group: P 21/M
;
_chemical_formula_sum "Si O2"
_cell_formula_units_Z 32
_cell_length_a 12.441699
_cell_length_b 21.204621
_cell_length_c 8.836063
_cell_angle_alpha 90.000000
_cell_angle_beta 42.045634
_cell_angle_gamma 90.000000
_cell_volume 1561.218744
_symmetry_space_group_name_H-M "P 21/M"
_symmetry_group_IT_number 11
_symmetry_cell_setting 'monoclinic'
loop_
_space_group_symop_operation_xyz
x,y,z
-x,1/2+y,-z
-x,-y,-z
x,1/2-y,z
loop_
_atom_site_type_symbol
_atom_site_label
_atom_site_fract_x
_atom_site_fract_y
_atom_site_fract_z
Si Si1 0.308513 0.321602 0.479774
Si Si2 0.965858 0.177693 0.715062
Si Si3 0.486095 0.390282 0.043911
Si Si4 0.280014 0.567599 0.958463
Si Si5 0.037372 0.321871 0.291072
Si Si6 0.317480 0.678727 0.413509
Si Si7 0.275937 0.067226 0.006959
Si Si8 0.492479 0.609562 0.479832
O O1 0.340148 0.250000 0.490487
O O2 0.399012 0.334699 0.227496
O O3 0.374449 0.363402 0.546516
O O4 0.119440 0.335049 0.659495
O O5 0.903779 0.250000 0.799841
O O6 0.011611 0.165332 0.494419
O O7 0.829358 0.129018 0.907107
O O8 0.579417 0.434784 0.063107
O O9 0.613208 0.362781 0.793737
O O10 0.349345 0.429347 0.098797
O O11 0.186312 0.500631 0.078740
O O12 0.359635 0.569619 0.709361
O O13 0.101242 0.250000 0.198284
O O14 0.872663 0.333064 0.373232
O O15 0.162771 0.372554 0.094286
O O16 0.353036 0.750000 0.330499
O O17 0.399122 0.664824 0.488795
O O18 0.419168 0.065968 0.734723
#
# Coordination Sequence:
#
# PCOD8074878 Si02
#       8
#     4   4   4   4   4   4   4   4
#     4  10  20  37  61  90 123 158 199 247 302 358
#     4  10  21  39  62  92 124 155 196 252 304 354
#     4  10  20  36  60  90 117 158 203 254 297 350
#     4  11  23  41  62  88 122 163 204 248 299 357
#     4  10  21  39  62  92 124 155 196 252 304 354
#     4  10  20  37  61  90 123 158 199 247 302 358
#     4  11  23  41  62  88 122 163 204 248 299 357
#     4  10  24  40  58  88 123 162 205 246 295 356
#
# _framework density 20.496807
#
# number of rings (size 3 to 8) (size 9 to 14) (size 15 to 20)
#    0.000    1.750    2.500    1.500    0.000    6.500 
#    0.000    6.250    0.000    0.000    0.000    0.000 
#    0.000    0.000    0.000    0.000    0.000    0.000 
#
# Total GULP energy -396746.960694 kJ/mol
# GULP energy per Si atom -12398.342522 kJ/mol
# Density = 2.045015 g / cm^3
# Si number density = 20.496807 Si / 1000 Ang^3
#
#
#
# Elastic Constant Matrix: (Units=GPa)
#
#
# Indices 1 2 3 4 5 6 
#
# 1 84.9836 25.3099 22.5498 0.0000 4.1933 0.0000
# 2 25.3099 110.5956 33.0655 0.0000 -10.5442 0.0000
# 3 22.5498 33.0655 72.0369 0.0000 3.3756 0.0000
# 4 0.0000 0.0000 0.0000 20.8637 0.0000 -4.1262
# 5 4.1933 -10.5442 3.3756 0.0000 28.7244 0.0000
# 6 0.0000 0.0000 0.0000 -4.1262 0.0000 14.7685
#
#
#
# Elastic Compliance Matrix: (Units=1/GPa)
#
#
# Indices 1 2 3 4 5 6 
#
# 1 0.013397 -0.002416 -0.002968 0.000000 -0.002494 0.000000
# 2 -0.002416 0.011510 -0.004768 0.000000 0.005138 0.000000
# 3 -0.002968 -0.004768 0.017155 0.000000 -0.003333 0.000000
# 4 0.000000 0.000000 0.000000 0.050733 0.000000 0.014174
# 5 -0.002494 0.005138 -0.003333 0.000000 0.037456 0.000000
# 6 0.000000 0.000000 0.000000 0.014174 0.000000 0.071672
#
#
# Mechanical properties :
#
#
# Convention : Reuss Voigt Hill
#
# Bulk Modulus (GPa) = 45.95769 47.71850 46.83810
# Shear Modulus (GPa) = 21.78840 25.31739 23.55289
#
# Velocity S-wave (km/s) = 3.26393 3.51834 3.39352
# Velocity P-wave (km/s) = 6.05598 6.31161 6.18511
#
# Compressibility (1/GPa) = 0.02175915
#
# Stress axis : x y z
#
# Youngs Moduli (GPa) = 74.64260 86.87895 58.29090
#
# Poissons Ratio (x) = 0.20994 0.17299
# Poissons Ratio (y) = 0.18037 0.27791
# Poissons Ratio (z) = 0.22152 0.41421
#
# Static dielectric constant tensor:
#      x y z
#    x 3.898440 0.000000 0.020800 
#    y 0.000000 3.626340 0.000000 
#    z 0.020800 0.000000 3.577930 
# 
# 
# High freq. dielectric constant tensor:
#      x y z
#    x 1.808270 0.000000 0.005600 
#    y 0.000000 1.797820 0.000000 
#    z 0.005600 0.000000 1.791310 
# 
# From -- ./inp_files/19345.got.cif
#   From: 2010.06.25/outbox.cif.g09.slc.cpg/sg11_10_cif.got.tgz:19345.got - 2010.06.27 23:14:04.
