data_PCOD8074239
_publ_section_title
;
Structure prediction by ZEFSAII (Michael W. Deem and Ramdas Pophale) SiO2 
 PCOD8074239
Probable space group: P 21/M
;
_chemical_formula_sum "Si O2"
_cell_formula_units_Z 32
_cell_length_a 12.927416
_cell_length_b 9.007075
_cell_length_c 14.159807
_cell_angle_alpha 90.000000
_cell_angle_beta 86.386539
_cell_angle_gamma 90.000000
_cell_volume 1645.464733
_symmetry_space_group_name_H-M "P 21/M"
_symmetry_group_IT_number 11
_symmetry_cell_setting 'monoclinic'
loop_
_space_group_symop_operation_xyz
x,y,z
-x,1/2+y,-z
-x,-y,-z
x,1/2-y,z
loop_
_atom_site_type_symbol
_atom_site_label
_atom_site_fract_x
_atom_site_fract_y
_atom_site_fract_z
Si Si1 0.204954 0.075308 0.897057
Si Si2 0.406956 0.421409 0.556483
Si Si3 0.047930 0.923929 0.406784
Si Si4 0.589641 0.923800 0.230513
Si Si5 0.994512 0.925686 0.205619
Si Si6 0.204984 0.926743 0.097870
Si Si7 0.619541 0.578287 0.790137
Si Si8 0.742481 0.581692 0.597588
O O1 0.195565 0.250000 0.920067
O O2 0.307854 0.038359 0.833264
O O3 0.106838 0.016324 0.842613
O O4 0.208016 0.981337 0.991210
O O5 0.500000 0.500000 0.500000
O O6 0.435845 0.250000 0.555679
O O7 0.390909 0.479785 0.663625
O O8 0.301770 0.449957 0.504134
O O9 0.037669 0.750000 0.421504
O O10 0.988790 0.977238 0.315320
O O11 0.167648 0.965274 0.387518
O O12 0.000000 0.000000 0.500000
O O13 0.563758 0.750000 0.228932
O O14 0.494632 0.011692 0.189326
O O15 0.998494 0.750000 0.201555
O O16 0.098961 0.987953 0.151010
O O17 0.211449 0.750000 0.100951
O O18 0.302373 0.992777 0.146762
O O19 0.618234 0.750000 0.820017
O O20 0.652075 0.556697 0.679308
O O21 0.785786 0.750000 0.601770
#
# Coordination Sequence:
#
# PCOD8074239 Si02
#       8
#     4   4   4   4   4   4   4   4
#     4  10  22  41  62  87 116 155 199 244 302 358
#     4  10  20  35  57  85 116 155 196 239 287 348
#     4  11  23  39  60  89 124 161 196 240 293 353
#     4  10  22  38  60  87 120 159 200 243 297 359
#     4   9  20  39  64  88 118 156 196 242 296 356
#     4  11  22  40  64  91 117 150 198 249 301 359
#     4  11  22  38  62  89 121 157 198 249 297 349
#     4  10  21  37  58  86 119 156 199 245 293 350
#
# _framework density 19.447393000000002
#
# number of rings (size 3 to 8) (size 9 to 14) (size 15 to 20)
#    0.000    1.750    2.500    1.500    1.750    2.000 
#    0.000    1.875    0.000    0.000    0.000    0.000 
#    0.000    0.000    0.000    0.000    0.000    0.000 
#
# Total GULP energy -396882.032989 kJ/mol
# GULP energy per Si atom -12402.563531 kJ/mol
# Density = 1.940313 g / cm^3
# Si number density = 19.447393 Si / 1000 Ang^3
#
#
#
# Elastic Constant Matrix: (Units=GPa)
#
#
# Indices 1 2 3 4 5 6 
#
# 1 142.0507 52.6366 76.3042 0.0000 14.1568 0.0000
# 2 52.6366 69.5583 54.5827 0.0000 3.0885 0.0000
# 3 76.3042 54.5827 151.5681 0.0000 8.8667 0.0000
# 4 0.0000 0.0000 0.0000 31.7756 0.0000 -1.9355
# 5 14.1568 3.0885 8.8667 0.0000 31.9802 0.0000
# 6 0.0000 0.0000 0.0000 -1.9355 0.0000 25.6807
#
#
#
# Elastic Compliance Matrix: (Units=1/GPa)
#
#
# Indices 1 2 3 4 5 6 
#
# 1 0.011372 -0.005741 -0.003452 0.000000 -0.003523 0.000000
# 2 -0.005741 0.022937 -0.005478 0.000000 0.001845 0.000000
# 3 -0.003452 -0.005478 0.010356 0.000000 -0.000814 0.000000
# 4 0.000000 0.000000 0.000000 0.031616 0.000000 0.002383
# 5 -0.003523 0.001845 -0.000814 0.000000 0.032876 0.000000
# 6 0.000000 0.000000 0.000000 0.002383 0.000000 0.039119
#
#
# Mechanical properties :
#
#
# Convention : Reuss Voigt Hill
#
# Bulk Modulus (GPa) = 65.25550 81.13601 73.19575
# Shear Modulus (GPa) = 27.36345 29.86421 28.61383
#
# Velocity S-wave (km/s) = 3.75514 3.92298 3.83997
# Velocity P-wave (km/s) = 7.24080 7.89500 7.57496
#
# Compressibility (1/GPa) = 0.01532438
#
# Stress axis : x y z
#
# Youngs Moduli (GPa) = 87.93461 43.59723 96.56438
#
# Poissons Ratio (x) = 0.25027 0.33331
# Poissons Ratio (y) = 0.50480 0.52899
# Poissons Ratio (z) = 0.30352 0.23883
#
# Static dielectric constant tensor:
#      x y z
#    x 3.469210 0.000000 0.164860 
#    y 0.000000 3.462180 0.000000 
#    z 0.164860 0.000000 3.806590 
# 
# 
# High freq. dielectric constant tensor:
#      x y z
#    x 1.763250 0.000000 0.006140 
#    y 0.000000 1.744070 0.000000 
#    z 0.006140 0.000000 1.769750 
# 
# From -- ./inp_files/49355.got.cif
#   From: 2010.06.25/outbox.cif.g09.slc.cpg/sg11_25_cif.got.tgz:49355.got - 2010.06.27 23:14:04.
