data_PCOD8074606
_publ_section_title
;
Structure prediction by ZEFSAII (Michael W. Deem and Ramdas Pophale) SiO2 
 PCOD8074606
Probable space group: P 21/M
;
_chemical_formula_sum "Si O2"
_cell_formula_units_Z 32
_cell_length_a 8.160187
_cell_length_b 10.680085
_cell_length_c 23.070392
_cell_angle_alpha 90.000000
_cell_angle_beta 130.185859
_cell_angle_gamma 90.000000
_cell_volume 1536.023102
_symmetry_space_group_name_H-M "P 21/M"
_symmetry_group_IT_number 11
_symmetry_cell_setting 'monoclinic'
loop_
_space_group_symop_operation_xyz
x,y,z
-x,1/2+y,-z
-x,-y,-z
x,1/2-y,z
loop_
_atom_site_type_symbol
_atom_site_label
_atom_site_fract_x
_atom_site_fract_y
_atom_site_fract_z
Si Si1 0.034186 0.609576 0.428609
Si Si2 0.158225 0.890916 0.017227
Si Si3 0.660520 0.031160 0.405173
Si Si4 0.903473 0.888063 0.207217
Si Si5 0.510709 0.886234 0.191154
Si Si6 0.111495 0.888223 0.874981
Si Si7 0.281248 0.604971 0.373898
Si Si8 0.604487 0.614245 0.756673
O O1 0.968425 0.750000 0.396805
O O2 0.188604 0.614591 0.519878
O O3 0.160732 0.545253 0.402926
O O4 0.811631 0.541625 0.393742
O O5 0.062751 0.750000 0.006452
O O6 0.376922 0.909848 0.102039
O O7 0.207870 0.906630 0.960790
O O8 0.000000 0.000000 0.000000
O O9 0.519556 0.945835 0.416508
O O10 0.493456 0.114292 0.330329
O O11 0.899948 0.750000 0.175537
O O12 0.759633 0.881946 0.231828
O O13 0.142679 0.919627 0.283833
O O14 0.804268 0.996235 0.143934
O O15 0.444334 0.750000 0.203029
O O16 0.487778 0.997452 0.230331
O O17 0.180105 0.750000 0.866659
O O18 0.857375 0.899551 0.815946
O O19 0.309036 0.750000 0.393789
O O20 0.544039 0.750000 0.770708
#
# Coordination Sequence:
#
# PCOD8074606 Si02
#       8
#     4   4   4   4   4   4   4   4
#     4  10  22  38  57  85 117 149 196 250 297 354
#     4  10  20  36  57  83 114 151 195 241 291 349
#     4  11  21  37  60  83 115 156 196 239 301 357
#     4  10  21  38  57  84 117 150 194 245 291 349
#     4  10  22  38  60  87 117 153 198 247 294 346
#     4  10  21  37  56  82 116 152 190 237 291 350
#     4  10  20  36  58  83 113 152 196 244 299 354
#     4  11  22  37  59  87 118 152 194 240 295 352
#
# _framework density 20.833020999999999
#
# number of rings (size 3 to 8) (size 9 to 14) (size 15 to 20)
#    0.000    1.750    2.500    1.875    0.000    4.000 
#    0.000    0.000    0.000    3.750    0.000    0.000 
#    0.000    0.000    0.000    0.000    0.000    0.000 
#
# Total GULP energy -396560.794688 kJ/mol
# GULP energy per Si atom -12392.524834 kJ/mol
# Density = 2.078560 g / cm^3
# Si number density = 20.833021 Si / 1000 Ang^3
#
#
#
# Elastic Constant Matrix: (Units=GPa)
#
#
# Indices 1 2 3 4 5 6 
#
# 1 92.0639 33.4870 1.0493 0.0000 -6.2231 0.0000
# 2 33.4870 125.2736 20.4506 0.0000 -16.8413 0.0000
# 3 1.0493 20.4506 74.4012 0.0000 -3.1642 0.0000
# 4 0.0000 0.0000 0.0000 16.7865 0.0000 -6.9206
# 5 -6.2231 -16.8413 -3.1642 0.0000 30.1794 0.0000
# 6 0.0000 0.0000 0.0000 -6.9206 0.0000 26.7245
#
#
#
# Elastic Compliance Matrix: (Units=1/GPa)
#
#
# Indices 1 2 3 4 5 6 
#
# 1 0.012088 -0.003253 0.000756 0.000000 0.000757 0.000000
# 2 -0.003253 0.009871 -0.002473 0.000000 0.004579 0.000000
# 3 0.000756 -0.002473 0.014121 0.000000 0.000256 0.000000
# 4 0.000000 0.000000 0.000000 0.066692 0.000000 0.017271
# 5 0.000757 0.004579 0.000256 0.000000 0.035873 0.000000
# 6 0.000000 0.000000 0.000000 0.017271 0.000000 0.041891
#
#
# Mechanical properties :
#
#
# Convention : Reuss Voigt Hill
#
# Bulk Modulus (GPa) = 38.25551 44.63473 41.44512
# Shear Modulus (GPa) = 25.10186 30.52155 27.81170
#
# Velocity S-wave (km/s) = 3.47494 3.83176 3.65770
# Velocity P-wave (km/s) = 5.87393 6.40687 6.14618
#
# Compressibility (1/GPa) = 0.02614003
#
# Stress axis : x y z
#
# Youngs Moduli (GPa) = 82.72857 101.30446 70.81871
#
# Poissons Ratio (x) = 0.32953 -0.05353
# Poissons Ratio (y) = 0.26910 0.17511
# Poissons Ratio (z) = -0.06253 0.25050
#
# Static dielectric constant tensor:
#      x y z
#    x 3.592920 0.000000 0.059480 
#    y 0.000000 3.955790 0.000000 
#    z 0.059480 0.000000 3.876530 
# 
# 
# High freq. dielectric constant tensor:
#      x y z
#    x 1.793900 0.000000 0.008560 
#    y 0.000000 1.817310 0.000000 
#    z 0.008560 0.000000 1.827680 
# 
# From -- ./inp_files/63667.got.cif
#   From: 2010.06.25/outbox.cif.g09.slc.cpg/sg11_32_cif.got.tgz:63667.got - 2010.06.27 23:14:04.
