data_PCOD8074946
_publ_section_title
;
Structure prediction by ZEFSAII (Michael W. Deem and Ramdas Pophale) SiO2 
 PCOD8074946
Probable space group: P 21/M
;
_chemical_formula_sum "Si O2"
_cell_formula_units_Z 32
_cell_length_a 11.901672
_cell_length_b 9.055805
_cell_length_c 21.518332
_cell_angle_alpha 90.000000
_cell_angle_beta 46.444907
_cell_angle_gamma 90.000000
_cell_volume 1680.773465
_symmetry_space_group_name_H-M "P 21/M"
_symmetry_group_IT_number 11
_symmetry_cell_setting 'monoclinic'
loop_
_space_group_symop_operation_xyz
x,y,z
-x,1/2+y,-z
-x,-y,-z
x,1/2-y,z
loop_
_atom_site_type_symbol
_atom_site_label
_atom_site_fract_x
_atom_site_fract_y
_atom_site_fract_z
Si Si1 0.900135 0.582896 0.369724
Si Si2 0.559176 0.918333 0.537750
Si Si3 0.095482 0.578005 0.410003
Si Si4 0.502968 0.576818 0.903207
Si Si5 0.434710 0.581401 0.247132
Si Si6 0.731106 0.577043 0.924949
Si Si7 0.634517 0.920720 0.287592
Si Si8 0.920303 0.075485 0.233640
O O1 0.928053 0.750000 0.334711
O O2 0.744102 0.575164 0.469602
O O3 0.888556 0.473878 0.316081
O O4 0.035893 0.530196 0.364202
O O5 0.498256 0.750000 0.560681
O O6 0.500000 0.000000 0.500000
O O7 0.495279 0.001222 0.621847
O O8 0.066500 0.750000 0.430982
O O9 0.277213 0.536509 0.343521
O O10 0.000000 0.500000 0.500000
O O11 0.477871 0.750000 0.911612
O O12 0.541698 0.523930 0.819893
O O13 0.643824 0.530446 0.894862
O O14 0.343666 0.504231 0.987654
O O15 0.420669 0.750000 0.228986
O O16 0.581430 0.562800 0.236622
O O17 0.716272 0.750000 0.942434
O O18 0.908478 0.526357 0.852017
O O19 0.646990 0.750000 0.302941
O O20 0.800856 0.997593 0.232380
O O21 0.898068 0.250000 0.238227
#
# Coordination Sequence:
#
# PCOD8074946 Si02
#       8
#     4   4   4   4   4   4   4   4
#     4  10  21  35  54  80 111 143 182 231 281 333
#     4  11  21  34  53  78 109 148 189 233 280 326
#     4  10  21  37  56  81 111 147 186 228 278 328
#     4  10  20  36  62  91 114 143 182 224 274 334
#     4  10  22  39  58  80 113 154 189 226 279 334
#     4   9  20  38  59  87 119 144 175 224 282 337
#     4  11  23  38  55  78 111 151 193 235 278 329
#     4  11  22  36  57  83 110 144 184 229 280 330
#
# _framework density 19.038854000000001
#
# number of rings (size 3 to 8) (size 9 to 14) (size 15 to 20)
#    0.000    1.750    1.250    3.000    0.000    4.000 
#    0.000    0.625    0.000    0.000    0.000    0.000 
#    0.000    0.000    0.000    0.000    0.000    0.000 
#
# Total GULP energy -396919.458766 kJ/mol
# GULP energy per Si atom -12403.733086 kJ/mol
# Density = 1.899552 g / cm^3
# Si number density = 19.038854 Si / 1000 Ang^3
#
#
#
# Elastic Constant Matrix: (Units=GPa)
#
#
# Indices 1 2 3 4 5 6 
#
# 1 108.8556 40.9545 44.0110 0.0000 -13.1275 0.0000
# 2 40.9545 82.9305 45.1230 0.0000 -4.6530 0.0000
# 3 44.0110 45.1230 108.1217 0.0000 -10.1775 0.0000
# 4 0.0000 0.0000 0.0000 37.4919 0.0000 1.7418
# 5 -13.1275 -4.6530 -10.1775 0.0000 31.0327 0.0000
# 6 0.0000 0.0000 0.0000 1.7418 0.0000 28.3204
#
#
#
# Elastic Compliance Matrix: (Units=1/GPa)
#
#
# Indices 1 2 3 4 5 6 
#
# 1 0.012441 -0.004361 -0.002900 0.000000 0.003658 0.000000
# 2 -0.004361 0.017131 -0.005475 0.000000 -0.001072 0.000000
# 3 -0.002900 -0.005475 0.012920 0.000000 0.002190 0.000000
# 4 0.000000 0.000000 0.000000 0.026749 0.000000 -0.001645
# 5 0.003658 -0.001072 0.002190 0.000000 0.034329 0.000000
# 6 0.000000 0.000000 0.000000 -0.001645 0.000000 0.035411
#
#
# Mechanical properties :
#
#
# Convention : Reuss Voigt Hill
#
# Bulk Modulus (GPa) = 58.75290 62.23164 60.49227
# Shear Modulus (GPa) = 29.39012 30.69030 30.04021
#
# Velocity S-wave (km/s) = 3.93325 4.01931 3.97651
# Velocity P-wave (km/s) = 7.18009 7.36868 7.27499
#
# Compressibility (1/GPa) = 0.01702044
#
# Stress axis : x y z
#
# Youngs Moduli (GPa) = 80.38196 58.37484 77.39778
#
# Poissons Ratio (x) = 0.25455 0.22444
# Poissons Ratio (y) = 0.35052 0.42376
# Poissons Ratio (z) = 0.23309 0.31961
#
# Static dielectric constant tensor:
#      x y z
#    x 3.603640 0.000000 -0.211470 
#    y 0.000000 3.437890 0.000000 
#    z -0.211470 0.000000 3.329090 
# 
# 
# High freq. dielectric constant tensor:
#      x y z
#    x 1.744500 0.000000 -0.008810 
#    y 0.000000 1.745590 0.000000 
#    z -0.008810 0.000000 1.732450 
# 
# From -- ./inp_files/64375.got.cif
#   From: 2010.06.25/outbox.cif.g09.slc.cpg/sg11_33_cif.got.tgz:64375.got - 2010.06.27 23:14:04.
