data_PCOD8074296
_publ_section_title
;
Structure prediction by ZEFSAII (Michael W. Deem and Ramdas Pophale) SiO2 
 PCOD8074296
Probable space group: P 21/M
;
_chemical_formula_sum "Si O2"
_cell_formula_units_Z 20
_cell_length_a 9.064496
_cell_length_b 18.843793
_cell_length_c 7.757820
_cell_angle_alpha 90.000000
_cell_angle_beta 130.286187
_cell_angle_gamma 90.000000
_cell_volume 1010.825452
_symmetry_space_group_name_H-M "P 21/M"
_symmetry_group_IT_number 11
_symmetry_cell_setting 'monoclinic'
loop_
_space_group_symop_operation_xyz
x,y,z
-x,1/2+y,-z
-x,-y,-z
x,1/2-y,z
loop_
_atom_site_type_symbol
_atom_site_label
_atom_site_fract_x
_atom_site_fract_y
_atom_site_fract_z
Si Si1 0.258963 0.669036 0.260354
Si Si2 0.818116 0.963215 0.275386
Si Si3 0.432271 0.669540 0.749751
Si Si4 0.587471 0.424509 0.927127
Si Si5 0.866156 0.670960 0.101519
O O1 0.325685 0.750000 0.279217
O O2 0.310486 0.644097 0.493181
O O3 0.365771 0.620749 0.204359
O O4 0.026175 0.660285 0.071812
O O5 0.632422 0.953107 0.261627
O O6 0.892438 0.886465 0.271845
O O7 0.000000 0.000000 0.500000
O O8 0.738979 0.010256 0.054628
O O9 0.378622 0.750000 0.761095
O O10 0.387933 0.620873 0.879929
O O11 0.655321 0.663583 0.858811
O O12 0.893657 0.750000 0.204279
#
# Coordination Sequence:
#
# PCOD8074296 Si02
#       5
#     4   4   4   4   4
#     4  10  20  35  58  86 112 144 187 228 270 322
#     4  10  21  38  56  80 114 147 182 226 277 329
#     4   9  18  35  56  79 113 151 184 226 275 320
#     4  10  21  36  56  83 112 145 187 228 270 326
#     4   9  19  36  56  79 109 145 185 227 273 327
#
# _framework density 19.785809
#
# number of rings (size 3 to 8) (size 9 to 14) (size 15 to 20)
#    0.000    2.400    0.000    1.800    0.000    3.200 
#    0.000   15.000    0.000    9.600    0.000    0.000 
#    0.000    0.000    0.000    0.000    0.000    0.000 
#
# Total GULP energy -247910.296819 kJ/mol
# GULP energy per Si atom -12395.514841 kJ/mol
# Density = 1.974078 g / cm^3
# Si number density = 19.785809 Si / 1000 Ang^3
#
#
#
# Elastic Constant Matrix: (Units=GPa)
#
#
# Indices 1 2 3 4 5 6 
#
# 1 78.0134 47.0530 37.8937 0.0000 7.2418 0.0000
# 2 47.0530 111.0382 40.6347 0.0000 1.9584 0.0000
# 3 37.8937 40.6347 61.1352 0.0000 8.6445 0.0000
# 4 0.0000 0.0000 0.0000 31.0720 0.0000 -0.7493
# 5 7.2418 1.9584 8.6445 0.0000 28.2048 0.0000
# 6 0.0000 0.0000 0.0000 -0.7493 0.0000 29.5265
#
#
#
# Elastic Compliance Matrix: (Units=1/GPa)
#
#
# Indices 1 2 3 4 5 6 
#
# 1 0.020606 -0.005462 -0.008831 0.000000 -0.002205 0.000000
# 2 -0.005462 0.013424 -0.005857 0.000000 0.002265 0.000000
# 3 -0.008831 -0.005857 0.026494 0.000000 -0.005446 0.000000
# 4 0.000000 0.000000 0.000000 0.032203 0.000000 0.000817
# 5 -0.002205 0.002265 -0.005446 0.000000 0.037533 0.000000
# 6 0.000000 0.000000 0.000000 0.000817 0.000000 0.033889
#
#
# Mechanical properties :
#
#
# Convention : Reuss Voigt Hill
#
# Bulk Modulus (GPa) = 49.44378 55.70550 52.57464
# Shear Modulus (GPa) = 23.67534 26.06769 24.87151
#
# Velocity S-wave (km/s) = 3.46292 3.63367 3.54932
# Velocity P-wave (km/s) = 6.40569 6.76906 6.58988
#
# Compressibility (1/GPa) = 0.02022499
#
# Stress axis : x y z
#
# Youngs Moduli (GPa) = 48.52847 74.49406 37.74426
#
# Poissons Ratio (x) = 0.40686 0.33331
# Poissons Ratio (y) = 0.26504 0.22109
# Poissons Ratio (z) = 0.42854 0.43635
#
# Static dielectric constant tensor:
#      x y z
#    x 3.526120 0.000000 0.397030 
#    y 0.000000 3.930170 0.000000 
#    z 0.397030 0.000000 3.450380 
# 
# 
# High freq. dielectric constant tensor:
#      x y z
#    x 1.758100 0.000000 0.034500 
#    y 0.000000 1.791140 0.000000 
#    z 0.034500 0.000000 1.753730 
# 
# From -- ./inp_files/2465.got.cif
#   From: 2010.06.25/outbox.cif.g09.slc.cpg/sg11_2_cif.got.tgz:2465.got - 2010.06.27 23:14:04.
