data_PCOD8074884
_publ_section_title
;
Structure prediction by ZEFSAII (Michael W. Deem and Ramdas Pophale) SiO2 
 PCOD8074884
Probable space group: P 21/M
;
_chemical_formula_sum "Si O2"
_cell_formula_units_Z 20
_cell_length_a 5.008186
_cell_length_b 13.381037
_cell_length_c 11.479909
_cell_angle_alpha 90.000000
_cell_angle_beta 90.631077
_cell_angle_gamma 90.000000
_cell_volume 769.276247
_symmetry_space_group_name_H-M "P 21/M"
_symmetry_group_IT_number 11
_symmetry_cell_setting 'monoclinic'
loop_
_space_group_symop_operation_xyz
x,y,z
-x,1/2+y,-z
-x,-y,-z
x,1/2-y,z
loop_
_atom_site_type_symbol
_atom_site_label
_atom_site_fract_x
_atom_site_fract_y
_atom_site_fract_z
Si Si1 0.437610 0.634280 0.575823
Si Si2 0.808871 0.864525 0.180226
Si Si3 0.041323 0.636950 0.935554
Si Si4 0.460337 0.044831 0.176565
Si Si5 0.951895 0.634671 0.430845
O O1 0.400561 0.750000 0.611848
O O2 0.514363 0.572867 0.689098
O O3 0.657647 0.619902 0.478261
O O4 0.170620 0.583981 0.517822
O O5 0.713585 0.750000 0.195717
O O6 0.961673 0.904255 0.297244
O O7 0.540870 0.929177 0.158959
O O8 0.009909 0.877420 0.073523
O O9 0.973823 0.750000 0.897555
O O10 0.841861 0.562789 0.866493
O O11 0.343249 0.611878 0.902238
O O12 0.038305 0.750000 0.429658
#
# Coordination Sequence:
#
# PCOD8074884 Si02
#       5
#     4   4   4   4   4
#     4  10  20  36  60  90 124 160 204 258 310 366
#     4  10  24  44  65  92 130 172 213 259 310 374
#     4  11  24  43  67  95 127 164 210 264 320 375
#     4  12  24  41  67  97 128 165 212 260 317 378
#     4   9  20  38  60  88 123 163 206 253 308 369
#
# _framework density 25.998462
#
# number of rings (size 3 to 8) (size 9 to 14) (size 15 to 20)
#    0.000    1.600    0.000    4.200    0.000    6.400 
#    0.000   11.000    0.000    0.000    0.000    0.000 
#    0.000    0.000    0.000    0.000    0.000    0.000 
#
# Total GULP energy -248116.995383 kJ/mol
# GULP energy per Si atom -12405.849769 kJ/mol
# Density = 2.593929 g / cm^3
# Si number density = 25.998462 Si / 1000 Ang^3
#
#
#
# Elastic Constant Matrix: (Units=GPa)
#
#
# Indices 1 2 3 4 5 6 
#
# 1 69.4040 -13.3021 7.3862 0.0000 14.9772 0.0000
# 2 -13.3021 80.3392 18.7650 0.0000 6.3046 0.0000
# 3 7.3862 18.7650 146.9453 0.0000 -7.8828 0.0000
# 4 0.0000 0.0000 0.0000 28.0523 0.0000 8.8847
# 5 14.9772 6.3046 -7.8828 0.0000 16.1431 0.0000
# 6 0.0000 0.0000 0.0000 8.8847 0.0000 14.6448
#
#
#
# Elastic Compliance Matrix: (Units=1/GPa)
#
#
# Indices 1 2 3 4 5 6 
#
# 1 0.020895 0.005997 -0.003062 0.000000 -0.023223 0.000000
# 2 0.005997 0.015137 -0.002927 0.000000 -0.012905 0.000000
# 3 -0.003062 -0.002927 0.007750 0.000000 0.007768 0.000000
# 4 0.000000 0.000000 0.000000 0.044126 0.000000 -0.026770
# 5 -0.023223 -0.012905 0.007768 0.000000 0.092325 0.000000
# 6 0.000000 0.000000 0.000000 -0.026770 0.000000 0.084524
#
#
# Mechanical properties :
#
#
# Convention : Reuss Voigt Hill
#
# Bulk Modulus (GPa) = 22.83165 35.82074 29.32619
# Shear Modulus (GPa) = 17.89937 30.69069 24.29503
#
# Velocity S-wave (km/s) = 2.62673 3.43954 3.06024
# Velocity P-wave (km/s) = 4.24271 5.43892 4.87763
#
# Compressibility (1/GPa) = 0.04379886
#
# Stress axis : x y z
#
# Youngs Moduli (GPa) = 47.85772 66.06533 129.03870
#
# Poissons Ratio (x) = -0.39622 0.39511
# Poissons Ratio (y) = -0.28702 0.37765
# Poissons Ratio (z) = 0.14654 0.19335
#
# Static dielectric constant tensor:
#      x y z
#    x 4.376370 0.000000 0.015140 
#    y 0.000000 5.031210 0.000000 
#    z 0.015140 0.000000 4.804680 
# 
# 
# High freq. dielectric constant tensor:
#      x y z
#    x 2.029180 0.000000 -0.000040 
#    y 0.000000 2.055820 0.000000 
#    z -0.000040 0.000000 2.056720 
# 
# From -- ./inp_files/4257.got.cif
#   From: 2010.06.25/outbox.cif.g09.slc.cpg/sg11_3_cif.got.tgz:4257.got - 2010.06.27 23:14:04.
