data_PCOD8074462
_publ_section_title
;
Structure prediction by ZEFSAII (Michael W. Deem and Ramdas Pophale) SiO2 
 PCOD8074462
Probable space group: P 21/M
;
_chemical_formula_sum "Si O2"
_cell_formula_units_Z 32
_cell_length_a 11.719959
_cell_length_b 9.015310
_cell_length_c 28.622082
_cell_angle_alpha 90.000000
_cell_angle_beta 31.511813
_cell_angle_gamma 90.000000
_cell_volume 1580.662553
_symmetry_space_group_name_H-M "P 21/M"
_symmetry_group_IT_number 11
_symmetry_cell_setting 'monoclinic'
loop_
_space_group_symop_operation_xyz
x,y,z
-x,1/2+y,-z
-x,-y,-z
x,1/2-y,z
loop_
_atom_site_type_symbol
_atom_site_label
_atom_site_fract_x
_atom_site_fract_y
_atom_site_fract_z
Si Si1 0.985052 0.421169 0.271248
Si Si2 0.406354 0.426290 0.835851
Si Si3 0.635253 0.082220 0.913021
Si Si4 0.841823 0.924745 0.167083
Si Si5 0.619940 0.080577 0.328557
Si Si6 0.233756 0.084468 0.991248
Si Si7 0.118976 0.075390 0.502092
Si Si8 0.894586 0.426090 0.676517
O O1 0.053496 0.250000 0.252999
O O2 0.738222 0.435671 0.337507
O O3 0.146089 0.495402 0.177058
O O4 0.987292 0.500148 0.320521
O O5 0.420152 0.250000 0.829086
O O6 0.305675 0.490874 0.823349
O O7 0.246158 0.476177 0.933844
O O8 0.649111 0.488940 0.758316
O O9 0.695794 0.250000 0.907894
O O10 0.483934 0.087591 0.920289
O O11 0.500000 0.000000 0.000000
O O12 0.841696 0.750000 0.166240
O O13 0.748734 0.978078 0.248061
O O14 0.090025 0.978884 0.074106
O O15 0.631648 0.250000 0.307079
O O16 0.370893 0.025918 0.417635
O O17 0.133492 0.250000 0.028441
O O18 0.093401 0.250000 0.504264
O O19 0.012347 0.023865 0.587858
O O20 0.000000 0.000000 0.500000
O O21 0.904253 0.250000 0.680245
#
# Coordination Sequence:
#
# PCOD8074462 Si02
#       8
#     4   4   4   4   4   4   4   4
#     4  11  23  39  59  85 119 158 202 247 293 352
#     4   9  18  35  56  81 115 150 188 236 296 355
#     4  11  22  37  58  82 115 159 204 249 299 353
#     4  11  22  35  57  87 115 150 200 250 288 345
#     4  10  23  42  59  83 122 160 191 234 299 359
#     4  10  20  36  55  77 113 157 191 234 302 360
#     4  10  22  41  67  94 123 157 196 241 298 360
#     4  10  20  39  64  88 117 157 198 245 302 356
#
# _framework density 20.244675999999998
#
# number of rings (size 3 to 8) (size 9 to 14) (size 15 to 20)
#    0.000    1.750    1.250    3.000    0.000    7.500 
#    0.000    1.875    0.000    0.000    0.000    0.000 
#    0.000    0.000    0.000    0.000    0.000    0.000 
#
# Total GULP energy -396845.969906 kJ/mol
# GULP energy per Si atom -12401.436560 kJ/mol
# Density = 2.019860 g / cm^3
# Si number density = 20.244676 Si / 1000 Ang^3
#
#
#
# Elastic Constant Matrix: (Units=GPa)
#
#
# Indices 1 2 3 4 5 6 
#
# 1 96.2853 37.1741 46.1025 0.0000 -0.2550 0.0000
# 2 37.1741 76.3239 41.2675 0.0000 3.3777 0.0000
# 3 46.1025 41.2675 126.6937 0.0000 1.2300 0.0000
# 4 0.0000 0.0000 0.0000 14.2925 0.0000 0.8411
# 5 -0.2550 3.3777 1.2300 0.0000 39.1877 0.0000
# 6 0.0000 0.0000 0.0000 0.8411 0.0000 33.3202
#
#
#
# Elastic Compliance Matrix: (Units=1/GPa)
#
#
# Indices 1 2 3 4 5 6 
#
# 1 0.013962 -0.004949 -0.003475 0.000000 0.000626 0.000000
# 2 -0.004949 0.017715 -0.003955 0.000000 -0.001435 0.000000
# 3 -0.003475 -0.003955 0.010446 0.000000 -0.000010 0.000000
# 4 0.000000 0.000000 0.000000 0.070071 0.000000 -0.001769
# 5 0.000626 -0.001435 -0.000010 0.000000 0.025646 0.000000
# 6 0.000000 0.000000 0.000000 -0.001769 0.000000 0.030056
#
#
# Mechanical properties :
#
#
# Convention : Reuss Voigt Hill
#
# Bulk Modulus (GPa) = 57.58950 60.93232 59.26091
# Shear Modulus (GPa) = 25.19623 29.01068 27.10345
#
# Velocity S-wave (km/s) = 3.53170 3.78961 3.66292
# Velocity P-wave (km/s) = 6.71856 7.02221 6.87206
#
# Compressibility (1/GPa) = 0.01736428
#
# Stress axis : x y z
#
# Youngs Moduli (GPa) = 71.62311 56.45024 95.73209
#
# Poissons Ratio (x) = 0.27939 0.33263
# Poissons Ratio (y) = 0.35449 0.37864
# Poissons Ratio (z) = 0.24886 0.22327
#
# Static dielectric constant tensor:
#      x y z
#    x 3.908670 0.000000 -0.085270 
#    y 0.000000 3.510610 0.000000 
#    z -0.085270 0.000000 3.668810 
# 
# 
# High freq. dielectric constant tensor:
#      x y z
#    x 1.807000 0.000000 -0.000980 
#    y 0.000000 1.775230 0.000000 
#    z -0.000980 0.000000 1.789760 
# 
# From -- ./inp_files/73126.got.cif
#   From: 2010.06.25/outbox.cif.g09.slc.cpg/sg11_37_cif.got.tgz:73126.got - 2010.06.27 23:14:04.
