data_PCOD8074794
_publ_section_title
;
Structure prediction by ZEFSAII (Michael W. Deem and Ramdas Pophale) SiO2 
 PCOD8074794
Probable space group: P 21/M
;
_chemical_formula_sum "Si O2"
_cell_formula_units_Z 28
_cell_length_a 17.159516
_cell_length_b 8.908954
_cell_length_c 9.691971
_cell_angle_alpha 90.000000
_cell_angle_beta 82.119790
_cell_angle_gamma 90.000000
_cell_volume 1467.652620
_symmetry_space_group_name_H-M "P 21/M"
_symmetry_group_IT_number 11
_symmetry_cell_setting 'monoclinic'
loop_
_space_group_symop_operation_xyz
x,y,z
-x,1/2+y,-z
-x,-y,-z
x,1/2-y,z
loop_
_atom_site_type_symbol
_atom_site_label
_atom_site_fract_x
_atom_site_fract_y
_atom_site_fract_z
Si Si1 0.950339 0.919824 0.627740
Si Si2 0.192842 0.923282 0.428850
Si Si3 0.198430 0.428078 0.720290
Si Si4 0.948180 0.079415 0.124919
Si Si5 0.503443 0.926275 0.849561
Si Si6 0.372599 0.578501 0.369310
Si Si7 0.361246 0.926601 0.686212
O O1 0.932185 0.750000 0.587599
O O2 0.000348 0.927058 0.751824
O O3 0.867239 0.007033 0.668011
O O4 0.000000 0.000000 0.500000
O O5 0.172721 0.750000 0.461975
O O6 0.281220 0.941787 0.352372
O O7 0.179312 0.011035 0.573764
O O8 0.196750 0.250000 0.721158
O O9 0.133518 0.490507 0.841083
O O10 0.283572 0.484643 0.749962
O O11 0.928938 0.250000 0.087021
O O12 0.000000 0.000000 0.000000
O O13 0.506061 0.750000 0.870645
O O14 0.428190 0.974372 0.777434
O O15 0.580506 0.974891 0.747504
O O16 0.500000 0.000000 0.000000
O O17 0.399733 0.750000 0.342156
O O18 0.387386 0.527888 0.524323
O O19 0.342288 0.750000 0.693321
#
# Coordination Sequence:
#
# PCOD8074794 Si02
#       7
#     4   4   4   4   4   4   4
#     4  11  22  36  60  88 117 154 197 243 291 344
#     4  10  20  36  59  88 120 153 193 241 291 342
#     4  11  21  35  60  89 117 151 194 242 293 344
#     4  11  24  41  59  83 118 158 199 242 292 348
#     4  11  23  39  60  86 119 156 191 232 287 345
#     4   9  19  37  61  87 116 149 191 239 287 340
#     4   9  20  39  62  87 115 151 192 238 290 343
#
# _framework density 19.078084
#
# number of rings (size 3 to 8) (size 9 to 14) (size 15 to 20)
#    0.000    1.714    1.429    4.286    0.000    5.714 
#    2.571    0.000    0.000    0.000    0.000    0.000 
#    0.000    0.000    0.000    0.000    0.000    0.000 
#
# Total GULP energy -347268.978732 kJ/mol
# GULP energy per Si atom -12402.463526 kJ/mol
# Density = 1.903466 g / cm^3
# Si number density = 19.078084 Si / 1000 Ang^3
#
#
#
# Elastic Constant Matrix: (Units=GPa)
#
#
# Indices 1 2 3 4 5 6 
#
# 1 125.1234 69.3504 55.1998 0.0000 -11.9442 0.0000
# 2 69.3504 132.2174 54.5546 0.0000 -11.8683 0.0000
# 3 55.1998 54.5546 95.3640 0.0000 -17.8559 0.0000
# 4 0.0000 0.0000 0.0000 32.7573 0.0000 -3.9002
# 5 -11.9442 -11.8683 -17.8559 0.0000 29.2983 0.0000
# 6 0.0000 0.0000 0.0000 -3.9002 0.0000 38.9093
#
#
#
# Elastic Compliance Matrix: (Units=1/GPa)
#
#
# Indices 1 2 3 4 5 6 
#
# 1 0.012657 -0.004725 -0.004533 0.000000 0.000483 0.000000
# 2 -0.004725 0.011675 -0.003859 0.000000 0.000451 0.000000
# 3 -0.004533 -0.003859 0.016570 0.000000 0.006687 0.000000
# 4 0.000000 0.000000 0.000000 0.030896 0.000000 0.003097
# 5 0.000483 0.000451 0.006687 0.000000 0.038587 0.000000
# 6 0.000000 0.000000 0.000000 0.003097 0.000000 0.026011
#
#
# Mechanical properties :
#
#
# Convention : Reuss Voigt Hill
#
# Bulk Modulus (GPa) = 68.17931 78.99051 73.58491
# Shear Modulus (GPa) = 29.84753 31.76630 30.80692
#
# Velocity S-wave (km/s) = 3.95966 4.08495 4.02279
# Velocity P-wave (km/s) = 7.53125 7.98391 7.76088
#
# Compressibility (1/GPa) = 0.01466721
#
# Stress axis : x y z
#
# Youngs Moduli (GPa) = 79.00899 85.65669 60.35173
#
# Poissons Ratio (x) = 0.40474 0.27355
# Poissons Ratio (y) = 0.37333 0.23290
# Poissons Ratio (z) = 0.35811 0.33056
#
# Static dielectric constant tensor:
#      x y z
#    x 3.818360 0.000000 -0.002490 
#    y 0.000000 3.655680 0.000000 
#    z -0.002490 0.000000 3.216170 
# 
# 
# High freq. dielectric constant tensor:
#      x y z
#    x 1.757060 0.000000 -0.002670 
#    y 0.000000 1.753660 0.000000 
#    z -0.002670 0.000000 1.721470 
# 
# From -- ./inp_files/23986.got.cif
#   From: 2010.06.25/outbox.cif.g09.slc.cpg/sg11_12_cif.got.tgz:23986.got - 2010.06.27 23:14:04.
