data_PCOD8074217
_publ_section_title
;
Structure prediction by ZEFSAII (Michael W. Deem and Ramdas Pophale) SiO2 
 PCOD8074217
Probable space group: P 21/M
;
_chemical_formula_sum "Si O2"
_cell_formula_units_Z 24
_cell_length_a 15.660352
_cell_length_b 8.827839
_cell_length_c 19.992996
_cell_angle_alpha 90.000000
_cell_angle_beta 152.494976
_cell_angle_gamma 90.000000
_cell_volume 1276.475689
_symmetry_space_group_name_H-M "P 21/M"
_symmetry_group_IT_number 11
_symmetry_cell_setting 'monoclinic'
loop_
_space_group_symop_operation_xyz
x,y,z
-x,1/2+y,-z
-x,-y,-z
x,1/2-y,z
loop_
_atom_site_type_symbol
_atom_site_label
_atom_site_fract_x
_atom_site_fract_y
_atom_site_fract_z
Si Si1 0.028899 0.424554 0.306035
Si Si2 0.422725 0.423020 0.631174
Si Si3 0.611332 0.571538 0.638386
Si Si4 0.045631 0.573758 0.176378
Si Si5 0.375112 0.076323 0.113545
Si Si6 0.653871 0.928058 0.060753
O O1 0.983929 0.250000 0.259456
O O2 0.201547 0.442489 0.475972
O O3 0.083724 0.506427 0.275770
O O4 0.852015 0.501608 0.217850
O O5 0.478389 0.250000 0.654675
O O6 0.520711 0.530546 0.645752
O O7 0.487901 0.469230 0.750326
O O8 0.500000 0.500000 0.500000
O O9 0.613409 0.750000 0.630660
O O10 0.821360 0.509451 0.783978
O O11 0.095543 0.750000 0.214288
O O12 0.834536 0.548142 0.007332
O O13 0.432137 0.250000 0.164617
O O14 0.393022 0.032197 0.048401
O O15 0.664065 0.750000 0.079718
O O16 0.500000 0.000000 0.000000
#
# Coordination Sequence:
#
# PCOD8074217 Si02
#       6
#     4   4   4   4   4   4
#     4  10  20  35  57  84 114 148 189 233 281 338
#     4  11  23  37  56  84 116 152 192 235 284 336
#     4  12  23  35  55  81 113 152 196 242 283 331
#     4  10  20  36  57  81 111 151 197 240 282 334
#     4   9  21  39  58  83 115 149 186 232 287 340
#     4  10  21  39  64  90 114 144 186 231 281 344
#
# _framework density 18.801769
#
# number of rings (size 3 to 8) (size 9 to 14) (size 15 to 20)
#    0.000    1.667    1.667    4.500    0.000    6.667 
#    0.000    0.833    0.000    0.000    0.000    0.000 
#    0.000    0.000    0.000    0.000    0.000    0.000 
#
# Total GULP energy -297702.862911 kJ/mol
# GULP energy per Si atom -12404.285955 kJ/mol
# Density = 1.875898 g / cm^3
# Si number density = 18.801769 Si / 1000 Ang^3
#
#
#
# Elastic Constant Matrix: (Units=GPa)
#
#
# Indices 1 2 3 4 5 6 
#
# 1 108.8511 55.1255 49.7650 0.0000 22.8550 0.0000
# 2 55.1255 145.5184 64.8565 0.0000 9.1595 0.0000
# 3 49.7650 64.8565 111.4220 0.0000 5.1018 0.0000
# 4 0.0000 0.0000 0.0000 34.1563 0.0000 2.3153
# 5 22.8550 9.1595 5.1018 0.0000 25.7649 0.0000
# 6 0.0000 0.0000 0.0000 2.3153 0.0000 33.5618
#
#
#
# Elastic Compliance Matrix: (Units=1/GPa)
#
#
# Indices 1 2 3 4 5 6 
#
# 1 0.015192 -0.003026 -0.004497 0.000000 -0.011510 0.000000
# 2 -0.003026 0.010013 -0.004477 0.000000 0.000011 0.000000
# 3 -0.004497 -0.004477 0.013456 0.000000 0.002916 0.000000
# 4 0.000000 0.000000 0.000000 0.029415 0.000000 -0.002029
# 5 -0.011510 0.000011 0.002916 0.000000 0.048441 0.000000
# 6 0.000000 0.000000 0.000000 -0.002029 0.000000 0.029936
#
#
# Mechanical properties :
#
#
# Convention : Reuss Voigt Hill
#
# Bulk Modulus (GPa) = 68.21130 78.36505 73.28818
# Shear Modulus (GPa) = 28.51599 31.76623 30.14111
#
# Velocity S-wave (km/s) = 3.89866 4.11485 4.00822
# Velocity P-wave (km/s) = 7.52490 8.02160 7.77722
#
# Compressibility (1/GPa) = 0.01466033
#
# Stress axis : x y z
#
# Youngs Moduli (GPa) = 65.82394 99.86764 74.31695
#
# Poissons Ratio (x) = 0.30225 0.33418
# Poissons Ratio (y) = 0.19921 0.33274
# Poissons Ratio (z) = 0.29599 0.44714
#
# Static dielectric constant tensor:
#      x y z
#    x 3.342150 0.000000 0.173920 
#    y 0.000000 3.597050 0.000000 
#    z 0.173920 0.000000 3.485620 
# 
# 
# High freq. dielectric constant tensor:
#      x y z
#    x 1.712710 0.000000 0.013040 
#    y 0.000000 1.747710 0.000000 
#    z 0.013040 0.000000 1.729850 
# 
# From -- ./inp_files/20324.got.cif
#   From: 2010.06.25/outbox.cif.g09.slc.cpg/sg11_11_cif.got.tgz:20324.got - 2010.06.27 23:14:04.
