data_PCOD8074809
_publ_section_title
;
Structure prediction by ZEFSAII (Michael W. Deem and Ramdas Pophale) SiO2 
 PCOD8074809
Probable space group: P 21/M
;
_chemical_formula_sum "Si O2"
_cell_formula_units_Z 32
_cell_length_a 21.182841
_cell_length_b 9.003085
_cell_length_c 27.257105
_cell_angle_alpha 90.000000
_cell_angle_beta 18.749714
_cell_angle_gamma 90.000000
_cell_volume 1670.890903
_symmetry_space_group_name_H-M "P 21/M"
_symmetry_group_IT_number 11
_symmetry_cell_setting 'monoclinic'
loop_
_space_group_symop_operation_xyz
x,y,z
-x,1/2+y,-z
-x,-y,-z
x,1/2-y,z
loop_
_atom_site_type_symbol
_atom_site_label
_atom_site_fract_x
_atom_site_fract_y
_atom_site_fract_z
Si Si1 0.617851 0.425004 0.956420
Si Si2 0.969726 0.076349 0.945898
Si Si3 0.735010 0.077612 0.453964
Si Si4 0.700801 0.575875 0.218586
Si Si5 0.043892 0.074229 0.147271
Si Si6 0.546611 0.578698 0.106519
Si Si7 0.881114 0.421444 0.544633
Si Si8 0.009847 0.923227 0.643397
O O1 0.604764 0.250000 0.960329
O O2 0.840347 0.479159 0.791878
O O3 0.500000 0.500000 0.000000
O O4 0.520668 0.474301 0.078697
O O5 0.932241 0.250000 0.967587
O O6 0.164336 0.041338 0.833967
O O7 0.004904 0.004385 0.867515
O O8 0.781258 0.005752 0.111116
O O9 0.726074 0.250000 0.448580
O O10 0.515872 0.011262 0.609726
O O11 0.802057 0.049716 0.460596
O O12 0.889231 0.010021 0.301231
O O13 0.693723 0.750000 0.211326
O O14 0.025579 0.250000 0.153917
O O15 0.263960 0.030532 0.001659
O O16 0.566829 0.750000 0.074636
O O17 0.352113 0.552406 0.281608
O O18 0.933280 0.250000 0.511167
O O19 0.947828 0.481548 0.442493
O O20 0.000000 0.500000 0.500000
O O21 0.948925 0.750000 0.688507
#
# Coordination Sequence:
#
# PCOD8074809 Si02
#       8
#     4   4   4   4   4   4   4   4
#     4  12  24  38  59  84 113 151 190 231 282 336
#     4  10  21  36  55  86 122 152 187 235 282 332
#     4   9  18  35  61  86 109 144 194 239 277 334
#     4   9  19  37  61  85 113 152 195 233 279 336
#     4  10  20  36  60  85 112 150 192 233 281 339
#     4  10  21  39  60  85 113 146 191 238 281 336
#     4  10  22  37  58  84 111 143 184 232 286 337
#     4  10  20  38  60  84 111 144 189 238 283 335
#
# _framework density 19.151458999999999
#
# number of rings (size 3 to 8) (size 9 to 14) (size 15 to 20)
#    0.000    2.000    1.250    2.250    1.750    4.500 
#    0.000    1.250    0.000    0.000    0.000    0.000 
#    0.000    0.000    0.000    0.000    0.000    0.000 
#
# Total GULP energy -396854.286926 kJ/mol
# GULP energy per Si atom -12401.696466 kJ/mol
# Density = 1.910787 g / cm^3
# Si number density = 19.151459 Si / 1000 Ang^3
#
#
#
# Elastic Constant Matrix: (Units=GPa)
#
#
# Indices 1 2 3 4 5 6 
#
# 1 111.5304 30.5873 37.4036 0.0000 12.3899 0.0000
# 2 30.5873 59.2226 19.6076 0.0000 1.9947 0.0000
# 3 37.4036 19.6076 106.9942 0.0000 -4.5444 0.0000
# 4 0.0000 0.0000 0.0000 21.8729 0.0000 3.7166
# 5 12.3899 1.9947 -4.5444 0.0000 34.0405 0.0000
# 6 0.0000 0.0000 0.0000 3.7166 0.0000 33.0380
#
#
#
# Elastic Compliance Matrix: (Units=1/GPa)
#
#
# Indices 1 2 3 4 5 6 
#
# 1 0.011978 -0.004879 -0.003486 0.000000 -0.004539 0.000000
# 2 -0.004879 0.020040 -0.001952 0.000000 0.000341 0.000000
# 3 -0.003486 -0.001952 0.011044 0.000000 0.002858 0.000000
# 4 0.000000 0.000000 0.000000 0.046610 0.000000 -0.005243
# 5 -0.004539 0.000341 0.002858 0.000000 0.031390 0.000000
# 6 0.000000 0.000000 0.000000 -0.005243 0.000000 0.030858
#
#
# Mechanical properties :
#
#
# Convention : Reuss Voigt Hill
#
# Bulk Modulus (GPa) = 44.58873 50.32712 47.45793
# Shear Modulus (GPa) = 27.77307 30.46685 29.11996
#
# Velocity S-wave (km/s) = 3.81225 3.99286 3.90360
# Velocity P-wave (km/s) = 6.53532 6.89875 6.71949
#
# Compressibility (1/GPa) = 0.02242719
#
# Stress axis : x y z
#
# Youngs Moduli (GPa) = 83.48945 49.89922 90.54649
#
# Poissons Ratio (x) = 0.24347 0.31563
# Poissons Ratio (y) = 0.40736 0.17678
# Poissons Ratio (z) = 0.29103 0.09742
#
# Static dielectric constant tensor:
#      x y z
#    x 3.173450 0.000000 -0.366990 
#    y 0.000000 3.339500 0.000000 
#    z -0.366990 0.000000 3.414910 
# 
# 
# High freq. dielectric constant tensor:
#      x y z
#    x 1.752350 0.000000 -0.000110 
#    y 0.000000 1.722360 0.000000 
#    z -0.000110 0.000000 1.756440 
# 
# From -- ./inp_files/67166.got.cif
#   From: 2010.06.25/outbox.cif.g09.slc.cpg/sg11_34_cif.got.tgz:67166.got - 2010.06.27 23:14:04.
