data_PCOD8074465
_publ_section_title
;
Structure prediction by ZEFSAII (Michael W. Deem and Ramdas Pophale) SiO2 
 PCOD8074465
Probable space group: P 21/M
;
_chemical_formula_sum "Si O2"
_cell_formula_units_Z 32
_cell_length_a 9.279900
_cell_length_b 15.412662
_cell_length_c 12.014012
_cell_angle_alpha 90.000000
_cell_angle_beta 89.709498
_cell_angle_gamma 90.000000
_cell_volume 1718.317566
_symmetry_space_group_name_H-M "P 21/M"
_symmetry_group_IT_number 11
_symmetry_cell_setting 'monoclinic'
loop_
_space_group_symop_operation_xyz
x,y,z
-x,1/2+y,-z
-x,-y,-z
x,1/2-y,z
loop_
_atom_site_type_symbol
_atom_site_label
_atom_site_fract_x
_atom_site_fract_y
_atom_site_fract_z
Si Si1 0.580159 0.500344 0.883812
Si Si2 0.920717 0.999454 0.884168
Si Si3 0.121153 0.850785 0.513708
Si Si4 0.917665 0.153956 0.729457
Si Si5 0.424779 0.655498 0.267572
Si Si6 0.922344 0.650270 0.719560
Si Si7 0.436331 0.905103 0.506624
Si Si8 0.592129 0.846952 0.721360
O O1 0.750261 0.494170 0.904098
O O2 0.517957 0.418663 0.815011
O O3 0.538680 0.587032 0.816321
O O4 0.500000 0.500000 0.000000
O O5 0.978937 0.081581 0.812765
O O6 0.965097 0.910498 0.822660
O O7 0.000000 0.000000 0.000000
O O8 0.168210 0.750000 0.520632
O O9 0.036038 0.867407 0.397903
O O10 0.263697 0.909564 0.521006
O O11 0.014838 0.877464 0.612797
O O12 0.973515 0.250000 0.765214
O O13 0.746282 0.151634 0.730337
O O14 0.478418 0.750000 0.225291
O O15 0.482056 0.642371 0.392539
O O16 0.950879 0.750000 0.753977
O O17 0.756888 0.633243 0.688042
O O18 0.499562 0.853704 0.610545
O O19 0.500000 0.000000 0.500000
O O20 0.575019 0.750000 0.770249
#
# Coordination Sequence:
#
# PCOD8074465 Si02
#       8
#     4   4   4   4   4   4   4   4
#     4  10  21  37  54  75 104 137 184 225 260 318
#     4  10  21  36  52  76 102 137 179 220 268 308
#     4   9  18  34  56  82 107 138 180 220 259 319
#     4   8  16  32  54  76 102 134 172 216 261 311
#     4   9  17  33  54  76 105 139 172 214 266 314
#     4   9  20  37  55  77 109 144 177 215 267 323
#     4  11  19  32  54  85 112 138 173 217 269 320
#     4  10  20  36  55  78 112 147 174 217 276 325
#
# _framework density 18.622866999999999
#
# number of rings (size 3 to 8) (size 9 to 14) (size 15 to 20)
#    0.000    2.500    1.250    1.875    1.750    2.500 
#    0.000    0.000    0.000    1.500    0.000    0.000 
#    0.000    0.000    0.000    0.000    0.000    0.000 
#
# Total GULP energy -396756.010825 kJ/mol
# GULP energy per Si atom -12398.625338 kJ/mol
# Density = 1.858048 g / cm^3
# Si number density = 18.622867 Si / 1000 Ang^3
#
#
#
# Elastic Constant Matrix: (Units=GPa)
#
#
# Indices 1 2 3 4 5 6 
#
# 1 42.5285 37.8395 51.1016 0.0000 -4.7224 0.0000
# 2 37.8395 143.9315 83.3061 0.0000 -3.8782 0.0000
# 3 51.1016 83.3061 168.6832 0.0000 -1.9100 0.0000
# 4 0.0000 0.0000 0.0000 25.8472 0.0000 0.8696
# 5 -4.7224 -3.8782 -1.9100 0.0000 35.8295 0.0000
# 6 0.0000 0.0000 0.0000 0.8696 0.0000 17.9225
#
#
#
# Elastic Compliance Matrix: (Units=1/GPa)
#
#
# Indices 1 2 3 4 5 6 
#
# 1 0.039838 -0.004764 -0.009668 0.000000 0.004220 0.000000
# 2 -0.004764 0.010321 -0.003651 0.000000 0.000295 0.000000
# 3 -0.009668 -0.003651 0.010648 0.000000 -0.001102 0.000000
# 4 0.000000 0.000000 0.000000 0.038752 0.000000 -0.001880
# 5 0.004220 0.000295 -0.001102 0.000000 0.028439 0.000000
# 6 0.000000 0.000000 0.000000 -0.001880 0.000000 0.055887
#
#
# Mechanical properties :
#
#
# Convention : Reuss Voigt Hill
#
# Bulk Modulus (GPa) = 40.58231 77.73752 59.15991
# Shear Modulus (GPa) = 21.90441 28.11290 25.00866
#
# Velocity S-wave (km/s) = 3.43331 3.88956 3.66854
# Velocity P-wave (km/s) = 6.12828 7.87434 7.05553
#
# Compressibility (1/GPa) = 0.02464128
#
# Stress axis : x y z
#
# Youngs Moduli (GPa) = 25.10163 96.88923 93.91724
#
# Poissons Ratio (x) = 0.46156 0.90802
# Poissons Ratio (y) = 0.11958 0.34286
# Poissons Ratio (z) = 0.24269 0.35371
#
# Static dielectric constant tensor:
#      x y z
#    x 3.128260 0.000000 0.025210 
#    y 0.000000 3.764790 0.000000 
#    z 0.025210 0.000000 3.459950 
# 
# 
# High freq. dielectric constant tensor:
#      x y z
#    x 1.689100 0.000000 0.001110 
#    y 0.000000 1.738330 0.000000 
#    z 0.001110 0.000000 1.720020 
# 
# From -- ./inp_files/31870.got.cif
#   From: 2010.06.25/outbox.cif.g09.slc.cpg/sg11_16_cif.got.tgz:31870.got - 2010.06.27 23:14:04.
