data_PCOD8074820
_publ_section_title
;
Structure prediction by ZEFSAII (Michael W. Deem and Ramdas Pophale) SiO2 
 PCOD8074820
Probable space group: P 21/M
;
_chemical_formula_sum "Si O2"
_cell_formula_units_Z 28
_cell_length_a 9.247105
_cell_length_b 8.755449
_cell_length_c 29.061760
_cell_angle_alpha 90.000000
_cell_angle_beta 37.692774
_cell_angle_gamma 90.000000
_cell_volume 1438.635963
_symmetry_space_group_name_H-M "P 21/M"
_symmetry_group_IT_number 11
_symmetry_cell_setting 'monoclinic'
loop_
_space_group_symop_operation_xyz
x,y,z
-x,1/2+y,-z
-x,-y,-z
x,1/2-y,z
loop_
_atom_site_type_symbol
_atom_site_label
_atom_site_fract_x
_atom_site_fract_y
_atom_site_fract_z
Si Si1 0.310467 0.072116 0.641206
Si Si2 0.005184 0.574339 0.366099
Si Si3 0.758341 0.430171 0.932214
Si Si4 0.923220 0.572498 0.797984
Si Si5 0.931768 0.070479 0.065491
Si Si6 0.385398 0.073745 0.211214
Si Si7 0.845907 0.429338 0.499022
O O1 0.291731 0.250000 0.659130
O O2 0.198334 0.041236 0.619665
O O3 0.577748 0.011513 0.571745
O O4 0.176468 0.973663 0.713413
O O5 0.013390 0.750000 0.378957
O O6 0.952548 0.473266 0.423355
O O7 0.258857 0.528636 0.281494
O O8 0.738728 0.250000 0.942257
O O9 0.880132 0.472237 0.853663
O O10 0.913530 0.494104 0.934353
O O11 0.500000 0.500000 0.000000
O O12 0.926566 0.750000 0.810820
O O13 0.715648 0.535119 0.813927
O O14 0.980145 0.250000 0.052361
O O15 0.659437 0.032724 0.143965
O O16 0.000000 0.000000 0.000000
O O17 0.335703 0.250000 0.235330
O O18 0.852087 0.250000 0.502412
O O19 0.000000 0.500000 0.500000
#
# Coordination Sequence:
#
# PCOD8074820 Si02
#       7
#     4   4   4   4   4   4   4
#     4   9  20  38  59  84 113 149 190 233 283 342
#     4  10  20  36  60  86 112 145 188 234 284 340
#     4  12  25  41  61  86 118 155 196 241 289 344
#     4  10  20  37  62  90 117 148 189 237 288 343
#     4  11  23  40  62  88 119 155 194 238 288 344
#     4   9  20  38  60  86 116 149 187 231 282 341
#     4  11  23  38  56  80 114 151 190 236 286 338
#
# _framework density 19.462880999999999
#
# number of rings (size 3 to 8) (size 9 to 14) (size 15 to 20)
#    0.000    1.714    0.000    4.286    0.000    5.714 
#    0.000    0.000    0.000    0.000    0.000    0.000 
#    0.000    0.000    0.000    0.000    0.000    0.000 
#
# Total GULP energy -347358.450908 kJ/mol
# GULP energy per Si atom -12405.658961 kJ/mol
# Density = 1.941858 g / cm^3
# Si number density = 19.462881 Si / 1000 Ang^3
#
#
#
# Elastic Constant Matrix: (Units=GPa)
#
#
# Indices 1 2 3 4 5 6 
#
# 1 138.0205 60.7157 88.2418 0.0000 -7.8084 0.0000
# 2 60.7157 96.7141 63.3882 0.0000 -6.7028 0.0000
# 3 88.2418 63.3882 127.1883 0.0000 -2.7563 0.0000
# 4 0.0000 0.0000 0.0000 39.4890 0.0000 3.1639
# 5 -7.8084 -6.7028 -2.7563 0.0000 28.3738 0.0000
# 6 0.0000 0.0000 0.0000 3.1639 0.0000 34.2243
#
#
#
# Elastic Compliance Matrix: (Units=1/GPa)
#
#
# Indices 1 2 3 4 5 6 
#
# 1 0.013935 -0.003396 -0.007926 0.000000 0.002263 0.000000
# 2 -0.003396 0.016424 -0.005777 0.000000 0.002384 0.000000
# 3 -0.007926 -0.005777 0.016198 0.000000 -0.001973 0.000000
# 4 0.000000 0.000000 0.000000 0.025512 0.000000 -0.002359
# 5 0.002263 0.002384 -0.001973 0.000000 0.036238 0.000000
# 6 0.000000 0.000000 0.000000 -0.002359 0.000000 0.029437
#
#
# Mechanical properties :
#
#
# Convention : Reuss Voigt Hill
#
# Bulk Modulus (GPa) = 80.92569 87.40159 84.16364
# Shear Modulus (GPa) = 28.39903 30.38923 29.39413
#
# Velocity S-wave (km/s) = 3.82401 3.95573 3.89043
# Velocity P-wave (km/s) = 7.82094 8.11592 7.96979
#
# Compressibility (1/GPa) = 0.01235702
#
# Stress axis : x y z
#
# Youngs Moduli (GPa) = 71.76255 60.88784 61.73635
#
# Poissons Ratio (x) = 0.20680 0.48933
# Poissons Ratio (y) = 0.24373 0.35666
# Poissons Ratio (z) = 0.56880 0.35176
#
# Static dielectric constant tensor:
#      x y z
#    x 3.665780 0.000000 -0.140310 
#    y 0.000000 3.684990 0.000000 
#    z -0.140310 0.000000 3.693070 
# 
# 
# High freq. dielectric constant tensor:
#      x y z
#    x 1.761280 0.000000 -0.001520 
#    y 0.000000 1.767280 0.000000 
#    z -0.001520 0.000000 1.770910 
# 
# From -- ./inp_files/28179.got.cif
#   From: 2010.06.25/outbox.cif.g09.slc.cpg/sg11_15_cif.got.tgz:28179.got - 2010.06.27 23:14:04.
