data_PCOD8074882
_publ_section_title
;
Structure prediction by ZEFSAII (Michael W. Deem and Ramdas Pophale) SiO2 
 PCOD8074882
Probable space group: P 21/M
;
_chemical_formula_sum "Si O2"
_cell_formula_units_Z 20
_cell_length_a 21.748054
_cell_length_b 8.975363
_cell_length_c 13.484970
_cell_angle_alpha 90.000000
_cell_angle_beta 158.872578
_cell_angle_gamma 90.000000
_cell_volume 948.766508
_symmetry_space_group_name_H-M "P 21/M"
_symmetry_group_IT_number 11
_symmetry_cell_setting 'monoclinic'
loop_
_space_group_symop_operation_xyz
x,y,z
-x,1/2+y,-z
-x,-y,-z
x,1/2-y,z
loop_
_atom_site_type_symbol
_atom_site_label
_atom_site_fract_x
_atom_site_fract_y
_atom_site_fract_z
Si Si1 0.343756 0.923223 0.322635
Si Si2 0.100820 0.916939 0.782747
Si Si3 0.250932 0.081628 0.830143
Si Si4 0.183555 0.424707 0.269074
Si Si5 0.538385 0.579604 0.159655
O O1 0.388731 0.750000 0.408900
O O2 0.500000 0.000000 0.500000
O O3 0.304442 0.002740 0.367238
O O4 0.171163 0.939943 0.998817
O O5 0.146379 0.750000 0.812474
O O6 0.896142 0.936669 0.474730
O O7 0.180888 0.041497 0.832812
O O8 0.319728 0.250000 0.935843
O O9 0.403823 0.971198 0.039018
O O10 0.162885 0.250000 0.214401
O O11 0.274555 0.449613 0.512636
O O12 0.000000 0.500000 0.000000
O O13 0.510617 0.750000 0.094289
O O14 0.500000 0.500000 0.000000
#
# Coordination Sequence:
#
# PCOD8074882 Si02
#       5
#     4   4   4   4   4
#     4  11  23  40  64  93 129 170 216 267 321 382
#     4   9  20  37  58  87 124 162 201 255 313 368
#     4  10  20  36  60  90 123 159 206 258 311 370
#     4  11  26  46  67  95 132 171 216 269 325 387
#     4  11  25  43  64  90 124 164 209 261 314 374
#
# _framework density 21.080002
#
# number of rings (size 3 to 8) (size 9 to 14) (size 15 to 20)
#    0.000    1.600    0.000    3.600    2.800   10.400 
#    0.000    0.000    0.000    0.000    0.000    0.000 
#    0.000    0.000    0.000    0.000    0.000    0.000 
#
# Total GULP energy -248010.555180 kJ/mol
# GULP energy per Si atom -12400.527759 kJ/mol
# Density = 2.103202 g / cm^3
# Si number density = 21.080002 Si / 1000 Ang^3
#
#
#
# Elastic Constant Matrix: (Units=GPa)
#
#
# Indices 1 2 3 4 5 6 
#
# 1 84.4471 60.5845 38.1316 0.0000 -0.2504 0.0000
# 2 60.5845 150.8561 76.0150 0.0000 -6.0644 0.0000
# 3 38.1316 76.0150 108.2030 0.0000 -4.2096 0.0000
# 4 0.0000 0.0000 0.0000 34.4117 0.0000 3.3253
# 5 -0.2504 -6.0644 -4.2096 0.0000 35.2514 0.0000
# 6 0.0000 0.0000 0.0000 3.3253 0.0000 40.7774
#
#
#
# Elastic Compliance Matrix: (Units=1/GPa)
#
#
# Indices 1 2 3 4 5 6 
#
# 1 0.016910 -0.005900 -0.001858 0.000000 -0.001117 0.000000
# 2 -0.005900 0.012349 -0.006546 0.000000 0.001301 0.000000
# 3 -0.001858 -0.006546 0.014518 0.000000 0.000594 0.000000
# 4 0.000000 0.000000 0.000000 0.029291 0.000000 -0.002389
# 5 -0.001117 0.001301 0.000594 0.000000 0.028655 0.000000
# 6 0.000000 0.000000 0.000000 -0.002389 0.000000 0.024718
#
#
# Mechanical properties :
#
#
# Convention : Reuss Voigt Hill
#
# Bulk Modulus (GPa) = 65.91787 76.99648 71.45718
# Shear Modulus (GPa) = 31.22975 33.33977 32.28476
#
# Velocity S-wave (km/s) = 3.85318 3.98123 3.91773
# Velocity P-wave (km/s) = 7.15082 7.59860 7.37811
#
# Compressibility (1/GPa) = 0.01517039
#
# Stress axis : x y z
#
# Youngs Moduli (GPa) = 59.13636 80.97970 68.87943
#
# Poissons Ratio (x) = 0.47777 0.12797
# Poissons Ratio (y) = 0.34890 0.45085
# Poissons Ratio (z) = 0.10987 0.53005
#
# Static dielectric constant tensor:
#      x y z
#    x 3.631840 0.000000 -0.089510 
#    y 0.000000 3.774850 0.000000 
#    z -0.089510 0.000000 4.173810 
# 
# 
# High freq. dielectric constant tensor:
#      x y z
#    x 1.812990 0.000000 -0.009680 
#    y 0.000000 1.838310 0.000000 
#    z -0.009680 0.000000 1.843510 
# 
# From -- ./inp_files/55484.got.cif
#   From: 2010.06.25/outbox.cif.g09.slc.cpg/sg11_28_cif.got.tgz:55484.got - 2010.06.27 23:14:04.
