data_PCOD8074759
_publ_section_title
;
Structure prediction by ZEFSAII (Michael W. Deem and Ramdas Pophale) SiO2 
 PCOD8074759
Probable space group: P 21/M
;
_chemical_formula_sum "Si O2"
_cell_formula_units_Z 28
_cell_length_a 12.305182
_cell_length_b 14.098147
_cell_length_c 8.705913
_cell_angle_alpha 90.000000
_cell_angle_beta 68.675095
_cell_angle_gamma 90.000000
_cell_volume 1406.898469
_symmetry_space_group_name_H-M "P 21/M"
_symmetry_group_IT_number 11
_symmetry_cell_setting 'monoclinic'
loop_
_space_group_symop_operation_xyz
x,y,z
-x,1/2+y,-z
-x,-y,-z
x,1/2-y,z
loop_
_atom_site_type_symbol
_atom_site_label
_atom_site_fract_x
_atom_site_fract_y
_atom_site_fract_z
Si Si1 0.167101 0.139986 0.506301
Si Si2 0.708914 0.508686 0.320853
Si Si3 0.310528 0.859420 0.416726
Si Si4 0.246620 0.141241 0.137421
Si Si5 0.561318 0.857794 0.197087
Si Si6 0.096443 0.639808 0.326217
Si Si7 0.881003 0.487043 0.973742
O O1 0.182435 0.250000 0.542259
O O2 0.206622 0.078840 0.629836
O O3 0.245138 0.112249 0.317664
O O4 0.031187 0.117643 0.538925
O O5 0.662733 0.422228 0.447264
O O6 0.602446 0.570431 0.308942
O O7 0.780342 0.461107 0.145978
O O8 0.292982 0.750000 0.476263
O O9 0.422219 0.869529 0.246148
O O10 0.195287 0.900436 0.391284
O O11 0.209392 0.250000 0.140989
O O12 0.374558 0.121062 0.998750
O O13 0.147806 0.085251 0.096388
O O14 0.590661 0.750000 0.234502
O O15 0.119515 0.750000 0.293771
O O16 0.111213 0.597314 0.150677
O O17 0.000000 0.500000 0.000000
#
# Coordination Sequence:
#
# PCOD8074759 Si02
#       7
#     4   4   4   4   4   4   4
#     4  10  20  36  59  86 111 142 187 233 281 333
#     4  11  21  35  59  86 116 144 189 233 284 327
#     4  10  22  39  59  81 113 155 190 227 278 336
#     4   9  20  36  57  82 108 144 189 233 276 326
#     4   9  19  39  60  83 113 147 191 235 278 325
#     4  10  22  39  57  81 114 152 187 226 280 340
#     4  11  22  35  53  82 114 148 181 225 286 336
#
# _framework density 19.901934000000001
#
# number of rings (size 3 to 8) (size 9 to 14) (size 15 to 20)
#    0.000    2.000    1.429    1.714    2.000    2.857 
#    0.000    7.857    0.000    3.429    0.000    0.000 
#    0.000    0.000    0.000    0.000    0.000    0.000 
#
# Total GULP energy -347214.853337 kJ/mol
# GULP energy per Si atom -12400.530476 kJ/mol
# Density = 1.985664 g / cm^3
# Si number density = 19.901934 Si / 1000 Ang^3
#
#
#
# Elastic Constant Matrix: (Units=GPa)
#
#
# Indices 1 2 3 4 5 6 
#
# 1 77.8223 19.4512 28.3370 0.0000 -9.1925 0.0000
# 2 19.4512 50.0647 38.6463 0.0000 -2.5718 0.0000
# 3 28.3370 38.6463 115.4126 0.0000 -1.0008 0.0000
# 4 0.0000 0.0000 0.0000 34.2715 0.0000 6.4645
# 5 -9.1925 -2.5718 -1.0008 0.0000 26.2209 0.0000
# 6 0.0000 0.0000 0.0000 6.4645 0.0000 25.2683
#
#
#
# Elastic Compliance Matrix: (Units=1/GPa)
#
#
# Indices 1 2 3 4 5 6 
#
# 1 0.015263 -0.003801 -0.002432 0.000000 0.004885 0.000000
# 2 -0.003801 0.028023 -0.008441 0.000000 0.001094 0.000000
# 3 -0.002432 -0.008441 0.012078 0.000000 -0.001220 0.000000
# 4 0.000000 0.000000 0.000000 0.030658 0.000000 -0.007843
# 5 0.004885 0.001094 -0.001220 0.000000 0.039911 0.000000
# 6 0.000000 0.000000 0.000000 -0.007843 0.000000 0.041582
#
#
# Mechanical properties :
#
#
# Convention : Reuss Voigt Hill
#
# Bulk Modulus (GPa) = 38.44020 46.24094 42.34057
# Shear Modulus (GPa) = 24.32689 27.60982 25.96836
#
# Velocity S-wave (km/s) = 3.49999 3.72868 3.61614
# Velocity P-wave (km/s) = 5.97411 6.46701 6.22544
#
# Compressibility (1/GPa) = 0.02601443
#
# Stress axis : x y z
#
# Youngs Moduli (GPa) = 65.51980 35.68513 82.79845
#
# Poissons Ratio (x) = 0.13566 0.20137
# Poissons Ratio (y) = 0.24907 0.69888
# Poissons Ratio (z) = 0.15935 0.30121
#
# Static dielectric constant tensor:
#      x y z
#    x 3.552710 0.000000 -0.115990 
#    y 0.000000 3.702810 0.000000 
#    z -0.115990 0.000000 3.787940 
# 
# 
# High freq. dielectric constant tensor:
#      x y z
#    x 1.764060 0.000000 -0.010050 
#    y 0.000000 1.783790 0.000000 
#    z -0.010050 0.000000 1.780810 
# 
# From -- ./inp_files/17679.got.cif
#   From: 2010.06.25/outbox.cif.g09.slc.cpg/sg11_9_cif.got.tgz:17679.got - 2010.06.27 23:14:04.
