data_PCOD8074413
_publ_section_title
;
Structure prediction by ZEFSAII (Michael W. Deem and Ramdas Pophale) SiO2 
 PCOD8074413
Probable space group: P 21/M
;
_chemical_formula_sum "Si O2"
_cell_formula_units_Z 32
_cell_length_a 31.013808
_cell_length_b 8.883569
_cell_length_c 11.858156
_cell_angle_alpha 90.000000
_cell_angle_beta 30.367113
_cell_angle_gamma 90.000000
_cell_volume 1651.634945
_symmetry_space_group_name_H-M "P 21/M"
_symmetry_group_IT_number 11
_symmetry_cell_setting 'monoclinic'
loop_
_space_group_symop_operation_xyz
x,y,z
-x,1/2+y,-z
-x,-y,-z
x,1/2-y,z
loop_
_atom_site_type_symbol
_atom_site_label
_atom_site_fract_x
_atom_site_fract_y
_atom_site_fract_z
Si Si1 0.725315 0.427597 0.709236
Si Si2 0.791060 0.576884 0.342135
Si Si3 0.239778 0.422006 0.839184
Si Si4 0.420428 0.075340 0.823771
Si Si5 0.404299 0.425543 0.600887
Si Si6 0.908798 0.422854 0.701645
Si Si7 0.970224 0.072565 0.952056
Si Si8 0.115782 0.923039 0.496700
O O1 0.724147 0.250000 0.694405
O O2 0.733529 0.506599 0.569915
O O3 0.803177 0.477788 0.614129
O O4 0.637416 0.479431 0.962099
O O5 0.811742 0.750000 0.324791
O O6 0.740561 0.562898 0.338188
O O7 0.877433 0.485487 0.131296
O O8 0.223485 0.250000 0.910821
O O9 0.321158 0.485163 0.723029
O O10 0.154407 0.511286 0.062532
O O11 0.413118 0.250000 0.871616
O O12 0.389938 0.043700 0.765336
O O13 0.517102 0.022008 0.622825
O O14 0.422384 0.250000 0.536637
O O15 0.923754 0.250000 0.697166
O O16 0.864613 0.444522 0.679357
O O17 0.000000 0.500000 0.500000
O O18 0.967780 0.250000 0.971416
O O19 0.034768 0.025949 0.707843
O O20 0.000000 0.000000 0.000000
O O21 0.093489 0.750000 0.575436
#
# Coordination Sequence:
#
# PCOD8074413 Si02
#       8
#     4   4   4   4   4   4   4   4
#     4  11  22  37  58  83 113 149 189 235 289 342
#     4  11  23  39  58  82 114 151 194 241 286 336
#     4  10  22  40  61  84 115 154 193 236 285 342
#     4  10  20  35  60  91 120 146 182 235 287 340
#     4   9  19  38  62  88 117 151 187 227 283 345
#     4  11  23  38  57  83 116 152 191 237 284 338
#     4  12  23  36  56  81 111 150 193 237 285 337
#     4  10  22  38  56  81 113 148 190 239 288 337
#
# _framework density 19.374742000000001
#
# number of rings (size 3 to 8) (size 9 to 14) (size 15 to 20)
#    0.000    1.500    1.250    4.125    0.000    6.500 
#    0.000    0.625    0.000    0.000    0.000    0.000 
#    0.000    0.000    0.000    0.000    0.000    0.000 
#
# Total GULP energy -396978.549164 kJ/mol
# GULP energy per Si atom -12405.579661 kJ/mol
# Density = 1.933064 g / cm^3
# Si number density = 19.374742 Si / 1000 Ang^3
#
#
#
# Elastic Constant Matrix: (Units=GPa)
#
#
# Indices 1 2 3 4 5 6 
#
# 1 98.8279 40.1850 49.1520 0.0000 -3.5063 0.0000
# 2 40.1850 106.7935 49.6712 0.0000 2.8725 0.0000
# 3 49.1520 49.6712 115.8247 0.0000 3.5301 0.0000
# 4 0.0000 0.0000 0.0000 35.4565 0.0000 1.4731
# 5 -3.5063 2.8725 3.5301 0.0000 30.5256 0.0000
# 6 0.0000 0.0000 0.0000 1.4731 0.0000 26.7226
#
#
#
# Elastic Compliance Matrix: (Units=1/GPa)
#
#
# Indices 1 2 3 4 5 6 
#
# 1 0.013741 -0.003109 -0.004571 0.000000 0.002400 0.000000
# 2 -0.003109 0.012409 -0.003970 0.000000 -0.001066 0.000000
# 3 -0.004571 -0.003970 0.012324 0.000000 -0.001577 0.000000
# 4 0.000000 0.000000 0.000000 0.028268 0.000000 -0.001558
# 5 0.002400 -0.001066 -0.001577 0.000000 0.033318 0.000000
# 6 0.000000 0.000000 0.000000 -0.001558 0.000000 0.037507
#
#
# Mechanical properties :
#
#
# Convention : Reuss Voigt Hill
#
# Bulk Modulus (GPa) = 65.90050 66.60695 66.25372
# Shear Modulus (GPa) = 30.13402 30.70349 30.41875
#
# Velocity S-wave (km/s) = 3.94804 3.98517 3.96665
# Velocity P-wave (km/s) = 7.40744 7.45844 7.43298
#
# Compressibility (1/GPa) = 0.01517439
#
# Stress axis : x y z
#
# Youngs Moduli (GPa) = 72.77264 80.58813 81.14255
#
# Poissons Ratio (x) = 0.25056 0.37092
# Poissons Ratio (y) = 0.22626 0.32210
# Poissons Ratio (z) = 0.33266 0.31990
#
# Static dielectric constant tensor:
#      x y z
#    x 3.711640 0.000000 -0.083890 
#    y 0.000000 3.533020 0.000000 
#    z -0.083890 0.000000 3.538130 
# 
# 
# High freq. dielectric constant tensor:
#      x y z
#    x 1.755100 0.000000 0.005810 
#    y 0.000000 1.761610 0.000000 
#    z 0.005810 0.000000 1.751100 
# 
# From -- ./inp_files/45187.got.cif
#   From: 2010.06.25/outbox.cif.g09.slc.cpg/sg11_23_cif.got.tgz:45187.got - 2010.06.27 23:14:04.
