data_PCOD8074967
_publ_section_title
;
Structure prediction by ZEFSAII (Michael W. Deem and Ramdas Pophale) SiO2 
 PCOD8074967
Probable space group: P 21/M
;
_chemical_formula_sum "Si O2"
_cell_formula_units_Z 24
_cell_length_a 9.174800
_cell_length_b 15.595944
_cell_length_c 12.991568
_cell_angle_alpha 90.000000
_cell_angle_beta 138.172061
_cell_angle_gamma 90.000000
_cell_volume 1239.732239
_symmetry_space_group_name_H-M "P 21/M"
_symmetry_group_IT_number 11
_symmetry_cell_setting 'monoclinic'
loop_
_space_group_symop_operation_xyz
x,y,z
-x,1/2+y,-z
-x,-y,-z
x,1/2-y,z
loop_
_atom_site_type_symbol
_atom_site_label
_atom_site_fract_x
_atom_site_fract_y
_atom_site_fract_z
Si Si1 0.719386 0.154953 0.072760
Si Si2 0.785485 0.495262 0.954103
Si Si3 0.047703 0.608070 0.603356
Si Si4 0.664022 0.498045 0.378087
Si Si5 0.142204 0.657285 0.437357
Si Si6 0.744659 0.651243 0.080580
O O1 0.739090 0.250000 0.032677
O O2 0.856557 0.158864 0.250172
O O3 0.816445 0.081863 0.050746
O O4 0.466988 0.133193 0.961404
O O5 0.582727 0.473504 0.772408
O O6 0.742202 0.587498 0.982650
O O7 0.000000 0.500000 0.000000
O O8 0.210500 0.527420 0.662929
O O9 0.035097 0.667302 0.494932
O O10 0.802805 0.575336 0.501815
O O11 0.670813 0.416220 0.460754
O O12 0.243186 0.750000 0.460139
O O13 0.957146 0.630354 0.259250
O O14 0.743026 0.750000 0.040052
#
# Coordination Sequence:
#
# PCOD8074967 Si02
#       6
#     4   4   4   4   4   4
#     4  11  22  37  61  89 115 148 200 247 288 336
#     4  12  25  39  57  81 123 163 190 233 290 355
#     4   9  17  32  58  84 111 135 185 245 288 320
#     4   9  19  33  54  80 112 149 182 231 285 339
#     4   9  16  29  53  86 112 134 177 238 295 331
#     4  10  20  36  63  91 114 148 196 247 285 340
#
# _framework density 19.359019
#
# number of rings (size 3 to 8) (size 9 to 14) (size 15 to 20)
#    1.000    1.000    1.667    3.000    0.000    1.333 
#    0.000    4.167    0.000    2.000    0.000    0.000 
#    0.000    0.000    0.000    0.000    0.000    0.000 
#
# Total GULP energy -297413.317377 kJ/mol
# GULP energy per Si atom -12392.221557 kJ/mol
# Density = 1.931496 g / cm^3
# Si number density = 19.359019 Si / 1000 Ang^3
#
#
#
# Elastic Constant Matrix: (Units=GPa)
#
#
# Indices 1 2 3 4 5 6 
#
# 1 59.2802 25.9884 9.2676 0.0000 13.9305 0.0000
# 2 25.9884 83.5475 9.2982 0.0000 0.0829 0.0000
# 3 9.2676 9.2982 91.1931 0.0000 9.4651 0.0000
# 4 0.0000 0.0000 0.0000 25.0773 0.0000 1.9967
# 5 13.9305 0.0829 9.4651 0.0000 21.0374 0.0000
# 6 0.0000 0.0000 0.0000 1.9967 0.0000 11.1477
#
#
#
# Elastic Compliance Matrix: (Units=1/GPa)
#
#
# Indices 1 2 3 4 5 6 
#
# 1 0.023806 -0.007386 -0.000035 0.000000 -0.015719 0.000000
# 2 -0.007386 0.014404 -0.001280 0.000000 0.005410 0.000000
# 3 -0.000035 -0.001280 0.011640 0.000000 -0.005209 0.000000
# 4 0.000000 0.000000 0.000000 0.040454 0.000000 -0.007246
# 5 -0.015719 0.005410 -0.005209 0.000000 0.060266 0.000000
# 6 0.000000 0.000000 0.000000 -0.007246 0.000000 0.091002
#
#
# Mechanical properties :
#
#
# Convention : Reuss Voigt Hill
#
# Bulk Modulus (GPa) = 30.81629 35.90326 33.35978
# Shear Modulus (GPa) = 18.53303 24.08359 21.30831
#
# Velocity S-wave (km/s) = 3.09744 3.53094 3.32127
# Velocity P-wave (km/s) = 5.36144 5.93377 5.65485
#
# Compressibility (1/GPa) = 0.03245037
#
# Stress axis : x y z
#
# Youngs Moduli (GPa) = 42.00567 69.42665 85.90764
#
# Poissons Ratio (x) = 0.51277 0.00299
# Poissons Ratio (y) = 0.31024 0.10992
# Poissons Ratio (z) = 0.00146 0.08883
#
# Static dielectric constant tensor:
#      x y z
#    x 2.922020 0.000000 -0.014380 
#    y 0.000000 3.625190 0.000000 
#    z -0.014380 0.000000 3.523540 
# 
# 
# High freq. dielectric constant tensor:
#      x y z
#    x 1.684400 0.000000 -0.005230 
#    y 0.000000 1.762130 0.000000 
#    z -0.005230 0.000000 1.765920 
# 
# From -- ./inp_files/47698.got.cif
#   From: 2010.06.25/outbox.cif.g09.slc.cpg/sg11_24_cif.got.tgz:47698.got - 2010.06.27 23:14:04.
