data_PCOD8074631
_publ_section_title
;
Structure prediction by ZEFSAII (Michael W. Deem and Ramdas Pophale) SiO2 
 PCOD8074631
Probable space group: P 21/M
;
_chemical_formula_sum "Si O2"
_cell_formula_units_Z 32
_cell_length_a 23.726993
_cell_length_b 8.961206
_cell_length_c 14.867760
_cell_angle_alpha 90.000000
_cell_angle_beta 150.351723
_cell_angle_gamma 90.000000
_cell_volume 1563.774301
_symmetry_space_group_name_H-M "P 21/M"
_symmetry_group_IT_number 11
_symmetry_cell_setting 'monoclinic'
loop_
_space_group_symop_operation_xyz
x,y,z
-x,1/2+y,-z
-x,-y,-z
x,1/2-y,z
loop_
_atom_site_type_symbol
_atom_site_label
_atom_site_fract_x
_atom_site_fract_y
_atom_site_fract_z
Si Si1 0.998310 0.928242 0.721491
Si Si2 0.637437 0.925650 0.008370
Si Si3 0.721224 0.912107 0.616000
Si Si4 0.222956 0.424627 0.978003
Si Si5 0.613250 0.916682 0.643340
Si Si6 0.238623 0.572270 0.656658
Si Si7 0.620627 0.075588 0.319541
Si Si8 0.044679 0.421485 0.973915
O O1 0.995808 0.750000 0.717783
O O2 0.881968 0.990872 0.519098
O O3 0.103799 0.985519 0.806593
O O4 0.006156 0.987520 0.833939
O O5 0.644011 0.750000 0.040766
O O6 0.506294 0.985324 0.834210
O O7 0.691880 0.958685 0.986570
O O8 0.709748 0.022390 0.177668
O O9 0.727768 0.750000 0.577564
O O10 0.618371 0.924879 0.542506
O O11 0.710498 0.031465 0.522125
O O12 0.821147 0.931515 0.827126
O O13 0.190907 0.250000 0.938249
O O14 0.283502 0.483339 0.153474
O O15 0.599404 0.750000 0.660749
O O16 0.500000 0.000000 0.500000
O O17 0.220849 0.750000 0.628868
O O18 0.327595 0.517591 0.702763
O O19 0.614509 0.250000 0.309430
O O20 0.002180 0.250000 0.906508
O O21 0.000000 0.500000 0.000000
#
# Coordination Sequence:
#
# PCOD8074631 Si02
#       8
#     4   4   4   4   4   4   4   4
#     4  12  25  41  63  91 124 165 214 263 312 372
#     4  10  22  41  66  93 122 160 206 259 318 375
#     4  10  21  36  57  85 120 159 196 237 293 354
#     4  10  21  41  64  87 125 168 205 256 315 370
#     4  10  20  36  57  85 120 160 199 241 297 358
#     4  11  24  42  65  91 123 163 206 260 321 378
#     4  10  22  40  63  93 126 161 203 253 312 376
#     4  11  22  39  60  87 124 163 205 251 304 362
#
# _framework density 20.463311000000001
#
# number of rings (size 3 to 8) (size 9 to 14) (size 15 to 20)
#    0.000    1.500    1.250    3.750    0.000    7.500 
#    0.000    0.000    0.000    0.000    0.000    0.000 
#    0.000    0.000    0.000    0.000    0.000    0.000 
#
# Total GULP energy -396625.183473 kJ/mol
# GULP energy per Si atom -12394.536984 kJ/mol
# Density = 2.041674 g / cm^3
# Si number density = 20.463311 Si / 1000 Ang^3
#
#
#
# Elastic Constant Matrix: (Units=GPa)
#
#
# Indices 1 2 3 4 5 6 
#
# 1 101.7063 40.6193 34.5158 0.0000 4.7457 0.0000
# 2 40.6193 76.1361 34.9621 0.0000 6.2640 0.0000
# 3 34.5158 34.9621 80.6869 0.0000 -2.1081 0.0000
# 4 0.0000 0.0000 0.0000 37.0525 0.0000 -2.5362
# 5 4.7457 6.2640 -2.1081 0.0000 37.6802 0.0000
# 6 0.0000 0.0000 0.0000 -2.5362 0.0000 31.1464
#
#
#
# Elastic Compliance Matrix: (Units=1/GPa)
#
#
# Indices 1 2 3 4 5 6 
#
# 1 0.013166 -0.005430 -0.003304 0.000000 -0.000940 0.000000
# 2 -0.005430 0.019013 -0.005989 0.000000 -0.002812 0.000000
# 3 -0.003304 -0.005989 0.016463 0.000000 0.002333 0.000000
# 4 0.000000 0.000000 0.000000 0.027140 0.000000 0.002210
# 5 -0.000940 -0.002812 0.002333 0.000000 0.027256 0.000000
# 6 0.000000 0.000000 0.000000 0.002210 0.000000 0.032286
#
#
# Mechanical properties :
#
#
# Convention : Reuss Voigt Hill
#
# Bulk Modulus (GPa) = 52.09345 53.19153 52.64249
# Shear Modulus (GPa) = 29.21117 31.07129 30.14123
#
# Velocity S-wave (km/s) = 3.78231 3.90088 3.84205
# Velocity P-wave (km/s) = 6.67733 6.80729 6.74262
#
# Compressibility (1/GPa) = 0.01919627
#
# Stress axis : x y z
#
# Youngs Moduli (GPa) = 75.95442 52.59642 60.74227
#
# Poissons Ratio (x) = 0.28557 0.20069
# Poissons Ratio (y) = 0.41240 0.36380
# Poissons Ratio (z) = 0.25095 0.31501
#
# Static dielectric constant tensor:
#      x y z
#    x 3.781660 0.000000 0.143070 
#    y 0.000000 3.620400 0.000000 
#    z 0.143070 0.000000 3.406090 
# 
# 
# High freq. dielectric constant tensor:
#      x y z
#    x 1.813330 0.000000 0.006560 
#    y 0.000000 1.790910 0.000000 
#    z 0.006560 0.000000 1.805770 
# 
# From -- ./inp_files/55774.got.cif
#   From: 2010.06.25/outbox.cif.g09.slc.cpg/sg11_28_cif.got.tgz:55774.got - 2010.06.27 23:14:04.
