data_PCOD8074602
_publ_section_title
;
Structure prediction by ZEFSAII (Michael W. Deem and Ramdas Pophale) SiO2 
 PCOD8074602
Probable space group: P 21/M
;
_chemical_formula_sum "Si O2"
_cell_formula_units_Z 32
_cell_length_a 15.218170
_cell_length_b 9.192882
_cell_length_c 24.201782
_cell_angle_alpha 90.000000
_cell_angle_beta 29.212065
_cell_angle_gamma 90.000000
_cell_volume 1652.418169
_symmetry_space_group_name_H-M "P 21/M"
_symmetry_group_IT_number 11
_symmetry_cell_setting 'monoclinic'
loop_
_space_group_symop_operation_xyz
x,y,z
-x,1/2+y,-z
-x,-y,-z
x,1/2-y,z
loop_
_atom_site_type_symbol
_atom_site_label
_atom_site_fract_x
_atom_site_fract_y
_atom_site_fract_z
Si Si1 0.961464 0.920760 0.771497
Si Si2 0.621887 0.421901 0.762691
Si Si3 0.781429 0.920309 0.980880
Si Si4 0.401664 0.410300 0.685380
Si Si5 0.722031 0.077866 0.585602
Si Si6 0.086616 0.076457 0.326308
Si Si7 0.333283 0.921493 0.617684
Si Si8 0.982027 0.590460 0.064043
O O1 0.979057 0.750000 0.755523
O O2 0.921798 0.983605 0.732183
O O3 0.152853 0.981611 0.687633
O O4 0.806459 0.959995 0.901763
O O5 0.653284 0.250000 0.750820
O O6 0.415447 0.462928 0.889066
O O7 0.681761 0.481272 0.669423
O O8 0.738179 0.504408 0.744178
O O9 0.820222 0.750000 0.968661
O O10 0.932045 0.008378 0.931162
O O11 0.455686 0.250000 0.630166
O O12 0.566635 0.476922 0.629720
O O13 0.337004 0.532286 0.678763
O O14 0.230776 0.386077 0.817155
O O15 0.715537 0.250000 0.591476
O O16 0.913027 0.023113 0.456854
O O17 0.103814 0.250000 0.318960
O O18 0.350198 0.750000 0.602900
O O19 0.500000 0.000000 0.500000
O O20 0.073869 0.750000 0.008983
O O21 0.000000 0.500000 0.000000
#
# Coordination Sequence:
#
# PCOD8074602 Si02
#       8
#     4   4   4   4   4   4   4   4
#     4   9  19  36  57  79 109 151 190 229 286 345
#     4  10  21  37  58  82 109 146 187 237 296 342
#     4  10  20  38  59  79 111 151 193 235 284 348
#     4  10  20  36  57  83 112 147 190 230 277 338
#     4   9  18  35  57  80 111 148 184 226 286 352
#     4  10  20  36  58  80 106 145 190 235 283 345
#     4  11  21  35  56  82 114 151 189 231 278 338
#     4  11  22  35  56  85 118 153 190 235 283 337
#
# _framework density 19.365558
#
# number of rings (size 3 to 8) (size 9 to 14) (size 15 to 20)
#    0.000    2.000    1.250    2.625    0.000    5.500 
#    0.000    4.375    0.000    0.000    0.000    0.000 
#    0.000    0.000    0.000    0.000    0.000    0.000 
#
# Total GULP energy -396645.040116 kJ/mol
# GULP energy per Si atom -12395.157504 kJ/mol
# Density = 1.932148 g / cm^3
# Si number density = 19.365558 Si / 1000 Ang^3
#
#
#
# Elastic Constant Matrix: (Units=GPa)
#
#
# Indices 1 2 3 4 5 6 
#
# 1 122.5102 29.4485 37.3642 0.0000 4.9359 0.0000
# 2 29.4485 51.3959 27.0586 0.0000 -0.4934 0.0000
# 3 37.3642 27.0586 106.7233 0.0000 8.9871 0.0000
# 4 0.0000 0.0000 0.0000 20.5864 0.0000 -2.9644
# 5 4.9359 -0.4934 8.9871 0.0000 38.4551 0.0000
# 6 0.0000 0.0000 0.0000 -2.9644 0.0000 31.3856
#
#
#
# Elastic Compliance Matrix: (Units=1/GPa)
#
#
# Indices 1 2 3 4 5 6 
#
# 1 0.009978 -0.004525 -0.002278 0.000000 -0.000806 0.000000
# 2 -0.004525 0.024610 -0.004826 0.000000 0.002024 0.000000
# 3 -0.002278 -0.004826 0.011600 0.000000 -0.002480 0.000000
# 4 0.000000 0.000000 0.000000 0.049245 0.000000 0.004651
# 5 -0.000806 0.002024 -0.002480 0.000000 0.026714 0.000000
# 6 0.000000 0.000000 0.000000 0.004651 0.000000 0.032301
#
#
# Mechanical properties :
#
#
# Convention : Reuss Voigt Hill
#
# Bulk Modulus (GPa) = 43.61228 52.04131 47.82679
# Shear Modulus (GPa) = 26.97623 30.53596 28.75609
#
# Velocity S-wave (km/s) = 3.73634 3.97522 3.85763
# Velocity P-wave (km/s) = 6.41740 6.92830 6.67774
#
# Compressibility (1/GPa) = 0.02292932
#
# Stress axis : x y z
#
# Youngs Moduli (GPa) = 100.22446 40.63430 86.20752
#
# Poissons Ratio (x) = 0.18389 0.19637
# Poissons Ratio (y) = 0.45355 0.41601
# Poissons Ratio (z) = 0.22830 0.19609
#
# Static dielectric constant tensor:
#      x y z
#    x 3.256600 0.000000 0.338450 
#    y 0.000000 3.075230 0.000000 
#    z 0.338450 0.000000 3.606310 
# 
# 
# High freq. dielectric constant tensor:
#      x y z
#    x 1.758990 0.000000 0.005080 
#    y 0.000000 1.725910 0.000000 
#    z 0.005080 0.000000 1.766650 
# 
# From -- ./inp_files/55777.got.cif
#   From: 2010.06.25/outbox.cif.g09.slc.cpg/sg11_28_cif.got.tgz:55777.got - 2010.06.27 23:14:04.
