data_PCOD8074202
_publ_section_title
;
Structure prediction by ZEFSAII (Michael W. Deem and Ramdas Pophale) SiO2 
 PCOD8074202
Probable space group: P 21/M
;
_chemical_formula_sum "Si O2"
_cell_formula_units_Z 28
_cell_length_a 22.799645
_cell_length_b 9.266131
_cell_length_c 21.381241
_cell_angle_alpha 90.000000
_cell_angle_beta 19.373373
_cell_angle_gamma 90.000000
_cell_volume 1498.423897
_symmetry_space_group_name_H-M "P 21/M"
_symmetry_group_IT_number 11
_symmetry_cell_setting 'monoclinic'
loop_
_space_group_symop_operation_xyz
x,y,z
-x,1/2+y,-z
-x,-y,-z
x,1/2-y,z
loop_
_atom_site_type_symbol
_atom_site_label
_atom_site_fract_x
_atom_site_fract_y
_atom_site_fract_z
Si Si1 0.008647 0.579634 0.336109
Si Si2 0.996783 0.581756 0.207757
Si Si3 0.701263 0.583032 0.167694
Si Si4 0.355893 0.083199 0.511087
Si Si5 0.709535 0.919187 0.728925
Si Si6 0.692431 0.081748 0.871377
Si Si7 0.819391 0.915657 0.185841
O O1 0.991888 0.750000 0.348380
O O2 0.009468 0.517689 0.265159
O O3 0.189302 0.532794 0.188809
O O4 0.839661 0.520454 0.544471
O O5 0.050024 0.750000 0.150692
O O6 0.797457 0.558127 0.385118
O O7 0.127381 0.492385 0.033018
O O8 0.702190 0.750000 0.147362
O O9 0.523843 0.509481 0.320025
O O10 0.704646 0.562878 0.239027
O O11 0.413227 0.250000 0.456202
O O12 0.293145 0.027360 0.642185
O O13 0.737199 0.750000 0.712265
O O14 0.757846 0.996856 0.744839
O O15 0.510038 0.955548 0.908397
O O16 0.717932 0.250000 0.831273
O O17 0.870929 0.750000 0.145433
O O18 0.000000 0.000000 0.000000
#
# Coordination Sequence:
#
# PCOD8074202 Si02
#       7
#     4   4   4   4   4   4   4
#     4   9  18  32  52  76 100 132 174 215 256 304
#     4  10  21  38  58  79 106 143 187 229 265 313
#     4  11  23  37  56  82 112 144 177 221 278 328
#     4  10  21  37  58  82 107 141 185 225 266 321
#     4   9  17  30  49  74 103 132 166 208 255 306
#     4   9  17  30  50  76 103 130 165 209 258 306
#     4  10  20  35  57  84 110 139 176 223 275 322
#
# _framework density 18.686301
#
# number of rings (size 3 to 8) (size 9 to 14) (size 15 to 20)
#    0.000    2.286    1.429    1.286    0.000    2.857 
#    0.000    5.714    0.000    3.429    0.000    0.000 
#    0.000    0.000    0.000    0.000    0.000    0.000 
#
# Total GULP energy -347255.824704 kJ/mol
# GULP energy per Si atom -12401.993739 kJ/mol
# Density = 1.864377 g / cm^3
# Si number density = 18.686301 Si / 1000 Ang^3
#
#
#
# Elastic Constant Matrix: (Units=GPa)
#
#
# Indices 1 2 3 4 5 6 
#
# 1 115.2189 27.1663 30.3285 0.0000 0.3770 0.0000
# 2 27.1663 54.1285 27.7615 0.0000 -8.0201 0.0000
# 3 30.3285 27.7615 59.0329 0.0000 -13.0258 0.0000
# 4 0.0000 0.0000 0.0000 28.0364 0.0000 -1.7464
# 5 0.3770 -8.0201 -13.0258 0.0000 28.3055 0.0000
# 6 0.0000 0.0000 0.0000 -1.7464 0.0000 22.4692
#
#
#
# Elastic Compliance Matrix: (Units=1/GPa)
#
#
# Indices 1 2 3 4 5 6 
#
# 1 0.010722 -0.003518 -0.004570 0.000000 -0.003242 0.000000
# 2 -0.003518 0.025585 -0.009588 0.000000 0.002884 0.000000
# 3 -0.004570 -0.009588 0.025834 0.000000 0.009232 0.000000
# 4 0.000000 0.000000 0.000000 0.035841 0.000000 0.002786
# 5 -0.003242 0.002884 0.009232 0.000000 0.040438 0.000000
# 6 0.000000 0.000000 0.000000 0.002786 0.000000 0.044722
#
#
# Mechanical properties :
#
#
# Convention : Reuss Voigt Hill
#
# Bulk Modulus (GPa) = 37.32859 44.32144 40.82501
# Shear Modulus (GPa) = 21.98544 25.30381 23.64462
#
# Velocity S-wave (km/s) = 3.43381 3.68385 3.56103
# Velocity P-wave (km/s) = 5.97840 6.47028 6.22920
#
# Compressibility (1/GPa) = 0.02678912
#
# Stress axis : x y z
#
# Youngs Moduli (GPa) = 93.26582 39.08516 38.70925
#
# Poissons Ratio (x) = 0.13750 0.17688
# Poissons Ratio (y) = 0.32811 0.37115
# Poissons Ratio (z) = 0.42618 0.37476
#
# Static dielectric constant tensor:
#      x y z
#    x 3.610270 0.000000 0.050680 
#    y 0.000000 3.280120 0.000000 
#    z 0.050680 0.000000 3.471260 
# 
# 
# High freq. dielectric constant tensor:
#      x y z
#    x 1.727900 0.000000 -0.006480 
#    y 0.000000 1.703590 0.000000 
#    z -0.006480 0.000000 1.730870 
# 
# From -- ./inp_files/66676.got.cif
#   From: 2010.06.25/outbox.cif.g09.slc.cpg/sg11_34_cif.got.tgz:66676.got - 2010.06.27 23:14:04.
