data_PCOD8074706
_publ_section_title
;
Structure prediction by ZEFSAII (Michael W. Deem and Ramdas Pophale) SiO2 
 PCOD8074706
Probable space group: P 21/M
;
_chemical_formula_sum "Si O2"
_cell_formula_units_Z 28
_cell_length_a 15.596572
_cell_length_b 8.636887
_cell_length_c 21.182757
_cell_angle_alpha 90.000000
_cell_angle_beta 28.138362
_cell_angle_gamma 90.000000
_cell_volume 1345.689552
_symmetry_space_group_name_H-M "P 21/M"
_symmetry_group_IT_number 11
_symmetry_cell_setting 'monoclinic'
loop_
_space_group_symop_operation_xyz
x,y,z
-x,1/2+y,-z
-x,-y,-z
x,1/2-y,z
loop_
_atom_site_type_symbol
_atom_site_label
_atom_site_fract_x
_atom_site_fract_y
_atom_site_fract_z
Si Si1 0.081692 0.569392 0.639046
Si Si2 0.100365 0.930202 0.020817
Si Si3 0.582360 0.573303 0.884156
Si Si4 0.951651 0.067663 0.599329
Si Si5 0.282521 0.071239 0.790255
Si Si6 0.804443 0.425491 0.903891
Si Si7 0.577521 0.930876 0.514440
O O1 0.117592 0.750000 0.610401
O O2 0.226592 0.497231 0.593418
O O3 0.088544 0.499102 0.563910
O O4 0.881089 0.533743 0.797867
O O5 0.146099 0.750000 0.982254
O O6 0.110841 0.984121 0.085867
O O7 0.897145 0.969946 0.132109
O O8 0.247241 0.027890 0.885829
O O9 0.648815 0.750000 0.851992
O O10 0.744529 0.473471 0.750342
O O11 0.500000 0.500000 0.000000
O O12 0.412778 0.566666 0.946161
O O13 0.976604 0.250000 0.580919
O O14 0.000000 0.000000 0.500000
O O15 0.338172 0.250000 0.748083
O O16 0.443322 0.966731 0.659163
O O17 0.865335 0.250000 0.848500
O O18 0.599285 0.750000 0.489665
O O19 0.500000 0.000000 0.500000
#
# Coordination Sequence:
#
# PCOD8074706 Si02
#       7
#     4   4   4   4   4   4   4
#     4  12  25  42  66  95 128 167 216 269 328 393
#     4   9  19  36  58  85 119 161 205 253 310 370
#     4  11  22  39  65  95 128 167 213 264 323 386
#     4  12  26  46  69  96 134 178 225 277 338 400
#     4  10  20  36  58  85 121 161 206 256 311 371
#     4  10  21  38  63  92 124 163 210 260 316 379
#     4  12  25  42  64  91 127 168 213 261 319 384
#
# _framework density 20.807175999999998
#
# number of rings (size 3 to 8) (size 9 to 14) (size 15 to 20)
#    0.000    1.143    1.429    5.571    0.000    4.000 
#    0.000    4.286    0.000    0.000    0.000    0.000 
#    0.000    0.000    0.000    0.000    0.000    0.000 
#
# Total GULP energy -347294.591707 kJ/mol
# GULP energy per Si atom -12403.378275 kJ/mol
# Density = 2.075982 g / cm^3
# Si number density = 20.807176 Si / 1000 Ang^3
#
#
#
# Elastic Constant Matrix: (Units=GPa)
#
#
# Indices 1 2 3 4 5 6 
#
# 1 115.8599 49.7770 35.5505 0.0000 9.9469 0.0000
# 2 49.7770 145.0137 39.6700 0.0000 2.4644 0.0000
# 3 35.5505 39.6700 96.8189 0.0000 6.5794 0.0000
# 4 0.0000 0.0000 0.0000 40.0926 0.0000 2.5933
# 5 9.9469 2.4644 6.5794 0.0000 31.0479 0.0000
# 6 0.0000 0.0000 0.0000 2.5933 0.0000 34.4042
#
#
#
# Elastic Compliance Matrix: (Units=1/GPa)
#
#
# Indices 1 2 3 4 5 6 
#
# 1 0.010954 -0.003000 -0.002608 0.000000 -0.002718 0.000000
# 2 -0.003000 0.008588 -0.002472 0.000000 0.000803 0.000000
# 3 -0.002608 -0.002472 0.012408 0.000000 -0.001598 0.000000
# 4 0.000000 0.000000 0.000000 0.025064 0.000000 -0.001889
# 5 -0.002718 0.000803 -0.001598 0.000000 0.033354 0.000000
# 6 0.000000 0.000000 0.000000 -0.001889 0.000000 0.029209
#
#
# Mechanical properties :
#
#
# Convention : Reuss Voigt Hill
#
# Bulk Modulus (GPa) = 63.33399 67.52086 65.42743
# Shear Modulus (GPa) = 35.46098 36.62196 36.04147
#
# Velocity S-wave (km/s) = 4.13275 4.19986 4.16644
# Velocity P-wave (km/s) = 7.29914 7.48596 7.39314
#
# Compressibility (1/GPa) = 0.01578931
#
# Stress axis : x y z
#
# Youngs Moduli (GPa) = 91.29280 116.43710 80.59612
#
# Poissons Ratio (x) = 0.34935 0.21019
# Poissons Ratio (y) = 0.27391 0.19922
# Poissons Ratio (z) = 0.23809 0.28782
#
# Static dielectric constant tensor:
#      x y z
#    x 4.075140 0.000000 -0.059790 
#    y 0.000000 3.781660 0.000000 
#    z -0.059790 0.000000 3.778710 
# 
# 
# High freq. dielectric constant tensor:
#      x y z
#    x 1.824610 0.000000 -0.001950 
#    y 0.000000 1.819840 0.000000 
#    z -0.001950 0.000000 1.814250 
# 
# From -- ./inp_files/65366.got.cif
#   From: 2010.06.25/outbox.cif.g09.slc.cpg/sg11_33_cif.got.tgz:65366.got - 2010.06.27 23:14:04.
