data_PCOD8074874
_publ_section_title
;
Structure prediction by ZEFSAII (Michael W. Deem and Ramdas Pophale) SiO2 
 PCOD8074874
Probable space group: P 21/M
;
_chemical_formula_sum "Si O2"
_cell_formula_units_Z 24
_cell_length_a 12.474383
_cell_length_b 8.716208
_cell_length_c 11.675120
_cell_angle_alpha 90.000000
_cell_angle_beta 90.305353
_cell_angle_gamma 90.000000
_cell_volume 1269.409795
_symmetry_space_group_name_H-M "P 21/M"
_symmetry_group_IT_number 11
_symmetry_cell_setting 'monoclinic'
loop_
_space_group_symop_operation_xyz
x,y,z
-x,1/2+y,-z
-x,-y,-z
x,1/2-y,z
loop_
_atom_site_type_symbol
_atom_site_label
_atom_site_fract_x
_atom_site_fract_y
_atom_site_fract_z
Si Si1 0.869536 0.428200 0.896625
Si Si2 0.113274 0.072593 0.863645
Si Si3 0.317452 0.571855 0.273479
Si Si4 0.382337 0.430035 0.502412
Si Si5 0.476571 0.070358 0.877665
Si Si6 0.293053 0.930101 0.729079
O O1 0.854838 0.250000 0.929034
O O2 0.784801 0.480106 0.800795
O O3 0.987405 0.461526 0.848011
O O4 0.847394 0.526130 0.009748
O O5 0.140564 0.250000 0.844640
O O6 0.173172 0.973045 0.767772
O O7 0.310364 0.750000 0.306582
O O8 0.316707 0.472589 0.388489
O O9 0.424662 0.535580 0.204655
O O10 0.500000 0.500000 0.500000
O O11 0.395403 0.250000 0.514167
O O12 0.315804 0.490283 0.609122
O O13 0.454409 0.250000 0.889416
O O14 0.372489 0.988689 0.827481
O O15 0.500000 0.000000 0.000000
O O16 0.305432 0.750000 0.713705
#
# Coordination Sequence:
#
# PCOD8074874 Si02
#       6
#     4   4   4   4   4   4
#     4   9  19  37  61  89 121 156 193 238 293 351
#     4  10  20  36  60  89 121 155 196 242 291 348
#     4  10  21  38  59  84 116 153 193 237 289 347
#     4  12  24  40  61  85 114 152 196 240 294 352
#     4  11  22  35  56  86 121 152 187 236 292 352
#     4  12  24  39  59  83 116 155 199 243 290 345
#
# _framework density 18.906424000000001
#
# number of rings (size 3 to 8) (size 9 to 14) (size 15 to 20)
#    0.000    1.333    1.667    5.000    0.000    3.333 
#    0.000    0.833    0.000    0.000    0.000    0.000 
#    0.000    0.000    0.000    0.000    0.000    0.000 
#
# Total GULP energy -297754.956632 kJ/mol
# GULP energy per Si atom -12406.456526 kJ/mol
# Density = 1.886339 g / cm^3
# Si number density = 18.906424 Si / 1000 Ang^3
#
#
#
# Elastic Constant Matrix: (Units=GPa)
#
#
# Indices 1 2 3 4 5 6 
#
# 1 80.5317 30.4546 23.0033 0.0000 -7.0303 0.0000
# 2 30.4546 111.6440 41.2217 0.0000 -8.7296 0.0000
# 3 23.0033 41.2217 82.2575 0.0000 -11.0266 0.0000
# 4 0.0000 0.0000 0.0000 37.9184 0.0000 -0.7333
# 5 -7.0303 -8.7296 -11.0266 0.0000 30.1704 0.0000
# 6 0.0000 0.0000 0.0000 -0.7333 0.0000 28.1329
#
#
#
# Elastic Compliance Matrix: (Units=1/GPa)
#
#
# Indices 1 2 3 4 5 6 
#
# 1 0.014330 -0.002923 -0.002322 0.000000 0.001645 0.000000
# 2 -0.002923 0.011630 -0.004891 0.000000 0.000897 0.000000
# 3 -0.002322 -0.004891 0.015767 0.000000 0.003806 0.000000
# 4 0.000000 0.000000 0.000000 0.026386 0.000000 0.000688
# 5 0.001645 0.000897 0.003806 0.000000 0.035179 0.000000
# 6 0.000000 0.000000 0.000000 0.000688 0.000000 0.035563
#
#
# Mechanical properties :
#
#
# Convention : Reuss Voigt Hill
#
# Bulk Modulus (GPa) = 46.60692 51.53246 49.06969
# Shear Modulus (GPa) = 30.07000 31.22794 30.64897
#
# Velocity S-wave (km/s) = 3.99239 4.06853 4.03064
# Velocity P-wave (km/s) = 6.77917 7.02754 6.90447
#
# Compressibility (1/GPa) = 0.02145604
#
# Stress axis : x y z
#
# Youngs Moduli (GPa) = 69.78515 85.98283 63.42191
#
# Poissons Ratio (x) = 0.25132 0.14727
# Poissons Ratio (y) = 0.20398 0.31018
# Poissons Ratio (z) = 0.16204 0.42051
#
# Static dielectric constant tensor:
#      x y z
#    x 3.574690 0.000000 -0.040090 
#    y 0.000000 3.499460 0.000000 
#    z -0.040090 0.000000 3.547780 
# 
# 
# High freq. dielectric constant tensor:
#      x y z
#    x 1.737530 0.000000 -0.003690 
#    y 0.000000 1.744140 0.000000 
#    z -0.003690 0.000000 1.736620 
# 
# From -- ./inp_files/33809.got.cif
#   From: 2010.06.25/outbox.cif.g09.slc.cpg/sg11_17_cif.got.tgz:33809.got - 2010.06.27 23:14:04.
