data_PCOD8074590
_publ_section_title
;
Structure prediction by ZEFSAII (Michael W. Deem and Ramdas Pophale) SiO2 
 PCOD8074590
Probable space group: P 21/M
;
_chemical_formula_sum "Si O2"
_cell_formula_units_Z 32
_cell_length_a 15.013525
_cell_length_b 8.477107
_cell_length_c 26.078767
_cell_angle_alpha 90.000000
_cell_angle_beta 150.391659
_cell_angle_gamma 90.000000
_cell_volume 1639.851435
_symmetry_space_group_name_H-M "P 21/M"
_symmetry_group_IT_number 11
_symmetry_cell_setting 'monoclinic'
loop_
_space_group_symop_operation_xyz
x,y,z
-x,1/2+y,-z
-x,-y,-z
x,1/2-y,z
loop_
_atom_site_type_symbol
_atom_site_label
_atom_site_fract_x
_atom_site_fract_y
_atom_site_fract_z
Si Si1 0.163674 0.063003 0.940652
Si Si2 0.235629 0.935583 0.237024
Si Si3 0.777574 0.565794 0.502614
Si Si4 0.481755 0.565533 0.547042
Si Si5 0.172099 0.563665 0.730993
Si Si6 0.504667 0.935401 0.713512
Si Si7 0.701177 0.564023 0.100318
Si Si8 0.501231 0.562271 0.827657
O O1 0.174535 0.250000 0.946239
O O2 0.196698 0.000351 0.899404
O O3 0.971119 0.006864 0.865970
O O4 0.317741 0.995122 0.055412
O O5 0.252807 0.750000 0.256814
O O6 0.333872 0.032356 0.330746
O O7 0.326986 0.975681 0.228388
O O8 0.757112 0.750000 0.480766
O O9 0.682832 0.525586 0.508816
O O10 0.683092 0.470897 0.409242
O O11 0.985252 0.513919 0.610670
O O12 0.500000 0.500000 0.500000
O O13 0.439276 0.750000 0.525433
O O14 0.184941 0.750000 0.744247
O O15 0.185184 0.489399 0.793764
O O16 0.330858 0.497497 0.774326
O O17 0.542985 0.750000 0.730776
O O18 0.489930 0.999956 0.763920
O O19 0.689430 0.750000 0.093134
O O20 0.500000 0.500000 0.000000
O O21 0.498136 0.750000 0.826541
#
# Coordination Sequence:
#
# PCOD8074590 Si02
#       8
#     4   4   4   4   4   4   4   4
#     4   9  19  35  57  82 111 149 186 222 276 338
#     4  10  20  36  57  82 111 146 185 232 282 329
#     4  10  21  37  57  83 113 146 184 233 286 330
#     4  11  22  37  56  79 110 148 187 230 279 334
#     4  10  21  38  59  83 113 150 189 231 279 336
#     4  10  20  36  59  82 109 150 189 232 281 331
#     4  11  21  36  58  83 114 151 187 229 279 333
#     4   9  18  36  59  81 110 149 190 226 277 339
#
# _framework density 19.513963
#
# number of rings (size 3 to 8) (size 9 to 14) (size 15 to 20)
#    0.000    2.000    1.250    4.125    1.750    2.000 
#    0.000    3.125    0.000    0.000    0.000    0.000 
#    0.000    0.000    0.000    0.000    0.000    0.000 
#
# Total GULP energy -396844.303162 kJ/mol
# GULP energy per Si atom -12401.384474 kJ/mol
# Density = 1.946955 g / cm^3
# Si number density = 19.513963 Si / 1000 Ang^3
#
#
#
# Elastic Constant Matrix: (Units=GPa)
#
#
# Indices 1 2 3 4 5 6 
#
# 1 143.3092 10.8832 89.7379 0.0000 -14.4728 0.0000
# 2 10.8832 33.0893 18.6088 0.0000 0.6611 0.0000
# 3 89.7379 18.6088 136.8324 0.0000 16.3190 0.0000
# 4 0.0000 0.0000 0.0000 25.1841 0.0000 -3.3118
# 5 -14.4728 0.6611 16.3190 0.0000 38.2968 0.0000
# 6 0.0000 0.0000 0.0000 -3.3118 0.0000 24.2845
#
#
#
# Elastic Compliance Matrix: (Units=1/GPa)
#
#
# Indices 1 2 3 4 5 6 
#
# 1 0.014963 0.001178 -0.011215 0.000000 0.010413 0.000000
# 2 0.001178 0.032888 -0.005511 0.000000 0.002225 0.000000
# 3 -0.011215 -0.005511 0.016758 0.000000 -0.011284 0.000000
# 4 0.000000 0.000000 0.000000 0.040433 0.000000 0.005514
# 5 0.010413 0.002225 -0.011284 0.000000 0.034817 0.000000
# 6 0.000000 0.000000 0.000000 0.005514 0.000000 0.041931
#
#
# Mechanical properties :
#
#
# Convention : Reuss Voigt Hill
#
# Bulk Modulus (GPa) = 29.83822 61.29898 45.56860
# Shear Modulus (GPa) = 22.31575 30.48648 26.40112
#
# Velocity S-wave (km/s) = 3.38535 3.95687 3.68222
# Velocity P-wave (km/s) = 5.53215 7.23580 6.44056
#
# Compressibility (1/GPa) = 0.03351406
#
# Stress axis : x y z
#
# Youngs Moduli (GPa) = 66.83254 30.40583 59.67124
#
# Poissons Ratio (x) = -0.03581 0.66921
# Poissons Ratio (y) = -0.07871 0.32882
# Poissons Ratio (z) = 0.74953 0.16755
#
# Static dielectric constant tensor:
#      x y z
#    x 3.768430 0.000000 0.009710 
#    y 0.000000 3.444070 0.000000 
#    z 0.009710 0.000000 3.734450 
# 
# 
# High freq. dielectric constant tensor:
#      x y z
#    x 1.766800 0.000000 0.001010 
#    y 0.000000 1.743300 0.000000 
#    z 0.001010 0.000000 1.766170 
# 
# From -- ./inp_files/71627.got.cif
#   From: 2010.06.25/outbox.cif.g09.slc.cpg/sg11_36_cif.got.tgz:71627.got - 2010.06.27 23:14:04.
