data_PCOD8074385
_publ_section_title
;
Structure prediction by ZEFSAII (Michael W. Deem and Ramdas Pophale) SiO2 
 PCOD8074385
Probable space group: P 21/M
;
_chemical_formula_sum "Si O2"
_cell_formula_units_Z 20
_cell_length_a 21.779549
_cell_length_b 9.095606
_cell_length_c 13.565712
_cell_angle_alpha 90.000000
_cell_angle_beta 158.716080
_cell_angle_gamma 90.000000
_cell_volume 975.477961
_symmetry_space_group_name_H-M "P 21/M"
_symmetry_group_IT_number 11
_symmetry_cell_setting 'monoclinic'
loop_
_space_group_symop_operation_xyz
x,y,z
-x,1/2+y,-z
-x,-y,-z
x,1/2-y,z
loop_
_atom_site_type_symbol
_atom_site_label
_atom_site_fract_x
_atom_site_fract_y
_atom_site_fract_z
Si Si1 0.669211 0.576366 0.213024
Si Si2 0.180245 0.076769 0.770646
Si Si3 0.079308 0.921854 0.270126
Si Si4 0.206360 0.585257 0.247018
Si Si5 0.556436 0.584657 0.680217
O O1 0.651493 0.750000 0.204001
O O2 0.703449 0.538664 0.149834
O O3 0.832574 0.513946 0.512892
O O4 0.500000 0.500000 0.000000
O O5 0.149093 0.250000 0.728818
O O6 0.279383 0.021117 0.017225
O O7 0.000000 0.000000 0.500000
O O8 0.083226 0.750000 0.302517
O O9 0.174410 0.961320 0.311347
O O10 0.885679 0.976197 0.968046
O O11 0.137027 0.750000 0.124323
O O12 0.405981 0.577027 0.533760
O O13 0.500000 0.500000 0.500000
O O14 0.593556 0.750000 0.702181
#
# Coordination Sequence:
#
# PCOD8074385 Si02
#       5
#     4   4   4   4   4
#     4  11  23  40  63  90 123 162 207 256 311 371
#     4  10  24  44  64  90 127 166 207 257 312 373
#     4  10  20  35  59  89 120 155 198 250 306 365
#     4   9  19  37  58  83 120 158 197 248 306 360
#     4  10  22  40  61  85 117 157 203 251 301 359
#
# _framework density 20.502770000000002
#
# number of rings (size 3 to 8) (size 9 to 14) (size 15 to 20)
#    0.000    2.000    0.000    2.400    2.800    7.200 
#    0.000    2.000    0.000    0.000    0.000    0.000 
#    0.000    0.000    0.000    0.000    0.000    0.000 
#
# Total GULP energy -247986.558301 kJ/mol
# GULP energy per Si atom -12399.327915 kJ/mol
# Density = 2.045611 g / cm^3
# Si number density = 20.502770 Si / 1000 Ang^3
#
#
#
# Elastic Constant Matrix: (Units=GPa)
#
#
# Indices 1 2 3 4 5 6 
#
# 1 88.3250 48.8253 60.3339 0.0000 -17.4404 0.0000
# 2 48.8253 90.6503 58.5463 0.0000 -13.8341 0.0000
# 3 60.3339 58.5463 149.7478 0.0000 -22.2066 0.0000
# 4 0.0000 0.0000 0.0000 41.8260 0.0000 -0.6994
# 5 -17.4404 -13.8341 -22.2066 0.0000 36.7281 0.0000
# 6 0.0000 0.0000 0.0000 -0.6994 0.0000 33.2211
#
#
#
# Elastic Compliance Matrix: (Units=1/GPa)
#
#
# Indices 1 2 3 4 5 6 
#
# 1 0.018759 -0.006703 -0.004384 0.000000 0.003732 0.000000
# 2 -0.006703 0.017328 -0.003931 0.000000 0.000967 0.000000
# 3 -0.004384 -0.003931 0.010384 0.000000 0.002716 0.000000
# 4 0.000000 0.000000 0.000000 0.023917 0.000000 0.000504
# 5 0.003732 0.000967 0.002716 0.000000 0.031006 0.000000
# 6 0.000000 0.000000 0.000000 0.000504 0.000000 0.030112
#
#
# Mechanical properties :
#
#
# Convention : Reuss Voigt Hill
#
# Bulk Modulus (GPa) = 60.84318 73.79269 67.31794
# Shear Modulus (GPa) = 29.93694 33.08953 31.51324
#
# Velocity S-wave (km/s) = 3.82532 4.02170 3.92474
# Velocity P-wave (km/s) = 7.01789 7.59178 7.31047
#
# Compressibility (1/GPa) = 0.01643569
#
# Stress axis : x y z
#
# Youngs Moduli (GPa) = 53.30900 57.71094 96.30515
#
# Poissons Ratio (x) = 0.38682 0.42219
# Poissons Ratio (y) = 0.35731 0.37853
# Poissons Ratio (z) = 0.23370 0.22684
#
# Static dielectric constant tensor:
#      x y z
#    x 3.820080 0.000000 -0.018430 
#    y 0.000000 3.718830 0.000000 
#    z -0.018430 0.000000 3.881370 
# 
# 
# High freq. dielectric constant tensor:
#      x y z
#    x 1.803640 0.000000 -0.002700 
#    y 0.000000 1.796610 0.000000 
#    z -0.002700 0.000000 1.813650 
# 
# From -- ./inp_files/16064.got.cif
#   From: 2010.06.25/outbox.cif.g09.slc.cpg/sg11_9_cif.got.tgz:16064.got - 2010.06.27 23:14:04.
