data_PCOD8074434
_publ_section_title
;
Structure prediction by ZEFSAII (Michael W. Deem and Ramdas Pophale) SiO2 
 PCOD8074434
Probable space group: P 21/M
;
_chemical_formula_sum "Si O2"
_cell_formula_units_Z 28
_cell_length_a 8.864624
_cell_length_b 29.934913
_cell_length_c 5.193958
_cell_angle_alpha 90.000000
_cell_angle_beta 76.939600
_cell_angle_gamma 90.000000
_cell_volume 1342.625016
_symmetry_space_group_name_H-M "P 21/M"
_symmetry_group_IT_number 11
_symmetry_cell_setting 'monoclinic'
loop_
_space_group_symop_operation_xyz
x,y,z
-x,1/2+y,-z
-x,-y,-z
x,1/2-y,z
loop_
_atom_site_type_symbol
_atom_site_label
_atom_site_fract_x
_atom_site_fract_y
_atom_site_fract_z
Si Si1 0.620706 0.340760 0.997827
Si Si2 0.694880 0.087511 0.570763
Si Si3 0.905938 0.842643 0.394102
Si Si4 0.251329 0.250000 0.589046
Si Si5 0.602110 0.995978 0.713122
Si Si6 0.099583 0.859588 0.822204
Si Si7 0.389218 0.399140 0.382333
Si Si8 0.459517 0.250000 0.999488
O O1 0.718433 0.371351 0.760013
O O2 0.566062 0.293311 0.911648
O O3 0.743731 0.330236 0.181287
O O4 0.468919 0.369021 0.132492
O O5 0.723045 0.037641 0.674575
O O6 0.824372 0.092881 0.295993
O O7 0.517342 0.090959 0.548128
O O8 0.862180 0.791724 0.368635
O O9 0.752873 0.872182 0.450861
O O10 0.995419 0.841596 0.630486
O O11 0.001361 0.863063 0.119976
O O12 0.331325 0.250000 0.832826
O O13 0.378144 0.250000 0.311211
O O14 0.500000 0.000000 0.500000
O O15 0.678856 0.946559 0.695114
O O16 0.500000 0.000000 0.000000
#
# Coordination Sequence:
#
# PCOD8074434 Si02
#       8
#     4   4   4   2   4   4   4   2
#     4  11  22  43  67  94 129 166 215 265 315 376
#     4  10  21  43  67  95 131 167 217 272 318 376
#     4  12  25  44  65  92 133 171 214 258 324 385
#     4  12  26  44  65  99 128 161 214 274 317 370
#     4  10  20  35  64 100 124 160 217 269 322 377
#     4  11  26  43  64  92 133 177 206 257 324 386
#     4  10  22  38  69  96 124 169 217 268 321 378
#     4  12  26  40  69 103 122 159 218 274 313 368
#
# _framework density 20.854669999999999
#
# number of rings (size 3 to 8) (size 9 to 14) (size 15 to 20)
#    0.000    1.143    4.286    1.714    4.000    1.143 
#    0.000    2.143    0.000    0.000    0.000    0.000 
#    0.000    0.000    0.000    0.000    0.000    0.000 
#
# Total GULP energy -346911.341652 kJ/mol
# GULP energy per Si atom -12389.690773 kJ/mol
# Density = 2.080720 g / cm^3
# Si number density = 20.854670 Si / 1000 Ang^3
#
#
#
# Elastic Constant Matrix: (Units=GPa)
#
#
# Indices 1 2 3 4 5 6 
#
# 1 94.3447 38.0348 26.4258 0.0000 -0.7916 0.0000
# 2 38.0348 145.0485 28.5841 0.0000 -11.3283 0.0000
# 3 26.4258 28.5841 118.5034 0.0000 -11.5602 0.0000
# 4 0.0000 0.0000 0.0000 29.5966 0.0000 1.7140
# 5 -0.7916 -11.3283 -11.5602 0.0000 41.0330 0.0000
# 6 0.0000 0.0000 0.0000 1.7140 0.0000 13.6001
#
#
#
# Elastic Compliance Matrix: (Units=1/GPa)
#
#
# Indices 1 2 3 4 5 6 
#
# 1 0.012370 -0.002908 -0.002172 0.000000 -0.001176 0.000000
# 2 -0.002908 0.008019 -0.001106 0.000000 0.001846 0.000000
# 3 -0.002172 -0.001106 0.009414 0.000000 0.002305 0.000000
# 4 0.000000 0.000000 0.000000 0.034036 0.000000 -0.004289
# 5 -0.001176 0.001846 0.002305 0.000000 0.025507 0.000000
# 6 0.000000 0.000000 0.000000 -0.004289 0.000000 0.074070
#
#
# Mechanical properties :
#
#
# Convention : Reuss Voigt Hill
#
# Bulk Modulus (GPa) = 57.36239 60.44290 58.90264
# Shear Modulus (GPa) = 27.53345 34.50274 31.01809
#
# Velocity S-wave (km/s) = 3.63747 4.07189 3.86080
# Velocity P-wave (km/s) = 6.72362 7.15212 6.94118
#
# Compressibility (1/GPa) = 0.01743303
#
# Stress axis : x y z
#
# Youngs Moduli (GPa) = 80.84037 124.70775 106.21939
#
# Poissons Ratio (x) = 0.36259 0.23069
# Poissons Ratio (y) = 0.23505 0.11745
# Poissons Ratio (z) = 0.17557 0.13789
#
# Static dielectric constant tensor:
#      x y z
#    x 3.774290 0.000000 0.018290 
#    y 0.000000 4.588710 0.000000 
#    z 0.018290 0.000000 3.907390 
# 
# 
# High freq. dielectric constant tensor:
#      x y z
#    x 1.803960 0.000000 0.005840 
#    y 0.000000 1.819370 0.000000 
#    z 0.005840 0.000000 1.827210 
# 
# From -- ./inp_files/3224.got.cif
#   From: 2010.06.25/outbox.cif.g09.slc.cpg/sg11_2_cif.got.tgz:3224.got - 2010.06.27 23:14:04.
