data_PCOD8074119
_publ_section_title
;
Structure prediction by ZEFSAII (Michael W. Deem and Ramdas Pophale) SiO2 
 PCOD8074119
Probable space group: P 21/M
;
_chemical_formula_sum "Si O2"
_cell_formula_units_Z 32
_cell_length_a 11.856217
_cell_length_b 14.107925
_cell_length_c 13.672427
_cell_angle_alpha 90.000000
_cell_angle_beta 135.536287
_cell_angle_gamma 90.000000
_cell_volume 1601.904511
_symmetry_space_group_name_H-M "P 21/M"
_symmetry_group_IT_number 11
_symmetry_cell_setting 'monoclinic'
loop_
_space_group_symop_operation_xyz
x,y,z
-x,1/2+y,-z
-x,-y,-z
x,1/2-y,z
loop_
_atom_site_type_symbol
_atom_site_label
_atom_site_fract_x
_atom_site_fract_y
_atom_site_fract_z
Si Si1 0.626482 0.642117 0.123890
Si Si2 0.789485 0.856498 0.819202
Si Si3 0.169978 0.356083 0.936936
Si Si4 0.809079 0.492293 0.362221
Si Si5 0.731039 0.137960 0.138377
Si Si6 0.689517 0.992458 0.500227
Si Si7 0.008010 0.039921 0.199805
Si Si8 0.488363 0.859937 0.494721
O O1 0.632309 0.750000 0.164147
O O2 0.744767 0.586125 0.268909
O O3 0.686000 0.631632 0.049842
O O4 0.443686 0.603973 0.008214
O O5 0.852618 0.750000 0.842923
O O6 0.755035 0.878978 0.910814
O O7 0.624248 0.872121 0.660617
O O8 0.929006 0.925494 0.866360
O O9 0.096731 0.250000 0.887052
O O10 0.026866 0.428212 0.825181
O O11 0.773225 0.402896 0.271152
O O12 0.704843 0.479683 0.396431
O O13 0.000000 0.500000 0.500000
O O14 0.740525 0.250000 0.153930
O O15 0.852562 0.100444 0.131855
O O16 0.546823 0.915076 0.432344
O O17 0.856666 0.942830 0.634353
O O18 0.664427 0.086228 0.552418
O O19 0.448375 0.750000 0.446179
#
# Coordination Sequence:
#
# PCOD8074119 Si02
#       8
#     4   4   4   4   4   4   4   4
#     4  10  23  41  61  88 125 163 203 253 305 360
#     4   9  19  34  57  86 111 149 201 248 303 360
#     4  10  20  35  56  83 112 150 197 246 302 360
#     4  12  23  41  62  94 128 164 206 251 306 366
#     4  11  24  40  61  88 122 166 208 251 306 368
#     4  10  22  37  59  89 118 152 207 245 301 370
#     4  11  20  38  58  83 122 157 197 252 308 358
#     4   9  20  39  60  83 116 154 194 254 307 355
#
# _framework density 19.976220999999999
#
# number of rings (size 3 to 8) (size 9 to 14) (size 15 to 20)
#    0.000    1.750    2.500    1.125    1.750    2.500 
#    0.000    1.250    0.000    0.000    0.000    0.000 
#    0.000    0.000    0.000    0.000    0.000    0.000 
#
# Total GULP energy -396777.098522 kJ/mol
# GULP energy per Si atom -12399.284329 kJ/mol
# Density = 1.993075 g / cm^3
# Si number density = 19.976221 Si / 1000 Ang^3
#
#
#
# Elastic Constant Matrix: (Units=GPa)
#
#
# Indices 1 2 3 4 5 6 
#
# 1 118.7253 35.4901 40.6130 0.0000 3.7769 0.0000
# 2 35.4901 104.3607 30.4797 0.0000 14.4437 0.0000
# 3 40.6130 30.4797 88.4854 0.0000 10.4931 0.0000
# 4 0.0000 0.0000 0.0000 27.3277 0.0000 -1.5322
# 5 3.7769 14.4437 10.4931 0.0000 26.6709 0.0000
# 6 0.0000 0.0000 0.0000 -1.5322 0.0000 31.7362
#
#
#
# Elastic Compliance Matrix: (Units=1/GPa)
#
#
# Indices 1 2 3 4 5 6 
#
# 1 0.010566 -0.002598 -0.004137 0.000000 0.001538 0.000000
# 2 -0.002598 0.011843 -0.002276 0.000000 -0.005150 0.000000
# 3 -0.004137 -0.002276 0.014442 0.000000 -0.003863 0.000000
# 4 0.000000 0.000000 0.000000 0.036692 0.000000 0.001772
# 5 0.001538 -0.005150 -0.003863 0.000000 0.041585 0.000000
# 6 0.000000 0.000000 0.000000 0.001772 0.000000 0.031595
#
#
# Mechanical properties :
#
#
# Convention : Reuss Voigt Hill
#
# Bulk Modulus (GPa) = 53.10999 58.30412 55.70705
# Shear Modulus (GPa) = 29.23593 30.81288 30.02440
#
# Velocity S-wave (km/s) = 3.82977 3.93170 3.88107
# Velocity P-wave (km/s) = 6.79710 7.06124 6.93043
#
# Compressibility (1/GPa) = 0.01882885
#
# Stress axis : x y z
#
# Youngs Moduli (GPa) = 94.64731 84.43653 69.24068
#
# Poissons Ratio (x) = 0.21934 0.28645
# Poissons Ratio (y) = 0.24586 0.15763
# Poissons Ratio (z) = 0.39155 0.19222
#
# Static dielectric constant tensor:
#      x y z
#    x 3.760970 0.000000 0.005840 
#    y 0.000000 3.801790 0.000000 
#    z 0.005840 0.000000 3.470810 
# 
# 
# High freq. dielectric constant tensor:
#      x y z
#    x 1.789860 0.000000 0.003300 
#    y 0.000000 1.786920 0.000000 
#    z 0.003300 0.000000 1.761980 
# 
# From -- ./inp_files/50414.got.cif
#   From: 2010.06.25/outbox.cif.g09.slc.cpg/sg11_26_cif.got.tgz:50414.got - 2010.06.27 23:14:04.
