data_PCOD8074293
_publ_section_title
;
Structure prediction by ZEFSAII (Michael W. Deem and Ramdas Pophale) SiO2 
 PCOD8074293
Probable space group: P 21/M
;
_chemical_formula_sum "Si O2"
_cell_formula_units_Z 28
_cell_length_a 19.555491
_cell_length_b 8.908584
_cell_length_c 14.213251
_cell_angle_alpha 90.000000
_cell_angle_beta 36.881406
_cell_angle_gamma 90.000000
_cell_volume 1486.066913
_symmetry_space_group_name_H-M "P 21/M"
_symmetry_group_IT_number 11
_symmetry_cell_setting 'monoclinic'
loop_
_space_group_symop_operation_xyz
x,y,z
-x,1/2+y,-z
-x,-y,-z
x,1/2-y,z
loop_
_atom_site_type_symbol
_atom_site_label
_atom_site_fract_x
_atom_site_fract_y
_atom_site_fract_z
Si Si1 0.115838 0.073238 0.407290
Si Si2 0.926343 0.923062 0.890628
Si Si3 0.673100 0.928415 0.483033
Si Si4 0.585451 0.073489 0.232340
Si Si5 0.753393 0.577985 0.919684
Si Si6 0.169006 0.573347 0.545598
Si Si7 0.756477 0.426971 0.205194
O O1 0.095362 0.250000 0.441824
O O2 0.214651 0.039528 0.222464
O O3 0.157995 0.001315 0.456687
O O4 0.000000 0.000000 0.500000
O O5 0.908179 0.750000 0.938705
O O6 0.862640 0.962008 0.863464
O O7 0.058459 0.961101 0.730792
O O8 0.878075 0.027037 0.027218
O O9 0.681744 0.750000 0.478873
O O10 0.543104 0.985464 0.617342
O O11 0.722821 0.000066 0.522985
O O12 0.743416 0.987934 0.317209
O O13 0.588341 0.250000 0.224209
O O14 0.656434 0.017415 0.244991
O O15 0.642802 0.014755 0.073308
O O16 0.719799 0.750000 0.968712
O O17 0.186799 0.750000 0.512767
O O18 0.753470 0.250000 0.226553
#
# Coordination Sequence:
#
# PCOD8074293 Si02
#       7
#     4   4   4   4   4   4   4
#     4  11  21  36  59  88 117 148 185 228 278 334
#     4   9  18  35  55  80 113 145 180 229 280 329
#     4  11  23  39  56  79 113 152 188 230 283 334
#     4   9  20  37  58  84 112 143 188 236 277 328
#     4   9  18  34  57  85 113 142 181 229 279 326
#     4  11  23  39  57  82 115 150 190 232 279 336
#     4  10  20  35  58  86 110 142 188 233 279 333
#
# _framework density 18.841681000000001
#
# number of rings (size 3 to 8) (size 9 to 14) (size 15 to 20)
#    0.000    2.000    1.429    2.143    0.000    4.571 
#    0.000    0.714    0.000    0.000    0.000    0.000 
#    0.000    0.000    0.000    0.000    0.000    0.000 
#
# Total GULP energy -347291.820303 kJ/mol
# GULP energy per Si atom -12403.279297 kJ/mol
# Density = 1.879880 g / cm^3
# Si number density = 18.841681 Si / 1000 Ang^3
#
#
#
# Elastic Constant Matrix: (Units=GPa)
#
#
# Indices 1 2 3 4 5 6 
#
# 1 93.0555 37.6477 31.0141 0.0000 15.1399 0.0000
# 2 37.6477 68.4252 31.8009 0.0000 8.4583 0.0000
# 3 31.0141 31.8009 66.2458 0.0000 12.8772 0.0000
# 4 0.0000 0.0000 0.0000 35.4422 0.0000 4.3112
# 5 15.1399 8.4583 12.8772 0.0000 23.3144 0.0000
# 6 0.0000 0.0000 0.0000 4.3112 0.0000 32.5262
#
#
#
# Elastic Compliance Matrix: (Units=1/GPa)
#
#
# Indices 1 2 3 4 5 6 
#
# 1 0.015245 -0.006270 -0.002963 0.000000 -0.005988 0.000000
# 2 -0.006270 0.021479 -0.007452 0.000000 0.000396 0.000000
# 3 -0.002963 -0.007452 0.021465 0.000000 -0.007228 0.000000
# 4 0.000000 0.000000 0.000000 0.028677 0.000000 -0.003801
# 5 -0.005988 0.000396 -0.007228 0.000000 0.050629 0.000000
# 6 0.000000 0.000000 0.000000 -0.003801 0.000000 0.031248
#
#
# Mechanical properties :
#
#
# Convention : Reuss Voigt Hill
#
# Bulk Modulus (GPa) = 40.29407 47.62799 43.96103
# Shear Modulus (GPa) = 23.76566 26.74083 25.25324
#
# Velocity S-wave (km/s) = 3.55538 3.77136 3.66496
# Velocity P-wave (km/s) = 6.18759 6.65561 6.42586
#
# Compressibility (1/GPa) = 0.02481755
#
# Stress axis : x y z
#
# Youngs Moduli (GPa) = 65.59540 46.55701 46.58778
#
# Poissons Ratio (x) = 0.29193 0.13804
# Poissons Ratio (y) = 0.41131 0.34718
# Poissons Ratio (z) = 0.19436 0.34695
#
# Static dielectric constant tensor:
#      x y z
#    x 3.354480 0.000000 -0.022040 
#    y 0.000000 3.456730 0.000000 
#    z -0.022040 0.000000 3.575480 
# 
# 
# High freq. dielectric constant tensor:
#      x y z
#    x 1.721100 0.000000 0.006360 
#    y 0.000000 1.736910 0.000000 
#    z 0.006360 0.000000 1.735420 
# 
# From -- ./inp_files/54528.got.cif
#   From: 2010.06.25/outbox.cif.g09.slc.cpg/sg11_28_cif.got.tgz:54528.got - 2010.06.27 23:14:04.
