data_PCOD8074076
_publ_section_title
;
Structure prediction by ZEFSAII (Michael W. Deem and Ramdas Pophale) SiO2 
 PCOD8074076
Probable space group: P 21/M
;
_chemical_formula_sum "Si O2"
_cell_formula_units_Z 32
_cell_length_a 12.219161
_cell_length_b 8.886210
_cell_length_c 29.178819
_cell_angle_alpha 90.000000
_cell_angle_beta 148.995475
_cell_angle_gamma 90.000000
_cell_volume 1632.007249
_symmetry_space_group_name_H-M "P 21/M"
_symmetry_group_IT_number 11
_symmetry_cell_setting 'monoclinic'
loop_
_space_group_symop_operation_xyz
x,y,z
-x,1/2+y,-z
-x,-y,-z
x,1/2-y,z
loop_
_atom_site_type_symbol
_atom_site_label
_atom_site_fract_x
_atom_site_fract_y
_atom_site_fract_z
Si Si1 0.629043 0.078557 0.453589
Si Si2 0.590603 0.074859 0.247894
Si Si3 0.608308 0.574358 0.968443
Si Si4 0.219296 0.921630 0.589756
Si Si5 0.965535 0.922882 0.635012
Si Si6 0.168401 0.070712 0.314358
Si Si7 0.789370 0.925125 0.132564
Si Si8 0.217534 0.928904 0.060525
O O1 0.652238 0.250000 0.477174
O O2 0.623739 0.061510 0.396854
O O3 0.408389 0.012956 0.393335
O O4 0.832772 0.995579 0.546587
O O5 0.521716 0.250000 0.225164
O O6 0.660427 0.011838 0.322780
O O7 0.785069 0.051204 0.282721
O O8 0.397534 0.974111 0.161450
O O9 0.589815 0.750000 0.949423
O O10 0.372133 0.510980 0.891551
O O11 0.725846 0.490178 0.969455
O O12 0.741712 0.544879 0.062261
O O13 0.161974 0.750000 0.580443
O O14 0.000000 0.000000 0.500000
O O15 0.903560 0.750000 0.611798
O O16 0.902873 0.990216 0.661635
O O17 0.148235 0.250000 0.301453
O O18 0.023173 0.990740 0.224404
O O19 0.776705 0.750000 0.140009
O O20 0.195722 0.750000 0.050584
O O21 0.000000 0.000000 0.000000
#
# Coordination Sequence:
#
# PCOD8074076 Si02
#       8
#     4   4   4   4   4   4   4   4
#     4  10  21  35  53  80 113 149 193 242 292 346
#     4  10  21  38  60  86 115 153 200 247 300 359
#     4  10  21  40  64  89 121 156 196 246 300 359
#     4  10  20  36  58  83 113 150 195 246 297 349
#     4  10  20  35  56  80 111 152 194 236 289 346
#     4  10  21  35  52  80 118 156 192 236 295 353
#     4  10  21  37  61  92 119 152 199 246 296 357
#     4  12  26  43  64  91 123 160 203 252 307 365
#
# _framework density 19.607755999999998
#
# number of rings (size 3 to 8) (size 9 to 14) (size 15 to 20)
#    0.000    1.750    1.250    3.000    0.000    5.500 
#    0.000    1.250    0.000    0.000    0.000    0.000 
#    0.000    0.000    0.000    0.000    0.000    0.000 
#
# Total GULP energy -396908.267182 kJ/mol
# GULP energy per Si atom -12403.383349 kJ/mol
# Density = 1.956313 g / cm^3
# Si number density = 19.607756 Si / 1000 Ang^3
#
#
#
# Elastic Constant Matrix: (Units=GPa)
#
#
# Indices 1 2 3 4 5 6 
#
# 1 109.2287 47.5747 52.6751 0.0000 -1.2175 0.0000
# 2 47.5747 92.9402 52.7479 0.0000 2.1614 0.0000
# 3 52.6751 52.7479 114.0399 0.0000 3.1040 0.0000
# 4 0.0000 0.0000 0.0000 36.1495 0.0000 -2.4378
# 5 -1.2175 2.1614 3.1040 0.0000 29.2113 0.0000
# 6 0.0000 0.0000 0.0000 -2.4378 0.0000 26.0537
#
#
#
# Elastic Compliance Matrix: (Units=1/GPa)
#
#
# Indices 1 2 3 4 5 6 
#
# 1 0.013029 -0.004426 -0.004006 0.000000 0.001296 0.000000
# 2 -0.004426 0.016097 -0.005379 0.000000 -0.000804 0.000000
# 3 -0.004006 -0.005379 0.013139 0.000000 -0.001165 0.000000
# 4 0.000000 0.000000 0.000000 0.027839 0.000000 0.002605
# 5 0.001296 -0.000804 -0.001165 0.000000 0.034471 0.000000
# 6 0.000000 0.000000 0.000000 0.002605 0.000000 0.038626
#
#
# Mechanical properties :
#
#
# Convention : Reuss Voigt Hill
#
# Bulk Modulus (GPa) = 68.29475 69.13380 68.71427
# Shear Modulus (GPa) = 28.45691 29.16363 28.81027
#
# Velocity S-wave (km/s) = 3.81374 3.86080 3.83734
# Velocity P-wave (km/s) = 7.36878 7.43030 7.39960
#
# Compressibility (1/GPa) = 0.01464241
#
# Stress axis : x y z
#
# Youngs Moduli (GPa) = 76.75009 62.12423 76.10793
#
# Poissons Ratio (x) = 0.27495 0.30492
# Poissons Ratio (y) = 0.33968 0.40940
# Poissons Ratio (z) = 0.30749 0.33418
#
# Static dielectric constant tensor:
#      x y z
#    x 3.823850 0.000000 -0.061000 
#    y 0.000000 3.543830 0.000000 
#    z -0.061000 0.000000 3.564190 
# 
# 
# High freq. dielectric constant tensor:
#      x y z
#    x 1.774560 0.000000 -0.005270 
#    y 0.000000 1.757330 0.000000 
#    z -0.005270 0.000000 1.768640 
# 
# From -- ./inp_files/73135.got.cif
#   From: 2010.06.25/outbox.cif.g09.slc.cpg/sg11_37_cif.got.tgz:73135.got - 2010.06.27 23:14:04.
