data_PCOD8074806
_publ_section_title
;
Structure prediction by ZEFSAII (Michael W. Deem and Ramdas Pophale) SiO2 
 PCOD8074806
Probable space group: P 21/M
;
_chemical_formula_sum "Si O2"
_cell_formula_units_Z 32
_cell_length_a 20.112483
_cell_length_b 8.904476
_cell_length_c 26.017974
_cell_angle_alpha 90.000000
_cell_angle_beta 21.152981
_cell_angle_gamma 90.000000
_cell_volume 1681.455953
_symmetry_space_group_name_H-M "P 21/M"
_symmetry_group_IT_number 11
_symmetry_cell_setting 'monoclinic'
loop_
_space_group_symop_operation_xyz
x,y,z
-x,1/2+y,-z
-x,-y,-z
x,1/2-y,z
loop_
_atom_site_type_symbol
_atom_site_label
_atom_site_fract_x
_atom_site_fract_y
_atom_site_fract_z
Si Si1 0.805102 0.424905 0.647955
Si Si2 0.756212 0.576314 0.405412
Si Si3 0.894780 0.572260 0.196536
Si Si4 0.629750 0.927959 0.297573
Si Si5 0.320292 0.574156 0.151907
Si Si6 0.937446 0.922315 0.380197
Si Si7 0.276855 0.928258 0.875147
Si Si8 0.370892 0.924954 0.331731
O O1 0.845294 0.250000 0.624152
O O2 0.711331 0.486494 0.767475
O O3 0.670524 0.460962 0.697737
O O4 0.000000 0.500000 0.500000
O O5 0.696892 0.750000 0.442109
O O6 0.843312 0.510997 0.290141
O O7 0.579371 0.480323 0.547791
O O8 0.907588 0.556992 0.340876
O O9 0.899495 0.750000 0.194371
O O10 0.740869 0.515715 0.267424
O O11 0.095417 0.512715 0.035482
O O12 0.635620 0.750000 0.287487
O O13 0.726276 0.999975 0.178773
O O14 0.353676 0.750000 0.127959
O O15 0.145859 0.529974 0.242420
O O16 0.500000 0.500000 0.000000
O O17 0.900233 0.750000 0.423812
O O18 0.801850 0.029244 0.509169
O O19 0.279913 0.750000 0.866850
O O20 0.452452 0.978727 0.780910
O O21 0.411508 0.750000 0.311861
#
# Coordination Sequence:
#
# PCOD8074806 Si02
#       8
#     4   4   4   4   4   4   4   4
#     4  10  21  37  59  86 116 150 190 236 282 334
#     4  10  20  37  60  85 113 150 193 236 286 344
#     4   9  21  38  56  82 117 151 191 241 288 342
#     4  11  21  36  58  85 115 149 192 241 289 341
#     4  10  22  39  58  86 120 153 191 233 282 336
#     4  10  20  36  60  84 113 150 191 234 281 340
#     4  11  22  38  59  83 113 153 195 236 286 345
#     4  11  22  36  58  87 117 148 190 242 290 335
#
# _framework density 19.031124999999999
#
# number of rings (size 3 to 8) (size 9 to 14) (size 15 to 20)
#    0.000    1.750    2.500    1.875    0.000    2.500 
#    0.000    5.000    0.000    0.000    0.000    0.000 
#    0.000    0.000    0.000    0.000    0.000    0.000 
#
# Total GULP energy -396901.424881 kJ/mol
# GULP energy per Si atom -12403.169528 kJ/mol
# Density = 1.898781 g / cm^3
# Si number density = 19.031125 Si / 1000 Ang^3
#
#
#
# Elastic Constant Matrix: (Units=GPa)
#
#
# Indices 1 2 3 4 5 6 
#
# 1 141.4492 34.2980 55.7929 0.0000 6.7477 0.0000
# 2 34.2980 52.5959 27.9093 0.0000 1.9860 0.0000
# 3 55.7929 27.9093 121.1937 0.0000 7.6989 0.0000
# 4 0.0000 0.0000 0.0000 19.7362 0.0000 -1.6543
# 5 6.7477 1.9860 7.6989 0.0000 36.0288 0.0000
# 6 0.0000 0.0000 0.0000 -1.6543 0.0000 25.6959
#
#
#
# Elastic Compliance Matrix: (Units=1/GPa)
#
#
# Indices 1 2 3 4 5 6 
#
# 1 0.009476 -0.004399 -0.003297 0.000000 -0.000828 0.000000
# 2 -0.004399 0.023702 -0.003449 0.000000 0.000254 0.000000
# 3 -0.003297 -0.003449 0.010657 0.000000 -0.001470 0.000000
# 4 0.000000 0.000000 0.000000 0.050943 0.000000 0.003280
# 5 -0.000828 0.000254 -0.001470 0.000000 0.028211 0.000000
# 6 0.000000 0.000000 0.000000 0.003280 0.000000 0.039128
#
#
# Mechanical properties :
#
#
# Convention : Reuss Voigt Hill
#
# Bulk Modulus (GPa) = 46.41476 61.24880 53.83178
# Shear Modulus (GPa) = 26.09758 29.44141 27.76950
#
# Velocity S-wave (km/s) = 3.70714 3.93748 3.82404
# Velocity P-wave (km/s) = 6.53955 7.27496 6.91703
#
# Compressibility (1/GPa) = 0.02154487
#
# Stress axis : x y z
#
# Youngs Moduli (GPa) = 105.52776 42.19027 93.83735
#
# Poissons Ratio (x) = 0.18558 0.30937
# Poissons Ratio (y) = 0.46419 0.32369
# Poissons Ratio (z) = 0.34791 0.14553
#
# Static dielectric constant tensor:
#      x y z
#    x 4.002830 0.000000 0.175200 
#    y 0.000000 3.381610 0.000000 
#    z 0.175200 0.000000 3.569820 
# 
# 
# High freq. dielectric constant tensor:
#      x y z
#    x 1.759570 0.000000 -0.000370 
#    y 0.000000 1.728060 0.000000 
#    z -0.000370 0.000000 1.740170 
# 
# From -- ./inp_files/72104.got.cif
#   From: 2010.06.25/outbox.cif.g09.slc.cpg/sg11_37_cif.got.tgz:72104.got - 2010.06.27 23:14:04.
