data_PCOD8074219
_publ_section_title
;
Structure prediction by ZEFSAII (Michael W. Deem and Ramdas Pophale) SiO2 
 PCOD8074219
Probable space group: P 21/M
;
_chemical_formula_sum "Si O2"
_cell_formula_units_Z 28
_cell_length_a 13.981615
_cell_length_b 8.830899
_cell_length_c 18.986881
_cell_angle_alpha 90.000000
_cell_angle_beta 35.885933
_cell_angle_gamma 90.000000
_cell_volume 1374.174982
_symmetry_space_group_name_H-M "P 21/M"
_symmetry_group_IT_number 11
_symmetry_cell_setting 'monoclinic'
loop_
_space_group_symop_operation_xyz
x,y,z
-x,1/2+y,-z
-x,-y,-z
x,1/2-y,z
loop_
_atom_site_type_symbol
_atom_site_label
_atom_site_fract_x
_atom_site_fract_y
_atom_site_fract_z
Si Si1 0.483706 0.075258 0.710455
Si Si2 0.757794 0.071946 0.958043
Si Si3 0.583039 0.925760 0.791140
Si Si4 0.366171 0.573756 0.529513
Si Si5 0.841154 0.427983 0.063556
Si Si6 0.945243 0.573607 0.605040
Si Si7 0.038045 0.430506 0.691724
O O1 0.441997 0.250000 0.746975
O O2 0.588731 0.047889 0.578468
O O3 0.586600 0.016308 0.715761
O O4 0.315761 0.985138 0.800245
O O5 0.768795 0.250000 0.944916
O O6 0.872445 0.005764 0.827896
O O7 0.567106 0.019576 0.068732
O O8 0.827991 0.017969 0.990875
O O9 0.556836 0.750000 0.786817
O O10 0.751547 0.952596 0.731430
O O11 0.500000 0.500000 0.500000
O O12 0.351224 0.750000 0.557441
O O13 0.191667 0.492799 0.644498
O O14 0.851877 0.250000 0.064486
O O15 0.000000 0.500000 0.000000
O O16 0.990954 0.750000 0.577041
O O17 0.041160 0.493929 0.610869
O O18 0.000000 0.500000 0.500000
O O19 0.046773 0.250000 0.684772
#
# Coordination Sequence:
#
# PCOD8074219 Si02
#       7
#     4   4   4   4   4   4   4
#     4  10  21  37  57  83 114 148 192 244 297 353
#     4   8  18  37  58  82 117 156 194 240 295 352
#     4   9  19  38  62  86 116 156 198 242 295 354
#     4  11  25  42  60  84 117 157 202 250 303 362
#     4  10  20  35  57  84 115 152 196 244 293 350
#     4  11  23  39  62  91 122 158 202 250 299 356
#     4  11  23  40  62  88 121 159 197 245 304 361
#
# _framework density 20.375861
#
# number of rings (size 3 to 8) (size 9 to 14) (size 15 to 20)
#    0.000    2.000    0.000    3.857    2.000    6.286 
#    0.000    6.429    0.000    0.000    0.000    0.000 
#    0.000    0.000    0.000    0.000    0.000    0.000 
#
# Total GULP energy -347203.735539 kJ/mol
# GULP energy per Si atom -12400.133412 kJ/mol
# Density = 2.032949 g / cm^3
# Si number density = 20.375861 Si / 1000 Ang^3
#
#
#
# Elastic Constant Matrix: (Units=GPa)
#
#
# Indices 1 2 3 4 5 6 
#
# 1 89.2382 41.0658 42.7108 0.0000 -15.8077 0.0000
# 2 41.0658 93.0208 42.8206 0.0000 -4.6808 0.0000
# 3 42.7108 42.8206 109.3626 0.0000 -3.8382 0.0000
# 4 0.0000 0.0000 0.0000 30.0740 0.0000 -3.3674
# 5 -15.8077 -4.6808 -3.8382 0.0000 32.9124 0.0000
# 6 0.0000 0.0000 0.0000 -3.3674 0.0000 35.7188
#
#
#
# Elastic Compliance Matrix: (Units=1/GPa)
#
#
# Indices 1 2 3 4 5 6 
#
# 1 0.016843 -0.005091 -0.004344 0.000000 0.006859 0.000000
# 2 -0.005091 0.014706 -0.003798 0.000000 -0.000796 0.000000
# 3 -0.004344 -0.003798 0.012285 0.000000 -0.001194 0.000000
# 4 0.000000 0.000000 0.000000 0.033606 0.000000 0.003168
# 5 0.006859 -0.000796 -0.001194 0.000000 0.033426 0.000000
# 6 0.000000 0.000000 0.000000 0.003168 0.000000 0.028295
#
#
# Mechanical properties :
#
#
# Convention : Reuss Voigt Hill
#
# Bulk Modulus (GPa) = 57.57312 60.53511 59.05412
# Shear Modulus (GPa) = 29.16895 30.74268 29.95582
#
# Velocity S-wave (km/s) = 3.78768 3.88852 3.83843
# Velocity P-wave (km/s) = 6.88808 7.06643 6.97782
#
# Compressibility (1/GPa) = 0.01736922
#
# Stress axis : x y z
#
# Youngs Moduli (GPa) = 59.37320 67.99999 81.39705
#
# Poissons Ratio (x) = 0.34617 0.35357
# Poissons Ratio (y) = 0.30226 0.30913
# Poissons Ratio (z) = 0.25790 0.25825
#
# Static dielectric constant tensor:
#      x y z
#    x 3.573000 0.000000 -0.031850 
#    y 0.000000 3.999970 0.000000 
#    z -0.031850 0.000000 4.020880 
# 
# 
# High freq. dielectric constant tensor:
#      x y z
#    x 1.791710 0.000000 -0.011340 
#    y 0.000000 1.791510 0.000000 
#    z -0.011340 0.000000 1.810430 
# 
# From -- ./inp_files/65159.got.cif
#   From: 2010.06.25/outbox.cif.g09.slc.cpg/sg11_33_cif.got.tgz:65159.got - 2010.06.27 23:14:04.
