data_PCOD8074229
_publ_section_title
;
Structure prediction by ZEFSAII (Michael W. Deem and Ramdas Pophale) SiO2 
 PCOD8074229
Probable space group: P 21/M
;
_chemical_formula_sum "Si O2"
_cell_formula_units_Z 28
_cell_length_a 8.986812
_cell_length_b 8.813605
_cell_length_c 28.984714
_cell_angle_alpha 90.000000
_cell_angle_beta 141.639277
_cell_angle_gamma 90.000000
_cell_volume 1424.778357
_symmetry_space_group_name_H-M "P 21/M"
_symmetry_group_IT_number 11
_symmetry_cell_setting 'monoclinic'
loop_
_space_group_symop_operation_xyz
x,y,z
-x,1/2+y,-z
-x,-y,-z
x,1/2-y,z
loop_
_atom_site_type_symbol
_atom_site_label
_atom_site_fract_x
_atom_site_fract_y
_atom_site_fract_z
Si Si1 0.757090 0.571618 0.069523
Si Si2 0.853333 0.574213 0.504935
Si Si3 0.563666 0.077742 0.659622
Si Si4 0.392517 0.927068 0.790250
Si Si5 0.053600 0.574737 0.793218
Si Si6 0.097809 0.570782 0.070260
Si Si7 0.809485 0.926432 0.349136
O O1 0.726756 0.750000 0.060187
O O2 0.870666 0.526562 0.145504
O O3 0.931237 0.513661 0.071458
O O4 0.500000 0.500000 0.000000
O O5 0.923380 0.750000 0.526597
O O6 0.573869 0.555986 0.422888
O O7 0.000000 0.500000 0.500000
O O8 0.929416 0.486663 0.570177
O O9 0.659099 0.250000 0.686960
O O10 0.389115 0.042691 0.660069
O O11 0.782336 0.961872 0.713069
O O12 0.453505 0.750000 0.802061
O O13 0.226108 0.965255 0.793045
O O14 0.634401 0.020221 0.854371
O O15 0.256079 0.978793 0.711578
O O16 0.072974 0.750000 0.811853
O O17 0.090636 0.750000 0.063664
O O18 0.000000 0.500000 0.000000
O O19 0.829773 0.750000 0.341632
#
# Coordination Sequence:
#
# PCOD8074229 Si02
#       7
#     4   4   4   4   4   4   4
#     4  11  24  41  62  88 117 147 185 229 275 330
#     4   9  17  31  53  82 114 147 186 234 284 337
#     4   9  19  35  56  83 113 145 186 233 281 335
#     4  11  24  40  57  82 115 150 190 235 280 333
#     4  11  24  39  57  83 114 149 191 233 278 333
#     4  11  24  41  62  89 117 148 187 230 276 332
#     4  10  20  35  57  85 113 146 190 236 284 340
#
# _framework density 19.652180999999999
#
# number of rings (size 3 to 8) (size 9 to 14) (size 15 to 20)
#    0.000    1.714    0.000    5.143    0.000   14.857 
#    0.000    0.714    0.000    0.000    0.000    0.000 
#    0.000    0.000    0.000    0.000    0.000    0.000 
#
# Total GULP energy -347247.235026 kJ/mol
# GULP energy per Si atom -12401.686965 kJ/mol
# Density = 1.960745 g / cm^3
# Si number density = 19.652181 Si / 1000 Ang^3
#
#
#
# Elastic Constant Matrix: (Units=GPa)
#
#
# Indices 1 2 3 4 5 6 
#
# 1 99.9020 40.3550 51.0638 0.0000 -2.5311 0.0000
# 2 40.3550 54.5169 27.0571 0.0000 1.8078 0.0000
# 3 51.0638 27.0571 136.0183 0.0000 -7.1467 0.0000
# 4 0.0000 0.0000 0.0000 44.4706 0.0000 0.7468
# 5 -2.5311 1.8078 -7.1467 0.0000 30.7505 0.0000
# 6 0.0000 0.0000 0.0000 0.7468 0.0000 29.9261
#
#
#
# Elastic Compliance Matrix: (Units=1/GPa)
#
#
# Indices 1 2 3 4 5 6 
#
# 1 0.016113 -0.009967 -0.004015 0.000000 0.000979 0.000000
# 2 -0.009967 0.026661 -0.001708 0.000000 -0.002785 0.000000
# 3 -0.004015 -0.001708 0.009300 0.000000 0.001931 0.000000
# 4 0.000000 0.000000 0.000000 0.022496 0.000000 -0.000561
# 5 0.000979 -0.002785 0.001931 0.000000 0.033213 0.000000
# 6 0.000000 0.000000 0.000000 -0.000561 0.000000 0.033430
#
#
# Mechanical properties :
#
#
# Convention : Reuss Voigt Hill
#
# Bulk Modulus (GPa) = 48.32249 58.59881 53.46065
# Shear Modulus (GPa) = 27.85648 32.49352 30.17500
#
# Velocity S-wave (km/s) = 3.76902 4.07065 3.92274
# Velocity P-wave (km/s) = 6.60174 7.20946 6.91228
#
# Compressibility (1/GPa) = 0.02069430
#
# Stress axis : x y z
#
# Youngs Moduli (GPa) = 62.06159 37.50809 107.52132
#
# Poissons Ratio (x) = 0.37385 0.43170
# Poissons Ratio (y) = 0.61858 0.18364
# Poissons Ratio (z) = 0.24918 0.06406
#
# Static dielectric constant tensor:
#      x y z
#    x 3.554280 0.000000 0.109340 
#    y 0.000000 4.006190 0.000000 
#    z 0.109340 0.000000 6.092280 
# 
# 
# High freq. dielectric constant tensor:
#      x y z
#    x 1.749750 0.000000 -0.002260 
#    y 0.000000 1.778740 0.000000 
#    z -0.002260 0.000000 1.788440 
# 
# From -- ./inp_files/70895.got.cif
#   From: 2010.06.25/outbox.cif.g09.slc.cpg/sg11_36_cif.got.tgz:70895.got - 2010.06.27 23:14:04.
