data_PCOD8074953
_publ_section_title
;
Structure prediction by ZEFSAII (Michael W. Deem and Ramdas Pophale) SiO2 
 PCOD8074953
Probable space group: P 21/M
;
_chemical_formula_sum "Si O2"
_cell_formula_units_Z 32
_cell_length_a 29.869968
_cell_length_b 8.946712
_cell_length_c 12.485369
_cell_angle_alpha 90.000000
_cell_angle_beta 150.980527
_cell_angle_gamma 90.000000
_cell_volume 1618.590555
_symmetry_space_group_name_H-M "P 21/M"
_symmetry_group_IT_number 11
_symmetry_cell_setting 'monoclinic'
loop_
_space_group_symop_operation_xyz
x,y,z
-x,1/2+y,-z
-x,-y,-z
x,1/2-y,z
loop_
_atom_site_type_symbol
_atom_site_label
_atom_site_fract_x
_atom_site_fract_y
_atom_site_fract_z
Si Si1 0.448786 0.574526 0.560100
Si Si2 0.056622 0.079964 0.907735
Si Si3 0.428149 0.571919 0.764913
Si Si4 0.128016 0.585044 0.362291
Si Si5 0.026905 0.075552 0.449263
Si Si6 0.791868 0.416570 0.244347
Si Si7 0.235999 0.080442 0.411973
Si Si8 0.625682 0.924888 0.792133
O O1 0.431425 0.750000 0.523318
O O2 0.447977 0.518587 0.682910
O O3 0.372155 0.498854 0.322479
O O4 0.542309 0.526882 0.695754
O O5 0.033508 0.250000 0.822288
O O6 0.977598 0.035990 0.829995
O O7 0.162855 0.067529 0.163369
O O8 0.051734 0.961258 0.801848
O O9 0.436979 0.750000 0.792706
O O10 0.324227 0.524384 0.577885
O O11 0.500000 0.500000 0.000000
O O12 0.124914 0.750000 0.301561
O O13 0.198574 0.591723 0.608614
O O14 0.174880 0.463577 0.385536
O O15 0.042913 0.250000 0.494983
O O16 0.117577 0.991768 0.607365
O O17 0.000000 0.000000 0.500000
O O18 0.777788 0.250000 0.167041
O O19 0.711408 0.524332 0.040246
O O20 0.271605 0.250000 0.500675
O O21 0.627412 0.750000 0.776243
#
# Coordination Sequence:
#
# PCOD8074953 Si02
#       8
#     4   4   4   4   4   4   4   4
#     4   9  21  41  61  84 117 154 196 249 302 356
#     4   9  20  39  59  84 119 155 197 245 292 348
#     4  11  25  44  63  87 120 159 204 251 300 359
#     4   9  19  36  58  86 119 156 199 247 293 346
#     4  11  22  37  58  84 116 155 193 237 290 347
#     4  10  21  37  57  85 119 154 194 241 294 351
#     4  11  23  38  60  88 118 157 197 241 298 357
#     4  10  20  36  62  92 117 150 196 247 302 358
#
# _framework density 19.770287
#
# number of rings (size 3 to 8) (size 9 to 14) (size 15 to 20)
#    0.000    2.000    0.000    3.750    1.750    6.000 
#    0.000    2.500    0.000    0.000    0.000    0.000 
#    0.000    0.000    0.000    0.000    0.000    0.000 
#
# Total GULP energy -396562.189869 kJ/mol
# GULP energy per Si atom -12392.568433 kJ/mol
# Density = 1.972529 g / cm^3
# Si number density = 19.770287 Si / 1000 Ang^3
#
#
#
# Elastic Constant Matrix: (Units=GPa)
#
#
# Indices 1 2 3 4 5 6 
#
# 1 77.4170 67.3056 37.7491 0.0000 -25.6526 0.0000
# 2 67.3056 -162.2636 -167.6859 0.0000 211.5676 0.0000
# 3 37.7491 -167.6859 -41.2783 0.0000 125.6229 0.0000
# 4 0.0000 0.0000 0.0000 36.7270 0.0000 0.1101
# 5 -25.6526 211.5676 125.6229 0.0000 -69.3587 0.0000
# 6 0.0000 0.0000 0.0000 0.1101 0.0000 35.5213
#
#
#
# Elastic Compliance Matrix: (Units=1/GPa)
#
#
# Indices 1 2 3 4 5 6 
#
# 1 0.011562 0.000043 0.000492 0.000000 -0.003256 0.000000
# 2 0.000043 0.004279 -0.004949 0.000000 0.004072 0.000000
# 3 0.000492 -0.004949 0.011118 0.000000 0.004860 0.000000
# 4 0.000000 0.000000 0.000000 0.027228 0.000000 -0.000084
# 5 -0.003256 0.004072 0.004860 0.000000 0.008011 0.000000
# 6 0.000000 0.000000 0.000000 -0.000084 0.000000 0.028152
#
#
# Mechanical properties :
#
#
# Convention : Reuss Voigt Hill
#
# Bulk Modulus (GPa) = 55.15969 -27.93192 13.61389
# Shear Modulus (GPa) = 47.51858 -3.65501 21.93178
#
# Velocity S-wave (km/s) = 4.90790 -1.36116 3.33427
# Velocity P-wave (km/s) = 7.75097 4.07790 4.66092
#
# Compressibility (1/GPa) = 0.01812918
#
# Stress axis : x y z
#
# Youngs Moduli (GPa) = 86.49390 233.72261 89.94366
#
# Poissons Ratio (x) = -0.00996 -0.04421
# Poissons Ratio (y) = -0.00369 0.44510
# Poissons Ratio (z) = -0.04251 1.15661
#
# Static dielectric constant tensor:
#      x y z
#    x 3.581320 0.000000 -0.143220 
#    y 0.000000 3.709940 0.000000 
#    z -0.143220 0.000000 3.895730 
# 
# 
# High freq. dielectric constant tensor:
#      x y z
#    x 1.763790 0.000000 -0.004610 
#    y 0.000000 1.778420 0.000000 
#    z -0.004610 0.000000 1.778110 
# 
# From -- ./inp_files/45289.got.cif
#   From: 2010.06.25/outbox.cif.g09.slc.cpg/sg11_23_cif.got.tgz:45289.got - 2010.06.27 23:14:04.
