data_PCOD8074377
_publ_section_title
;
Structure prediction by ZEFSAII (Michael W. Deem and Ramdas Pophale) SiO2 
 PCOD8074377
Probable space group: P 21/M
;
_chemical_formula_sum "Si O2"
_cell_formula_units_Z 32
_cell_length_a 21.747336
_cell_length_b 8.952187
_cell_length_c 28.137788
_cell_angle_alpha 90.000000
_cell_angle_beta 17.205138
_cell_angle_gamma 90.000000
_cell_volume 1620.369660
_symmetry_space_group_name_H-M "P 21/M"
_symmetry_group_IT_number 11
_symmetry_cell_setting 'monoclinic'
loop_
_space_group_symop_operation_xyz
x,y,z
-x,1/2+y,-z
-x,-y,-z
x,1/2-y,z
loop_
_atom_site_type_symbol
_atom_site_label
_atom_site_fract_x
_atom_site_fract_y
_atom_site_fract_z
Si Si1 0.907889 0.075488 0.401855
Si Si2 0.735419 0.918991 0.226897
Si Si3 0.346974 0.572985 0.075699
Si Si4 0.602834 0.917631 0.058430
Si Si5 0.915201 0.085274 0.289158
Si Si6 0.174963 0.922141 0.935070
Si Si7 0.500279 0.073665 0.761563
Si Si8 0.591744 0.920885 0.476918
O O1 0.962536 0.250000 0.367945
O O2 0.843863 0.040785 0.395007
O O3 0.717130 0.026151 0.576479
O O4 0.115578 0.982455 0.259660
O O5 0.649159 0.750000 0.289503
O O6 0.796278 0.963790 0.129157
O O7 0.553878 0.035136 0.371887
O O8 0.923481 0.928226 0.126964
O O9 0.353556 0.750000 0.074822
O O10 0.500000 0.500000 0.000000
O O11 0.428630 0.527533 0.962796
O O12 0.536616 0.750000 0.091699
O O13 0.478060 0.966881 0.198211
O O14 0.840960 0.919717 0.897526
O O15 0.829759 0.250000 0.340447
O O16 0.824451 0.970309 0.317979
O O17 0.240608 0.750000 0.875907
O O18 0.305595 0.982781 0.883440
O O19 0.458406 0.250000 0.785897
O O20 0.591954 0.750000 0.465175
O O21 0.500000 0.000000 0.500000
#
# Coordination Sequence:
#
# PCOD8074377 Si02
#       8
#     4   4   4   4   4   4   4   4
#     4   9  19  37  61  89 119 151 189 230 277 338
#     4  10  21  38  54  74 103 140 189 240 295 351
#     4  11  22  39  65  92 120 156 194 233 278 332
#     4   9  20  38  60  89 121 154 192 232 285 346
#     4   9  18  35  56  79 111 151 192 238 287 344
#     4  10  21  35  55  80 107 143 186 237 288 345
#     4  10  20  35  59  88 119 154 188 233 290 345
#     4  12  25  37  52  74 104 142 190 244 297 349
#
# _framework density 19.74858
#
# number of rings (size 3 to 8) (size 9 to 14) (size 15 to 20)
#    0.000    2.000    0.000    4.500    1.750    5.500 
#    0.000    0.625    0.000    0.000    0.000    0.000 
#    0.000    0.000    0.000    0.000    0.000    0.000 
#
# Total GULP energy -396650.599048 kJ/mol
# GULP energy per Si atom -12395.331220 kJ/mol
# Density = 1.970363 g / cm^3
# Si number density = 19.748580 Si / 1000 Ang^3
#
#
#
# Elastic Constant Matrix: (Units=GPa)
#
#
# Indices 1 2 3 4 5 6 
#
# 1 104.3666 57.7023 34.8933 0.0000 -7.2342 0.0000
# 2 57.7023 124.2788 27.3686 0.0000 -15.1540 0.0000
# 3 34.8933 27.3686 54.2559 0.0000 7.3288 0.0000
# 4 0.0000 0.0000 0.0000 27.9938 0.0000 -4.0961
# 5 -7.2342 -15.1540 7.3288 0.0000 29.0651 0.0000
# 6 0.0000 0.0000 0.0000 -4.0961 0.0000 35.3858
#
#
#
# Elastic Compliance Matrix: (Units=1/GPa)
#
#
# Indices 1 2 3 4 5 6 
#
# 1 0.015078 -0.004945 -0.007621 0.000000 0.003096 0.000000
# 2 -0.004945 0.011845 -0.003585 0.000000 0.005849 0.000000
# 3 -0.007621 -0.003585 0.026554 0.000000 -0.010461 0.000000
# 4 0.000000 0.000000 0.000000 0.036338 0.000000 0.004206
# 5 0.003096 0.005849 -0.010461 0.000000 0.040863 0.000000
# 6 0.000000 0.000000 0.000000 0.004206 0.000000 0.028747
#
#
# Mechanical properties :
#
#
# Convention : Reuss Voigt Hill
#
# Bulk Modulus (GPa) = 47.22455 58.09222 52.65839
# Shear Modulus (GPa) = 25.15279 29.35141 27.25210
#
# Velocity S-wave (km/s) = 3.57270 3.85938 3.71880
# Velocity P-wave (km/s) = 6.40185 7.02421 6.72024
#
# Compressibility (1/GPa) = 0.02117543
#
# Stress axis : x y z
#
# Youngs Moduli (GPa) = 66.32123 84.42396 37.65923
#
# Poissons Ratio (x) = 0.41747 0.28700
# Poissons Ratio (y) = 0.32795 0.13501
# Poissons Ratio (z) = 0.50543 0.30265
#
# Static dielectric constant tensor:
#      x y z
#    x 3.588720 0.000000 0.420340 
#    y 0.000000 3.521410 0.000000 
#    z 0.420340 0.000000 5.080020 
# 
# 
# High freq. dielectric constant tensor:
#      x y z
#    x 1.762340 0.000000 0.005900 
#    y 0.000000 1.767890 0.000000 
#    z 0.005900 0.000000 1.765040 
# 
# From -- ./inp_files/71972.got.cif
#   From: 2010.06.25/outbox.cif.g09.slc.cpg/sg11_36_cif.got.tgz:71972.got - 2010.06.27 23:14:04.
