data_PCOD8074697
_publ_section_title
;
Structure prediction by ZEFSAII (Michael W. Deem and Ramdas Pophale) SiO2 
 PCOD8074697
Probable space group: P 21/M
;
_chemical_formula_sum "Si O2"
_cell_formula_units_Z 32
_cell_length_a 28.820129
_cell_length_b 9.307693
_cell_length_c 12.277003
_cell_angle_alpha 90.000000
_cell_angle_beta 30.537664
_cell_angle_gamma 90.000000
_cell_volume 1673.337354
_symmetry_space_group_name_H-M "P 21/M"
_symmetry_group_IT_number 11
_symmetry_cell_setting 'monoclinic'
loop_
_space_group_symop_operation_xyz
x,y,z
-x,1/2+y,-z
-x,-y,-z
x,1/2-y,z
loop_
_atom_site_type_symbol
_atom_site_label
_atom_site_fract_x
_atom_site_fract_y
_atom_site_fract_z
Si Si1 0.549237 0.413036 0.493478
Si Si2 0.712956 0.586903 0.112307
Si Si3 0.776632 0.081233 0.779755
Si Si4 0.019606 0.918528 0.572213
Si Si5 0.293957 0.584649 0.533263
Si Si6 0.157766 0.088882 0.956835
Si Si7 0.495295 0.587483 0.178329
Si Si8 0.671404 0.414315 0.777953
O O1 0.500000 0.500000 0.500000
O O2 0.568271 0.250000 0.417312
O O3 0.643353 0.495657 0.327178
O O4 0.488602 0.416140 0.724501
O O5 0.677908 0.750000 0.163806
O O6 0.805570 0.584593 0.993271
O O7 0.721239 0.509663 0.979912
O O8 0.761375 0.250000 0.832132
O O9 0.882819 0.039748 0.574133
O O10 0.737992 0.033323 0.740077
O O11 0.013162 0.750000 0.558878
O O12 0.000000 0.000000 0.500000
O O13 0.946963 0.961232 0.814151
O O14 0.292866 0.750000 0.572662
O O15 0.212524 0.509124 0.762563
O O16 0.395195 0.521730 0.353595
O O17 0.273665 0.565753 0.445881
O O18 0.163849 0.250000 0.897497
O O19 0.500533 0.750000 0.122552
O O20 0.576025 0.498245 0.960498
O O21 0.643743 0.250000 0.852889
#
# Coordination Sequence:
#
# PCOD8074697 Si02
#       8
#     4   4   4   4   4   4   4   4
#     4  11  22  35  51  77 113 150 188 227 279 337
#     4  11  21  34  54  81 113 146 184 229 277 331
#     4  10  21  37  58  83 114 150 183 226 285 339
#     4  10  20  36  58  85 115 145 182 227 278 337
#     4  10  21  39  59  80 110 147 190 232 273 327
#     4  10  21  36  56  84 112 141 182 231 279 328
#     4  10  21  36  55  79 107 144 187 231 275 323
#     4  10  22  38  57  82 110 145 188 231 275 328
#
# _framework density 19.123459
#
# number of rings (size 3 to 8) (size 9 to 14) (size 15 to 20)
#    0.000    1.750    2.500    1.875    0.000    5.500 
#    0.000    0.625    0.000    0.000    0.000    0.000 
#    0.000    0.000    0.000    0.000    0.000    0.000 
#
# Total GULP energy -396770.712091 kJ/mol
# GULP energy per Si atom -12399.084753 kJ/mol
# Density = 1.907993 g / cm^3
# Si number density = 19.123459 Si / 1000 Ang^3
#
#
#
# Elastic Constant Matrix: (Units=GPa)
#
#
# Indices 1 2 3 4 5 6 
#
# 1 69.7587 23.8789 34.3281 0.0000 7.2164 0.0000
# 2 23.8789 79.4286 47.2082 0.0000 3.1386 0.0000
# 3 34.3281 47.2082 114.0726 0.0000 -0.1576 0.0000
# 4 0.0000 0.0000 0.0000 32.6447 0.0000 1.7428
# 5 7.2164 3.1386 -0.1576 0.0000 28.3808 0.0000
# 6 0.0000 0.0000 0.0000 1.7428 0.0000 23.2105
#
#
#
# Elastic Compliance Matrix: (Units=1/GPa)
#
#
# Indices 1 2 3 4 5 6 
#
# 1 0.017777 -0.002644 -0.004261 0.000000 -0.004251 0.000000
# 2 -0.002644 0.017191 -0.006321 0.000000 -0.001264 0.000000
# 3 -0.004261 -0.006321 0.012667 0.000000 0.001853 0.000000
# 4 0.000000 0.000000 0.000000 0.030756 0.000000 -0.002309
# 5 -0.004251 -0.001264 0.001853 0.000000 0.036466 0.000000
# 6 0.000000 0.000000 0.000000 -0.002309 0.000000 0.043257
#
#
# Mechanical properties :
#
#
# Convention : Reuss Voigt Hill
#
# Bulk Modulus (GPa) = 47.20585 52.67669 49.94127
# Shear Modulus (GPa) = 26.09224 27.37018 26.73121
#
# Velocity S-wave (km/s) = 3.69780 3.78727 3.74280
# Velocity P-wave (km/s) = 6.55515 6.83593 6.69701
#
# Compressibility (1/GPa) = 0.02118382
#
# Stress axis : x y z
#
# Youngs Moduli (GPa) = 56.25280 58.16885 78.94451
#
# Poissons Ratio (x) = 0.15377 0.33642
# Poissons Ratio (y) = 0.14871 0.49899
# Poissons Ratio (z) = 0.23972 0.36767
#
# Static dielectric constant tensor:
#      x y z
#    x 3.548580 0.000000 -0.191360 
#    y 0.000000 3.566880 0.000000 
#    z -0.191360 0.000000 3.724390 
# 
# 
# High freq. dielectric constant tensor:
#      x y z
#    x 1.738670 0.000000 -0.000430 
#    y 0.000000 1.740230 0.000000 
#    z -0.000430 0.000000 1.742470 
# 
# From -- ./inp_files/45205.got.cif
#   From: 2010.06.25/outbox.cif.g09.slc.cpg/sg11_23_cif.got.tgz:45205.got - 2010.06.27 23:14:04.
