data_PCOD8074000
_publ_section_title
;
Structure prediction by ZEFSAII (Michael W. Deem and Ramdas Pophale) SiO2 
 PCOD8074000
Probable space group: P 21/M
;
_chemical_formula_sum "Si O2"
_cell_formula_units_Z 32
_cell_length_a 14.549368
_cell_length_b 14.790544
_cell_length_c 11.535808
_cell_angle_alpha 90.000000
_cell_angle_beta 140.610222
_cell_angle_gamma 90.000000
_cell_volume 1575.329216
_symmetry_space_group_name_H-M "P 21/M"
_symmetry_group_IT_number 11
_symmetry_cell_setting 'monoclinic'
loop_
_space_group_symop_operation_xyz
x,y,z
-x,1/2+y,-z
-x,-y,-z
x,1/2-y,z
loop_
_atom_site_type_symbol
_atom_site_label
_atom_site_fract_x
_atom_site_fract_y
_atom_site_fract_z
Si Si1 0.746783 0.349221 0.283416
Si Si2 0.370567 0.856624 0.593687
Si Si3 0.740403 0.854351 0.475746
Si Si4 0.689532 0.647485 0.986839
Si Si5 0.118703 0.009018 0.955514
Si Si6 0.206111 0.505813 0.294521
Si Si7 0.549761 0.900009 0.079434
Si Si8 0.063883 0.645392 0.734098
O O1 0.806828 0.250000 0.368823
O O2 0.718798 0.396302 0.381031
O O3 0.865203 0.396399 0.315066
O O4 0.593942 0.339290 0.067062
O O5 0.343571 0.750000 0.550541
O O6 0.539730 0.876527 0.776253
O O7 0.314750 0.912072 0.429293
O O8 0.711851 0.750000 0.481789
O O9 0.614402 0.892489 0.270825
O O10 0.891910 0.864683 0.555733
O O11 0.742589 0.912639 0.595517
O O12 0.736317 0.750000 0.006679
O O13 0.817912 0.583906 0.068597
O O14 0.669652 0.634602 0.105235
O O15 0.953926 0.035835 0.822441
O O16 0.125455 0.910377 0.903135
O O17 0.213750 0.007991 0.164514
O O18 0.500000 0.000000 0.000000
O O19 0.110439 0.750000 0.797519
#
# Coordination Sequence:
#
# PCOD8074000 Si02
#       8
#     4   4   4   4   4   4   4   4
#     4   9  17  32  53  78 108 137 169 211 265 328
#     4   9  19  36  57  81 110 142 176 223 279 333
#     4  10  20  35  55  80 111 144 181 227 277 329
#     4  10  21  37  56  81 113 145 180 225 278 334
#     4  10  22  38  55  77 107 145 188 233 278 326
#     4  10  22  38  55  78 107 144 191 233 274 329
#     4  11  20  33  56  83 111 144 177 217 271 331
#     4   9  19  35  55  80 110 143 181 229 279 330
#
# _framework density 20.313215
#
# number of rings (size 3 to 8) (size 9 to 14) (size 15 to 20)
#    0.000    2.250    0.000    4.125    0.000    3.000 
#    0.000    6.875    0.000    1.500    0.000    0.000 
#    0.000    0.000    0.000    0.000    0.000    0.000 
#
# Total GULP energy -396732.856689 kJ/mol
# GULP energy per Si atom -12397.901772 kJ/mol
# Density = 2.026698 g / cm^3
# Si number density = 20.313215 Si / 1000 Ang^3
#
#
#
# Elastic Constant Matrix: (Units=GPa)
#
#
# Indices 1 2 3 4 5 6 
#
# 1 32.5321 9.1741 -11.2865 0.0000 4.1762 0.0000
# 2 9.1741 92.0509 28.7088 0.0000 0.3906 0.0000
# 3 -11.2865 28.7088 78.3780 0.0000 -16.0662 0.0000
# 4 0.0000 0.0000 0.0000 31.7194 0.0000 5.2010
# 5 4.1762 0.3906 -16.0662 0.0000 17.6058 0.0000
# 6 0.0000 0.0000 0.0000 5.2010 0.0000 23.5550
#
#
#
# Elastic Compliance Matrix: (Units=1/GPa)
#
#
# Indices 1 2 3 4 5 6 
#
# 1 0.034863 -0.005528 0.006612 0.000000 -0.002113 0.000000
# 2 -0.005528 0.013569 -0.006838 0.000000 -0.005230 0.000000
# 3 0.006612 -0.006838 0.019590 0.000000 0.016460 0.000000
# 4 0.000000 0.000000 0.000000 0.032711 0.000000 -0.007223
# 5 -0.002113 -0.005230 0.016460 0.000000 0.072437 0.000000
# 6 0.000000 0.000000 0.000000 -0.007223 0.000000 0.044049
#
#
# Mechanical properties :
#
#
# Convention : Reuss Voigt Hill
#
# Bulk Modulus (GPa) = 17.69496 28.46152 23.07824
# Shear Modulus (GPa) = 20.19675 26.33369 23.26522
#
# Velocity S-wave (km/s) = 3.15662 3.60444 3.38794
# Velocity P-wave (km/s) = 4.69208 5.60039 5.16624
#
# Compressibility (1/GPa) = 0.05651328
#
# Stress axis : x y z
#
# Youngs Moduli (GPa) = 28.68386 73.69522 51.04755
#
# Poissons Ratio (x) = 0.40736 -0.33751
# Poissons Ratio (y) = 0.15855 0.34908
# Poissons Ratio (z) = -0.18965 0.50396
#
# Static dielectric constant tensor:
#      x y z
#    x 3.635370 0.000000 0.023100 
#    y 0.000000 3.786860 0.000000 
#    z 0.023100 0.000000 3.592580 
# 
# 
# High freq. dielectric constant tensor:
#      x y z
#    x 1.780120 0.000000 0.003690 
#    y 0.000000 1.796690 0.000000 
#    z 0.003690 0.000000 1.784470 
# 
# From -- ./inp_files/22187.got.cif
#   From: 2010.06.25/outbox.cif.g09.slc.cpg/sg11_12_cif.got.tgz:22187.got - 2010.06.27 23:14:04.
