data_PCOD8074770
_publ_section_title
;
Structure prediction by ZEFSAII (Michael W. Deem and Ramdas Pophale) SiO2 
 PCOD8074770
Probable space group: P 21/M
;
_chemical_formula_sum "Si O2"
_cell_formula_units_Z 24
_cell_length_a 15.062321
_cell_length_b 8.793766
_cell_length_c 14.791704
_cell_angle_alpha 90.000000
_cell_angle_beta 40.094698
_cell_angle_gamma 90.000000
_cell_volume 1261.846458
_symmetry_space_group_name_H-M "P 21/M"
_symmetry_group_IT_number 11
_symmetry_cell_setting 'monoclinic'
loop_
_space_group_symop_operation_xyz
x,y,z
-x,1/2+y,-z
-x,-y,-z
x,1/2-y,z
loop_
_atom_site_type_symbol
_atom_site_label
_atom_site_fract_x
_atom_site_fract_y
_atom_site_fract_z
Si Si1 0.373908 0.930218 0.836257
Si Si2 0.361702 0.928442 0.644217
Si Si3 0.321729 0.430470 0.356908
Si Si4 0.843421 0.071486 0.351503
Si Si5 0.860711 0.427774 0.644950
Si Si6 0.129676 0.928237 0.153003
O O1 0.379533 0.750000 0.834698
O O2 0.332647 0.988328 0.768298
O O3 0.524737 0.993847 0.744774
O O4 0.261429 0.989611 0.995033
O O5 0.385421 0.750000 0.626615
O O6 0.234254 0.974707 0.680145
O O7 0.500000 0.000000 0.500000
O O8 0.317215 0.250000 0.353923
O O9 0.220719 0.481023 0.515252
O O10 0.270559 0.500006 0.302507
O O11 0.832398 0.250000 0.380045
O O12 0.000511 0.022162 0.216668
O O13 0.866384 0.250000 0.620485
O O14 0.842795 0.464021 0.764070
O O15 0.000000 0.500000 0.500000
O O16 0.102950 0.750000 0.157343
#
# Coordination Sequence:
#
# PCOD8074770 Si02
#       6
#     4   4   4   4   4   4
#     4   9  20  39  60  84 116 152 192 235 284 344
#     4  10  20  36  59  86 116 150 190 236 283 336
#     4  11  21  36  61  86 112 152 194 236 287 341
#     4  11  22  35  57  88 118 148 190 241 285 335
#     4  11  22  36  58  86 116 150 195 240 284 340
#     4  10  22  40  60  82 114 156 193 232 287 345
#
# _framework density 19.019746000000001
#
# number of rings (size 3 to 8) (size 9 to 14) (size 15 to 20)
#    0.000    1.667    3.333    1.500    0.000    2.667 
#    0.000    2.500    0.000    0.000    0.000    0.000 
#    0.000    0.000    0.000    0.000    0.000    0.000 
#
# Total GULP energy -297678.526929 kJ/mol
# GULP energy per Si atom -12403.271955 kJ/mol
# Density = 1.897646 g / cm^3
# Si number density = 19.019746 Si / 1000 Ang^3
#
#
#
# Elastic Constant Matrix: (Units=GPa)
#
#
# Indices 1 2 3 4 5 6 
#
# 1 166.5064 42.6532 62.1147 0.0000 0.9895 0.0000
# 2 42.6532 50.8723 21.3740 0.0000 3.7095 0.0000
# 3 62.1147 21.3740 132.7591 0.0000 4.3253 0.0000
# 4 0.0000 0.0000 0.0000 20.3065 0.0000 -3.9818
# 5 0.9895 3.7095 4.3253 0.0000 34.4829 0.0000
# 6 0.0000 0.0000 0.0000 -3.9818 0.0000 29.9111
#
#
#
# Elastic Compliance Matrix: (Units=1/GPa)
#
#
# Indices 1 2 3 4 5 6 
#
# 1 0.008720 -0.006053 -0.003131 0.000000 0.000794 0.000000
# 2 -0.006053 0.025404 -0.001179 0.000000 -0.002411 0.000000
# 3 -0.003131 -0.001179 0.009218 0.000000 -0.000940 0.000000
# 4 0.000000 0.000000 0.000000 0.050565 0.000000 0.006731
# 5 0.000794 -0.002411 -0.000940 0.000000 0.029354 0.000000
# 6 0.000000 0.000000 0.000000 0.006731 0.000000 0.034328
#
#
# Mechanical properties :
#
#
# Convention : Reuss Voigt Hill
#
# Bulk Modulus (GPa) = 44.22016 66.93574 55.57795
# Shear Modulus (GPa) = 26.90279 31.87316 29.38798
#
# Velocity S-wave (km/s) = 3.76502 4.09809 3.93508
# Velocity P-wave (km/s) = 6.49620 7.59352 7.06619
#
# Compressibility (1/GPa) = 0.02261412
#
# Stress axis : x y z
#
# Youngs Moduli (GPa) = 114.68247 39.36445 108.48542
#
# Poissons Ratio (x) = 0.23829 0.33967
# Poissons Ratio (y) = 0.69421 0.12793
# Poissons Ratio (z) = 0.35907 0.04642
#
# Static dielectric constant tensor:
#      x y z
#    x 3.956170 0.000000 0.038280 
#    y 0.000000 3.361450 0.000000 
#    z 0.038280 0.000000 3.644730 
# 
# 
# High freq. dielectric constant tensor:
#      x y z
#    x 1.758950 0.000000 0.000920 
#    y 0.000000 1.727450 0.000000 
#    z 0.000920 0.000000 1.736810 
# 
# From -- ./inp_files/20636.got.cif
#   From: 2010.06.25/outbox.cif.g09.slc.cpg/sg11_11_cif.got.tgz:20636.got - 2010.06.27 23:14:04.
