data_PCOD8074291
_publ_section_title
;
Structure prediction by ZEFSAII (Michael W. Deem and Ramdas Pophale) SiO2 
 PCOD8074291
Probable space group: P 21/M
;
_chemical_formula_sum "Si O2"
_cell_formula_units_Z 32
_cell_length_a 12.152747
_cell_length_b 8.767597
_cell_length_c 28.673691
_cell_angle_alpha 90.000000
_cell_angle_beta 34.351434
_cell_angle_gamma 90.000000
_cell_volume 1723.945770
_symmetry_space_group_name_H-M "P 21/M"
_symmetry_group_IT_number 11
_symmetry_cell_setting 'monoclinic'
loop_
_space_group_symop_operation_xyz
x,y,z
-x,1/2+y,-z
-x,-y,-z
x,1/2-y,z
loop_
_atom_site_type_symbol
_atom_site_label
_atom_site_fract_x
_atom_site_fract_y
_atom_site_fract_z
Si Si1 0.830383 0.928645 0.528575
Si Si2 0.460428 0.427331 0.231984
Si Si3 0.492387 0.569810 0.122922
Si Si4 0.081549 0.427670 0.252888
Si Si5 0.661999 0.429303 0.976471
Si Si6 0.006534 0.075939 0.382367
Si Si7 0.060076 0.073136 0.786594
Si Si8 0.450216 0.070934 0.704222
O O1 0.829540 0.750000 0.537447
O O2 0.868834 0.966469 0.460854
O O3 0.622744 0.993669 0.615341
O O4 0.000000 0.000000 0.500000
O O5 0.512223 0.250000 0.212845
O O6 0.539268 0.501881 0.157097
O O7 0.567630 0.506766 0.237427
O O8 0.230105 0.454421 0.317918
O O9 0.509250 0.750000 0.118963
O O10 0.278429 0.524581 0.179558
O O11 0.650227 0.503173 0.031786
O O12 0.138987 0.250000 0.230675
O O13 0.973748 0.463142 0.339465
O O14 0.938233 0.474529 0.261392
O O15 0.626232 0.250000 0.992360
O O16 0.874281 0.469890 0.882699
O O17 0.500000 0.500000 0.000000
O O18 0.949237 0.250000 0.413307
O O19 0.058917 0.250000 0.773083
O O20 0.250859 0.028255 0.748382
O O21 0.488182 0.250000 0.693190
#
# Coordination Sequence:
#
# PCOD8074291 Si02
#       8
#     4   4   4   4   4   4   4   4
#     4  12  23  36  58  87 116 150 193 241 286 340
#     4  10  20  36  58  85 116 150 191 239 288 342
#     4  11  21  34  56  86 118 151 191 240 290 342
#     4  10  20  35  58  85 116 151 191 238 289 342
#     4  11  21  36  58  87 117 150 194 243 290 343
#     4   9  19  35  56  85 116 145 186 239 289 337
#     4  10  23  40  59  84 118 155 193 236 290 350
#     4  11  23  40  60  84 117 156 192 236 291 350
#
# _framework density 18.562069999999999
#
# number of rings (size 3 to 8) (size 9 to 14) (size 15 to 20)
#    0.000    1.500    2.500    4.500    0.000    4.000 
#    0.000    1.250    0.000    0.000    0.000    0.000 
#    0.000    0.000    0.000    0.000    0.000    0.000 
#
# Total GULP energy -396957.639174 kJ/mol
# GULP energy per Si atom -12404.926224 kJ/mol
# Density = 1.851982 g / cm^3
# Si number density = 18.562070 Si / 1000 Ang^3
#
#
#
# Elastic Constant Matrix: (Units=GPa)
#
#
# Indices 1 2 3 4 5 6 
#
# 1 141.9949 69.6853 74.3271 0.0000 15.6189 0.0000
# 2 69.6853 128.9934 61.9155 0.0000 6.5824 0.0000
# 3 74.3271 61.9155 115.5139 0.0000 9.2442 0.0000
# 4 0.0000 0.0000 0.0000 29.3136 0.0000 7.1947
# 5 15.6189 6.5824 9.2442 0.0000 30.8446 0.0000
# 6 0.0000 0.0000 0.0000 7.1947 0.0000 33.8724
#
#
#
# Elastic Compliance Matrix: (Units=1/GPa)
#
#
# Indices 1 2 3 4 5 6 
#
# 1 0.012183 -0.003732 -0.005542 0.000000 -0.003712 0.000000
# 2 -0.003732 0.011591 -0.003857 0.000000 0.000572 0.000000
# 3 -0.005542 -0.003857 0.014344 0.000000 -0.000670 0.000000
# 4 0.000000 0.000000 0.000000 0.035990 0.000000 -0.007644
# 5 -0.003712 0.000572 -0.000670 0.000000 0.034379 0.000000
# 6 0.000000 0.000000 0.000000 -0.007644 0.000000 0.031146
#
#
# Mechanical properties :
#
#
# Convention : Reuss Voigt Hill
#
# Bulk Modulus (GPa) = 84.34696 88.70645 86.52670
# Shear Modulus (GPa) = 29.43835 30.84440 30.14137
#
# Velocity S-wave (km/s) = 3.98671 4.08080 4.03403
# Velocity P-wave (km/s) = 8.16890 8.37238 8.27127
#
# Compressibility (1/GPa) = 0.01185579
#
# Stress axis : x y z
#
# Youngs Moduli (GPa) = 82.07974 86.27628 69.71730
#
# Poissons Ratio (x) = 0.32201 0.38635
# Poissons Ratio (y) = 0.30635 0.26889
# Poissons Ratio (z) = 0.45486 0.33276
#
# Static dielectric constant tensor:
#      x y z
#    x 3.428830 0.000000 0.252540 
#    y 0.000000 3.527910 0.000000 
#    z 0.252540 0.000000 3.487640 
# 
# 
# High freq. dielectric constant tensor:
#      x y z
#    x 1.718100 0.000000 0.025750 
#    y 0.000000 1.732910 0.000000 
#    z 0.025750 0.000000 1.710150 
# 
# From -- ./inp_files/73036.got.cif
#   From: 2010.06.25/outbox.cif.g09.slc.cpg/sg11_37_cif.got.tgz:73036.got - 2010.06.27 23:14:04.
