data_PCOD8074481
_publ_section_title
;
Structure prediction by ZEFSAII (Michael W. Deem and Ramdas Pophale) SiO2 
 PCOD8074481
Probable space group: P 21/M
;
_chemical_formula_sum "Si O2"
_cell_formula_units_Z 28
_cell_length_a 23.107990
_cell_length_b 9.081563
_cell_length_c 18.394342
_cell_angle_alpha 90.000000
_cell_angle_beta 156.014134
_cell_angle_gamma 90.000000
_cell_volume 1569.204776
_symmetry_space_group_name_H-M "P 21/M"
_symmetry_group_IT_number 11
_symmetry_cell_setting 'monoclinic'
loop_
_space_group_symop_operation_xyz
x,y,z
-x,1/2+y,-z
-x,-y,-z
x,1/2-y,z
loop_
_atom_site_type_symbol
_atom_site_label
_atom_site_fract_x
_atom_site_fract_y
_atom_site_fract_z
Si Si1 0.992054 0.924347 0.263656
Si Si2 0.360724 0.580956 0.366371
Si Si3 0.935738 0.417647 0.493869
Si Si4 0.376238 0.578396 0.814521
Si Si5 0.275553 0.076106 0.556544
Si Si6 0.263986 0.918133 0.102271
Si Si7 0.412009 0.420073 0.560457
O O1 0.017700 0.750000 0.285585
O O2 0.994051 0.973227 0.350362
O O3 0.118099 0.009203 0.366775
O O4 0.842325 0.969576 0.058003
O O5 0.500000 0.500000 0.500000
O O6 0.397186 0.750000 0.422267
O O7 0.246212 0.564643 0.169569
O O8 0.314254 0.508249 0.389624
O O9 0.975861 0.250000 0.527737
O O10 0.766642 0.441874 0.302701
O O11 0.000000 0.500000 0.500000
O O12 0.411200 0.750000 0.842533
O O13 0.361134 0.501362 0.719398
O O14 0.500000 0.500000 0.000000
O O15 0.265609 0.250000 0.559677
O O16 0.362166 0.038310 0.583443
O O17 0.229586 0.750000 0.039813
O O18 0.422076 0.961828 0.257456
O O19 0.387834 0.250000 0.515335
#
# Coordination Sequence:
#
# PCOD8074481 Si02
#       7
#     4   4   4   4   4   4   4
#     4  10  21  36  52  75 105 136 171 210 252 305
#     4   9  17  30  50  75 104 135 170 212 259 306
#     4   9  20  36  53  75 102 131 168 210 252 300
#     4  10  21  37  55  78 106 136 172 212 254 305
#     4  10  20  36  56  77 104 138 171 210 260 308
#     4   9  18  33  52  76 103 133 169 210 254 302
#     4   9  19  34  53  78 105 133 172 216 258 306
#
# _framework density 17.843433000000001
#
# number of rings (size 3 to 8) (size 9 to 14) (size 15 to 20)
#    0.000    2.571    0.000    3.429    0.000    8.571 
#    0.000    5.000    0.000    0.000    0.000    0.000 
#    0.000    0.000    0.000    0.000    0.000    0.000 
#
# Total GULP energy -347141.209303 kJ/mol
# GULP energy per Si atom -12397.900332 kJ/mol
# Density = 1.780282 g / cm^3
# Si number density = 17.843433 Si / 1000 Ang^3
#
#
#
# Elastic Constant Matrix: (Units=GPa)
#
#
# Indices 1 2 3 4 5 6 
#
# 1 120.2775 63.7386 56.3875 0.0000 -13.3718 0.0000
# 2 63.7386 101.9083 54.3474 0.0000 -10.5921 0.0000
# 3 56.3875 54.3474 102.4916 0.0000 -9.7444 0.0000
# 4 0.0000 0.0000 0.0000 36.5150 0.0000 -3.8033
# 5 -13.3718 -10.5921 -9.7444 0.0000 15.0765 0.0000
# 6 0.0000 0.0000 0.0000 -3.8033 0.0000 32.5493
#
#
#
# Elastic Compliance Matrix: (Units=1/GPa)
#
#
# Indices 1 2 3 4 5 6 
#
# 1 0.014008 -0.006069 -0.003956 0.000000 0.005603 0.000000
# 2 -0.006069 0.016712 -0.005240 0.000000 0.002971 0.000000
# 3 -0.003956 -0.005240 0.014947 0.000000 0.002471 0.000000
# 4 0.000000 0.000000 0.000000 0.027723 0.000000 0.003239
# 5 0.005603 0.002971 0.002471 0.000000 0.074982 0.000000
# 6 0.000000 0.000000 0.000000 0.003239 0.000000 0.031101
#
#
# Mechanical properties :
#
#
# Convention : Reuss Voigt Hill
#
# Bulk Modulus (GPa) = 66.06541 74.84717 70.45629
# Shear Modulus (GPa) = 23.25050 26.84176 25.04613
#
# Velocity S-wave (km/s) = 3.61366 3.88273 3.75061
# Velocity P-wave (km/s) = 7.38355 7.88280 7.63726
#
# Compressibility (1/GPa) = 0.01513651
#
# Stress axis : x y z
#
# Youngs Moduli (GPa) = 71.38900 59.83649 66.90435
#
# Poissons Ratio (x) = 0.36316 0.26464
# Poissons Ratio (y) = 0.43328 0.35059
# Poissons Ratio (z) = 0.28238 0.31356
#
# Static dielectric constant tensor:
#      x y z
#    x 3.314520 0.000000 -0.151650 
#    y 0.000000 3.456090 0.000000 
#    z -0.151650 0.000000 3.307380 
# 
# 
# High freq. dielectric constant tensor:
#      x y z
#    x 1.684340 0.000000 -0.016110 
#    y 0.000000 1.701990 0.000000 
#    z -0.016110 0.000000 1.684560 
# 
# From -- ./inp_files/29041.got.cif
#   From: 2010.06.25/outbox.cif.g09.slc.cpg/sg11_15_cif.got.tgz:29041.got - 2010.06.27 23:14:04.
