data_PCOD8074035
_publ_section_title
;
Structure prediction by ZEFSAII (Michael W. Deem and Ramdas Pophale) SiO2 
 PCOD8074035
Probable space group: P 21/M
;
_chemical_formula_sum "Si O2"
_cell_formula_units_Z 28
_cell_length_a 7.827443
_cell_length_b 19.281695
_cell_length_c 16.389683
_cell_angle_alpha 90.000000
_cell_angle_beta 143.950979
_cell_angle_gamma 90.000000
_cell_volume 1455.678032
_symmetry_space_group_name_H-M "P 21/M"
_symmetry_group_IT_number 11
_symmetry_cell_setting 'monoclinic'
loop_
_space_group_symop_operation_xyz
x,y,z
-x,1/2+y,-z
-x,-y,-z
x,1/2-y,z
loop_
_atom_site_type_symbol
_atom_site_label
_atom_site_fract_x
_atom_site_fract_y
_atom_site_fract_z
Si Si1 0.841025 0.330798 0.087620
Si Si2 0.197814 0.831633 0.117298
Si Si3 0.576717 0.668780 0.932640
Si Si4 0.180888 0.524148 0.446608
Si Si5 0.731311 0.919153 0.381922
Si Si6 0.736762 0.598094 0.633879
Si Si7 0.055792 0.829985 0.623716
O O1 0.924524 0.250000 0.132615
O O2 0.790730 0.347918 0.974142
O O3 0.545790 0.348414 0.024187
O O4 0.104574 0.378691 0.221485
O O5 0.244267 0.750000 0.152100
O O6 0.445873 0.874615 0.257433
O O7 0.898026 0.860780 0.040597
O O8 0.594640 0.750000 0.925600
O O9 0.351906 0.639931 0.778055
O O10 0.332539 0.479717 0.577858
O O11 0.390849 0.590144 0.512524
O O12 0.144030 0.476769 0.351844
O O13 0.859392 0.549645 0.347399
O O14 0.991289 0.870663 0.516094
O O15 0.795438 0.656771 0.588053
O O16 0.078705 0.750000 0.611112
#
# Coordination Sequence:
#
# PCOD8074035 Si02
#       7
#     4   4   4   4   4   4   4
#     4   9  18  34  57  83 108 138 178 225 276 332
#     4  10  20  35  55  83 113 141 170 220 286 333
#     4   8  16  32  53  77 108 138 169 213 270 325
#     4   9  20  36  55  73 105 149 185 222 267 302
#     4  10  20  36  54  75 111 142 180 225 265 324
#     4   9  17  35  57  76 104 139 184 228 264 313
#     4   9  17  32  57  83 103 135 178 225 276 325
#
# _framework density 19.235022000000001
#
# number of rings (size 3 to 8) (size 9 to 14) (size 15 to 20)
#    0.000    2.857    0.000    1.714    2.000    0.000 
#    7.714    3.571    0.000    0.000    0.000    0.000 
#    0.000    0.000    0.000    0.000    0.000    0.000 
#
# Total GULP energy -347037.465284 kJ/mol
# GULP energy per Si atom -12394.195189 kJ/mol
# Density = 1.919124 g / cm^3
# Si number density = 19.235022 Si / 1000 Ang^3
#
#
#
# Elastic Constant Matrix: (Units=GPa)
#
#
# Indices 1 2 3 4 5 6 
#
# 1 76.7881 14.1975 28.4804 0.0000 16.1607 0.0000
# 2 14.1975 44.4229 27.4983 0.0000 8.4590 0.0000
# 3 28.4804 27.4983 75.8096 0.0000 15.1702 0.0000
# 4 0.0000 0.0000 0.0000 31.8884 0.0000 1.3129
# 5 16.1607 8.4590 15.1702 0.0000 26.1064 0.0000
# 6 0.0000 0.0000 0.0000 1.3129 0.0000 24.0868
#
#
#
# Elastic Compliance Matrix: (Units=1/GPa)
#
#
# Indices 1 2 3 4 5 6 
#
# 1 0.016351 -0.001212 -0.004250 0.000000 -0.007259 0.000000
# 2 -0.001212 0.029442 -0.009579 0.000000 -0.003223 0.000000
# 3 -0.004250 -0.009579 0.019367 0.000000 -0.005519 0.000000
# 4 0.000000 0.000000 0.000000 0.031430 0.000000 -0.001713
# 5 -0.007259 -0.003223 -0.005519 0.000000 0.047050 0.000000
# 6 0.000000 0.000000 0.000000 -0.001713 0.000000 0.041610
#
#
# Mechanical properties :
#
#
# Convention : Reuss Voigt Hill
#
# Bulk Modulus (GPa) = 28.50962 37.48590 32.99776
# Shear Modulus (GPa) = 22.02405 24.87261 23.44833
#
# Velocity S-wave (km/s) = 3.38745 3.59986 3.49527
# Velocity P-wave (km/s) = 5.49124 6.06707 5.78632
#
# Compressibility (1/GPa) = 0.03507588
#
# Stress axis : x y z
#
# Youngs Moduli (GPa) = 61.15740 33.96563 51.63504
#
# Poissons Ratio (x) = 0.04118 0.21947
# Poissons Ratio (y) = 0.07415 0.49460
# Poissons Ratio (z) = 0.25995 0.32535
#
# Static dielectric constant tensor:
#      x y z
#    x 3.674870 0.000000 0.090010 
#    y 0.000000 3.407530 0.000000 
#    z 0.090010 0.000000 3.357730 
# 
# 
# High freq. dielectric constant tensor:
#      x y z
#    x 1.755790 0.000000 0.001130 
#    y 0.000000 1.730610 0.000000 
#    z 0.001130 0.000000 1.724590 
# 
# From -- ./inp_files/58388.got.cif
#   From: 2010.06.25/outbox.cif.g09.slc.cpg/sg11_30_cif.got.tgz:58388.got - 2010.06.27 23:14:04.
