data_PCOD8074636
_publ_section_title
;
Structure prediction by ZEFSAII (Michael W. Deem and Ramdas Pophale) SiO2 
 PCOD8074636
Probable space group: P 21/M
;
_chemical_formula_sum "Si O2"
_cell_formula_units_Z 32
_cell_length_a 13.444640
_cell_length_b 8.890055
_cell_length_c 23.119335
_cell_angle_alpha 90.000000
_cell_angle_beta 34.548622
_cell_angle_gamma 90.000000
_cell_volume 1567.085690
_symmetry_space_group_name_H-M "P 21/M"
_symmetry_group_IT_number 11
_symmetry_cell_setting 'monoclinic'
loop_
_space_group_symop_operation_xyz
x,y,z
-x,1/2+y,-z
-x,-y,-z
x,1/2-y,z
loop_
_atom_site_type_symbol
_atom_site_label
_atom_site_fract_x
_atom_site_fract_y
_atom_site_fract_z
Si Si1 0.752226 0.920863 0.749105
Si Si2 0.614987 0.925119 0.395344
Si Si3 0.467434 0.571626 0.344133
Si Si4 0.432363 0.926049 0.820418
Si Si5 0.994410 0.572715 0.177539
Si Si6 0.916258 0.929252 0.982816
Si Si7 0.316568 0.925692 0.101415
Si Si8 0.922939 0.421321 0.482092
O O1 0.719372 0.750000 0.786460
O O2 0.618078 0.959699 0.761737
O O3 0.950002 0.942865 0.633076
O O4 0.731992 0.037916 0.809933
O O5 0.579021 0.750000 0.418736
O O6 0.552780 0.982759 0.362680
O O7 0.822731 0.962956 0.299144
O O8 0.500000 0.000000 0.500000
O O9 0.486354 0.750000 0.325788
O O10 0.566809 0.487585 0.244989
O O11 0.267002 0.514702 0.443051
O O12 0.387667 0.750000 0.841068
O O13 0.283472 0.013231 0.927617
O O14 0.003486 0.750000 0.159517
O O15 0.164256 0.515335 0.131545
O O16 0.980612 0.484732 0.123515
O O17 0.923862 0.750000 0.983168
O O18 0.000000 0.000000 0.000000
O O19 0.337861 0.750000 0.083255
O O20 0.500000 0.000000 0.000000
O O21 0.904463 0.250000 0.508965
O O22 0.000000 0.500000 0.500000
#
# Coordination Sequence:
#
# PCOD8074636 Si02
#       8
#     4   4   4   4   4   4   4   4
#     4  10  22  38  58  87 124 161 201 252 307 364
#     4  10  23  42  63  88 119 158 203 253 304 359
#     4  10  21  37  60  88 121 160 206 255 306 366
#     4  11  22  38  61  90 123 160 200 248 308 369
#     4  10  23  44  64  89 127 164 205 257 311 365
#     4  12  25  41  65  94 122 156 199 248 305 367
#     4  11  24  41  63  90 122 164 209 257 311 369
#     4  10  20  36  57  87 123 161 202 251 307 363
#
# _framework density 20.420071
#
# number of rings (size 3 to 8) (size 9 to 14) (size 15 to 20)
#    0.000    1.500    1.250    3.375    1.750    7.500 
#    0.000    0.000    0.000    0.000    0.000    0.000 
#    0.000    0.000    0.000    0.000    0.000    0.000 
#
# Total GULP energy -396898.172671 kJ/mol
# GULP energy per Si atom -12403.067896 kJ/mol
# Density = 2.037359 g / cm^3
# Si number density = 20.420071 Si / 1000 Ang^3
#
#
#
# Elastic Constant Matrix: (Units=GPa)
#
#
# Indices 1 2 3 4 5 6 
#
# 1 116.2446 40.4479 46.3690 0.0000 2.9434 0.0000
# 2 40.4479 75.0779 44.3276 0.0000 4.5874 0.0000
# 3 46.3690 44.3276 120.5159 0.0000 0.6932 0.0000
# 4 0.0000 0.0000 0.0000 39.4957 0.0000 5.9644
# 5 2.9434 4.5874 0.6932 0.0000 40.3581 0.0000
# 6 0.0000 0.0000 0.0000 5.9644 0.0000 31.9879
#
#
#
# Elastic Compliance Matrix: (Units=1/GPa)
#
#
# Indices 1 2 3 4 5 6 
#
# 1 0.011227 -0.004449 -0.002682 0.000000 -0.000267 0.000000
# 2 -0.004449 0.018913 -0.005235 0.000000 -0.001735 0.000000
# 3 -0.002682 -0.005235 0.011251 0.000000 0.000597 0.000000
# 4 0.000000 0.000000 0.000000 0.026053 0.000000 -0.004858
# 5 -0.000267 -0.001735 0.000597 0.000000 0.024985 0.000000
# 6 0.000000 0.000000 0.000000 -0.004858 0.000000 0.032168
#
#
# Mechanical properties :
#
#
# Convention : Reuss Voigt Hill
#
# Bulk Modulus (GPa) = 60.02130 63.79195 61.90662
# Shear Modulus (GPa) = 32.28283 34.41460 33.34871
#
# Velocity S-wave (km/s) = 3.98041 4.10973 4.04559
# Velocity P-wave (km/s) = 7.11210 7.33672 7.22529
#
# Compressibility (1/GPa) = 0.01666075
#
# Stress axis : x y z
#
# Youngs Moduli (GPa) = 89.07071 52.87346 88.87711
#
# Poissons Ratio (x) = 0.23523 0.23835
# Poissons Ratio (y) = 0.39626 0.46526
# Poissons Ratio (z) = 0.23887 0.27678
#
# Static dielectric constant tensor:
#      x y z
#    x 3.833750 0.000000 -0.206140 
#    y 0.000000 3.653390 0.000000 
#    z -0.206140 0.000000 4.223720 
# 
# 
# High freq. dielectric constant tensor:
#      x y z
#    x 1.804030 0.000000 -0.008300 
#    y 0.000000 1.789890 0.000000 
#    z -0.008300 0.000000 1.814770 
# 
# From -- ./inp_files/68972.got.cif
#   From: 2010.06.25/outbox.cif.g09.slc.cpg/sg11_35_cif.got.tgz:68972.got - 2010.06.27 23:14:04.
