data_PCOD8074634
_publ_section_title
;
Structure prediction by ZEFSAII (Michael W. Deem and Ramdas Pophale) SiO2 
 PCOD8074634
Probable space group: P 21/M
;
_chemical_formula_sum "Si O2"
_cell_formula_units_Z 28
_cell_length_a 25.911012
_cell_length_b 9.183258
_cell_length_c 9.864502
_cell_angle_alpha 90.000000
_cell_angle_beta 38.625177
_cell_angle_gamma 90.000000
_cell_volume 1465.197134
_symmetry_space_group_name_H-M "P 21/M"
_symmetry_group_IT_number 11
_symmetry_cell_setting 'monoclinic'
loop_
_space_group_symop_operation_xyz
x,y,z
-x,1/2+y,-z
-x,-y,-z
x,1/2-y,z
loop_
_atom_site_type_symbol
_atom_site_label
_atom_site_fract_x
_atom_site_fract_y
_atom_site_fract_z
Si Si1 0.064302 0.419283 0.773001
Si Si2 0.773716 0.081148 0.476465
Si Si3 0.753751 0.579549 0.968004
Si Si4 0.516700 0.580392 0.827016
Si Si5 0.352012 0.916079 0.029416
Si Si6 0.299123 0.079968 0.622284
Si Si7 0.936701 0.582300 0.535008
O O1 0.069951 0.250000 0.802307
O O2 0.152960 0.492508 0.605078
O O3 0.035072 0.437358 0.678050
O O4 0.000000 0.500000 0.000000
O O5 0.798845 0.250000 0.409400
O O6 0.694073 0.059392 0.733569
O O7 0.755135 0.015591 0.367857
O O8 0.751133 0.750000 0.946791
O O9 0.684370 0.512976 0.014514
O O10 0.844529 0.517582 0.745351
O O11 0.732826 0.538510 0.164215
O O12 0.511579 0.750000 0.871158
O O13 0.604845 0.536099 0.584374
O O14 0.500000 0.500000 0.000000
O O15 0.447238 0.538404 0.858495
O O16 0.343841 0.750000 0.998707
O O17 0.285819 0.250000 0.616598
O O18 0.937406 0.750000 0.577824
O O19 0.000000 0.500000 0.500000
#
# Coordination Sequence:
#
# PCOD8074634 Si02
#       7
#     4   4   4   4   4   4   4
#     4  11  24  42  63  91 121 154 197 244 294 351
#     4  11  22  38  61  89 120 156 199 243 290 348
#     4  10  22  41  60  85 117 155 197 238 291 358
#     4  10  20  36  57  86 120 154 198 246 296 347
#     4  10  21  37  59  86 118 157 197 243 292 346
#     4  10  22  38  60  88 120 157 198 247 296 346
#     4  10  23  41  61  85 117 153 193 237 292 353
#
# _framework density 19.110057000000001
#
# number of rings (size 3 to 8) (size 9 to 14) (size 15 to 20)
#    0.000    1.714    2.857    0.857    2.000    4.000 
#    0.000    0.000    0.000    0.000    0.000    0.000 
#    0.000    0.000    0.000    0.000    0.000    0.000 
#
# Total GULP energy -347317.267914 kJ/mol
# GULP energy per Si atom -12404.188140 kJ/mol
# Density = 1.906656 g / cm^3
# Si number density = 19.110057 Si / 1000 Ang^3
#
#
#
# Elastic Constant Matrix: (Units=GPa)
#
#
# Indices 1 2 3 4 5 6 
#
# 1 128.2283 56.2910 31.7494 0.0000 4.6913 0.0000
# 2 56.2910 77.5750 38.6774 0.0000 8.7976 0.0000
# 3 31.7494 38.6774 85.7379 0.0000 3.8549 0.0000
# 4 0.0000 0.0000 0.0000 27.9814 0.0000 2.0999
# 5 4.6913 8.7976 3.8549 0.0000 30.9014 0.0000
# 6 0.0000 0.0000 0.0000 2.0999 0.0000 42.1373
#
#
#
# Elastic Compliance Matrix: (Units=1/GPa)
#
#
# Indices 1 2 3 4 5 6 
#
# 1 0.011483 -0.008090 -0.000631 0.000000 0.000639 0.000000
# 2 -0.008090 0.022792 -0.007089 0.000000 -0.004376 0.000000
# 3 -0.000631 -0.007089 0.015085 0.000000 0.000232 0.000000
# 4 0.000000 0.000000 0.000000 0.035872 0.000000 -0.001788
# 5 0.000639 -0.004376 0.000232 0.000000 0.033481 0.000000
# 6 0.000000 0.000000 0.000000 -0.001788 0.000000 0.023821
#
#
# Mechanical properties :
#
#
# Convention : Reuss Voigt Hill
#
# Bulk Modulus (GPa) = 56.37451 60.55297 58.46374
# Shear Modulus (GPa) = 27.76724 31.19224 29.47974
#
# Velocity S-wave (km/s) = 3.81598 4.04448 3.93189
# Velocity P-wave (km/s) = 6.99854 7.31886 7.16049
#
# Compressibility (1/GPa) = 0.01773851
#
# Stress axis : x y z
#
# Youngs Moduli (GPa) = 87.08501 43.87506 66.29168
#
# Poissons Ratio (x) = 0.35495 0.04186
# Poissons Ratio (y) = 0.70452 0.46995
# Poissons Ratio (z) = 0.05499 0.31104
#
# Static dielectric constant tensor:
#      x y z
#    x 3.610290 0.000000 -0.139470 
#    y 0.000000 3.500340 0.000000 
#    z -0.139470 0.000000 3.649160 
# 
# 
# High freq. dielectric constant tensor:
#      x y z
#    x 1.752900 0.000000 -0.004540 
#    y 0.000000 1.741240 0.000000 
#    z -0.004540 0.000000 1.748080 
# 
# From -- ./inp_files/28374.got.cif
#   From: 2010.06.25/outbox.cif.g09.slc.cpg/sg11_15_cif.got.tgz:28374.got - 2010.06.27 23:14:04.
