data_PCOD8074981
_publ_section_title
;
Structure prediction by ZEFSAII (Michael W. Deem and Ramdas Pophale) SiO2 
 PCOD8074981
Probable space group: P 21/M
;
_chemical_formula_sum "Si O2"
_cell_formula_units_Z 32
_cell_length_a 11.688655
_cell_length_b 9.333309
_cell_length_c 32.797788
_cell_angle_alpha 90.000000
_cell_angle_beta 149.536268
_cell_angle_gamma 90.000000
_cell_volume 1814.038820
_symmetry_space_group_name_H-M "P 21/M"
_symmetry_group_IT_number 11
_symmetry_cell_setting 'monoclinic'
loop_
_space_group_symop_operation_xyz
x,y,z
-x,1/2+y,-z
-x,-y,-z
x,1/2-y,z
loop_
_atom_site_type_symbol
_atom_site_label
_atom_site_fract_x
_atom_site_fract_y
_atom_site_fract_z
Si Si1 0.200755 0.584401 0.462361
Si Si2 0.509526 0.917589 0.170219
Si Si3 0.973790 0.413483 0.678709
Si Si4 0.906400 0.417435 0.432540
Si Si5 0.675047 0.918695 0.645770
Si Si6 0.164979 0.084523 0.021388
Si Si7 0.793697 0.087137 0.846826
Si Si8 0.616473 0.584562 0.719726
O O1 0.153617 0.750000 0.460077
O O2 0.185174 0.562032 0.409220
O O3 0.446235 0.534982 0.552637
O O4 0.014674 0.483125 0.425392
O O5 0.467203 0.750000 0.149056
O O6 0.384045 0.965795 0.173290
O O7 0.771604 0.956578 0.254656
O O8 0.408207 0.007265 0.100599
O O9 0.963847 0.250000 0.690258
O O10 0.887965 0.509270 0.689507
O O11 0.965490 0.250000 0.454767
O O12 0.641286 0.443089 0.347792
O O13 0.000000 0.500000 0.500000
O O14 0.707922 0.750000 0.653579
O O15 0.663398 0.973432 0.688649
O O16 0.184936 0.250000 0.040893
O O17 0.053391 0.073158 0.942184
O O18 0.000000 0.000000 0.000000
O O19 0.735572 0.250000 0.817760
O O20 0.775889 0.995611 0.800499
O O21 0.679426 0.750000 0.741476
#
# Coordination Sequence:
#
# PCOD8074981 Si02
#       8
#     4   4   4   4   4   4   4   4
#     4  10  20  37  55  73 103 135 169 218 265 302
#     4   9  18  33  51  77 109 134 164 207 255 303
#     4  10  21  35  54  77 101 134 175 217 258 304
#     4  11  21  34  52  75 103 134 170 209 255 308
#     4  10  21  37  52  69 101 138 174 218 258 298
#     4   9  17  30  50  77 107 136 165 199 249 307
#     4   9  18  32  52  79 106 133 164 201 249 306
#     4  10  21  35  50  73 104 136 170 210 255 301
#
# _framework density 17.640194999999999
#
# number of rings (size 3 to 8) (size 9 to 14) (size 15 to 20)
#    0.000    2.250    1.250    2.625    0.000    6.500 
#    0.000    0.000    0.000    0.750    0.000    0.000 
#    0.000    0.000    0.000    0.000    0.000    0.000 
#
# Total GULP energy -396789.225748 kJ/mol
# GULP energy per Si atom -12399.663305 kJ/mol
# Density = 1.760005 g / cm^3
# Si number density = 17.640195 Si / 1000 Ang^3
#
#
#
# Elastic Constant Matrix: (Units=GPa)
#
#
# Indices 1 2 3 4 5 6 
#
# 1 84.7175 34.2016 39.5312 0.0000 -5.0463 0.0000
# 2 34.2016 65.5828 45.0029 0.0000 -8.5205 0.0000
# 3 39.5312 45.0029 113.1754 0.0000 -12.9324 0.0000
# 4 0.0000 0.0000 0.0000 32.4728 0.0000 -0.8322
# 5 -5.0463 -8.5205 -12.9324 0.0000 14.4941 0.0000
# 6 0.0000 0.0000 0.0000 -0.8322 0.0000 31.6026
#
#
#
# Elastic Compliance Matrix: (Units=1/GPa)
#
#
# Indices 1 2 3 4 5 6 
#
# 1 0.015699 -0.006152 -0.003147 0.000000 -0.000958 0.000000
# 2 -0.006152 0.023773 -0.006628 0.000000 0.005920 0.000000
# 3 -0.003147 -0.006628 0.013362 0.000000 0.006931 0.000000
# 4 0.000000 0.000000 0.000000 0.030816 0.000000 0.000811
# 5 -0.000958 0.005920 0.006931 0.000000 0.078324 0.000000
# 6 0.000000 0.000000 0.000000 0.000811 0.000000 0.031664
#
#
# Mechanical properties :
#
#
# Convention : Reuss Voigt Hill
#
# Bulk Modulus (GPa) = 47.66177 55.66077 51.66127
# Shear Modulus (GPa) = 21.50666 25.36323 23.43494
#
# Velocity S-wave (km/s) = 3.49547 3.79596 3.64881
# Velocity P-wave (km/s) = 6.58548 7.12982 6.86305
#
# Compressibility (1/GPa) = 0.02098117
#
# Stress axis : x y z
#
# Youngs Moduli (GPa) = 63.69869 42.06372 74.83687
#
# Poissons Ratio (x) = 0.25879 0.23548
# Poissons Ratio (y) = 0.39190 0.49601
# Poissons Ratio (z) = 0.20043 0.27879
#
# Static dielectric constant tensor:
#      x y z
#    x 3.128550 0.000000 0.055820 
#    y 0.000000 3.404940 0.000000 
#    z 0.055820 0.000000 3.638240 
# 
# 
# High freq. dielectric constant tensor:
#      x y z
#    x 1.654700 0.000000 -0.004460 
#    y 0.000000 1.684180 0.000000 
#    z -0.004460 0.000000 1.686520 
# 
# From -- ./inp_files/64190.got.cif
#   From: 2010.06.25/outbox.cif.g09.slc.cpg/sg11_33_cif.got.tgz:64190.got - 2010.06.27 23:14:04.
