data_PCOD8074771
_publ_section_title
;
Structure prediction by ZEFSAII (Michael W. Deem and Ramdas Pophale) SiO2 
 PCOD8074771
Probable space group: P 21/M
;
_chemical_formula_sum "Si O2"
_cell_formula_units_Z 32
_cell_length_a 17.541835
_cell_length_b 9.110017
_cell_length_c 14.336940
_cell_angle_alpha 90.000000
_cell_angle_beta 135.790816
_cell_angle_gamma 90.000000
_cell_volume 1597.562621
_symmetry_space_group_name_H-M "P 21/M"
_symmetry_group_IT_number 11
_symmetry_cell_setting 'monoclinic'
loop_
_space_group_symop_operation_xyz
x,y,z
-x,1/2+y,-z
-x,-y,-z
x,1/2-y,z
loop_
_atom_site_type_symbol
_atom_site_label
_atom_site_fract_x
_atom_site_fract_y
_atom_site_fract_z
Si Si1 0.754384 0.420434 0.087932
Si Si2 0.599520 0.588930 0.624194
Si Si3 0.696971 0.423913 0.363714
Si Si4 0.492320 0.925104 0.091982
Si Si5 0.884542 0.076855 0.378353
Si Si6 0.225693 0.415674 0.385881
Si Si7 0.265772 0.910941 0.130666
Si Si8 0.911294 0.412804 0.866743
O O1 0.760196 0.250000 0.116412
O O2 0.832833 0.490144 0.236386
O O3 0.627847 0.469978 0.977217
O O4 0.795670 0.461246 0.019060
O O5 0.500000 0.500000 0.500000
O O6 0.557409 0.750000 0.611372
O O7 0.691138 0.592363 0.626112
O O8 0.639047 0.522350 0.757318
O O9 0.675634 0.250000 0.349754
O O10 0.585770 0.505979 0.238618
O O11 0.796241 0.460309 0.380767
O O12 0.727562 0.485482 0.491204
O O13 0.508398 0.750000 0.099761
O O14 0.500000 0.000000 0.000000
O O15 0.907198 0.250000 0.392568
O O16 0.000000 0.000000 0.500000
O O17 0.196910 0.250000 0.394703
O O18 0.117708 0.497065 0.252192
O O19 0.317984 0.750000 0.155825
O O20 0.188501 0.897543 0.150800
O O21 0.952579 0.250000 0.874308
O O22 0.000000 0.500000 0.000000
#
# Coordination Sequence:
#
# PCOD8074771 Si02
#       8
#     4   4   4   4   4   4   4   4
#     4   9  19  38  60  83 116 153 191 238 293 348
#     4  10  21  36  54  79 114 151 186 231 282 337
#     4  11  23  40  60  88 124 157 196 248 301 354
#     4  11  21  37  61  87 118 157 199 245 294 352
#     4  10  22  41  61  85 118 156 194 241 295 350
#     4  10  22  39  58  83 114 153 199 242 287 346
#     4   9  19  36  58  82 109 147 191 235 285 341
#     4  10  20  36  59  86 116 152 195 245 296 348
#
# _framework density 20.030512999999999
#
# number of rings (size 3 to 8) (size 9 to 14) (size 15 to 20)
#    0.000    2.000    1.250    1.875    1.750    4.000 
#    0.000    2.500    0.000    0.000    0.000    0.000 
#    0.000    0.000    0.000    0.000    0.000    0.000 
#
# Total GULP energy -396586.258509 kJ/mol
# GULP energy per Si atom -12393.320578 kJ/mol
# Density = 1.998492 g / cm^3
# Si number density = 20.030513 Si / 1000 Ang^3
#
#
#
# Elastic Constant Matrix: (Units=GPa)
#
#
# Indices 1 2 3 4 5 6 
#
# 1 28.4900 18.5022 31.3490 0.0000 -3.3115 0.0000
# 2 18.5022 127.3116 70.9480 0.0000 5.3736 0.0000
# 3 31.3490 70.9480 190.9982 0.0000 -0.8061 0.0000
# 4 0.0000 0.0000 0.0000 41.6621 0.0000 2.8929
# 5 -3.3115 5.3736 -0.8061 0.0000 37.6071 0.0000
# 6 0.0000 0.0000 0.0000 2.8929 0.0000 24.3135
#
#
#
# Elastic Compliance Matrix: (Units=1/GPa)
#
#
# Indices 1 2 3 4 5 6 
#
# 1 0.044369 -0.003252 -0.006057 0.000000 0.004242 0.000000
# 2 -0.003252 0.010228 -0.003273 0.000000 -0.001818 0.000000
# 3 -0.006057 -0.003273 0.007446 0.000000 0.000094 0.000000
# 4 0.000000 0.000000 0.000000 0.024203 0.000000 -0.002880
# 5 0.004242 -0.001818 0.000094 0.000000 0.027226 0.000000
# 6 0.000000 0.000000 0.000000 -0.002880 0.000000 0.041472
#
#
# Mechanical properties :
#
#
# Convention : Reuss Voigt Hill
#
# Bulk Modulus (GPa) = 27.11503 65.37759 46.24631
# Shear Modulus (GPa) = 25.98732 35.78323 30.88527
#
# Velocity S-wave (km/s) = 3.60583 4.23121 3.93098
# Velocity P-wave (km/s) = 5.55898 7.52202 6.61374
#
# Compressibility (1/GPa) = 0.03687991
#
# Stress axis : x y z
#
# Youngs Moduli (GPa) = 22.53802 97.76868 134.30000
#
# Poissons Ratio (x) = 0.31795 0.81340
# Poissons Ratio (y) = 0.07329 0.43960
# Poissons Ratio (z) = 0.13650 0.32002
#
# Static dielectric constant tensor:
#      x y z
#    x 5.622070 0.000000 1.091080 
#    y 0.000000 3.735390 0.000000 
#    z 1.091080 0.000000 4.432980 
# 
# 
# High freq. dielectric constant tensor:
#      x y z
#    x 1.764890 0.000000 -0.008940 
#    y 0.000000 1.781270 0.000000 
#    z -0.008940 0.000000 1.800390 
# 
# From -- ./inp_files/54306.got.cif
#   From: 2010.06.25/outbox.cif.g09.slc.cpg/sg11_28_cif.got.tgz:54306.got - 2010.06.27 23:14:04.
