data_PCOD8074339
_publ_section_title
;
Structure prediction by ZEFSAII (Michael W. Deem and Ramdas Pophale) SiO2 
 PCOD8074339
Probable space group: P 21/M
;
_chemical_formula_sum "Si O2"
_cell_formula_units_Z 28
_cell_length_a 31.729373
_cell_length_b 8.722069
_cell_length_c 9.844066
_cell_angle_alpha 90.000000
_cell_angle_beta 147.394360
_cell_angle_gamma 90.000000
_cell_volume 1468.001173
_symmetry_space_group_name_H-M "P 21/M"
_symmetry_group_IT_number 11
_symmetry_cell_setting 'monoclinic'
loop_
_space_group_symop_operation_xyz
x,y,z
-x,1/2+y,-z
-x,-y,-z
x,1/2-y,z
loop_
_atom_site_type_symbol
_atom_site_label
_atom_site_fract_x
_atom_site_fract_y
_atom_site_fract_z
Si Si1 0.365535 0.930984 0.778888
Si Si2 0.497600 0.930871 0.343428
Si Si3 0.963799 0.569394 0.034319
Si Si4 0.631497 0.568960 0.502139
Si Si5 0.796729 0.425295 0.976003
Si Si6 0.050599 0.430321 0.519000
Si Si7 0.810641 0.424637 0.698764
O O1 0.369651 0.750000 0.765968
O O2 0.276996 0.980746 0.574597
O O3 0.393292 0.004610 0.712389
O O4 0.419811 0.984504 0.051130
O O5 0.498278 0.750000 0.361865
O O6 0.570821 0.987424 0.452277
O O7 0.500000 0.000000 0.500000
O O8 0.978934 0.750000 0.089301
O O9 0.007445 0.472944 0.265699
O O10 0.870877 0.536216 0.786137
O O11 0.000000 0.500000 0.000000
O O12 0.631612 0.750000 0.490465
O O13 0.715702 0.511774 0.779021
O O14 0.785126 0.250000 0.988383
O O15 0.825175 0.438070 0.898610
O O16 0.862003 0.502035 0.247603
O O17 0.055688 0.250000 0.552166
O O18 0.000000 0.500000 0.500000
O O19 0.823843 0.250000 0.685872
#
# Coordination Sequence:
#
# PCOD8074339 Si02
#       7
#     4   4   4   4   4   4   4
#     4   9  19  37  61  86 113 149 195 240 287 346
#     4  10  22  39  58  84 118 156 192 236 289 346
#     4  12  25  41  60  84 118 159 201 245 296 350
#     4  10  20  35  58  88 119 149 192 244 291 343
#     4  10  20  36  60  89 119 154 195 241 294 343
#     4  12  23  38  62  90 120 155 198 244 293 347
#     4   9  18  35  59  84 115 149 193 246 292 344
#
# _framework density 19.073553
#
# number of rings (size 3 to 8) (size 9 to 14) (size 15 to 20)
#    0.000    1.714    1.429    4.714    0.000    4.000 
#    2.571    0.000    0.000    0.000    0.000    0.000 
#    0.000    0.000    0.000    0.000    0.000    0.000 
#
# Total GULP energy -347234.651271 kJ/mol
# GULP energy per Si atom -12401.237545 kJ/mol
# Density = 1.903014 g / cm^3
# Si number density = 19.073553 Si / 1000 Ang^3
#
#
#
# Elastic Constant Matrix: (Units=GPa)
#
#
# Indices 1 2 3 4 5 6 
#
# 1 123.0645 31.5838 72.5429 0.0000 1.0601 0.0000
# 2 31.5838 51.6672 22.5878 0.0000 1.8302 0.0000
# 3 72.5429 22.5878 132.3496 0.0000 5.1337 0.0000
# 4 0.0000 0.0000 0.0000 32.2566 0.0000 0.3154
# 5 1.0601 1.8302 5.1337 0.0000 27.7695 0.0000
# 6 0.0000 0.0000 0.0000 0.3154 0.0000 33.1640
#
#
#
# Elastic Compliance Matrix: (Units=1/GPa)
#
#
# Indices 1 2 3 4 5 6 
#
# 1 0.013258 -0.005346 -0.006395 0.000000 0.001028 0.000000
# 2 -0.005346 0.023085 -0.000966 0.000000 -0.001139 0.000000
# 3 -0.006395 -0.000966 0.011295 0.000000 -0.001780 0.000000
# 4 0.000000 0.000000 0.000000 0.031004 0.000000 -0.000295
# 5 0.001028 -0.001139 -0.001780 0.000000 0.036376 0.000000
# 6 0.000000 0.000000 0.000000 -0.000295 0.000000 0.030156
#
#
# Mechanical properties :
#
#
# Convention : Reuss Voigt Hill
#
# Bulk Modulus (GPa) = 44.99236 62.27895 53.63566
# Shear Modulus (GPa) = 28.09080 30.66248 29.37664
#
# Velocity S-wave (km/s) = 3.84182 4.01383 3.92877
# Velocity P-wave (km/s) = 6.58176 7.36233 6.98296
#
# Compressibility (1/GPa) = 0.02222599
#
# Stress axis : x y z
#
# Youngs Moduli (GPa) = 75.42418 43.31844 88.53759
#
# Poissons Ratio (x) = 0.23156 0.56617
# Poissons Ratio (y) = 0.40318 0.08550
# Poissons Ratio (z) = 0.48231 0.04183
#
# Static dielectric constant tensor:
#      x y z
#    x 3.439320 0.000000 0.212670 
#    y 0.000000 3.502320 0.000000 
#    z 0.212670 0.000000 3.690210 
# 
# 
# High freq. dielectric constant tensor:
#      x y z
#    x 1.733350 0.000000 0.015190 
#    y 0.000000 1.745550 0.000000 
#    z 0.015190 0.000000 1.750590 
# 
# From -- ./inp_files/29103.got.cif
#   From: 2010.06.25/outbox.cif.g09.slc.cpg/sg11_15_cif.got.tgz:29103.got - 2010.06.27 23:14:04.
