data_PCOD8074831
_publ_section_title
;
Structure prediction by ZEFSAII (Michael W. Deem and Ramdas Pophale) SiO2 
 PCOD8074831
Probable space group: P 21/M
;
_chemical_formula_sum "Si O2"
_cell_formula_units_Z 24
_cell_length_a 13.023878
_cell_length_b 19.445184
_cell_length_c 4.887966
_cell_angle_alpha 90.000000
_cell_angle_beta 109.039435
_cell_angle_gamma 90.000000
_cell_volume 1170.166280
_symmetry_space_group_name_H-M "P 21/M"
_symmetry_group_IT_number 11
_symmetry_cell_setting 'monoclinic'
loop_
_space_group_symop_operation_xyz
x,y,z
-x,1/2+y,-z
-x,-y,-z
x,1/2-y,z
loop_
_atom_site_type_symbol
_atom_site_label
_atom_site_fract_x
_atom_site_fract_y
_atom_site_fract_z
Si Si1 0.936212 0.672644 0.164902
Si Si2 0.790676 0.827369 0.535346
Si Si3 0.356367 0.069058 0.290098
Si Si4 0.912906 0.050601 0.789193
Si Si5 0.567264 0.047441 0.256922
Si Si6 0.228573 0.970412 0.841241
O O1 0.978465 0.750000 0.263848
O O2 0.833923 0.654892 0.270876
O O3 0.035003 0.619939 0.286807
O O4 0.894716 0.665372 0.820627
O O5 0.743444 0.750000 0.505269
O O6 0.693945 0.877282 0.542067
O O7 0.473658 0.100185 0.286726
O O8 0.272810 0.046153 0.975294
O O9 0.380884 0.996350 0.453652
O O10 0.145513 0.986343 0.518718
O O11 0.828003 0.069085 0.956130
O O12 0.000000 0.000000 0.000000
O O13 0.500000 0.000000 0.000000
O O14 0.671114 0.078061 0.181134
#
# Coordination Sequence:
#
# PCOD8074831 Si02
#       6
#     4   4   4   4   4   4
#     4  10  23  41  57  82 119 161 199 236 296 358
#     4  10  22  38  60  84 113 155 196 239 289 355
#     4  10  20  36  60  86 121 149 189 240 304 354
#     4  12  24  35  58  88 119 154 200 249 289 336
#     4   9  20  35  57  87 116 153 180 232 306 358
#     4  11  22  37  54  88 121 151 191 240 296 348
#
# _framework density 20.509905
#
# number of rings (size 3 to 8) (size 9 to 14) (size 15 to 20)
#    0.000    1.667    1.667    2.500    7.000    0.000 
#    0.000    0.000    0.000    2.000    0.000    3.500 
#    0.000    0.000    0.000    0.000    0.000    0.000 
#
# Total GULP energy -297351.847186 kJ/mol
# GULP energy per Si atom -12389.660299 kJ/mol
# Density = 2.046322 g / cm^3
# Si number density = 20.509905 Si / 1000 Ang^3
#
#
#
# Elastic Constant Matrix: (Units=GPa)
#
#
# Indices 1 2 3 4 5 6 
#
# 1 137.4244 64.7237 22.8729 0.0000 -26.1719 0.0000
# 2 64.7237 76.3275 21.9951 0.0000 -10.0697 0.0000
# 3 22.8729 21.9951 92.2271 0.0000 1.5505 0.0000
# 4 0.0000 0.0000 0.0000 20.4241 0.0000 -9.5905
# 5 -26.1719 -10.0697 1.5505 0.0000 43.3200 0.0000
# 6 0.0000 0.0000 0.0000 -9.5905 0.0000 24.1360
#
#
#
# Elastic Compliance Matrix: (Units=1/GPa)
#
#
# Indices 1 2 3 4 5 6 
#
# 1 0.013387 -0.010321 -0.000955 0.000000 0.005723 0.000000
# 2 -0.010321 0.022543 -0.002801 0.000000 -0.000895 0.000000
# 3 -0.000955 -0.002801 0.011775 0.000000 -0.001649 0.000000
# 4 0.000000 0.000000 0.000000 0.060193 0.000000 0.023918
# 5 0.005723 -0.000895 -0.001649 0.000000 0.026392 0.000000
# 6 0.000000 0.000000 0.000000 0.023918 0.000000 0.050936
#
#
# Mechanical properties :
#
#
# Convention : Reuss Voigt Hill
#
# Bulk Modulus (GPa) = 51.15096 58.35137 54.75117
# Shear Modulus (GPa) = 22.73791 30.66849 26.70320
#
# Velocity S-wave (km/s) = 3.33322 3.87111 3.61219
# Velocity P-wave (km/s) = 6.30933 6.96367 6.64456
#
# Compressibility (1/GPa) = 0.01954997
#
# Stress axis : x y z
#
# Youngs Moduli (GPa) = 74.70145 44.35983 84.92290
#
# Poissons Ratio (x) = 0.45786 0.08107
# Poissons Ratio (y) = 0.77103 0.23790
# Poissons Ratio (z) = 0.07131 0.12427
#
# Static dielectric constant tensor:
#      x y z
#    x 4.699140 0.000000 0.494260 
#    y 0.000000 3.613590 0.000000 
#    z 0.494260 0.000000 8.204740 
# 
# 
# High freq. dielectric constant tensor:
#      x y z
#    x 1.816830 0.000000 -0.014410 
#    y 0.000000 1.731440 0.000000 
#    z -0.014410 0.000000 1.831500 
# 
# From -- ./inp_files/5158.got.cif
#   From: 2010.06.25/outbox.cif.g09.slc.cpg/sg11_3_cif.got.tgz:5158.got - 2010.06.27 23:14:04.
