data_PCOD8074123
_publ_section_title
;
Structure prediction by ZEFSAII (Michael W. Deem and Ramdas Pophale) SiO2 
 PCOD8074123
Probable space group: P 21/M
;
_chemical_formula_sum "Si O2"
_cell_formula_units_Z 28
_cell_length_a 23.390769
_cell_length_b 9.004281
_cell_length_c 26.818209
_cell_angle_alpha 90.000000
_cell_angle_beta 15.147126
_cell_angle_gamma 90.000000
_cell_volume 1475.911340
_symmetry_space_group_name_H-M "P 21/M"
_symmetry_group_IT_number 11
_symmetry_cell_setting 'monoclinic'
loop_
_space_group_symop_operation_xyz
x,y,z
-x,1/2+y,-z
-x,-y,-z
x,1/2-y,z
loop_
_atom_site_type_symbol
_atom_site_label
_atom_site_fract_x
_atom_site_fract_y
_atom_site_fract_z
Si Si1 0.814476 0.424207 0.495688
Si Si2 0.188155 0.074236 0.806852
Si Si3 0.602743 0.414912 0.841320
Si Si4 0.060166 0.572948 0.716139
Si Si5 0.308674 0.924870 0.604129
Si Si6 0.829200 0.914886 0.730241
Si Si7 0.421904 0.075766 0.891659
O O1 0.867444 0.250000 0.448626
O O2 0.570767 0.458870 0.718786
O O3 0.831669 0.489995 0.425662
O O4 0.989337 0.494562 0.387349
O O5 0.142903 0.250000 0.843499
O O6 0.433509 0.039358 0.620226
O O7 0.187521 0.008375 0.751534
O O8 0.000000 0.000000 0.000000
O O9 0.690478 0.250000 0.756428
O O10 0.800473 0.500820 0.701933
O O11 0.531341 0.493827 0.849443
O O12 0.396279 0.410604 0.050895
O O13 0.064493 0.750000 0.714428
O O14 0.192183 0.513039 0.652501
O O15 0.813747 0.508567 0.923340
O O16 0.273056 0.750000 0.642704
O O17 0.909800 0.750000 0.648689
O O18 0.394317 0.250000 0.925526
#
# Coordination Sequence:
#
# PCOD8074123 Si02
#       7
#     4   4   4   4   4   4   4
#     4   9  16  26  42  65  92 122 156 196 246 294
#     4  10  20  35  56  83 114 144 175 213 255 301
#     4   9  16  27  43  63  87 116 153 196 244 293
#     4   9  16  29  47  70 100 127 158 203 245 289
#     4   9  19  34  55  82 110 140 176 215 258 305
#     4   9  16  27  43  62  87 117 152 195 243 293
#     4   9  16  26  43  66  92 123 157 199 248 294
#
# _framework density 18.971329000000001
#
# number of rings (size 3 to 8) (size 9 to 14) (size 15 to 20)
#    0.000    2.857    1.429    0.429    0.000    2.286 
#    0.000    4.286    0.000    1.714    0.000    0.000 
#    0.000    0.000    0.000    0.000    0.000    0.000 
#
# Total GULP energy -346974.674819 kJ/mol
# GULP energy per Si atom -12391.952672 kJ/mol
# Density = 1.892815 g / cm^3
# Si number density = 18.971329 Si / 1000 Ang^3
#
#
#
# Elastic Constant Matrix: (Units=GPa)
#
#
# Indices 1 2 3 4 5 6 
#
# 1 194.9474 35.1051 89.1342 0.0000 -14.3513 0.0000
# 2 35.1051 41.7638 28.9890 0.0000 1.5840 0.0000
# 3 89.1342 28.9890 112.6412 0.0000 17.8264 0.0000
# 4 0.0000 0.0000 0.0000 14.8149 0.0000 -0.1860
# 5 -14.3513 1.5840 17.8264 0.0000 16.5451 0.0000
# 6 0.0000 0.0000 0.0000 -0.1860 0.0000 22.7931
#
#
#
# Elastic Compliance Matrix: (Units=1/GPa)
#
#
# Indices 1 2 3 4 5 6 
#
# 1 0.015538 -0.002742 -0.016594 0.000000 0.031619 0.000000
# 2 -0.002742 0.030205 -0.005750 0.000000 0.000925 0.000000
# 3 -0.016594 -0.005750 0.030958 0.000000 -0.047198 0.000000
# 4 0.000000 0.000000 0.000000 0.067506 0.000000 0.000551
# 5 0.031619 0.000925 -0.047198 0.000000 0.138632 0.000000
# 6 0.000000 0.000000 0.000000 0.000551 0.000000 0.043877
#
#
# Mechanical properties :
#
#
# Convention : Reuss Voigt Hill
#
# Bulk Modulus (GPa) = 37.69410 72.86766 55.28088
# Shear Modulus (GPa) = 12.96240 23.90558 18.43399
#
# Velocity S-wave (km/s) = 2.61676 3.55363 3.12055
# Velocity P-wave (km/s) = 5.38907 7.43844 6.49509
#
# Compressibility (1/GPa) = 0.02652935
#
# Stress axis : x y z
#
# Youngs Moduli (GPa) = 64.35835 33.10691 32.30202
#
# Poissons Ratio (x) = 0.09078 0.53601
# Poissons Ratio (y) = 0.17647 0.18574
# Poissons Ratio (z) = 1.06794 0.19037
#
# Static dielectric constant tensor:
#      x y z
#    x 3.730790 0.000000 -0.079420 
#    y 0.000000 3.130070 0.000000 
#    z -0.079420 0.000000 3.443820 
# 
# 
# High freq. dielectric constant tensor:
#      x y z
#    x 1.746130 0.000000 0.001600 
#    y 0.000000 1.676280 0.000000 
#    z 0.001600 0.000000 1.743110 
# 
# From -- ./inp_files/69777.got.cif
#   From: 2010.06.25/outbox.cif.g09.slc.cpg/sg11_35_cif.got.tgz:69777.got - 2010.06.27 23:14:04.
