data_PCOD8074904
_publ_section_title
;
Structure prediction by ZEFSAII (Michael W. Deem and Ramdas Pophale) SiO2 
 PCOD8074904
Probable space group: P 21/M
;
_chemical_formula_sum "Si O2"
_cell_formula_units_Z 20
_cell_length_a 16.945865
_cell_length_b 8.868562
_cell_length_c 16.808989
_cell_angle_alpha 90.000000
_cell_angle_beta 155.270077
_cell_angle_gamma 90.000000
_cell_volume 1056.791911
_symmetry_space_group_name_H-M "P 21/M"
_symmetry_group_IT_number 11
_symmetry_cell_setting 'monoclinic'
loop_
_space_group_symop_operation_xyz
x,y,z
-x,1/2+y,-z
-x,-y,-z
x,1/2-y,z
loop_
_atom_site_type_symbol
_atom_site_label
_atom_site_fract_x
_atom_site_fract_y
_atom_site_fract_z
Si Si1 0.295565 0.427132 0.803112
Si Si2 0.891400 0.422219 0.972262
Si Si3 0.042466 0.073711 0.423356
Si Si4 0.483736 0.073081 0.399040
Si Si5 0.179449 0.421452 0.375905
O O1 0.319505 0.250000 0.834906
O O2 0.206094 0.470743 0.635731
O O3 0.152518 0.486486 0.739438
O O4 0.500000 0.500000 0.000000
O O5 0.852429 0.250000 0.911830
O O6 0.697771 0.508158 0.811691
O O7 0.000000 0.500000 0.000000
O O8 0.003090 0.432846 0.156203
O O9 0.996047 0.250000 0.385275
O O10 0.115376 0.024832 0.403876
O O11 0.463307 0.250000 0.391692
O O12 0.500000 0.000000 0.500000
O O13 0.661546 0.035351 0.507594
O O14 0.257932 0.250000 0.449586
#
# Coordination Sequence:
#
# PCOD8074904 Si02
#       5
#     4   4   4   4   4
#     4  10  20  36  61  88 118 153 189 233 284 344
#     4  11  22  37  59  83 111 148 193 242 291 344
#     4   9  20  39  60  85 116 152 193 236 284 341
#     4  12  24  38  58  82 113 151 194 242 291 345
#     4  10  22  40  61  84 114 152 195 241 288 343
#
# _framework density 18.925203
#
# number of rings (size 3 to 8) (size 9 to 14) (size 15 to 20)
#    0.000    1.600    2.000    3.000    0.000    4.000 
#    0.000    8.000    0.000    0.000    0.000    0.000 
#    0.000    0.000    0.000    0.000    0.000    0.000 
#
# Total GULP energy -248087.043030 kJ/mol
# GULP energy per Si atom -12404.352151 kJ/mol
# Density = 1.888213 g / cm^3
# Si number density = 18.925203 Si / 1000 Ang^3
#
#
#
# Elastic Constant Matrix: (Units=GPa)
#
#
# Indices 1 2 3 4 5 6 
#
# 1 146.9081 57.6402 59.5180 0.0000 3.6473 0.0000
# 2 57.6402 129.9608 66.3330 0.0000 12.9218 0.0000
# 3 59.5180 66.3330 128.8427 0.0000 20.9454 0.0000
# 4 0.0000 0.0000 0.0000 37.2522 0.0000 7.9261
# 5 3.6473 12.9218 20.9454 0.0000 25.9491 0.0000
# 6 0.0000 0.0000 0.0000 7.9261 0.0000 31.2356
#
#
#
# Elastic Compliance Matrix: (Units=1/GPa)
#
#
# Indices 1 2 3 4 5 6 
#
# 1 0.009103 -0.002625 -0.003290 0.000000 0.002683 0.000000
# 2 -0.002625 0.011216 -0.004275 0.000000 -0.001766 0.000000
# 3 -0.003290 -0.004275 0.012731 0.000000 -0.007685 0.000000
# 4 0.000000 0.000000 0.000000 0.028376 0.000000 -0.007200
# 5 0.002683 -0.001766 -0.007685 0.000000 0.045243 0.000000
# 6 0.000000 0.000000 0.000000 -0.007200 0.000000 0.033842
#
#
# Mechanical properties :
#
#
# Convention : Reuss Voigt Hill
#
# Bulk Modulus (GPa) = 78.91875 85.85489 82.38682
# Shear Modulus (GPa) = 30.28193 33.70205 31.99199
#
# Velocity S-wave (km/s) = 4.00445 4.22453 4.11596
# Velocity P-wave (km/s) = 7.94806 8.32223 8.13729
#
# Compressibility (1/GPa) = 0.01267126
#
# Stress axis : x y z
#
# Youngs Moduli (GPa) = 109.85193 89.15489 78.54595
#
# Poissons Ratio (x) = 0.23404 0.25841
# Poissons Ratio (y) = 0.28837 0.33578
# Poissons Ratio (z) = 0.36140 0.38113
#
# Static dielectric constant tensor:
#      x y z
#    x 3.428990 0.000000 -0.072210 
#    y 0.000000 3.653740 0.000000 
#    z -0.072210 0.000000 3.576870 
# 
# 
# High freq. dielectric constant tensor:
#      x y z
#    x 1.733870 0.000000 0.002410 
#    y 0.000000 1.743470 0.000000 
#    z 0.002410 0.000000 1.744700 
# 
# From -- ./inp_files/7444.got.cif
#   From: 2010.06.25/outbox.cif.g09.slc.cpg/sg11_4_cif.got.tgz:7444.got - 2010.06.27 23:14:04.
