data_PCOD8074519
_publ_section_title
;
Structure prediction by ZEFSAII (Michael W. Deem and Ramdas Pophale) SiO2 
 PCOD8074519
Probable space group: P 21/M
;
_chemical_formula_sum "Si O2"
_cell_formula_units_Z 32
_cell_length_a 26.660324
_cell_length_b 8.690729
_cell_length_c 21.365488
_cell_angle_alpha 90.000000
_cell_angle_beta 19.853708
_cell_angle_gamma 90.000000
_cell_volume 1681.230913
_symmetry_space_group_name_H-M "P 21/M"
_symmetry_group_IT_number 11
_symmetry_cell_setting 'monoclinic'
loop_
_space_group_symop_operation_xyz
x,y,z
-x,1/2+y,-z
-x,-y,-z
x,1/2-y,z
loop_
_atom_site_type_symbol
_atom_site_label
_atom_site_fract_x
_atom_site_fract_y
_atom_site_fract_z
Si Si1 0.379036 0.424595 0.054460
Si Si2 0.329942 0.072426 0.244120
Si Si3 0.224526 0.071828 0.496921
Si Si4 0.651961 0.569429 0.157803
Si Si5 0.073656 0.567524 0.095761
Si Si6 0.550261 0.430077 0.150413
Si Si7 0.552849 0.925777 0.501830
Si Si8 0.111788 0.074296 0.916714
O O1 0.364269 0.250000 0.047929
O O2 0.270311 0.454806 0.242568
O O3 0.540713 0.452166 0.893451
O O4 0.352595 0.536183 0.026264
O O5 0.387161 0.250000 0.183423
O O6 0.206471 0.044094 0.442906
O O7 0.223890 0.250000 0.513967
O O8 0.382534 0.008213 0.336146
O O9 0.084783 0.996675 0.696536
O O10 0.669636 0.750000 0.144710
O O11 0.621948 0.525473 0.121818
O O12 0.514598 0.514636 0.360524
O O13 0.802912 0.491420 0.001922
O O14 0.071732 0.750000 0.100874
O O15 0.110918 0.516136 0.982404
O O16 0.555954 0.250000 0.159121
O O17 0.498175 0.750000 0.567418
O O18 0.728219 0.937134 0.302409
O O19 0.500000 0.000000 0.500000
O O20 0.067375 0.250000 0.981797
O O21 0.000000 0.000000 0.000000
#
# Coordination Sequence:
#
# PCOD8074519 Si02
#       8
#     4   4   4   4   4   4   4   4
#     4   9  15  25  46  77 110 142 180 226 275 325
#     4   8  14  27  47  73 108 147 182 222 272 326
#     4   8  17  33  55  82 110 143 184 226 272 328
#     4  12  25  40  58  83 113 147 187 232 280 334
#     4  11  22  39  61  83 111 149 188 228 279 336
#     4  10  20  36  56  81 112 146 185 231 279 330
#     4  11  23  41  64  86 111 146 188 229 272 328
#     4  11  25  42  61  87 116 146 184 228 279 330
#
# _framework density 19.033674000000001
#
# number of rings (size 3 to 8) (size 9 to 14) (size 15 to 20)
#    0.000    2.000    1.250    3.750    1.750    2.000 
#    0.000    5.625    0.000    0.750    0.000    0.000 
#    0.000    0.000    0.000    0.000    0.000    0.000 
#
# Total GULP energy -396623.695935 kJ/mol
# GULP energy per Si atom -12394.490498 kJ/mol
# Density = 1.899035 g / cm^3
# Si number density = 19.033674 Si / 1000 Ang^3
#
#
#
# Elastic Constant Matrix: (Units=GPa)
#
#
# Indices 1 2 3 4 5 6 
#
# 1 118.9530 25.6428 35.4793 0.0000 6.0449 0.0000
# 2 25.6428 77.7418 18.5227 0.0000 -3.1977 0.0000
# 3 35.4793 18.5227 51.5693 0.0000 -3.1507 0.0000
# 4 0.0000 0.0000 0.0000 21.4634 0.0000 3.4599
# 5 6.0449 -3.1977 -3.1507 0.0000 26.2011 0.0000
# 6 0.0000 0.0000 0.0000 3.4599 0.0000 32.2470
#
#
#
# Elastic Compliance Matrix: (Units=1/GPa)
#
#
# Indices 1 2 3 4 5 6 
#
# 1 0.011191 -0.002138 -0.007157 0.000000 -0.003703 0.000000
# 2 -0.002138 0.014508 -0.003628 0.000000 0.001828 0.000000
# 3 -0.007157 -0.003628 0.025883 0.000000 0.004321 0.000000
# 4 0.000000 0.000000 0.000000 0.047411 0.000000 -0.005087
# 5 -0.003703 0.001828 0.004321 0.000000 0.039763 0.000000
# 6 0.000000 0.000000 0.000000 -0.005087 0.000000 0.031556
#
#
# Mechanical properties :
#
#
# Convention : Reuss Voigt Hill
#
# Bulk Modulus (GPa) = 38.85941 45.28374 42.07157
# Shear Modulus (GPa) = 24.42152 27.22359 25.82256
#
# Velocity S-wave (km/s) = 3.58588 3.78601 3.68731
# Velocity P-wave (km/s) = 6.13231 6.55400 6.34666
#
# Compressibility (1/GPa) = 0.02573379
#
# Stress axis : x y z
#
# Youngs Moduli (GPa) = 89.36099 68.92746 38.63585
#
# Poissons Ratio (x) = 0.14738 0.27653
# Poissons Ratio (y) = 0.19107 0.14018
# Poissons Ratio (z) = 0.63958 0.25009
#
# Static dielectric constant tensor:
#      x y z
#    x 3.451400 0.000000 0.353260 
#    y 0.000000 3.488890 0.000000 
#    z 0.353260 0.000000 3.763000 
# 
# 
# High freq. dielectric constant tensor:
#      x y z
#    x 1.741210 0.000000 0.028520 
#    y 0.000000 1.739800 0.000000 
#    z 0.028520 0.000000 1.722940 
# 
# From -- ./inp_files/63273.got.cif
#   From: 2010.06.25/outbox.cif.g09.slc.cpg/sg11_32_cif.got.tgz:63273.got - 2010.06.27 23:14:04.
