data_PCOD8074423
_publ_section_title
;
Structure prediction by ZEFSAII (Michael W. Deem and Ramdas Pophale) SiO2 
 PCOD8074423
Probable space group: P 21/M
;
_chemical_formula_sum "Si O2"
_cell_formula_units_Z 24
_cell_length_a 11.708548
_cell_length_b 14.441052
_cell_length_c 15.487562
_cell_angle_alpha 90.000000
_cell_angle_beta 152.451161
_cell_angle_gamma 90.000000
_cell_volume 1211.158344
_symmetry_space_group_name_H-M "P 21/M"
_symmetry_group_IT_number 11
_symmetry_cell_setting 'monoclinic'
loop_
_space_group_symop_operation_xyz
x,y,z
-x,1/2+y,-z
-x,-y,-z
x,1/2-y,z
loop_
_atom_site_type_symbol
_atom_site_label
_atom_site_fract_x
_atom_site_fract_y
_atom_site_fract_z
Si Si1 0.494000 0.645116 0.806306
Si Si2 0.088198 0.852432 0.838857
Si Si3 0.223605 0.980592 0.087142
Si Si4 0.451335 0.107248 0.963718
Si Si5 0.944557 0.856888 0.439539
Si Si6 0.669745 0.859060 0.424170
O O1 0.505952 0.750000 0.776732
O O2 0.666939 0.580062 0.865029
O O3 0.218792 0.600404 0.617697
O O4 0.583300 0.648737 0.964894
O O5 0.052010 0.750000 0.855600
O O6 0.847170 0.880919 0.623229
O O7 0.128067 0.928506 0.938169
O O8 0.322786 0.843867 0.933124
O O9 0.418770 0.916410 0.268715
O O10 0.000000 0.000000 0.000000
O O11 0.196248 0.125830 0.743648
O O12 0.500000 0.000000 0.000000
O O13 0.983137 0.750000 0.485727
O O14 0.793868 0.898296 0.419427
O O15 0.608070 0.750000 0.375763
#
# Coordination Sequence:
#
# PCOD8074423 Si02
#       6
#     4   4   4   4   4   4
#     4  11  24  40  60  93 131 162 200 258 319 371
#     4  11  22  40  66  95 125 160 205 259 314 372
#     4  12  27  43  63  87 123 175 221 257 295 361
#     4  12  21  34  63  98 129 159 194 251 323 386
#     4  10  20  35  60  94 127 158 194 246 316 382
#     4  10  21  39  66  95 124 157 203 259 313 371
#
# _framework density 19.815740999999999
#
# number of rings (size 3 to 8) (size 9 to 14) (size 15 to 20)
#    0.000    1.000    5.000    2.000    2.333    3.333 
#    0.000    0.000    0.000    2.000    0.000    0.000 
#    0.000    0.000    0.000    0.000    0.000    0.000 
#
# Total GULP energy -297680.448628 kJ/mol
# GULP energy per Si atom -12403.352026 kJ/mol
# Density = 1.977064 g / cm^3
# Si number density = 19.815741 Si / 1000 Ang^3
#
#
#
# Elastic Constant Matrix: (Units=GPa)
#
#
# Indices 1 2 3 4 5 6 
#
# 1 86.8025 38.7923 36.6371 0.0000 31.2939 0.0000
# 2 38.7923 102.2086 45.7681 0.0000 12.1926 0.0000
# 3 36.6371 45.7681 142.4031 0.0000 10.3632 0.0000
# 4 0.0000 0.0000 0.0000 32.0397 0.0000 6.6544
# 5 31.2939 12.1926 10.3632 0.0000 23.0175 0.0000
# 6 0.0000 0.0000 0.0000 6.6544 0.0000 14.5896
#
#
#
# Elastic Compliance Matrix: (Units=1/GPa)
#
#
# Indices 1 2 3 4 5 6 
#
# 1 0.026554 -0.004940 -0.002902 0.000000 -0.032178 0.000000
# 2 -0.004940 0.012828 -0.002943 0.000000 0.001246 0.000000
# 3 -0.002902 -0.002943 0.008596 0.000000 0.001634 0.000000
# 4 0.000000 0.000000 0.000000 0.034477 0.000000 -0.015725
# 5 -0.032178 0.001246 0.001634 0.000000 0.085798 0.000000
# 6 0.000000 0.000000 0.000000 -0.015725 0.000000 0.075714
#
#
# Mechanical properties :
#
#
# Convention : Reuss Voigt Hill
#
# Bulk Modulus (GPa) = 37.86752 63.75657 50.81204
# Shear Modulus (GPa) = 18.22557 27.94383 23.08470
#
# Velocity S-wave (km/s) = 3.03603 3.75931 3.41687
# Velocity P-wave (km/s) = 5.60725 7.14757 6.42375
#
# Compressibility (1/GPa) = 0.02640785
#
# Stress axis : x y z
#
# Youngs Moduli (GPa) = 37.65909 77.95523 116.33592
#
# Poissons Ratio (x) = 0.38511 0.33764
# Poissons Ratio (y) = 0.18604 0.34233
# Poissons Ratio (z) = 0.10930 0.22939
#
# Static dielectric constant tensor:
#      x y z
#    x 3.335700 0.000000 -0.041160 
#    y 0.000000 3.705870 0.000000 
#    z -0.041160 0.000000 3.811840 
# 
# 
# High freq. dielectric constant tensor:
#      x y z
#    x 1.731340 0.000000 -0.004780 
#    y 0.000000 1.789450 0.000000 
#    z -0.004780 0.000000 1.789350 
# 
# From -- ./inp_files/39543.got.cif
#   From: 2010.06.25/outbox.cif.g09.slc.cpg/sg11_20_cif.got.tgz:39543.got - 2010.06.27 23:14:04.
