data_PCOD8074482
_publ_section_title
;
Structure prediction by ZEFSAII (Michael W. Deem and Ramdas Pophale) SiO2 
 PCOD8074482
Probable space group: P 21/M
;
_chemical_formula_sum "Si O2"
_cell_formula_units_Z 32
_cell_length_a 21.262956
_cell_length_b 9.194001
_cell_length_c 26.423522
_cell_angle_alpha 90.000000
_cell_angle_beta 20.051691
_cell_angle_gamma 90.000000
_cell_volume 1771.110100
_symmetry_space_group_name_H-M "P 21/M"
_symmetry_group_IT_number 11
_symmetry_cell_setting 'monoclinic'
loop_
_space_group_symop_operation_xyz
x,y,z
-x,1/2+y,-z
-x,-y,-z
x,1/2-y,z
loop_
_atom_site_type_symbol
_atom_site_label
_atom_site_fract_x
_atom_site_fract_y
_atom_site_fract_z
Si Si1 0.220391 0.414027 0.209236
Si Si2 0.431754 0.913741 0.126419
Si Si3 0.302950 0.579186 0.880259
Si Si4 0.655941 0.418507 0.034291
Si Si5 0.992595 0.083028 0.058060
Si Si6 0.598599 0.577707 0.576065
Si Si7 0.426647 0.915802 0.603037
Si Si8 0.005346 0.579246 0.291189
O O1 0.157619 0.250000 0.269199
O O2 0.263052 0.497686 0.229329
O O3 0.058319 0.496929 0.302618
O O4 0.400064 0.413293 0.039163
O O5 0.366350 0.750000 0.187569
O O6 0.493159 0.989790 0.131959
O O7 0.263467 0.750000 0.902600
O O8 0.342738 0.540315 0.908078
O O9 0.124405 0.491212 0.998976
O O10 0.476161 0.526433 0.716130
O O11 0.610805 0.250000 0.059367
O O12 0.853057 0.457502 0.860904
O O13 0.050028 0.250000 0.005779
O O14 0.790779 0.071438 0.233016
O O15 0.000000 0.000000 0.000000
O O16 0.596272 0.750000 0.575268
O O17 0.510729 0.514786 0.590879
O O18 0.806104 0.520692 0.425080
O O19 0.491623 0.750000 0.549180
O O20 0.500000 0.000000 0.500000
O O21 0.002735 0.750000 0.305359
#
# Coordination Sequence:
#
# PCOD8074482 Si02
#       8
#     4   4   4   4   4   4   4   4
#     4   9  16  27  45  71 102 133 165 207 255 303
#     4   9  16  27  46  71 102 134 165 207 254 301
#     4  10  20  36  56  77 105 140 176 215 262 314
#     4   9  18  30  49  76 101 132 171 210 254 305
#     4  11  22  38  58  80 106 138 179 223 265 316
#     4   9  18  35  54  73 103 138 172 211 257 312
#     4  10  22  38  56  80 108 138 175 220 268 316
#     4   9  17  30  49  73 100 133 172 209 252 308
#
# _framework density 18.067764
#
# number of rings (size 3 to 8) (size 9 to 14) (size 15 to 20)
#    0.000    2.500    1.250    1.125    1.750    4.500 
#    0.000    1.250    0.000    0.750    0.000    0.000 
#    0.000    0.000    0.000    0.000    0.000    0.000 
#
# Total GULP energy -396821.574475 kJ/mol
# GULP energy per Si atom -12400.674202 kJ/mol
# Density = 1.802664 g / cm^3
# Si number density = 18.067764 Si / 1000 Ang^3
#
#
#
# Elastic Constant Matrix: (Units=GPa)
#
#
# Indices 1 2 3 4 5 6 
#
# 1 169.7420 71.4283 66.6634 0.0000 -7.4002 0.0000
# 2 71.4283 88.9296 34.9950 0.0000 -0.6802 0.0000
# 3 66.6634 34.9950 76.2212 0.0000 -4.8247 0.0000
# 4 0.0000 0.0000 0.0000 20.7854 0.0000 -5.0708
# 5 -7.4002 -0.6802 -4.8247 0.0000 21.7651 0.0000
# 6 0.0000 0.0000 0.0000 -5.0708 0.0000 35.0103
#
#
#
# Elastic Compliance Matrix: (Units=1/GPa)
#
#
# Indices 1 2 3 4 5 6 
#
# 1 0.011389 -0.006426 -0.006874 0.000000 0.002148 0.000000
# 2 -0.006426 0.017371 -0.002494 0.000000 -0.002195 0.000000
# 3 -0.006874 -0.002494 0.020411 0.000000 0.002109 0.000000
# 4 0.000000 0.000000 0.000000 0.049873 0.000000 0.007223
# 5 0.002148 -0.002195 0.002109 0.000000 0.047074 0.000000
# 6 0.000000 0.000000 0.000000 0.007223 0.000000 0.029609
#
#
# Mechanical properties :
#
#
# Convention : Reuss Voigt Hill
#
# Bulk Modulus (GPa) = 56.87852 75.67402 66.27627
# Shear Modulus (GPa) = 23.45477 26.29925 24.87701
#
# Velocity S-wave (km/s) = 3.60690 3.81936 3.71465
# Velocity P-wave (km/s) = 6.99252 7.83737 7.42697
#
# Compressibility (1/GPa) = 0.01758133
#
# Stress axis : x y z
#
# Youngs Moduli (GPa) = 87.80569 57.56784 48.99365
#
# Poissons Ratio (x) = 0.36992 0.33681
# Poissons Ratio (y) = 0.56423 0.12220
# Poissons Ratio (z) = 0.60362 0.14359
#
# Static dielectric constant tensor:
#      x y z
#    x 3.344080 0.000000 -0.022360 
#    y 0.000000 3.331380 0.000000 
#    z -0.022360 0.000000 2.963240 
# 
# 
# High freq. dielectric constant tensor:
#      x y z
#    x 1.708310 0.000000 -0.013640 
#    y 0.000000 1.690430 0.000000 
#    z -0.013640 0.000000 1.675620 
# 
# From -- ./inp_files/72036.got.cif
#   From: 2010.06.25/outbox.cif.g09.slc.cpg/sg11_37_cif.got.tgz:72036.got - 2010.06.27 23:14:04.
