data_PCOD8074387
_publ_section_title
;
Structure prediction by ZEFSAII (Michael W. Deem and Ramdas Pophale) SiO2 
 PCOD8074387
Probable space group: P 21/M
;
_chemical_formula_sum "Si O2"
_cell_formula_units_Z 24
_cell_length_a 14.728771
_cell_length_b 13.255234
_cell_length_c 6.627287
_cell_angle_alpha 90.000000
_cell_angle_beta 72.714710
_cell_angle_gamma 90.000000
_cell_volume 1235.432379
_symmetry_space_group_name_H-M "P 21/M"
_symmetry_group_IT_number 11
_symmetry_cell_setting 'monoclinic'
loop_
_space_group_symop_operation_xyz
x,y,z
-x,1/2+y,-z
-x,-y,-z
x,1/2-y,z
loop_
_atom_site_type_symbol
_atom_site_label
_atom_site_fract_x
_atom_site_fract_y
_atom_site_fract_z
Si Si1 0.274584 0.028608 0.234091
Si Si2 0.397062 0.985755 0.764713
Si Si3 0.576829 0.631432 0.604015
Si Si4 0.935338 0.522984 0.734116
Si Si5 0.735840 0.367976 0.433868
Si Si6 0.073831 0.866751 0.918692
O O1 0.324562 0.111976 0.342978
O O2 0.167287 0.065497 0.263845
O O3 0.272500 0.920188 0.343624
O O4 0.330993 0.016790 0.990871
O O5 0.494046 0.931402 0.775393
O O6 0.348570 0.902866 0.654267
O O7 0.417797 0.088638 0.627575
O O8 0.555074 0.750000 0.611804
O O9 0.000000 0.500000 0.500000
O O10 0.981117 0.606974 0.848965
O O11 0.924730 0.419886 0.865823
O O12 0.728487 0.250000 0.476777
O O13 0.834887 0.401039 0.268790
O O14 0.075192 0.750000 0.967777
#
# Coordination Sequence:
#
# PCOD8074387 Si02
#       6
#     4   4   4   4   4   4
#     4  11  22  38  61  90 120 156 196 242 299 350
#     4  10  21  41  61  86 122 157 193 245 298 346
#     4  10  23  40  61  88 119 156 199 242 293 357
#     4  11  22  39  60  85 123 158 191 244 295 344
#     4  10  20  35  59  90 117 149 197 245 292 346
#     4  10  22  38  59  86 115 155 201 242 291 346
#
# _framework density 19.426397000000001
#
# number of rings (size 3 to 8) (size 9 to 14) (size 15 to 20)
#    0.000    1.667    3.333    1.000    0.000    4.000 
#    0.000    1.667    0.000    0.000    0.000    0.000 
#    0.000    0.000    0.000    0.000    0.000    0.000 
#
# Total GULP energy -297683.696051 kJ/mol
# GULP energy per Si atom -12403.487335 kJ/mol
# Density = 1.938218 g / cm^3
# Si number density = 19.426397 Si / 1000 Ang^3
#
#
#
# Elastic Constant Matrix: (Units=GPa)
#
#
# Indices 1 2 3 4 5 6 
#
# 1 127.4012 27.7803 21.3710 0.0000 0.0215 0.0000
# 2 27.7803 76.3488 30.6634 0.0000 -7.4599 0.0000
# 3 21.3710 30.6634 86.8419 0.0000 -18.5479 0.0000
# 4 0.0000 0.0000 0.0000 20.4846 0.0000 -5.5327
# 5 0.0215 -7.4599 -18.5479 0.0000 35.7949 0.0000
# 6 0.0000 0.0000 0.0000 -5.5327 0.0000 22.1719
#
#
#
# Elastic Compliance Matrix: (Units=1/GPa)
#
#
# Indices 1 2 3 4 5 6 
#
# 1 0.008684 -0.002700 -0.001467 0.000000 -0.001328 0.000000
# 2 -0.002700 0.016108 -0.004842 0.000000 0.000850 0.000000
# 3 -0.001467 -0.004842 0.015034 0.000000 0.006782 0.000000
# 4 0.000000 0.000000 0.000000 0.052345 0.000000 0.013062
# 5 -0.001328 0.000850 0.006782 0.000000 0.031629 0.000000
# 6 0.000000 0.000000 0.000000 0.013062 0.000000 0.048361
#
#
# Mechanical properties :
#
#
# Convention : Reuss Voigt Hill
#
# Bulk Modulus (GPa) = 45.85461 50.02460 47.93961
# Shear Modulus (GPa) = 25.32280 29.74209 27.53244
#
# Velocity S-wave (km/s) = 3.61435 3.91706 3.76875
# Velocity P-wave (km/s) = 6.40887 6.80181 6.60826
#
# Compressibility (1/GPa) = 0.02180806
#
# Stress axis : x y z
#
# Youngs Moduli (GPa) = 115.14878 62.08151 66.51416
#
# Poissons Ratio (x) = 0.16764 0.09760
# Poissons Ratio (y) = 0.31095 0.32203
# Poissons Ratio (z) = 0.16897 0.30057
#
# Static dielectric constant tensor:
#      x y z
#    x 3.926380 0.000000 -0.016710 
#    y 0.000000 3.283110 0.000000 
#    z -0.016710 0.000000 3.529440 
# 
# 
# High freq. dielectric constant tensor:
#      x y z
#    x 1.776920 0.000000 -0.000750 
#    y 0.000000 1.740110 0.000000 
#    z -0.000750 0.000000 1.760670 
# 
# From -- ./inp_files/6391.got.cif
#   From: 2010.06.25/outbox.cif.g09.slc.cpg/sg11_4_cif.got.tgz:6391.got - 2010.06.27 23:14:04.
