data_PCOD8074262
_publ_section_title
;
Structure prediction by ZEFSAII (Michael W. Deem and Ramdas Pophale) SiO2 
 PCOD8074262
Probable space group: P 21/M
;
_chemical_formula_sum "Si O2"
_cell_formula_units_Z 32
_cell_length_a 9.526992
_cell_length_b 18.474990
_cell_length_c 15.604865
_cell_angle_alpha 90.000000
_cell_angle_beta 37.417607
_cell_angle_gamma 90.000000
_cell_volume 1668.906638
_symmetry_space_group_name_H-M "P 21/M"
_symmetry_group_IT_number 11
_symmetry_cell_setting 'monoclinic'
loop_
_space_group_symop_operation_xyz
x,y,z
-x,1/2+y,-z
-x,-y,-z
x,1/2-y,z
loop_
_atom_site_type_symbol
_atom_site_label
_atom_site_fract_x
_atom_site_fract_y
_atom_site_fract_z
Si Si1 0.568249 0.332805 0.067474
Si Si2 0.549256 0.333161 0.883342
Si Si3 0.811944 0.606640 0.073440
Si Si4 0.760978 0.460111 0.190306
Si Si5 0.902258 0.833055 0.203416
Si Si6 0.688401 0.930364 0.672090
Si Si7 0.077368 0.937931 0.359370
Si Si8 0.245084 0.468338 0.633903
O O1 0.562444 0.250000 0.100594
O O2 0.403641 0.376336 0.211075
O O3 0.467515 0.342342 0.020847
O O4 0.833555 0.360240 0.936697
O O5 0.591717 0.250000 0.839513
O O6 0.350348 0.366116 0.922448
O O7 0.793890 0.372660 0.750325
O O8 0.762684 0.522872 0.117647
O O9 0.776775 0.658287 0.172505
O O10 0.078478 0.608126 0.912590
O O11 0.495434 0.433994 0.317307
O O12 0.854807 0.489232 0.235491
O O13 0.890682 0.750000 0.240440
O O14 0.765187 0.882296 0.339073
O O15 0.925944 0.904978 0.511369
O O16 0.731422 0.007912 0.695517
O O17 0.912803 0.982138 0.372866
O O18 0.500000 0.500000 0.500000
#
# Coordination Sequence:
#
# PCOD8074262 Si02
#       8
#     4   4   4   4   4   4   4   4
#     4  10  22  39  59  88 120 155 198 249 306 356
#     4  11  23  39  60  88 121 157 203 250 298 361
#     4  10  20  35  58  88 116 150 194 245 301 353
#     4  10  20  35  57  89 118 147 196 249 301 350
#     4  10  20  36  60  85 115 155 201 250 301 361
#     4  11  22  40  59  86 124 156 200 247 300 365
#     4  11  24  38  60  89 119 161 203 243 301 361
#     4  11  22  37  59  86 121 156 202 254 299 355
#
# _framework density 19.174230000000001
#
# number of rings (size 3 to 8) (size 9 to 14) (size 15 to 20)
#    0.000    1.500    5.000    0.375    1.750    1.000 
#    0.000    0.000    0.000    2.250    0.000    0.000 
#    0.000    0.000    0.000    0.000    0.000    0.000 
#
# Total GULP energy -396708.743140 kJ/mol
# GULP energy per Si atom -12397.148223 kJ/mol
# Density = 1.913059 g / cm^3
# Si number density = 19.174230 Si / 1000 Ang^3
#
#
#
# Elastic Constant Matrix: (Units=GPa)
#
#
# Indices 1 2 3 4 5 6 
#
# 1 110.7930 21.2816 33.2215 0.0000 -6.0716 0.0000
# 2 21.2816 78.4698 58.4026 0.0000 -1.7149 0.0000
# 3 33.2215 58.4026 102.1495 0.0000 -4.0558 0.0000
# 4 0.0000 0.0000 0.0000 33.0447 0.0000 -0.4619
# 5 -6.0716 -1.7149 -4.0558 0.0000 28.7486 0.0000
# 6 0.0000 0.0000 0.0000 -0.4619 0.0000 22.6924
#
#
#
# Elastic Compliance Matrix: (Units=1/GPa)
#
#
# Indices 1 2 3 4 5 6 
#
# 1 0.010094 -0.000535 -0.002910 0.000000 0.001689 0.000000
# 2 -0.000535 0.022218 -0.012551 0.000000 -0.000558 0.000000
# 3 -0.002910 -0.012551 0.017958 0.000000 0.001170 0.000000
# 4 0.000000 0.000000 0.000000 0.030271 0.000000 0.000616
# 5 0.001689 -0.000558 0.001170 0.000000 0.035273 0.000000
# 6 0.000000 0.000000 0.000000 0.000616 0.000000 0.044080
#
#
# Mechanical properties :
#
#
# Convention : Reuss Voigt Hill
#
# Bulk Modulus (GPa) = 54.70925 57.46928 56.08927
# Shear Modulus (GPa) = 25.25537 28.79759 27.02648
#
# Velocity S-wave (km/s) = 3.63320 3.87963 3.75843
# Velocity P-wave (km/s) = 6.79667 7.07855 6.93904
#
# Compressibility (1/GPa) = 0.01827844
#
# Stress axis : x y z
#
# Youngs Moduli (GPa) = 99.07191 45.00871 55.68469
#
# Poissons Ratio (x) = 0.02407 0.16203
# Poissons Ratio (y) = 0.05299 0.69890
# Poissons Ratio (z) = 0.28828 0.56490
#
# Static dielectric constant tensor:
#      x y z
#    x 3.654590 0.000000 0.037730 
#    y 0.000000 3.340440 0.000000 
#    z 0.037730 0.000000 3.494290 
# 
# 
# High freq. dielectric constant tensor:
#      x y z
#    x 1.761780 0.000000 0.003690 
#    y 0.000000 1.724610 0.000000 
#    z 0.003690 0.000000 1.739570 
# 
# From -- ./inp_files/48230.got.cif
#   From: 2010.06.25/outbox.cif.g09.slc.cpg/sg11_25_cif.got.tgz:48230.got - 2010.06.27 23:14:04.
