data_PCOD8074830
_publ_section_title
;
Structure prediction by ZEFSAII (Michael W. Deem and Ramdas Pophale) SiO2 
 PCOD8074830
Probable space group: P 21/M
;
_chemical_formula_sum "Si O2"
_cell_formula_units_Z 20
_cell_length_a 20.749805
_cell_length_b 9.215305
_cell_length_c 12.727224
_cell_angle_alpha 90.000000
_cell_angle_beta 23.751440
_cell_angle_gamma 90.000000
_cell_volume 980.198890
_symmetry_space_group_name_H-M "P 21/M"
_symmetry_group_IT_number 11
_symmetry_cell_setting 'monoclinic'
loop_
_space_group_symop_operation_xyz
x,y,z
-x,1/2+y,-z
-x,-y,-z
x,1/2-y,z
loop_
_atom_site_type_symbol
_atom_site_label
_atom_site_fract_x
_atom_site_fract_y
_atom_site_fract_z
Si Si1 0.665240 0.421515 0.725224
Si Si2 0.185645 0.409659 0.318172
Si Si3 0.170722 0.921287 0.739830
Si Si4 0.652825 0.418373 0.315519
Si Si5 0.185717 0.907434 0.131859
O O1 0.645659 0.250000 0.768752
O O2 0.794648 0.483468 0.613240
O O3 0.729873 0.461021 0.513122
O O4 0.500000 0.500000 0.000000
O O5 0.263176 0.250000 0.222550
O O6 0.266106 0.478715 0.093191
O O7 0.000871 0.393256 0.569305
O O8 0.137315 0.750000 0.797704
O O9 0.280699 0.976498 0.672542
O O10 0.000000 0.000000 0.000000
O O11 0.500000 0.500000 0.500000
O O12 0.609532 0.250000 0.390735
O O13 0.789934 0.451370 0.025279
O O14 0.266206 0.750000 0.032998
#
# Coordination Sequence:
#
# PCOD8074830 Si02
#       5
#     4   4   4   4   4
#     4  11  24  40  60  89 125 161 203 252 304 363
#     4  10  20  36  60  86 116 154 197 247 300 355
#     4  10  23  43  66  92 125 163 208 257 307 370
#     4  10  22  39  59  87 122 157 198 249 302 360
#     4   9  19  36  58  85 117 153 195 243 298 359
#
# _framework density 20.404022999999999
#
# number of rings (size 3 to 8) (size 9 to 14) (size 15 to 20)
#    0.000    2.000    0.000    2.400    2.800    5.600 
#    0.000    0.000    0.000    0.000    0.000    0.000 
#    0.000    0.000    0.000    0.000    0.000    0.000 
#
# Total GULP energy -247903.135719 kJ/mol
# GULP energy per Si atom -12395.156786 kJ/mol
# Density = 2.035758 g / cm^3
# Si number density = 20.404023 Si / 1000 Ang^3
#
#
#
# Elastic Constant Matrix: (Units=GPa)
#
#
# Indices 1 2 3 4 5 6 
#
# 1 179.7634 75.2475 55.1638 0.0000 20.4791 0.0000
# 2 75.2475 106.7568 53.2840 0.0000 11.9715 0.0000
# 3 55.1638 53.2840 91.1019 0.0000 13.5515 0.0000
# 4 0.0000 0.0000 0.0000 26.6144 0.0000 -5.1366
# 5 20.4791 11.9715 13.5515 0.0000 38.9644 0.0000
# 6 0.0000 0.0000 0.0000 -5.1366 0.0000 36.2957
#
#
#
# Elastic Compliance Matrix: (Units=1/GPa)
#
#
# Indices 1 2 3 4 5 6 
#
# 1 0.008388 -0.004648 -0.002022 0.000000 -0.002278 0.000000
# 2 -0.004648 0.015882 -0.006446 0.000000 -0.000195 0.000000
# 3 -0.002022 -0.006446 0.016365 0.000000 -0.002648 0.000000
# 4 0.000000 0.000000 0.000000 0.038629 0.000000 0.005467
# 5 -0.002278 -0.000195 -0.002648 0.000000 0.027842 0.000000
# 6 0.000000 0.000000 0.000000 0.005467 0.000000 0.028325
#
#
# Mechanical properties :
#
#
# Convention : Reuss Voigt Hill
#
# Bulk Modulus (GPa) = 69.42451 82.77919 76.10185
# Shear Modulus (GPa) = 30.03629 33.30336 31.66982
#
# Velocity S-wave (km/s) = 3.84093 4.04443 3.94399
# Velocity P-wave (km/s) = 7.33274 7.90367 7.62355
#
# Compressibility (1/GPa) = 0.01440413
#
# Stress axis : x y z
#
# Youngs Moduli (GPa) = 119.21186 62.96320 61.10551
#
# Poissons Ratio (x) = 0.29265 0.12356
# Poissons Ratio (y) = 0.55409 0.39388
# Poissons Ratio (z) = 0.24105 0.40585
#
# Static dielectric constant tensor:
#      x y z
#    x 4.088590 0.000000 0.359280 
#    y 0.000000 3.748730 0.000000 
#    z 0.359280 0.000000 3.714330 
# 
# 
# High freq. dielectric constant tensor:
#      x y z
#    x 1.809780 0.000000 0.013020 
#    y 0.000000 1.800630 0.000000 
#    z 0.013020 0.000000 1.788720 
# 
# From -- ./inp_files/55343.got.cif
#   From: 2010.06.25/outbox.cif.g09.slc.cpg/sg11_28_cif.got.tgz:55343.got - 2010.06.27 23:14:04.
