data_PCOD8074114
_publ_section_title
;
Structure prediction by ZEFSAII (Michael W. Deem and Ramdas Pophale) SiO2 
 PCOD8074114
Probable space group: P 21/M
;
_chemical_formula_sum "Si O2"
_cell_formula_units_Z 32
_cell_length_a 12.560517
_cell_length_b 13.976695
_cell_length_c 19.410508
_cell_angle_alpha 90.000000
_cell_angle_beta 27.441029
_cell_angle_gamma 90.000000
_cell_volume 1570.343859
_symmetry_space_group_name_H-M "P 21/M"
_symmetry_group_IT_number 11
_symmetry_cell_setting 'monoclinic'
loop_
_space_group_symop_operation_xyz
x,y,z
-x,1/2+y,-z
-x,-y,-z
x,1/2-y,z
loop_
_atom_site_type_symbol
_atom_site_label
_atom_site_fract_x
_atom_site_fract_y
_atom_site_fract_z
Si Si1 0.228701 0.139988 0.598627
Si Si2 0.985376 0.033174 0.854911
Si Si3 0.577333 0.519600 0.167247
Si Si4 0.263870 0.859246 0.502696
Si Si5 0.750896 0.140136 0.339185
Si Si6 0.239965 0.136153 0.825306
Si Si7 0.699085 0.855069 0.596337
Si Si8 0.893932 0.101638 0.551902
O O1 0.150079 0.250000 0.641997
O O2 0.037487 0.081814 0.751447
O O3 0.475305 0.128373 0.493818
O O4 0.243850 0.099831 0.511598
O O5 0.049925 0.106793 0.878841
O O6 0.121940 0.932357 0.785437
O O7 0.708938 0.014255 0.022017
O O8 0.782145 0.574571 0.091709
O O9 0.470939 0.426516 0.266400
O O10 0.373125 0.597236 0.268897
O O11 0.317070 0.750000 0.487372
O O12 0.168890 0.897195 0.630467
O O13 0.511555 0.903831 0.342981
O O14 0.089654 0.870964 0.538499
O O15 0.823698 0.250000 0.280780
O O16 0.227533 0.250000 0.846358
O O17 0.579033 0.750000 0.656369
O O18 0.941124 0.832071 0.497052
O O19 0.000000 0.000000 0.500000
#
# Coordination Sequence:
#
# PCOD8074114 Si02
#       8
#     4   4   4   4   4   4   4   4
#     4  10  21  36  58  87 116 152 195 237 289 348
#     4  12  22  34  57  86 122 157 185 235 300 355
#     4  10  23  38  55  89 117 154 193 244 301 346
#     4   9  17  32  55  82 105 141 195 243 281 326
#     4  10  21  35  55  84 117 154 196 239 286 351
#     4  10  20  35  56  82 117 157 197 233 282 349
#     4  10  21  39  63  86 113 154 202 250 292 345
#     4   9  19  35  59  80 108 144 199 246 285 338
#
# _framework density 20.377703
#
# number of rings (size 3 to 8) (size 9 to 14) (size 15 to 20)
#    0.000    2.000    1.250    2.250    5.250    2.000 
#    0.000    1.875    0.000    0.000    0.000    0.000 
#    0.000    0.000    0.000    0.000    0.000    0.000 
#
# Total GULP energy -396481.502837 kJ/mol
# GULP energy per Si atom -12390.046964 kJ/mol
# Density = 2.033132 g / cm^3
# Si number density = 20.377703 Si / 1000 Ang^3
#
#
#
# Elastic Constant Matrix: (Units=GPa)
#
#
# Indices 1 2 3 4 5 6 
#
# 1 99.8572 14.5531 29.8815 0.0000 6.9666 0.0000
# 2 14.5531 79.1969 44.7930 0.0000 10.9303 0.0000
# 3 29.8815 44.7930 105.2597 0.0000 16.9741 0.0000
# 4 0.0000 0.0000 0.0000 15.2162 0.0000 2.3489
# 5 6.9666 10.9303 16.9741 0.0000 19.2430 0.0000
# 6 0.0000 0.0000 0.0000 2.3489 0.0000 27.9881
#
#
#
# Elastic Compliance Matrix: (Units=1/GPa)
#
#
# Indices 1 2 3 4 5 6 
#
# 1 0.010981 -0.000251 -0.002789 0.000000 -0.001373 0.000000
# 2 -0.000251 0.016868 -0.006501 0.000000 -0.003756 0.000000
# 3 -0.002789 -0.006501 0.014340 0.000000 -0.007947 0.000000
# 4 0.000000 0.000000 0.000000 0.066582 0.000000 -0.005588
# 5 -0.001373 -0.003756 -0.007947 0.000000 0.061607 0.000000
# 6 0.000000 0.000000 0.000000 -0.005588 0.000000 0.036198
#
#
# Mechanical properties :
#
#
# Convention : Reuss Voigt Hill
#
# Bulk Modulus (GPa) = 43.27731 51.41879 47.34805
# Shear Modulus (GPa) = 21.42587 25.49521 23.46054
#
# Velocity S-wave (km/s) = 3.24610 3.54097 3.39674
# Velocity P-wave (km/s) = 5.94418 6.48118 6.21848
#
# Compressibility (1/GPa) = 0.02310680
#
# Stress axis : x y z
#
# Youngs Moduli (GPa) = 91.06389 59.28268 69.73358
#
# Poissons Ratio (x) = 0.01487 0.19451
# Poissons Ratio (y) = 0.02284 0.45337
# Poissons Ratio (z) = 0.25401 0.38542
#
# Static dielectric constant tensor:
#      x y z
#    x 4.111370 0.000000 -0.101230 
#    y 0.000000 4.041940 0.000000 
#    z -0.101230 0.000000 3.599070 
# 
# 
# High freq. dielectric constant tensor:
#      x y z
#    x 1.781940 0.000000 0.014310 
#    y 0.000000 1.817330 0.000000 
#    z 0.014310 0.000000 1.761900 
# 
# From -- ./inp_files/59436.got.cif
#   From: 2010.06.25/outbox.cif.g09.slc.cpg/sg11_30_cif.got.tgz:59436.got - 2010.06.27 23:14:04.
