data_PCOD8074731
_publ_section_title
;
Structure prediction by ZEFSAII (Michael W. Deem and Ramdas Pophale) SiO2 
 PCOD8074731
Probable space group: P 21/M
;
_chemical_formula_sum "Si O2"
_cell_formula_units_Z 32
_cell_length_a 8.292172
_cell_length_b 27.894071
_cell_length_c 13.698188
_cell_angle_alpha 90.000000
_cell_angle_beta 29.888491
_cell_angle_gamma 90.000000
_cell_volume 1578.868874
_symmetry_space_group_name_H-M "P 21/M"
_symmetry_group_IT_number 11
_symmetry_cell_setting 'monoclinic'
loop_
_space_group_symop_operation_xyz
x,y,z
-x,1/2+y,-z
-x,-y,-z
x,1/2-y,z
loop_
_atom_site_type_symbol
_atom_site_label
_atom_site_fract_x
_atom_site_fract_y
_atom_site_fract_z
Si Si1 0.983124 0.878293 0.210514
Si Si2 0.666802 0.948118 0.111067
Si Si3 0.035826 0.120923 0.189307
Si Si4 0.911252 0.696132 0.561628
Si Si5 0.360426 0.879077 0.414441
Si Si6 0.597790 0.621707 0.595847
Si Si7 0.315280 0.554815 0.894907
Si Si8 0.492612 0.303868 0.034508
O O1 0.711843 0.865914 0.272573
O O2 0.815466 0.900666 0.394844
O O3 0.242607 0.916474 0.033044
O O4 0.159359 0.829149 0.146562
O O5 0.389345 0.921189 0.318976
O O6 0.548222 0.002163 0.150593
O O7 0.735626 0.921189 0.972700
O O8 0.991855 0.950196 0.002720
O O9 0.247862 0.168607 0.090989
O O10 0.883516 0.103442 0.372161
O O11 0.758594 0.134087 0.256990
O O12 0.014526 0.750000 0.479057
O O13 0.758407 0.670851 0.547516
O O14 0.639598 0.696281 0.786801
O O15 0.231313 0.668608 0.429838
O O16 0.584341 0.583525 0.691305
O O17 0.533776 0.250000 0.972640
#
# Coordination Sequence:
#
# PCOD8074731 Si02
#       8
#     4   4   4   4   4   4   4   4
#     4  10  20  36  59  83 113 149 186 230 277 333
#     4   9  18  34  61  83 110 149 187 229 281 331
#     4   9  20  37  57  82 114 148 186 231 277 332
#     4  10  21  38  59  81 113 150 185 234 286 332
#     4   9  20  37  57  82 114 148 186 231 277 332
#     4  10  20  36  59  83 113 149 186 230 277 333
#     4   9  18  36  57  85 114 145 185 233 281 329
#     4  10  21  38  59  81 113 150 185 234 286 332
#
# _framework density 20.267674
#
# number of rings (size 3 to 8) (size 9 to 14) (size 15 to 20)
#    0.000    2.500    1.250    0.000    1.750    2.500 
#    0.000    8.750    0.000    0.000    0.000    0.000 
#    0.000    0.000    0.000    0.000    0.000    0.000 
#
# Total GULP energy -396809.294899 kJ/mol
# GULP energy per Si atom -12400.290466 kJ/mol
# Density = 2.022154 g / cm^3
# Si number density = 20.267674 Si / 1000 Ang^3
#
#
#
# Elastic Constant Matrix: (Units=GPa)
#
#
# Indices 1 2 3 4 5 6 
#
# 1 73.8994 56.7990 44.6300 0.0000 10.0823 0.0000
# 2 56.7990 178.3155 74.5072 0.0000 13.2140 0.0000
# 3 44.6300 74.5072 107.8626 0.0000 15.2599 0.0000
# 4 0.0000 0.0000 0.0000 25.6704 0.0000 -0.2366
# 5 10.0823 13.2140 15.2599 0.0000 25.2537 0.0000
# 6 0.0000 0.0000 0.0000 -0.2366 0.0000 25.9875
#
#
#
# Elastic Compliance Matrix: (Units=1/GPa)
#
#
# Indices 1 2 3 4 5 6 
#
# 1 0.020135 -0.004063 -0.005126 0.000000 -0.002815 0.000000
# 2 -0.004063 0.008723 -0.004295 0.000000 -0.000347 0.000000
# 3 -0.005126 -0.004295 0.015037 0.000000 -0.004792 0.000000
# 4 0.000000 0.000000 0.000000 0.038959 0.000000 0.000355
# 5 -0.002815 -0.000347 -0.004792 0.000000 0.043799 0.000000
# 6 0.000000 0.000000 0.000000 0.000355 0.000000 0.038483
#
#
# Mechanical properties :
#
#
# Convention : Reuss Voigt Hill
#
# Bulk Modulus (GPa) = 59.08195 79.10555 69.09375
# Shear Modulus (GPa) = 25.28500 27.65840 26.47170
#
# Velocity S-wave (km/s) = 3.53590 3.69813 3.61793
# Velocity P-wave (km/s) = 6.77379 7.57298 7.18451
#
# Compressibility (1/GPa) = 0.01692564
#
# Stress axis : x y z
#
# Youngs Moduli (GPa) = 49.66564 114.64574 66.50277
#
# Poissons Ratio (x) = 0.46580 0.34091
# Poissons Ratio (y) = 0.20179 0.28563
# Poissons Ratio (z) = 0.25460 0.49241
#
# Static dielectric constant tensor:
#      x y z
#    x 3.570120 0.000000 0.136440 
#    y 0.000000 3.772600 0.000000 
#    z 0.136440 0.000000 3.752960 
# 
# 
# High freq. dielectric constant tensor:
#      x y z
#    x 1.786160 0.000000 0.008370 
#    y 0.000000 1.775920 0.000000 
#    z 0.008370 0.000000 1.797380 
# 
# From -- ./inp_files/48513.got.cif
#   From: 2010.06.25/outbox.cif.g09.slc.cpg/sg11_25_cif.got.tgz:48513.got - 2010.06.27 23:14:04.
