data_PCOD8074087
_publ_section_title
;
Structure prediction by ZEFSAII (Michael W. Deem and Ramdas Pophale) SiO2 
 PCOD8074087
Probable space group: P 21/M
;
_chemical_formula_sum "Si O2"
_cell_formula_units_Z 32
_cell_length_a 15.992108
_cell_length_b 14.071592
_cell_length_c 11.965743
_cell_angle_alpha 90.000000
_cell_angle_beta 36.121964
_cell_angle_gamma 90.000000
_cell_volume 1587.365319
_symmetry_space_group_name_H-M "P 21/M"
_symmetry_group_IT_number 11
_symmetry_cell_setting 'monoclinic'
loop_
_space_group_symop_operation_xyz
x,y,z
-x,1/2+y,-z
-x,-y,-z
x,1/2-y,z
loop_
_atom_site_type_symbol
_atom_site_label
_atom_site_fract_x
_atom_site_fract_y
_atom_site_fract_z
Si Si1 0.870911 0.030808 0.017905
Si Si2 0.663982 0.474426 0.046055
Si Si3 0.087267 0.355237 0.637319
Si Si4 0.404838 0.361693 0.252627
Si Si5 0.084783 0.592627 0.377529
Si Si6 0.221542 0.643651 0.453465
Si Si7 0.937673 0.363632 0.155692
Si Si8 0.469306 0.361838 0.928872
O O1 0.999575 0.072535 0.806364
O O2 0.727079 0.025207 0.102580
O O3 0.843330 0.101439 0.152191
O O4 0.914930 0.923878 0.009097
O O5 0.518496 0.414953 0.207485
O O6 0.638047 0.583307 0.037069
O O7 0.769875 0.425552 0.844834
O O8 0.087712 0.250000 0.691089
O O9 0.246705 0.395826 0.455258
O O10 0.018750 0.344825 0.587810
O O11 0.422622 0.250000 0.252995
O O12 0.432697 0.388863 0.094640
O O13 0.120283 0.644520 0.454792
O O14 0.000000 0.500000 0.500000
O O15 0.260581 0.750000 0.443701
O O16 0.141040 0.601056 0.647022
O O17 0.373261 0.595031 0.264883
O O18 0.967132 0.250000 0.120195
O O19 0.452936 0.250000 0.924244
#
# Coordination Sequence:
#
# PCOD8074087 Si02
#       8
#     4   4   4   4   4   4   4   4
#     4  10  23  41  62  90 112 150 197 243 296 343
#     4  11  22  35  59  86 119 154 189 243 289 341
#     4  10  21  36  58  86 121 157 193 243 294 345
#     4  10  21  35  55  87 123 161 195 230 287 348
#     4  11  21  32  53  87 120 152 196 241 290 347
#     4  10  20  35  56  81 113 153 193 236 284 343
#     4  10  22  41  64  85 113 150 196 244 291 346
#     4  10  21  35  54  83 122 160 193 230 285 348
#
# _framework density 20.159192000000001
#
# number of rings (size 3 to 8) (size 9 to 14) (size 15 to 20)
#    0.000    1.750    1.250    3.375    3.500    3.000 
#    0.000    3.750    0.000    0.000    0.000    0.000 
#    0.000    0.000    0.000    0.000    0.000    0.000 
#
# Total GULP energy -396745.978542 kJ/mol
# GULP energy per Si atom -12398.311829 kJ/mol
# Density = 2.011331 g / cm^3
# Si number density = 20.159192 Si / 1000 Ang^3
#
#
#
# Elastic Constant Matrix: (Units=GPa)
#
#
# Indices 1 2 3 4 5 6 
#
# 1 153.3694 35.9911 38.4592 0.0000 -3.2464 0.0000
# 2 35.9911 71.5057 16.1765 0.0000 -7.0845 0.0000
# 3 38.4592 16.1765 57.8596 0.0000 -10.2963 0.0000
# 4 0.0000 0.0000 0.0000 22.5730 0.0000 1.6899
# 5 -3.2464 -7.0845 -10.2963 0.0000 36.6484 0.0000
# 6 0.0000 0.0000 0.0000 1.6899 0.0000 28.3948
#
#
#
# Elastic Compliance Matrix: (Units=1/GPa)
#
#
# Indices 1 2 3 4 5 6 
#
# 1 0.008509 -0.003286 -0.004964 0.000000 -0.001276 0.000000
# 2 -0.003286 0.016312 -0.001965 0.000000 0.002310 0.000000
# 3 -0.004964 -0.001965 0.022091 0.000000 0.005387 0.000000
# 4 0.000000 0.000000 0.000000 0.044499 0.000000 -0.002648
# 5 -0.001276 0.002310 0.005387 0.000000 0.029133 0.000000
# 6 0.000000 0.000000 0.000000 -0.002648 0.000000 0.035375
#
#
# Mechanical properties :
#
#
# Convention : Reuss Voigt Hill
#
# Bulk Modulus (GPa) = 37.76293 51.55427 44.65860
# Shear Modulus (GPa) = 27.00086 30.33042 28.66564
#
# Velocity S-wave (km/s) = 3.66373 3.88306 3.77498
# Velocity P-wave (km/s) = 6.05559 6.76264 6.41886
#
# Compressibility (1/GPa) = 0.02648100
#
# Stress axis : x y z
#
# Youngs Moduli (GPa) = 117.51865 61.30281 45.26709
#
# Poissons Ratio (x) = 0.20146 0.22473
# Poissons Ratio (y) = 0.38621 0.08896
# Poissons Ratio (z) = 0.58341 0.12047
#
# Static dielectric constant tensor:
#      x y z
#    x 3.595840 0.000000 -0.124140 
#    y 0.000000 3.648760 0.000000 
#    z -0.124140 0.000000 3.624460 
# 
# 
# High freq. dielectric constant tensor:
#      x y z
#    x 1.778990 0.000000 -0.004820 
#    y 0.000000 1.799640 0.000000 
#    z -0.004820 0.000000 1.774670 
# 
# From -- ./inp_files/22240.got.cif
#   From: 2010.06.25/outbox.cif.g09.slc.cpg/sg11_12_cif.got.tgz:22240.got - 2010.06.27 23:14:04.
