data_PCOD8074620
_publ_section_title
;
Structure prediction by ZEFSAII (Michael W. Deem and Ramdas Pophale) SiO2 
 PCOD8074620
Probable space group: P 21/M
;
_chemical_formula_sum "Si O2"
_cell_formula_units_Z 32
_cell_length_a 23.410077
_cell_length_b 9.104450
_cell_length_c 14.763848
_cell_angle_alpha 90.000000
_cell_angle_beta 149.998584
_cell_angle_gamma 90.000000
_cell_volume 1573.420183
_symmetry_space_group_name_H-M "P 21/M"
_symmetry_group_IT_number 11
_symmetry_cell_setting 'monoclinic'
loop_
_space_group_symop_operation_xyz
x,y,z
-x,1/2+y,-z
-x,-y,-z
x,1/2-y,z
loop_
_atom_site_type_symbol
_atom_site_label
_atom_site_fract_x
_atom_site_fract_y
_atom_site_fract_z
Si Si1 0.390264 0.908595 0.328354
Si Si2 0.215648 0.925613 0.939174
Si Si3 0.224365 0.419904 0.585339
Si Si4 0.581062 0.419459 0.260203
Si Si5 0.912483 0.582197 0.940060
Si Si6 0.291663 0.907948 0.388391
Si Si7 0.678233 0.581237 0.085356
Si Si8 0.983284 0.924291 0.236279
O O1 0.427642 0.750000 0.340394
O O2 0.331194 0.886327 0.341803
O O3 0.500000 0.000000 0.500000
O O4 0.305026 0.981977 0.138397
O O5 0.200419 0.750000 0.919372
O O6 0.262766 0.977902 0.907556
O O7 0.092200 0.999778 0.788644
O O8 0.207707 0.250000 0.534432
O O9 0.332949 0.483561 0.680842
O O10 0.246035 0.434186 0.721496
O O11 0.110673 0.510853 0.406600
O O12 0.594182 0.250000 0.248090
O O13 0.607330 0.443063 0.402775
O O14 0.450534 0.472752 0.068532
O O15 0.939003 0.750000 0.965632
O O16 0.792623 0.544897 0.728895
O O17 0.920744 0.535723 0.056206
O O18 0.000000 0.500000 0.000000
O O19 0.234688 0.750000 0.339139
O O20 0.674783 0.750000 0.045913
O O21 0.990130 0.750000 0.263025
#
# Coordination Sequence:
#
# PCOD8074620 Si02
#       8
#     4   4   4   4   4   4   4   4
#     4  10  21  36  57  86 121 159 198 241 292 351
#     4  11  23  40  64  93 124 162 209 261 308 360
#     4  11  24  41  64  92 122 160 207 263 318 368
#     4  10  21  39  64  92 125 164 204 250 309 376
#     4  11  23  37  57  85 117 157 199 242 294 353
#     4  10  20  36  57  84 119 156 192 234 290 350
#     4  10  23  43  65  90 123 164 206 255 319 377
#     4  11  24  42  63  88 123 167 209 254 312 374
#
# _framework density 20.337859999999999
#
# number of rings (size 3 to 8) (size 9 to 14) (size 15 to 20)
#    0.000    1.500    1.250    3.375    0.000    9.500 
#    0.000    0.000    0.000    0.000    0.000    0.000 
#    0.000    0.000    0.000    0.000    0.000    0.000 
#
# Total GULP energy -396702.682127 kJ/mol
# GULP energy per Si atom -12396.958816 kJ/mol
# Density = 2.029157 g / cm^3
# Si number density = 20.337860 Si / 1000 Ang^3
#
#
#
# Elastic Constant Matrix: (Units=GPa)
#
#
# Indices 1 2 3 4 5 6 
#
# 1 77.2539 50.0516 3.4217 0.0000 8.8576 0.0000
# 2 50.0516 93.8995 40.2032 0.0000 9.4655 0.0000
# 3 3.4217 40.2032 67.3732 0.0000 7.4600 0.0000
# 4 0.0000 0.0000 0.0000 91.2610 0.0000 14.8341
# 5 8.8576 9.4655 7.4600 0.0000 38.2576 0.0000
# 6 0.0000 0.0000 0.0000 14.8341 0.0000 39.7774
#
#
#
# Elastic Compliance Matrix: (Units=1/GPa)
#
#
# Indices 1 2 3 4 5 6 
#
# 1 0.023028 -0.015590 0.008480 0.000000 -0.003128 0.000000
# 2 -0.015590 0.024997 -0.014145 0.000000 0.000183 0.000000
# 3 0.008480 -0.014145 0.023183 0.000000 -0.002984 0.000000
# 4 0.000000 0.000000 0.000000 0.011665 0.000000 -0.004350
# 5 -0.003128 0.000183 -0.002984 0.000000 0.027399 0.000000
# 6 0.000000 0.000000 0.000000 -0.004350 0.000000 0.026762
#
#
# Mechanical properties :
#
#
# Convention : Reuss Voigt Hill
#
# Bulk Modulus (GPa) = 34.84579 47.31994 41.08287
# Shear Modulus (GPa) = 26.43950 43.51586 34.97768
#
# Velocity S-wave (km/s) = 3.60948 4.63065 4.15158
# Velocity P-wave (km/s) = 5.87723 7.20472 6.57456
#
# Compressibility (1/GPa) = 0.02869787
#
# Stress axis : x y z
#
# Youngs Moduli (GPa) = 43.42574 40.00421 43.13483
#
# Poissons Ratio (x) = 0.62366 -0.36577
# Poissons Ratio (y) = 0.67700 0.61014
# Poissons Ratio (z) = -0.36824 0.56586
#
# Static dielectric constant tensor:
#      x y z
#    x 3.551620 0.000000 -0.141680 
#    y 0.000000 4.028620 0.000000 
#    z -0.141680 0.000000 3.630470 
# 
# 
# High freq. dielectric constant tensor:
#      x y z
#    x 1.795950 0.000000 -0.002310 
#    y 0.000000 1.798620 0.000000 
#    z -0.002310 0.000000 1.801320 
# 
# From -- ./inp_files/55672.got.cif
#   From: 2010.06.25/outbox.cif.g09.slc.cpg/sg11_28_cif.got.tgz:55672.got - 2010.06.27 23:14:04.
