data_PCOD8074727
_publ_section_title
;
Structure prediction by ZEFSAII (Michael W. Deem and Ramdas Pophale) SiO2 
 PCOD8074727
Probable space group: P 21/M
;
_chemical_formula_sum "Si O2"
_cell_formula_units_Z 32
_cell_length_a 24.222069
_cell_length_b 9.298810
_cell_length_c 22.998488
_cell_angle_alpha 90.000000
_cell_angle_beta 19.369758
_cell_angle_gamma 90.000000
_cell_volume 1718.047725
_symmetry_space_group_name_H-M "P 21/M"
_symmetry_group_IT_number 11
_symmetry_cell_setting 'monoclinic'
loop_
_space_group_symop_operation_xyz
x,y,z
-x,1/2+y,-z
-x,-y,-z
x,1/2-y,z
loop_
_atom_site_type_symbol
_atom_site_label
_atom_site_fract_x
_atom_site_fract_y
_atom_site_fract_z
Si Si1 0.929469 0.417266 0.403820
Si Si2 0.354701 0.094682 0.664593
Si Si3 0.151932 0.080156 0.977588
Si Si4 0.947681 0.417869 0.609500
Si Si5 0.558149 0.081822 0.999274
Si Si6 0.552944 0.082404 0.779356
Si Si7 0.762427 0.919587 0.980629
Si Si8 0.944915 0.591494 0.109663
O O1 0.959790 0.250000 0.389578
O O2 0.740325 0.437866 0.567151
O O3 0.945873 0.513178 0.444705
O O4 0.069391 0.471976 0.219164
O O5 0.421669 0.250000 0.617594
O O6 0.266133 0.029682 0.810018
O O7 0.249209 0.109915 0.710105
O O8 0.500000 0.000000 0.500000
O O9 0.116072 0.250000 0.013540
O O10 0.229733 0.024918 0.960777
O O11 0.979387 0.995188 0.135665
O O12 0.992319 0.250000 0.559045
O O13 0.753598 0.441031 0.815117
O O14 0.000000 0.500000 0.500000
O O15 0.512657 0.250000 0.039372
O O16 0.500000 0.000000 0.000000
O O17 0.459057 0.011635 0.150835
O O18 0.521688 0.250000 0.825696
O O19 0.410156 0.025128 0.876740
O O20 0.759952 0.750000 0.983296
O O21 0.029996 0.750000 0.027222
O O22 0.000000 0.500000 0.000000
#
# Coordination Sequence:
#
# PCOD8074727 Si02
#       8
#     4   4   4   4   4   4   4   4
#     4  10  20  36  59  84 107 142 185 223 276 334
#     4   9  18  31  49  76 110 141 176 220 266 316
#     4   9  18  34  54  79 107 142 182 220 266 320
#     4  11  23  37  55  81 111 144 182 227 278 334
#     4  11  23  37  55  81 111 144 182 225 279 336
#     4  10  20  36  59  83 109 143 182 226 275 329
#     4   9  18  36  58  81 114 146 181 231 273 319
#     4   9  17  31  51  75 102 135 173 215 261 311
#
# _framework density 18.625792000000001
#
# number of rings (size 3 to 8) (size 9 to 14) (size 15 to 20)
#    0.000    2.250    1.250    2.625    0.000    7.500 
#    2.250    1.250    0.000    0.000    0.000    0.000 
#    0.000    0.000    0.000    0.000    0.000    0.000 
#
# Total GULP energy -396507.417046 kJ/mol
# GULP energy per Si atom -12390.856783 kJ/mol
# Density = 1.858340 g / cm^3
# Si number density = 18.625792 Si / 1000 Ang^3
#
#
#
# Elastic Constant Matrix: (Units=GPa)
#
#
# Indices 1 2 3 4 5 6 
#
# 1 149.3992 44.9278 54.4153 0.0000 -10.3891 0.0000
# 2 44.9278 84.9589 36.2040 0.0000 -8.4889 0.0000
# 3 54.4153 36.2040 108.7056 0.0000 -10.4463 0.0000
# 4 0.0000 0.0000 0.0000 27.0337 0.0000 -2.6885
# 5 -10.3891 -8.4889 -10.4463 0.0000 22.5502 0.0000
# 6 0.0000 0.0000 0.0000 -2.6885 0.0000 28.0481
#
#
#
# Elastic Compliance Matrix: (Units=1/GPa)
#
#
# Indices 1 2 3 4 5 6 
#
# 1 0.008946 -0.003193 -0.003280 0.000000 0.001400 0.000000
# 2 -0.003193 0.015080 -0.003160 0.000000 0.002742 0.000000
# 3 -0.003280 -0.003160 0.012176 0.000000 0.002940 0.000000
# 4 0.000000 0.000000 0.000000 0.037347 0.000000 0.003580
# 5 0.001400 0.002742 0.002940 0.000000 0.047384 0.000000
# 6 0.000000 0.000000 0.000000 0.003580 0.000000 0.035996
#
#
# Mechanical properties :
#
#
# Convention : Reuss Voigt Hill
#
# Bulk Modulus (GPa) = 59.05107 68.23977 63.64542
# Shear Modulus (GPa) = 27.49658 29.36083 28.42871
#
# Velocity S-wave (km/s) = 3.84639 3.97464 3.91104
# Velocity P-wave (km/s) = 7.17628 7.60135 7.39187
#
# Compressibility (1/GPa) = 0.01693449
#
# Stress axis : x y z
#
# Youngs Moduli (GPa) = 111.78516 66.31463 82.12785
#
# Poissons Ratio (x) = 0.21175 0.26938
# Poissons Ratio (y) = 0.35693 0.25956
# Poissons Ratio (z) = 0.36666 0.20958
#
# Static dielectric constant tensor:
#      x y z
#    x 1160.117630 0.000000 0.644730 
#    y 0.000000 3.689370 0.000000 
#    z 0.644730 0.000000 3.541560 
# 
# 
# High freq. dielectric constant tensor:
#      x y z
#    x 1.717560 0.000000 -0.015460 
#    y 0.000000 1.716820 0.000000 
#    z -0.015460 0.000000 1.715620 
# 
# From -- ./inp_files/69946.got.cif
#   From: 2010.06.25/outbox.cif.g09.slc.cpg/sg11_35_cif.got.tgz:69946.got - 2010.06.27 23:14:04.
