data_PCOD8074889
_publ_section_title
;
Structure prediction by ZEFSAII (Michael W. Deem and Ramdas Pophale) SiO2 
 PCOD8074889
Probable space group: P 21/M
;
_chemical_formula_sum "Si O2"
_cell_formula_units_Z 28
_cell_length_a 28.056332
_cell_length_b 8.540088
_cell_length_c 9.794687
_cell_angle_alpha 90.000000
_cell_angle_beta 142.471691
_cell_angle_gamma 90.000000
_cell_volume 1429.586469
_symmetry_space_group_name_H-M "P 21/M"
_symmetry_group_IT_number 11
_symmetry_cell_setting 'monoclinic'
loop_
_space_group_symop_operation_xyz
x,y,z
-x,1/2+y,-z
-x,-y,-z
x,1/2-y,z
loop_
_atom_site_type_symbol
_atom_site_label
_atom_site_fract_x
_atom_site_fract_y
_atom_site_fract_z
Si Si1 0.139620 0.064430 0.469314
Si Si2 0.128679 0.068380 0.133821
Si Si3 0.463206 0.066361 0.281890
Si Si4 0.693641 0.069870 0.153963
Si Si5 0.292536 0.570245 0.498549
Si Si6 0.998317 0.933308 0.648481
Si Si7 0.552536 0.932235 0.237164
O O1 0.150549 0.250000 0.497279
O O2 0.114547 0.012401 0.258584
O O3 0.075562 0.003192 0.432032
O O4 0.220521 0.984661 0.696822
O O5 0.109235 0.250000 0.072512
O O6 0.217984 0.036130 0.294534
O O7 0.075635 0.973263 0.908545
O O8 0.479573 0.250000 0.299299
O O9 0.500000 0.000000 0.500000
O O10 0.505720 0.961581 0.267203
O O11 0.370202 0.034829 0.069079
O O12 0.682502 0.250000 0.087323
O O13 0.681207 0.043814 0.286348
O O14 0.270652 0.750000 0.420617
O O15 0.363731 0.517862 0.564466
O O16 0.991122 0.750000 0.617197
O O17 0.000000 0.000000 0.500000
O O18 0.566918 0.750000 0.245029
O O19 0.500000 0.000000 0.000000
#
# Coordination Sequence:
#
# PCOD8074889 Si02
#       7
#     4   4   4   4   4   4   4
#     4   9  20  38  62  89 117 152 196 244 297 353
#     4  10  20  37  62  90 119 152 195 245 297 355
#     4  12  25  42  62  86 122 162 204 252 303 361
#     4  10  20  36  61  90 121 154 198 247 299 357
#     4  10  20  36  60  91 123 155 197 249 299 350
#     4  11  23  40  60  86 121 158 196 240 296 358
#     4  12  23  38  62  91 122 160 204 249 301 356
#
# _framework density 19.586084
#
# number of rings (size 3 to 8) (size 9 to 14) (size 15 to 20)
#    0.000    1.429    1.429    4.714    0.000    2.857 
#    2.571    0.000    0.000    0.000    0.000    0.000 
#    0.000    0.000    0.000    0.000    0.000    0.000 
#
# Total GULP energy -347293.984121 kJ/mol
# GULP energy per Si atom -12403.356576 kJ/mol
# Density = 1.954150 g / cm^3
# Si number density = 19.586084 Si / 1000 Ang^3
#
#
#
# Elastic Constant Matrix: (Units=GPa)
#
#
# Indices 1 2 3 4 5 6 
#
# 1 114.3465 16.6505 65.1283 0.0000 5.7053 0.0000
# 2 16.6505 64.9659 24.7997 0.0000 0.7618 0.0000
# 3 65.1283 24.7997 115.8865 0.0000 2.1706 0.0000
# 4 0.0000 0.0000 0.0000 35.5394 0.0000 4.1350
# 5 5.7053 0.7618 2.1706 0.0000 29.0630 0.0000
# 6 0.0000 0.0000 0.0000 4.1350 0.0000 31.9254
#
#
#
# Elastic Compliance Matrix: (Units=1/GPa)
#
#
# Indices 1 2 3 4 5 6 
#
# 1 0.012999 -0.000581 -0.007143 0.000000 -0.002003 0.000000
# 2 -0.000581 0.016789 -0.003265 0.000000 -0.000082 0.000000
# 3 -0.007143 -0.003265 0.013333 0.000000 0.000492 0.000000
# 4 0.000000 0.000000 0.000000 0.028568 0.000000 -0.003700
# 5 -0.002003 -0.000082 0.000492 0.000000 0.034767 0.000000
# 6 0.000000 0.000000 0.000000 -0.003700 0.000000 0.031802
#
#
# Mechanical properties :
#
#
# Convention : Reuss Voigt Hill
#
# Bulk Modulus (GPa) = 47.29867 56.48399 51.89133
# Shear Modulus (GPa) = 29.88943 31.88025 30.88484
#
# Velocity S-wave (km/s) = 3.91071 4.03885 3.97530
# Velocity P-wave (km/s) = 6.67781 7.11697 6.90088
#
# Compressibility (1/GPa) = 0.02114224
#
# Stress axis : x y z
#
# Youngs Moduli (GPa) = 76.93189 59.56336 75.00137
#
# Poissons Ratio (x) = 0.03461 0.53576
# Poissons Ratio (y) = 0.04471 0.24485
# Poissons Ratio (z) = 0.54955 0.19445
#
# Static dielectric constant tensor:
#      x y z
#    x 3.629330 0.000000 0.145160 
#    y 0.000000 3.593800 0.000000 
#    z 0.145160 0.000000 3.490250 
# 
# 
# High freq. dielectric constant tensor:
#      x y z
#    x 1.761070 0.000000 0.015640 
#    y 0.000000 1.773410 0.000000 
#    z 0.015640 0.000000 1.761280 
# 
# From -- ./inp_files/28134.got.cif
#   From: 2010.06.25/outbox.cif.g09.slc.cpg/sg11_15_cif.got.tgz:28134.got - 2010.06.27 23:14:04.
