data_PCOD8074957
_publ_section_title
;
Structure prediction by ZEFSAII (Michael W. Deem and Ramdas Pophale) SiO2 
 PCOD8074957
Probable space group: P 21/M
;
_chemical_formula_sum "Si O2"
_cell_formula_units_Z 24
_cell_length_a 10.893750
_cell_length_b 9.122648
_cell_length_c 21.349099
_cell_angle_alpha 90.000000
_cell_angle_beta 32.882951
_cell_angle_gamma 90.000000
_cell_volume 1151.906910
_symmetry_space_group_name_H-M "P 21/M"
_symmetry_group_IT_number 11
_symmetry_cell_setting 'monoclinic'
loop_
_space_group_symop_operation_xyz
x,y,z
-x,1/2+y,-z
-x,-y,-z
x,1/2-y,z
loop_
_atom_site_type_symbol
_atom_site_label
_atom_site_fract_x
_atom_site_fract_y
_atom_site_fract_z
Si Si1 0.633683 0.081447 0.188379
Si Si2 0.158035 0.583243 0.252544
Si Si3 0.801977 0.086096 0.616688
Si Si4 0.608897 0.420832 0.054076
Si Si5 0.038361 0.582880 0.844712
Si Si6 0.729685 0.079172 0.381875
O O1 0.565463 0.250000 0.227121
O O2 0.671209 0.045514 0.099546
O O3 0.856548 0.042556 0.132700
O O4 0.433238 0.985378 0.302786
O O5 0.145898 0.750000 0.232217
O O6 0.168221 0.581213 0.322322
O O7 0.383040 0.505212 0.129133
O O8 0.938228 0.492632 0.328461
O O9 0.804152 0.250000 0.589534
O O10 0.000000 0.000000 0.500000
O O11 0.572542 0.250000 0.056464
O O12 0.822476 0.480007 0.922956
O O13 0.951438 0.750000 0.881633
O O14 0.228767 0.558895 0.710132
O O15 0.712986 0.250000 0.407242
O O16 0.500000 0.000000 0.500000
#
# Coordination Sequence:
#
# PCOD8074957 Si02
#       6
#     4   4   4   4   4   4
#     4   9  19  36  57  86 122 154 189 237 293 352
#     4  10  22  41  62  84 117 157 197 244 296 349
#     4  10  21  35  56  85 115 152 195 241 294 350
#     4  10  20  36  62  93 121 151 193 244 294 350
#     4  10  22  39  60  86 120 160 195 237 295 353
#     4  11  25  43  62  86 118 157 202 248 294 347
#
# _framework density 20.835014999999999
#
# number of rings (size 3 to 8) (size 9 to 14) (size 15 to 20)
#    0.000    2.000    0.000    2.500    2.333    5.333 
#    0.000    0.000    0.000    0.000    0.000    0.000 
#    0.000    0.000    0.000    0.000    0.000    0.000 
#
# Total GULP energy -297664.175792 kJ/mol
# GULP energy per Si atom -12402.673991 kJ/mol
# Density = 2.078759 g / cm^3
# Si number density = 20.835015 Si / 1000 Ang^3
#
#
#
# Elastic Constant Matrix: (Units=GPa)
#
#
# Indices 1 2 3 4 5 6 
#
# 1 59.9577 39.9851 25.9478 0.0000 -27.5206 0.0000
# 2 39.9851 147.8508 77.6033 0.0000 -26.3129 0.0000
# 3 25.9478 77.6033 134.2451 0.0000 -29.6578 0.0000
# 4 0.0000 0.0000 0.0000 45.3424 0.0000 -7.8889
# 5 -27.5206 -26.3129 -29.6578 0.0000 28.8226 0.0000
# 6 0.0000 0.0000 0.0000 -7.8889 0.0000 31.5593
#
#
#
# Elastic Compliance Matrix: (Units=1/GPa)
#
#
# Indices 1 2 3 4 5 6 
#
# 1 0.032216 -0.005200 0.003269 0.000000 0.029377 0.000000
# 2 -0.005200 0.010918 -0.005437 0.000000 -0.000593 0.000000
# 3 0.003269 -0.005437 0.012364 0.000000 0.010880 0.000000
# 4 0.000000 0.000000 0.000000 0.023057 0.000000 0.005764
# 5 0.029377 -0.000593 0.010880 0.000000 0.073399 0.000000
# 6 0.000000 0.000000 0.000000 0.005764 0.000000 0.033127
#
#
# Mechanical properties :
#
#
# Convention : Reuss Voigt Hill
#
# Bulk Modulus (GPa) = 24.53312 69.90289 47.21801
# Shear Modulus (GPa) = 23.42963 34.37937 28.90450
#
# Velocity S-wave (km/s) = 3.35704 4.06652 3.72869
# Velocity P-wave (km/s) = 5.17946 7.46139 6.42258
#
# Compressibility (1/GPa) = 0.04076122
#
# Stress axis : x y z
#
# Youngs Moduli (GPa) = 31.04094 91.58814 80.88014
#
# Poissons Ratio (x) = 0.47628 -0.26442
# Poissons Ratio (y) = 0.16142 0.43978
# Poissons Ratio (z) = -0.10148 0.49800
#
# Static dielectric constant tensor:
#      x y z
#    x 3.736750 0.000000 0.077780 
#    y 0.000000 3.955970 0.000000 
#    z 0.077780 0.000000 3.940080 
# 
# 
# High freq. dielectric constant tensor:
#      x y z
#    x 1.813030 0.000000 -0.004770 
#    y 0.000000 1.825310 0.000000 
#    z -0.004770 0.000000 1.819490 
# 
# From -- ./inp_files/33739.got.cif
#   From: 2010.06.25/outbox.cif.g09.slc.cpg/sg11_17_cif.got.tgz:33739.got - 2010.06.27 23:14:04.
