data_PCOD8074325
_publ_section_title
;
Structure prediction by ZEFSAII (Michael W. Deem and Ramdas Pophale) SiO2 
 PCOD8074325
Probable space group: P 21/M
;
_chemical_formula_sum "Si O2"
_cell_formula_units_Z 32
_cell_length_a 28.022627
_cell_length_b 9.115119
_cell_length_c 14.375222
_cell_angle_alpha 90.000000
_cell_angle_beta 28.751968
_cell_angle_gamma 90.000000
_cell_volume 1766.232510
_symmetry_space_group_name_H-M "P 21/M"
_symmetry_group_IT_number 11
_symmetry_cell_setting 'monoclinic'
loop_
_space_group_symop_operation_xyz
x,y,z
-x,1/2+y,-z
-x,-y,-z
x,1/2-y,z
loop_
_atom_site_type_symbol
_atom_site_label
_atom_site_fract_x
_atom_site_fract_y
_atom_site_fract_z
Si Si1 0.198827 0.423274 0.961958
Si Si2 0.002287 0.922159 0.595432
Si Si3 0.310775 0.584290 0.930115
Si Si4 0.695566 0.082283 0.371728
Si Si5 0.600853 0.077459 0.723833
Si Si6 0.493589 0.418647 0.607784
Si Si7 0.785783 0.085487 0.715161
Si Si8 0.624252 0.577709 0.873312
O O1 0.214210 0.250000 0.936802
O O2 0.277845 0.497807 0.894898
O O3 0.219468 0.483377 0.822099
O O4 0.089539 0.469504 0.182618
O O5 0.000068 0.750000 0.578055
O O6 0.099575 0.964191 0.490535
O O7 0.000000 0.000000 0.500000
O O8 0.338201 0.750000 0.852205
O O9 0.405500 0.501733 0.813287
O O10 0.227284 0.583751 0.151113
O O11 0.732184 0.250000 0.307554
O O12 0.672267 0.030521 0.516705
O O13 0.593361 0.062947 0.493001
O O14 0.608040 0.250000 0.730360
O O15 0.641744 0.992753 0.742869
O O16 0.485385 0.035637 0.900917
O O17 0.500000 0.500000 0.500000
O O18 0.464361 0.250000 0.644205
O O19 0.768183 0.250000 0.706226
O O20 0.710494 0.977174 0.793780
O O21 0.636185 0.750000 0.843178
#
# Coordination Sequence:
#
# PCOD8074325 Si02
#       8
#     4   4   4   4   4   4   4   4
#     4  11  22  34  52  76 105 141 181 226 270 314
#     4  10  21  37  55  78 107 143 185 228 277 325
#     4  11  21  33  50  73 104 143 182 219 263 318
#     4  10  21  36  54  74 105 147 184 218 264 325
#     4   9  19  37  58  81 111 146 178 216 269 326
#     4  11  21  32  47  71 105 142 178 216 259 313
#     4  10  21  36  55  78 108 143 179 223 275 330
#     4  10  20  35  58  87 112 137 176 225 272 324
#
# _framework density 18.117660999999998
#
# number of rings (size 3 to 8) (size 9 to 14) (size 15 to 20)
#    0.000    1.750    2.500    2.250    0.000    4.500 
#    0.000    0.000    0.000    0.750    0.000    0.000 
#    0.000    0.000    0.000    0.000    0.000    0.000 
#
# Total GULP energy -396741.544679 kJ/mol
# GULP energy per Si atom -12398.173271 kJ/mol
# Density = 1.807642 g / cm^3
# Si number density = 18.117661 Si / 1000 Ang^3
#
#
#
# Elastic Constant Matrix: (Units=GPa)
#
#
# Indices 1 2 3 4 5 6 
#
# 1 73.8884 34.7762 41.4843 0.0000 10.4563 0.0000
# 2 34.7762 80.3739 49.7668 0.0000 8.9908 0.0000
# 3 41.4843 49.7668 121.1889 0.0000 11.7187 0.0000
# 4 0.0000 0.0000 0.0000 27.1512 0.0000 2.2445
# 5 10.4563 8.9908 11.7187 0.0000 25.0915 0.0000
# 6 0.0000 0.0000 0.0000 2.2445 0.0000 29.6905
#
#
#
# Elastic Compliance Matrix: (Units=1/GPa)
#
#
# Indices 1 2 3 4 5 6 
#
# 1 0.018765 -0.005266 -0.003862 0.000000 -0.004129 0.000000
# 2 -0.005266 0.018368 -0.005567 0.000000 -0.001787 0.000000
# 3 -0.003862 -0.005567 0.012056 0.000000 -0.002026 0.000000
# 4 0.000000 0.000000 0.000000 0.037062 0.000000 -0.002802
# 5 -0.004129 -0.001787 -0.002026 0.000000 0.043162 0.000000
# 6 0.000000 0.000000 0.000000 -0.002802 0.000000 0.033893
#
#
# Mechanical properties :
#
#
# Convention : Reuss Voigt Hill
#
# Bulk Modulus (GPa) = 50.51027 58.61178 54.56102
# Shear Modulus (GPa) = 25.08857 26.34823 25.71840
#
# Velocity S-wave (km/s) = 3.72527 3.81765 3.77174
# Velocity P-wave (km/s) = 6.81491 7.20093 7.01058
#
# Compressibility (1/GPa) = 0.01979795
#
# Stress axis : x y z
#
# Youngs Moduli (GPa) = 53.29090 54.44395 82.94912
#
# Poissons Ratio (x) = 0.28672 0.32031
# Poissons Ratio (y) = 0.28065 0.46180
# Poissons Ratio (z) = 0.20578 0.30310
#
# Static dielectric constant tensor:
#      x y z
#    x 3.258470 0.000000 -0.111290 
#    y 0.000000 3.580480 0.000000 
#    z -0.111290 0.000000 3.779900 
# 
# 
# High freq. dielectric constant tensor:
#      x y z
#    x 1.676190 0.000000 0.007670 
#    y 0.000000 1.707540 0.000000 
#    z 0.007670 0.000000 1.706300 
# 
# From -- ./inp_files/51613.got.cif
#   From: 2010.06.25/outbox.cif.g09.slc.cpg/sg11_26_cif.got.tgz:51613.got - 2010.06.27 23:14:04.
