data_PCOD8074068
_publ_section_title
;
Structure prediction by ZEFSAII (Michael W. Deem and Ramdas Pophale) SiO2 
 PCOD8074068
Probable space group: P 21/M
;
_chemical_formula_sum "Si O2"
_cell_formula_units_Z 32
_cell_length_a 8.956793
_cell_length_b 27.975155
_cell_length_c 6.965119
_cell_angle_alpha 90.000000
_cell_angle_beta 90.000083
_cell_angle_gamma 90.000000
_cell_volume 1745.233656
_symmetry_space_group_name_H-M "P 21/M"
_symmetry_group_IT_number 11
_symmetry_cell_setting 'monoclinic'
loop_
_space_group_symop_operation_xyz
x,y,z
-x,1/2+y,-z
-x,-y,-z
x,1/2-y,z
loop_
_atom_site_type_symbol
_atom_site_label
_atom_site_fract_x
_atom_site_fract_y
_atom_site_fract_z
Si Si1 0.422741 0.630037 0.729804
Si Si2 0.422440 0.304672 0.982516
Si Si3 0.923385 0.450174 0.959251
Si Si4 0.424100 0.117474 0.673080
Si Si5 0.075896 0.117474 0.673079
Si Si6 0.423387 0.950174 0.040750
Si Si7 0.077554 0.195328 0.982514
Si Si8 0.922734 0.130037 0.270196
O O1 0.477363 0.677074 0.841688
O O2 0.517981 0.624526 0.539724
O O3 0.250003 0.636185 0.677096
O O4 0.452298 0.583655 0.859106
O O5 0.463762 0.250000 0.939284
O O6 0.249997 0.310780 0.041726
O O7 0.458881 0.334218 0.790445
O O8 0.749999 0.458393 0.920084
O O9 0.993523 0.427420 0.768478
O O10 0.952292 0.416345 0.140897
O O11 0.000000 0.500000 0.000000
O O12 0.249998 0.105680 0.668365
O O13 0.506474 0.072580 0.768476
O O14 0.017977 0.124526 0.460275
O O15 0.041114 0.165781 0.790445
O O16 0.500000 0.000000 0.000000
O O17 0.036231 0.250000 0.939282
O O18 0.977356 0.177074 0.158309
#
# Coordination Sequence:
#
# PCOD8074068 Si02
#       8
#     4   4   4   4   4   4   4   4
#     4  10  21  36  54  79 109 139 173 216 265 315
#     4   9  19  36  56  78 105 138 177 218 258 305
#     4  10  21  37  56  78 106 139 177 221 266 315
#     4  10  20  35  56  80 107 141 178 217 263 314
#     4  10  20  35  56  80 107 141 178 217 263 314
#     4  10  21  37  56  78 106 139 177 221 266 315
#     4   9  19  36  56  78 105 138 177 218 258 305
#     4  10  21  36  54  79 109 139 173 216 265 315
#
# _framework density 18.335654999999999
#
# number of rings (size 3 to 8) (size 9 to 14) (size 15 to 20)
#    0.000    2.250    0.000    2.250    0.000    6.500 
#    0.000    2.500    0.000    0.000    0.000    0.000 
#    0.000    0.000    0.000    0.000    0.000    0.000 
#
# Total GULP energy -396947.084221 kJ/mol
# GULP energy per Si atom -12404.596382 kJ/mol
# Density = 1.829392 g / cm^3
# Si number density = 18.335655 Si / 1000 Ang^3
#
#
#
# Elastic Constant Matrix: (Units=GPa)
#
#
# Indices 1 2 3 4 5 6 
#
# 1 102.0357 48.4539 53.2774 0.0000 -0.0003 0.0000
# 2 48.4539 110.7820 27.8352 0.0000 -0.0002 0.0000
# 3 53.2774 27.8352 105.9744 0.0000 0.0001 0.0000
# 4 0.0000 0.0000 0.0000 12.7222 0.0000 0.0002
# 5 -0.0003 -0.0002 0.0001 0.0000 38.3710 0.0000
# 6 0.0000 0.0000 0.0000 0.0002 0.0000 32.2108
#
#
#
# Elastic Compliance Matrix: (Units=1/GPa)
#
#
# Indices 1 2 3 4 5 6 
#
# 1 0.015680 -0.005222 -0.006511 0.000000 0.000000 0.000000
# 2 -0.005222 0.011404 -0.000370 0.000000 0.000000 0.000000
# 3 -0.006511 -0.000370 0.012807 0.000000 0.000000 0.000000
# 4 0.000000 0.000000 0.000000 0.078602 0.000000 0.000000
# 5 0.000000 0.000000 0.000000 0.000000 0.026061 0.000000
# 6 0.000000 0.000000 0.000000 0.000000 0.000000 0.031045
#
#
# Mechanical properties :
#
#
# Convention : Reuss Voigt Hill
#
# Bulk Modulus (GPa) = 63.75945 64.21387 63.98666
# Shear Modulus (GPa) = 24.38605 29.27585 26.83095
#
# Velocity S-wave (km/s) = 3.65085 4.00016 3.82949
# Velocity P-wave (km/s) = 7.25400 7.51215 7.38420
#
# Compressibility (1/GPa) = 0.01568395
#
# Stress axis : x y z
#
# Youngs Moduli (GPa) = 63.77446 87.69037 78.08264
#
# Poissons Ratio (x) = 0.45793 0.50843
# Poissons Ratio (y) = 0.33304 0.02888
# Poissons Ratio (z) = 0.41526 0.03244
#
# Static dielectric constant tensor:
#      x y z
#    x 3.548180 0.000000 0.000020 
#    y 0.000000 3.527400 0.000000 
#    z 0.000020 0.000000 3.379710 
# 
# 
# High freq. dielectric constant tensor:
#      x y z
#    x 1.724760 0.000000 0.000000 
#    y 0.000000 1.712760 0.000000 
#    z 0.000000 0.000000 1.711550 
# 
# From -- ./inp_files/3422.got.cif
#   From: 2010.06.25/outbox.cif.g09.slc.cpg/sg11_2_cif.got.tgz:3422.got - 2010.06.27 23:14:04.
