data_PCOD8074057
_publ_section_title
;
Structure prediction by ZEFSAII (Michael W. Deem and Ramdas Pophale) SiO2 
 PCOD8074057
Probable space group: P 21/M
;
_chemical_formula_sum "Si O2"
_cell_formula_units_Z 32
_cell_length_a 34.412313
_cell_length_b 8.989943
_cell_length_c 13.889441
_cell_angle_alpha 90.000000
_cell_angle_beta 23.219353
_cell_angle_gamma 90.000000
_cell_volume 1694.064169
_symmetry_space_group_name_H-M "P 21/M"
_symmetry_group_IT_number 11
_symmetry_cell_setting 'monoclinic'
loop_
_space_group_symop_operation_xyz
x,y,z
-x,1/2+y,-z
-x,-y,-z
x,1/2-y,z
loop_
_atom_site_type_symbol
_atom_site_label
_atom_site_fract_x
_atom_site_fract_y
_atom_site_fract_z
Si Si1 0.117315 0.575454 0.928883
Si Si2 0.267701 0.076887 0.719352
Si Si3 0.651129 0.421619 0.287483
Si Si4 0.441317 0.076943 0.851212
Si Si5 0.711211 0.424156 0.937293
Si Si6 0.111924 0.080656 0.542648
Si Si7 0.897066 0.920752 0.223683
Si Si8 0.522574 0.575572 0.847911
O O1 0.133513 0.750000 0.883650
O O2 0.002483 0.533541 0.202898
O O3 0.175724 0.512249 0.886408
O O4 0.161113 0.501057 0.731032
O O5 0.242520 0.250000 0.777357
O O6 0.364564 0.041318 0.436338
O O7 0.282019 0.022376 0.795778
O O8 0.678514 0.250000 0.243517
O O9 0.536585 0.452223 0.568279
O O10 0.672657 0.470277 0.129830
O O11 0.425009 0.250000 0.909747
O O12 0.450813 0.993589 0.931207
O O13 0.348164 0.013942 0.007418
O O14 0.698801 0.250000 0.947187
O O15 0.825597 0.471878 0.668015
O O16 0.123775 0.250000 0.479860
O O17 0.155189 0.065688 0.553371
O O18 0.913247 0.750000 0.158245
O O19 0.000000 0.000000 0.000000
O O20 0.501641 0.750000 0.902313
O O21 0.500000 0.500000 0.000000
#
# Coordination Sequence:
#
# PCOD8074057 Si02
#       8
#     4   4   4   4   4   4   4   4
#     4  10  20  35  56  79 106 142 181 220 263 316
#     4  10  21  36  57  82 106 138 180 222 264 315
#     4   9  20  38  57  79 106 137 176 220 267 319
#     4  10  20  36  58  80 107 143 178 216 264 318
#     4  11  22  35  55  82 109 138 175 222 271 317
#     4   9  20  36  52  76 109 142 177 219 265 314
#     4   9  17  31  51  74 102 135 173 215 258 307
#     4  10  21  37  56  82 115 145 177 218 262 312
#
# _framework density 18.889485000000001
#
# number of rings (size 3 to 8) (size 9 to 14) (size 15 to 20)
#    0.000    2.250    0.000    3.375    0.000    7.000 
#    0.000    1.875    0.000    0.000    0.000    0.000 
#    0.000    0.000    0.000    0.000    0.000    0.000 
#
# Total GULP energy -396838.681282 kJ/mol
# GULP energy per Si atom -12401.208790 kJ/mol
# Density = 1.884649 g / cm^3
# Si number density = 18.889485 Si / 1000 Ang^3
#
#
#
# Elastic Constant Matrix: (Units=GPa)
#
#
# Indices 1 2 3 4 5 6 
#
# 1 119.7853 62.3444 50.2459 0.0000 1.6921 0.0000
# 2 62.3444 108.1803 45.3861 0.0000 3.5617 0.0000
# 3 50.2459 45.3861 69.3015 0.0000 9.9594 0.0000
# 4 0.0000 0.0000 0.0000 30.5979 0.0000 0.3585
# 5 1.6921 3.5617 9.9594 0.0000 28.0615 0.0000
# 6 0.0000 0.0000 0.0000 0.3585 0.0000 38.7330
#
#
#
# Elastic Compliance Matrix: (Units=1/GPa)
#
#
# Indices 1 2 3 4 5 6 
#
# 1 0.013972 -0.005154 -0.007089 0.000000 0.002328 0.000000
# 2 -0.005154 0.014701 -0.005972 0.000000 0.000564 0.000000
# 3 -0.007089 -0.005972 0.024563 0.000000 -0.007532 0.000000
# 4 0.000000 0.000000 0.000000 0.032686 0.000000 -0.000303
# 5 0.002328 0.000564 -0.007532 0.000000 0.038097 0.000000
# 6 0.000000 0.000000 0.000000 -0.000303 0.000000 0.025821
#
#
# Mechanical properties :
#
#
# Convention : Reuss Voigt Hill
#
# Bulk Modulus (GPa) = 59.50441 68.13557 63.81999
# Shear Modulus (GPa) = 26.05917 28.76450 27.41183
#
# Velocity S-wave (km/s) = 3.71827 3.90651 3.81355
# Velocity P-wave (km/s) = 7.07134 7.51643 7.29728
#
# Compressibility (1/GPa) = 0.01680548
#
# Stress axis : x y z
#
# Youngs Moduli (GPa) = 71.57377 68.02146 40.71206
#
# Poissons Ratio (x) = 0.35062 0.28859
# Poissons Ratio (y) = 0.36893 0.24313
# Poissons Ratio (z) = 0.50736 0.40622
#
# Static dielectric constant tensor:
#      x y z
#    x 3.559290 0.000000 0.125890 
#    y 0.000000 3.643980 0.000000 
#    z 0.125890 0.000000 3.344740 
# 
# 
# High freq. dielectric constant tensor:
#      x y z
#    x 1.734450 0.000000 0.003980 
#    y 0.000000 1.746380 0.000000 
#    z 0.003980 0.000000 1.718600 
# 
# From -- ./inp_files/45235.got.cif
#   From: 2010.06.25/outbox.cif.g09.slc.cpg/sg11_23_cif.got.tgz:45235.got - 2010.06.27 23:14:04.
