data_PCOD8074175
_publ_section_title
;
Structure prediction by ZEFSAII (Michael W. Deem and Ramdas Pophale) SiO2 
 PCOD8074175
Probable space group: P 21/M
;
_chemical_formula_sum "Si O2"
_cell_formula_units_Z 32
_cell_length_a 31.704538
_cell_length_b 8.973962
_cell_length_c 13.490346
_cell_angle_alpha 90.000000
_cell_angle_beta 155.234764
_cell_angle_gamma 90.000000
_cell_volume 1607.830873
_symmetry_space_group_name_H-M "P 21/M"
_symmetry_group_IT_number 11
_symmetry_cell_setting 'monoclinic'
loop_
_space_group_symop_operation_xyz
x,y,z
-x,1/2+y,-z
-x,-y,-z
x,1/2-y,z
loop_
_atom_site_type_symbol
_atom_site_label
_atom_site_fract_x
_atom_site_fract_y
_atom_site_fract_z
Si Si1 0.471814 0.576327 0.148585
Si Si2 0.815683 0.425279 0.978284
Si Si3 0.337028 0.577290 0.520158
Si Si4 0.969403 0.927204 0.634461
Si Si5 0.271753 0.921437 0.601113
Si Si6 0.071674 0.426098 0.232698
Si Si7 0.563683 0.924512 0.721308
Si Si8 0.219201 0.424462 0.892280
O O1 0.482048 0.750000 0.194380
O O2 0.564772 0.523976 0.280218
O O3 0.473197 0.486483 0.253195
O O4 0.372179 0.539882 0.874793
O O5 0.819139 0.250000 0.001896
O O6 0.743646 0.469380 0.734442
O O7 0.771521 0.498699 0.982017
O O8 0.927390 0.487411 0.193355
O O9 0.368267 0.750000 0.577806
O O10 0.286741 0.543435 0.517902
O O11 0.966728 0.750000 0.629251
O O12 0.961282 0.985002 0.729534
O O13 0.876079 0.989879 0.371154
O O14 0.239499 0.750000 0.547526
O O15 0.186548 0.029162 0.460701
O O16 0.060462 0.250000 0.200619
O O17 0.000000 0.500000 0.000000
O O18 0.542009 0.750000 0.671964
O O19 0.500000 0.000000 0.500000
O O20 0.681406 0.961180 0.958704
O O21 0.207299 0.250000 0.885288
#
# Coordination Sequence:
#
# PCOD8074175 Si02
#       8
#     4   4   4   4   4   4   4   4
#     4  11  23  38  59  87 117 149 191 243 291 342
#     4  10  20  35  57  82 109 145 185 227 279 336
#     4  10  21  38  59  82 114 155 193 233 287 350
#     4   9  19  37  58  80 110 148 185 222 275 340
#     4  10  22  40  60  85 117 152 193 240 289 344
#     4  11  22  38  61  86 115 152 193 237 287 345
#     4  11  23  39  59  83 114 152 193 237 290 348
#     4  10  21  37  57  81 109 143 185 231 276 331
#
# _framework density 19.902591999999999
#
# number of rings (size 3 to 8) (size 9 to 14) (size 15 to 20)
#    0.000    1.750    0.000    4.125    0.000    8.000 
#    0.000    3.750    0.000    0.000    0.000    0.000 
#    0.000    0.000    0.000    0.000    0.000    0.000 
#
# Total GULP energy -396982.390197 kJ/mol
# GULP energy per Si atom -12405.699694 kJ/mol
# Density = 1.985729 g / cm^3
# Si number density = 19.902592 Si / 1000 Ang^3
#
#
#
# Elastic Constant Matrix: (Units=GPa)
#
#
# Indices 1 2 3 4 5 6 
#
# 1 64.0102 20.4352 5.3787 0.0000 -6.0917 0.0000
# 2 20.4352 53.2710 30.0897 0.0000 3.3039 0.0000
# 3 5.3787 30.0897 85.1460 0.0000 -1.2418 0.0000
# 4 0.0000 0.0000 0.0000 32.0539 0.0000 0.5047
# 5 -6.0917 3.3039 -1.2418 0.0000 43.3350 0.0000
# 6 0.0000 0.0000 0.0000 0.5047 0.0000 33.8141
#
#
#
# Elastic Compliance Matrix: (Units=1/GPa)
#
#
# Indices 1 2 3 4 5 6 
#
# 1 0.018431 -0.008300 0.001816 0.000000 0.003276 0.000000
# 2 -0.008300 0.027370 -0.009199 0.000000 -0.003517 0.000000
# 3 0.001816 -0.009199 0.014901 0.000000 0.001384 0.000000
# 4 0.000000 0.000000 0.000000 0.031205 0.000000 -0.000466
# 5 0.003276 -0.003517 0.001384 0.000000 0.023844 0.000000
# 6 0.000000 0.000000 0.000000 -0.000466 0.000000 0.029580
#
#
# Mechanical properties :
#
#
# Convention : Reuss Voigt Hill
#
# Bulk Modulus (GPa) = 34.08622 34.91492 34.50057
# Shear Modulus (GPa) = 26.81317 31.60884 29.21100
#
# Velocity S-wave (km/s) = 3.67443 3.98952 3.83521
# Velocity P-wave (km/s) = 5.93006 6.22918 6.08146
#
# Compressibility (1/GPa) = 0.02933737
#
# Stress axis : x y z
#
# Youngs Moduli (GPa) = 54.25571 36.53639 67.11002
#
# Poissons Ratio (x) = 0.30324 -0.12190
# Poissons Ratio (y) = 0.45030 0.61736
# Poissons Ratio (z) = -0.09855 0.33611
#
# Static dielectric constant tensor:
#      x y z
#    x 2.990960 0.000000 0.498890 
#    y 0.000000 3.485690 0.000000 
#    z 0.498890 0.000000 3.565060 
# 
# 
# High freq. dielectric constant tensor:
#      x y z
#    x 1.790910 0.000000 -0.000890 
#    y 0.000000 1.760820 0.000000 
#    z -0.000890 0.000000 1.795100 
# 
# From -- ./inp_files/45311.got.cif
#   From: 2010.06.25/outbox.cif.g09.slc.cpg/sg11_23_cif.got.tgz:45311.got - 2010.06.27 23:14:04.
