data_PCOD8074683
_publ_section_title
;
Structure prediction by ZEFSAII (Michael W. Deem and Ramdas Pophale) SiO2 
 PCOD8074683
Probable space group: P 21/M
;
_chemical_formula_sum "Si O2"
_cell_formula_units_Z 24
_cell_length_a 7.859404
_cell_length_b 9.128160
_cell_length_c 16.700018
_cell_angle_alpha 90.000000
_cell_angle_beta 89.604568
_cell_angle_gamma 90.000000
_cell_volume 1198.062441
_symmetry_space_group_name_H-M "P 21/M"
_symmetry_group_IT_number 11
_symmetry_cell_setting 'monoclinic'
loop_
_space_group_symop_operation_xyz
x,y,z
-x,1/2+y,-z
-x,-y,-z
x,1/2-y,z
loop_
_atom_site_type_symbol
_atom_site_label
_atom_site_fract_x
_atom_site_fract_y
_atom_site_fract_z
Si Si1 0.665153 0.583258 0.334274
Si Si2 0.822017 0.923708 0.498050
Si Si3 0.835986 0.918499 0.824060
Si Si4 0.175285 0.419176 0.830549
Si Si5 0.487849 0.924129 0.915019
Si Si6 0.667015 0.581405 0.663981
O O1 0.611588 0.750000 0.346984
O O2 0.728733 0.518668 0.418630
O O3 0.808518 0.566894 0.265694
O O4 0.499781 0.499530 0.304788
O O5 0.847944 0.750000 0.497259
O O6 0.720451 0.977391 0.576651
O O7 0.000000 0.000000 0.500000
O O8 0.880759 0.750000 0.842248
O O9 0.660850 0.963902 0.867616
O O10 0.815038 0.944593 0.728697
O O11 0.991218 0.017037 0.855946
O O12 0.186288 0.250000 0.858331
O O13 0.324540 0.510724 0.870953
O O14 0.464985 0.750000 0.923223
O O15 0.500000 0.000000 0.000000
O O16 0.617609 0.750000 0.659408
#
# Coordination Sequence:
#
# PCOD8074683 Si02
#       6
#     4   4   4   4   4   4
#     4  10  21  36  55  84 120 157 200 249 300 353
#     4  10  21  35  52  80 117 156 202 251 298 351
#     4  10  22  40  63  91 122 160 204 250 301 359
#     4  11  23  39  63  93 125 163 204 247 302 364
#     4  11  24  44  68  93 124 158 198 250 305 365
#     4  10  20  36  58  84 115 157 206 250 298 355
#
# _framework density 20.032343000000001
#
# number of rings (size 3 to 8) (size 9 to 14) (size 15 to 20)
#    0.000    1.667    1.667    2.500    0.000    4.667 
#    0.000    0.000    0.000    0.000    0.000    0.000 
#    0.000    0.000    0.000    0.000    0.000    0.000 
#
# Total GULP energy -297634.538812 kJ/mol
# GULP energy per Si atom -12401.439117 kJ/mol
# Density = 1.998675 g / cm^3
# Si number density = 20.032343 Si / 1000 Ang^3
#
#
#
# Elastic Constant Matrix: (Units=GPa)
#
#
# Indices 1 2 3 4 5 6 
#
# 1 144.4113 67.7607 40.7970 0.0000 4.8054 0.0000
# 2 67.7607 83.6763 42.7986 0.0000 1.9472 0.0000
# 3 40.7970 42.7986 112.6794 0.0000 4.4074 0.0000
# 4 0.0000 0.0000 0.0000 28.9819 0.0000 2.1784
# 5 4.8054 1.9472 4.4074 0.0000 19.2439 0.0000
# 6 0.0000 0.0000 0.0000 2.1784 0.0000 41.5235
#
#
#
# Elastic Compliance Matrix: (Units=1/GPa)
#
#
# Indices 1 2 3 4 5 6 
#
# 1 0.011280 -0.008737 -0.000696 0.000000 -0.001773 0.000000
# 2 -0.008737 0.021601 -0.005087 0.000000 0.001161 0.000000
# 3 -0.000696 -0.005087 0.011132 0.000000 -0.001861 0.000000
# 4 0.000000 0.000000 0.000000 0.034641 0.000000 -0.001817
# 5 -0.001773 0.001161 -0.001861 0.000000 0.052716 0.000000
# 6 0.000000 0.000000 0.000000 -0.001817 0.000000 0.024178
#
#
# Mechanical properties :
#
#
# Convention : Reuss Voigt Hill
#
# Bulk Modulus (GPa) = 66.78832 71.49774 69.14303
# Shear Modulus (GPa) = 26.37439 30.57724 28.47582
#
# Velocity S-wave (km/s) = 3.63242 3.91115 3.77436
# Velocity P-wave (km/s) = 7.14180 7.49431 7.32018
#
# Compressibility (1/GPa) = 0.01497268
#
# Stress axis : x y z
#
# Youngs Moduli (GPa) = 88.65258 46.29460 89.83465
#
# Poissons Ratio (x) = 0.40448 0.06253
# Poissons Ratio (y) = 0.77457 0.45695
# Poissons Ratio (z) = 0.06171 0.23548
#
# Static dielectric constant tensor:
#      x y z
#    x 2.715810 0.000000 0.466830 
#    y 0.000000 3.597260 0.000000 
#    z 0.466830 0.000000 3.802500 
# 
# 
# High freq. dielectric constant tensor:
#      x y z
#    x 1.783340 0.000000 0.000820 
#    y 0.000000 1.778890 0.000000 
#    z 0.000820 0.000000 1.790610 
# 
# From -- ./inp_files/57395.got.cif
#   From: 2010.06.25/outbox.cif.g09.slc.cpg/sg11_29_cif.got.tgz:57395.got - 2010.06.27 23:14:04.
