data_PCOD8074746
_publ_section_title
;
Structure prediction by ZEFSAII (Michael W. Deem and Ramdas Pophale) SiO2 
 PCOD8074746
Probable space group: P 21/M
;
_chemical_formula_sum "Si O2"
_cell_formula_units_Z 32
_cell_length_a 11.118880
_cell_length_b 8.903082
_cell_length_c 22.255747
_cell_angle_alpha 90.000000
_cell_angle_beta 48.066044
_cell_angle_gamma 90.000000
_cell_volume 1638.955926
_symmetry_space_group_name_H-M "P 21/M"
_symmetry_group_IT_number 11
_symmetry_cell_setting 'monoclinic'
loop_
_space_group_symop_operation_xyz
x,y,z
-x,1/2+y,-z
-x,-y,-z
x,1/2-y,z
loop_
_atom_site_type_symbol
_atom_site_label
_atom_site_fract_x
_atom_site_fract_y
_atom_site_fract_z
Si Si1 0.413134 0.425078 0.854399
Si Si2 0.033322 0.074873 0.677131
Si Si3 0.377331 0.074100 0.386809
Si Si4 0.033912 0.074000 0.178923
Si Si5 0.747157 0.422741 0.683821
Si Si6 0.656522 0.427706 0.476387
Si Si7 0.634600 0.574027 0.995978
Si Si8 0.714189 0.425863 0.216714
O O1 0.376348 0.250000 0.864895
O O2 0.598899 0.462697 0.777235
O O3 0.293528 0.499450 0.846094
O O4 0.377363 0.490842 0.932409
O O5 0.077166 0.250000 0.666908
O O6 0.912489 0.043347 0.662725
O O7 0.948737 0.021066 0.766313
O O8 0.192940 0.977646 0.614111
O O9 0.361247 0.250000 0.405583
O O10 0.560373 0.027474 0.308689
O O11 0.257540 0.028780 0.372894
O O12 0.320499 0.983184 0.463607
O O13 0.023685 0.250000 0.197934
O O14 0.874955 0.019161 0.196502
O O15 0.187960 0.035152 0.087144
O O16 0.735772 0.250000 0.666823
O O17 0.500000 0.500000 0.500000
O O18 0.640431 0.250000 0.479563
O O19 0.599977 0.750000 0.007493
O O20 0.500000 0.500000 0.000000
O O21 0.716006 0.250000 0.205146
#
# Coordination Sequence:
#
# PCOD8074746 Si02
#       8
#     4   4   4   4   4   4   4   4
#     4   9  18  34  55  80 111 146 185 229 276 327
#     4  11  23  39  60  85 113 148 191 235 282 335
#     4  10  20  36  59  85 113 147 188 232 281 336
#     4  10  21  37  56  80 113 149 186 233 288 340
#     4   9  19  36  57  81 112 149 188 232 281 334
#     4  12  25  41  61  85 115 149 187 232 282 335
#     4  10  21  36  55  80 111 148 188 233 284 335
#     4   9  19  35  55  80 110 144 182 226 277 334
#
# _framework density 19.524623999999999
#
# number of rings (size 3 to 8) (size 9 to 14) (size 15 to 20)
#    0.000    2.000    0.000    3.375    0.000    6.000 
#    0.000    2.500    0.000    0.000    0.000    0.000 
#    0.000    0.000    0.000    0.000    0.000    0.000 
#
# Total GULP energy -396960.092575 kJ/mol
# GULP energy per Si atom -12405.002893 kJ/mol
# Density = 1.948018 g / cm^3
# Si number density = 19.524624 Si / 1000 Ang^3
#
#
#
# Elastic Constant Matrix: (Units=GPa)
#
#
# Indices 1 2 3 4 5 6 
#
# 1 88.3644 37.5395 24.2491 0.0000 0.0727 0.0000
# 2 37.5395 77.9635 38.1639 0.0000 5.4835 0.0000
# 3 24.2491 38.1639 93.0061 0.0000 13.5016 0.0000
# 4 0.0000 0.0000 0.0000 31.5108 0.0000 5.9184
# 5 0.0727 5.4835 13.5016 0.0000 32.1366 0.0000
# 6 0.0000 0.0000 0.0000 5.9184 0.0000 35.4229
#
#
#
# Elastic Compliance Matrix: (Units=1/GPa)
#
#
# Indices 1 2 3 4 5 6 
#
# 1 0.014402 -0.006376 -0.001376 0.000000 0.001633 0.000000
# 2 -0.006376 0.018873 -0.005981 0.000000 -0.000693 0.000000
# 3 -0.001376 -0.005981 0.014288 0.000000 -0.004979 0.000000
# 4 0.000000 0.000000 0.000000 0.032763 0.000000 -0.005474
# 5 0.001633 -0.000693 -0.004979 0.000000 0.033324 0.000000
# 6 0.000000 0.000000 0.000000 -0.005474 0.000000 0.029145
#
#
# Mechanical properties :
#
#
# Convention : Reuss Voigt Hill
#
# Bulk Modulus (GPa) = 49.75949 51.02654 50.39302
# Shear Modulus (GPa) = 28.25508 30.43949 29.34729
#
# Velocity S-wave (km/s) = 3.80827 3.95274 3.88118
# Velocity P-wave (km/s) = 6.69911 6.85736 6.77870
#
# Compressibility (1/GPa) = 0.02009667
#
# Stress axis : x y z
#
# Youngs Moduli (GPa) = 69.43690 52.98516 69.98928
#
# Poissons Ratio (x) = 0.33782 0.09629
# Poissons Ratio (y) = 0.44272 0.41864
# Poissons Ratio (z) = 0.09553 0.31693
#
# Static dielectric constant tensor:
#      x y z
#    x 3.650960 0.000000 0.047670 
#    y 0.000000 3.513600 0.000000 
#    z 0.047670 0.000000 3.707540 
# 
# 
# High freq. dielectric constant tensor:
#      x y z
#    x 1.768800 0.000000 0.005410 
#    y 0.000000 1.756430 0.000000 
#    z 0.005410 0.000000 1.765600 
# 
# From -- ./inp_files/64352.got.cif
#   From: 2010.06.25/outbox.cif.g09.slc.cpg/sg11_33_cif.got.tgz:64352.got - 2010.06.27 23:14:04.
