data_PCOD8074297
_publ_section_title
;
Structure prediction by ZEFSAII (Michael W. Deem and Ramdas Pophale) SiO2 
 PCOD8074297
Probable space group: P 21/M
;
_chemical_formula_sum "Si O2"
_cell_formula_units_Z 32
_cell_length_a 32.922847
_cell_length_b 8.980859
_cell_length_c 12.049534
_cell_angle_alpha 90.000000
_cell_angle_beta 25.786368
_cell_angle_gamma 90.000000
_cell_volume 1549.856977
_symmetry_space_group_name_H-M "P 21/M"
_symmetry_group_IT_number 11
_symmetry_cell_setting 'monoclinic'
loop_
_space_group_symop_operation_xyz
x,y,z
-x,1/2+y,-z
-x,-y,-z
x,1/2-y,z
loop_
_atom_site_type_symbol
_atom_site_label
_atom_site_fract_x
_atom_site_fract_y
_atom_site_fract_z
Si Si1 0.449036 0.416030 0.760491
Si Si2 0.069641 0.075966 0.242908
Si Si3 0.368184 0.420006 0.734376
Si Si4 0.977802 0.580340 0.890096
Si Si5 0.400992 0.575878 0.268840
Si Si6 0.143464 0.920266 0.637484
Si Si7 0.266047 0.924552 0.799809
Si Si8 0.684896 0.917413 0.716166
O O1 0.490992 0.250000 0.635012
O O2 0.367569 0.446576 0.869098
O O3 0.527657 0.540510 0.561810
O O4 0.409665 0.421382 0.980959
O O5 0.077116 0.250000 0.252091
O O6 0.024309 0.046904 0.234580
O O7 0.000000 0.000000 0.500000
O O8 0.172837 0.007127 0.990292
O O9 0.346460 0.250000 0.756050
O O10 0.292282 0.522666 0.859539
O O11 0.946310 0.750000 0.993462
O O12 0.082579 0.553644 0.676842
O O13 0.910237 0.467116 0.118788
O O14 0.417470 0.750000 0.216027
O O15 0.354685 0.537399 0.502051
O O16 0.325189 0.520604 0.366324
O O17 0.500000 0.500000 0.000000
O O18 0.173587 0.750000 0.576456
O O19 0.234474 0.021465 0.402279
O O20 0.244859 0.750000 0.852693
O O21 0.707934 0.750000 0.620494
#
# Coordination Sequence:
#
# PCOD8074297 Si02
#       8
#     4   4   4   4   4   4   4   4
#     4   9  20  37  55  80 114 149 185 231 285 338
#     4  11  24  42  63  87 117 154 197 244 293 348
#     4  10  20  36  59  84 110 146 192 236 283 339
#     4   9  20  39  60  83 112 146 185 230 285 346
#     4  11  24  40  60  88 122 159 198 242 291 345
#     4  10  20  35  58  86 113 143 182 231 286 342
#     4  11  24  41  60  85 119 157 197 243 293 345
#     4  11  22  36  55  81 115 150 186 230 281 339
#
# _framework density 20.647065000000001
#
# number of rings (size 3 to 8) (size 9 to 14) (size 15 to 20)
#    0.000    1.750    0.000    3.750    0.000   11.000 
#    0.000    2.500    0.000    0.000    0.000    0.000 
#    0.000    0.000    0.000    0.000    0.000    0.000 
#
# Total GULP energy -396821.079705 kJ/mol
# GULP energy per Si atom -12400.658741 kJ/mol
# Density = 2.060007 g / cm^3
# Si number density = 20.647065 Si / 1000 Ang^3
#
#
#
# Elastic Constant Matrix: (Units=GPa)
#
#
# Indices 1 2 3 4 5 6 
#
# 1 106.5032 45.6588 19.5824 0.0000 -4.9327 0.0000
# 2 45.6588 103.6991 41.4992 0.0000 -2.2767 0.0000
# 3 19.5824 41.4992 69.5444 0.0000 -9.2105 0.0000
# 4 0.0000 0.0000 0.0000 35.6809 0.0000 -5.8155
# 5 -4.9327 -2.2767 -9.2105 0.0000 27.8069 0.0000
# 6 0.0000 0.0000 0.0000 -5.8155 0.0000 33.9860
#
#
#
# Elastic Compliance Matrix: (Units=1/GPa)
#
#
# Indices 1 2 3 4 5 6 
#
# 1 0.011649 -0.005081 -0.000031 0.000000 0.001640 0.000000
# 2 -0.005081 0.014947 -0.007788 0.000000 -0.002257 0.000000
# 3 -0.000031 -0.007788 0.019820 0.000000 0.005922 0.000000
# 4 0.000000 0.000000 0.000000 0.028830 0.000000 0.004933
# 5 0.001640 -0.002257 0.005922 0.000000 0.038030 0.000000
# 6 0.000000 0.000000 0.000000 0.004933 0.000000 0.030268
#
#
# Mechanical properties :
#
#
# Convention : Reuss Voigt Hill
#
# Bulk Modulus (GPa) = 48.50419 54.80305 51.65362
# Shear Modulus (GPa) = 28.37428 31.02851 29.70139
#
# Velocity S-wave (km/s) = 3.71111 3.88081 3.79691
# Velocity P-wave (km/s) = 6.47350 6.83237 6.65535
#
# Compressibility (1/GPa) = 0.02061677
#
# Stress axis : x y z
#
# Youngs Moduli (GPa) = 85.84275 66.90150 50.45516
#
# Poissons Ratio (x) = 0.33990 0.00157
# Poissons Ratio (y) = 0.43614 0.39294
# Poissons Ratio (z) = 0.00268 0.52102
#
# Static dielectric constant tensor:
#      x y z
#    x 3.941060 0.000000 -0.071590 
#    y 0.000000 3.839050 0.000000 
#    z -0.071590 0.000000 3.506480 
# 
# 
# High freq. dielectric constant tensor:
#      x y z
#    x 1.821510 0.000000 -0.007110 
#    y 0.000000 1.817360 0.000000 
#    z -0.007110 0.000000 1.790360 
# 
# From -- ./inp_files/45164.got.cif
#   From: 2010.06.25/outbox.cif.g09.slc.cpg/sg11_23_cif.got.tgz:45164.got - 2010.06.27 23:14:04.
