data_PCOD8074810
_publ_section_title
;
Structure prediction by ZEFSAII (Michael W. Deem and Ramdas Pophale) SiO2 
 PCOD8074810
Probable space group: P 21/M
;
_chemical_formula_sum "Si O2"
_cell_formula_units_Z 32
_cell_length_a 29.664752
_cell_length_b 8.914056
_cell_length_c 11.350680
_cell_angle_alpha 90.000000
_cell_angle_beta 146.052712
_cell_angle_gamma 90.000000
_cell_volume 1676.126012
_symmetry_space_group_name_H-M "P 21/M"
_symmetry_group_IT_number 11
_symmetry_cell_setting 'monoclinic'
loop_
_space_group_symop_operation_xyz
x,y,z
-x,1/2+y,-z
-x,-y,-z
x,1/2-y,z
loop_
_atom_site_type_symbol
_atom_site_label
_atom_site_fract_x
_atom_site_fract_y
_atom_site_fract_z
Si Si1 0.071737 0.074913 0.086465
Si Si2 0.482807 0.913613 0.789068
Si Si3 0.437923 0.070005 0.275102
Si Si4 0.265695 0.928731 0.883960
Si Si5 0.879428 0.924795 0.306339
Si Si6 0.235017 0.071154 0.566975
Si Si7 0.378759 0.413968 0.722745
Si Si8 0.032130 0.076004 0.739185
O O1 0.060315 0.250000 0.075604
O O2 0.154607 0.022736 0.325249
O O3 0.071748 0.028844 0.949109
O O4 0.000000 0.000000 0.000000
O O5 0.452781 0.750000 0.684549
O O6 0.530534 0.986656 0.783814
O O7 0.401848 0.001355 0.652024
O O8 0.541984 0.901714 0.027039
O O9 0.432828 0.250000 0.273865
O O10 0.500000 0.000000 0.500000
O O11 0.350201 0.000645 0.106158
O O12 0.272883 0.750000 0.897416
O O13 0.200071 0.979550 0.837946
O O14 0.237257 0.988483 0.695938
O O15 0.862677 0.750000 0.294458
O O16 0.902009 0.955925 0.219260
O O17 0.952696 0.976308 0.548748
O O18 0.243355 0.250000 0.606022
O O19 0.307823 0.008116 0.643711
O O20 0.348229 0.250000 0.617859
O O21 0.005766 0.250000 0.680179
#
# Coordination Sequence:
#
# PCOD8074810 Si02
#       8
#     4   4   4   4   4   4   4   4
#     4  10  21  36  56  82 116 150 186 231 284 339
#     4   9  18  34  56  80 111 143 177 226 280 333
#     4  11  23  42  62  84 116 151 190 236 288 343
#     4  12  24  38  59  86 115 148 193 240 285 342
#     4  10  20  36  60  85 113 154 196 238 288 337
#     4  10  20  37  58  82 113 150 190 236 287 341
#     4   9  17  32  55  82 109 142 184 228 276 334
#     4   9  19  37  58  84 117 151 194 239 284 344
#
# _framework density 19.091643999999999
#
# number of rings (size 3 to 8) (size 9 to 14) (size 15 to 20)
#    0.000    2.000    1.250    2.625    0.000    5.000 
#    2.250    0.000    0.000    0.000    0.000    0.000 
#    0.000    0.000    0.000    0.000    0.000    0.000 
#
# Total GULP energy -396768.019876 kJ/mol
# GULP energy per Si atom -12399.000621 kJ/mol
# Density = 1.904819 g / cm^3
# Si number density = 19.091644 Si / 1000 Ang^3
#
#
#
# Elastic Constant Matrix: (Units=GPa)
#
#
# Indices 1 2 3 4 5 6 
#
# 1 127.3272 52.0983 59.3612 0.0000 19.2582 0.0000
# 2 52.0983 83.8277 46.8225 0.0000 4.3274 0.0000
# 3 59.3612 46.8225 111.7991 0.0000 -2.7799 0.0000
# 4 0.0000 0.0000 0.0000 28.2346 0.0000 3.8403
# 5 19.2582 4.3274 -2.7799 0.0000 26.3082 0.0000
# 6 0.0000 0.0000 0.0000 3.8403 0.0000 33.4093
#
#
#
# Elastic Compliance Matrix: (Units=1/GPa)
#
#
# Indices 1 2 3 4 5 6 
#
# 1 0.014063 -0.005106 -0.005578 0.000000 -0.010044 0.000000
# 2 -0.005106 0.017709 -0.004698 0.000000 0.000328 0.000000
# 3 -0.005578 -0.004698 0.014032 0.000000 0.006339 0.000000
# 4 0.000000 0.000000 0.000000 0.035980 0.000000 -0.004136
# 5 -0.010044 0.000328 0.006339 0.000000 0.045979 0.000000
# 6 0.000000 0.000000 0.000000 -0.004136 0.000000 0.030407
#
#
# Mechanical properties :
#
#
# Convention : Reuss Voigt Hill
#
# Bulk Modulus (GPa) = 66.48798 71.05757 68.77277
# Shear Modulus (GPa) = 25.78035 28.56856 27.17446
#
# Velocity S-wave (km/s) = 3.67869 3.87252 3.77685
# Velocity P-wave (km/s) = 7.27633 7.56936 7.42429
#
# Compressibility (1/GPa) = 0.01504031
#
# Stress axis : x y z
#
# Youngs Moduli (GPa) = 71.11099 56.46737 71.26816
#
# Poissons Ratio (x) = 0.28830 0.39755
# Poissons Ratio (y) = 0.36306 0.33480
# Poissons Ratio (z) = 0.39667 0.26527
#
# Static dielectric constant tensor:
#      x y z
#    x 3.589900 0.000000 0.077250 
#    y 0.000000 3.353200 0.000000 
#    z 0.077250 0.000000 3.409800 
# 
# 
# High freq. dielectric constant tensor:
#      x y z
#    x 1.757650 0.000000 0.008190 
#    y 0.000000 1.738360 0.000000 
#    z 0.008190 0.000000 1.727610 
# 
# From -- ./inp_files/45274.got.cif
#   From: 2010.06.25/outbox.cif.g09.slc.cpg/sg11_23_cif.got.tgz:45274.got - 2010.06.27 23:14:04.
