data_PCOD8074463
_publ_section_title
;
Structure prediction by ZEFSAII (Michael W. Deem and Ramdas Pophale) SiO2 
 PCOD8074463
Probable space group: P 21/M
;
_chemical_formula_sum "Si O2"
_cell_formula_units_Z 32
_cell_length_a 11.717909
_cell_length_b 18.788171
_cell_length_c 15.162846
_cell_angle_alpha 90.000000
_cell_angle_beta 149.863384
_cell_angle_gamma 90.000000
_cell_volume 1676.000029
_symmetry_space_group_name_H-M "P 21/M"
_symmetry_group_IT_number 11
_symmetry_cell_setting 'monoclinic'
loop_
_space_group_symop_operation_xyz
x,y,z
-x,1/2+y,-z
-x,-y,-z
x,1/2-y,z
loop_
_atom_site_type_symbol
_atom_site_label
_atom_site_fract_x
_atom_site_fract_y
_atom_site_fract_z
Si Si1 0.492187 0.165661 0.817465
Si Si2 0.977555 0.334325 0.475506
Si Si3 0.025270 0.048983 0.890850
Si Si4 0.217605 0.328534 0.923710
Si Si5 0.356082 0.529314 0.485457
Si Si6 0.238916 0.829588 0.489398
Si Si7 0.351667 0.834434 0.891767
Si Si8 0.332161 0.941919 0.196827
O O1 0.497491 0.250000 0.808443
O O2 0.605383 0.132588 0.806089
O O3 0.234102 0.136385 0.655758
O O4 0.639862 0.139864 0.000949
O O5 0.990497 0.250000 0.486340
O O6 0.811006 0.357805 0.444396
O O7 0.870223 0.361270 0.310443
O O8 0.170115 0.120475 0.974604
O O9 0.908298 0.022530 0.720527
O O10 0.826179 0.071010 0.824893
O O11 0.191628 0.988167 0.033663
O O12 0.279016 0.250000 0.001984
O O13 0.005209 0.323081 0.717787
O O14 0.424781 0.362766 0.008137
O O15 0.500000 0.500000 0.500000
O O16 0.395495 0.612634 0.541274
O O17 0.431570 0.480957 0.618547
O O18 0.353137 0.750000 0.564417
O O19 0.362432 0.750000 0.899463
#
# Coordination Sequence:
#
# PCOD8074463 Si02
#       8
#     4   4   4   4   4   4   4   4
#     4  10  20  36  55  78 109 140 179 222 260 318
#     4   9  17  30  51  79 106 136 174 220 270 312
#     4   9  20  37  55  75 105 138 177 219 261 317
#     4   9  16  30  55  81 106 133 171 223 268 306
#     4   9  19  36  55  75 108 146 175 217 275 314
#     4   9  16  30  55  81 106 137 180 225 263 312
#     4   9  17  30  51  79 108 138 166 211 275 312
#     4  10  21  37  56  75 102 149 179 207 273 325
#
# _framework density 19.093078999999999
#
# number of rings (size 3 to 8) (size 9 to 14) (size 15 to 20)
#    0.000    2.750    1.250    0.000    1.750    1.500 
#    0.000    3.125    0.000    4.500    0.000    0.000 
#    0.000    0.000    0.000    0.000    0.000    0.000 
#
# Total GULP energy -396439.057798 kJ/mol
# GULP energy per Si atom -12388.720556 kJ/mol
# Density = 1.904962 g / cm^3
# Si number density = 19.093079 Si / 1000 Ang^3
#
#
#
# Elastic Constant Matrix: (Units=GPa)
#
#
# Indices 1 2 3 4 5 6 
#
# 1 72.1964 51.0060 37.7059 0.0000 -7.2467 0.0000
# 2 51.0060 64.1407 26.5842 0.0000 -5.4521 0.0000
# 3 37.7059 26.5842 79.7543 0.0000 -16.9083 0.0000
# 4 0.0000 0.0000 0.0000 12.1351 0.0000 -8.3764
# 5 -7.2467 -5.4521 -16.9083 0.0000 18.4114 0.0000
# 6 0.0000 0.0000 0.0000 -8.3764 0.0000 26.2994
#
#
#
# Elastic Compliance Matrix: (Units=1/GPa)
#
#
# Indices 1 2 3 4 5 6 
#
# 1 0.036209 -0.025172 -0.009049 0.000000 -0.001513 0.000000
# 2 -0.025172 0.035590 0.000213 0.000000 0.000827 0.000000
# 3 -0.009049 0.000213 0.019873 0.000000 0.014752 0.000000
# 4 0.000000 0.000000 0.000000 0.105628 0.000000 0.033643
# 5 -0.001513 0.000827 0.014752 0.000000 0.067511 0.000000
# 6 0.000000 0.000000 0.000000 0.033643 0.000000 0.048739
#
#
# Mechanical properties :
#
#
# Convention : Reuss Voigt Hill
#
# Bulk Modulus (GPa) = 42.27222 49.63151 45.95187
# Shear Modulus (GPa) = 12.83852 18.08887 15.46369
#
# Velocity S-wave (km/s) = 2.59591 3.08133 2.84898
# Velocity P-wave (km/s) = 5.58329 6.22177 5.91116
#
# Compressibility (1/GPa) = 0.02365620
#
# Stress axis : x y z
#
# Youngs Moduli (GPa) = 27.61724 28.09755 50.31927
#
# Poissons Ratio (x) = 0.70728 0.45533
# Poissons Ratio (y) = 0.69519 -0.01072
# Poissons Ratio (z) = 0.24991 -0.00599
#
# Static dielectric constant tensor:
#      x y z
#    x 3.346120 0.000000 -0.210690 
#    y 0.000000 3.361660 0.000000 
#    z -0.210690 0.000000 3.869140 
# 
# 
# High freq. dielectric constant tensor:
#      x y z
#    x 1.721480 0.000000 -0.015540 
#    y 0.000000 1.712210 0.000000 
#    z -0.015540 0.000000 1.756240 
# 
# From -- ./inp_files/40053.got.cif
#   From: 2010.06.25/outbox.cif.g09.slc.cpg/sg11_21_cif.got.tgz:40053.got - 2010.06.27 23:14:04.
