data_PCOD8074583
_publ_section_title
;
Structure prediction by ZEFSAII (Michael W. Deem and Ramdas Pophale) SiO2 
 PCOD8074583
Probable space group: P 21/M
;
_chemical_formula_sum "Si O2"
_cell_formula_units_Z 32
_cell_length_a 24.343554
_cell_length_b 8.839947
_cell_length_c 16.420117
_cell_angle_alpha 90.000000
_cell_angle_beta 27.133858
_cell_angle_gamma 90.000000
_cell_volume 1611.544265
_symmetry_space_group_name_H-M "P 21/M"
_symmetry_group_IT_number 11
_symmetry_cell_setting 'monoclinic'
loop_
_space_group_symop_operation_xyz
x,y,z
-x,1/2+y,-z
-x,-y,-z
x,1/2-y,z
loop_
_atom_site_type_symbol
_atom_site_label
_atom_site_fract_x
_atom_site_fract_y
_atom_site_fract_z
Si Si1 0.122509 0.577099 0.312704
Si Si2 0.325056 0.575934 0.178705
Si Si3 0.372303 0.071312 0.688486
Si Si4 0.299075 0.072130 0.963211
Si Si5 0.834473 0.575383 0.162710
Si Si6 0.496567 0.427302 0.833406
Si Si7 0.274180 0.427310 0.416279
Si Si8 0.100548 0.576358 0.759597
O O1 0.095856 0.750000 0.327713
O O2 0.211867 0.555625 0.269650
O O3 0.000000 0.500000 0.500000
O O4 0.178329 0.503974 0.157458
O O5 0.366600 0.750000 0.129209
O O6 0.286545 0.517446 0.316773
O O7 0.435273 0.476196 0.999410
O O8 0.388105 0.250000 0.670579
O O9 0.324465 0.012500 0.838853
O O10 0.276094 0.021857 0.747396
O O11 0.500000 0.000000 0.500000
O O12 0.277075 0.250000 0.994594
O O13 0.413682 0.025851 0.866806
O O14 0.820924 0.750000 0.207304
O O15 0.835847 0.471872 0.240366
O O16 0.957463 0.552037 0.950406
O O17 0.523755 0.250000 0.799503
O O18 0.620468 0.519819 0.660877
O O19 0.278990 0.250000 0.393460
O O20 0.147802 0.472677 0.623765
O O21 0.134300 0.750000 0.698365
#
# Coordination Sequence:
#
# PCOD8074583 Si02
#       8
#     4   4   4   4   4   4   4   4
#     4  10  21  37  60  86 115 152 193 236 288 345
#     4  10  21  38  56  80 113 150 191 234 285 339
#     4  10  22  39  60  89 120 154 195 243 298 351
#     4   9  20  38  58  83 116 152 194 240 292 349
#     4   9  20  40  61  83 115 150 189 241 295 346
#     4  10  20  36  57  81 114 152 190 233 286 343
#     4  12  24  36  55  84 115 148 190 236 286 342
#     4  10  21  38  60  84 113 152 195 237 291 350
#
# _framework density 19.856731
#
# number of rings (size 3 to 8) (size 9 to 14) (size 15 to 20)
#    0.000    2.000    0.000    3.000    1.750    4.500 
#    0.000    2.500    0.000    0.000    0.000    0.000 
#    0.000    0.000    0.000    0.000    0.000    0.000 
#
# Total GULP energy -396935.792775 kJ/mol
# GULP energy per Si atom -12404.243524 kJ/mol
# Density = 1.981154 g / cm^3
# Si number density = 19.856731 Si / 1000 Ang^3
#
#
#
# Elastic Constant Matrix: (Units=GPa)
#
#
# Indices 1 2 3 4 5 6 
#
# 1 81.4572 24.0730 40.7863 0.0000 -2.1711 0.0000
# 2 24.0730 57.9676 27.6554 0.0000 -10.3393 0.0000
# 3 40.7863 27.6554 110.9808 0.0000 -4.7860 0.0000
# 4 0.0000 0.0000 0.0000 40.8082 0.0000 0.2181
# 5 -2.1711 -10.3393 -4.7860 0.0000 24.4881 0.0000
# 6 0.0000 0.0000 0.0000 0.2181 0.0000 28.5209
#
#
#
# Elastic Compliance Matrix: (Units=1/GPa)
#
#
# Indices 1 2 3 4 5 6 
#
# 1 0.016003 -0.004621 -0.004793 0.000000 -0.001469 0.000000
# 2 -0.004621 0.022329 -0.003507 0.000000 0.008333 0.000000
# 3 -0.004793 -0.003507 0.011662 0.000000 0.000374 0.000000
# 4 0.000000 0.000000 0.000000 0.024506 0.000000 -0.000187
# 5 -0.001469 0.008333 0.000374 0.000000 0.044297 0.000000
# 6 0.000000 0.000000 0.000000 -0.000187 0.000000 0.035064
#
#
# Mechanical properties :
#
#
# Convention : Reuss Voigt Hill
#
# Bulk Modulus (GPa) = 41.40325 48.38168 44.89246
# Shear Modulus (GPa) = 26.63076 29.28950 27.96013
#
# Velocity S-wave (km/s) = 3.66614 3.84479 3.75653
# Velocity P-wave (km/s) = 6.23033 6.64290 6.43992
#
# Compressibility (1/GPa) = 0.02415269
#
# Stress axis : x y z
#
# Youngs Moduli (GPa) = 62.48925 44.78423 85.74889
#
# Poissons Ratio (x) = 0.20695 0.41099
# Poissons Ratio (y) = 0.28877 0.30069
# Poissons Ratio (z) = 0.29951 0.15704
#
# Static dielectric constant tensor:
#      x y z
#    x 3.611830 0.000000 -0.048890 
#    y 0.000000 3.700210 0.000000 
#    z -0.048890 0.000000 3.665550 
# 
# 
# High freq. dielectric constant tensor:
#      x y z
#    x 1.772040 0.000000 0.000140 
#    y 0.000000 1.776880 0.000000 
#    z 0.000140 0.000000 1.782860 
# 
# From -- ./inp_files/55645.got.cif
#   From: 2010.06.25/outbox.cif.g09.slc.cpg/sg11_28_cif.got.tgz:55645.got - 2010.06.27 23:14:04.
