data_PCOD8074201
_publ_section_title
;
Structure prediction by ZEFSAII (Michael W. Deem and Ramdas Pophale) SiO2 
 PCOD8074201
Probable space group: P 21/M
;
_chemical_formula_sum "Si O2"
_cell_formula_units_Z 28
_cell_length_a 11.929395
_cell_length_b 8.998369
_cell_length_c 14.672230
_cell_angle_alpha 90.000000
_cell_angle_beta 71.227493
_cell_angle_gamma 90.000000
_cell_volume 1491.208363
_symmetry_space_group_name_H-M "P 21/M"
_symmetry_group_IT_number 11
_symmetry_cell_setting 'monoclinic'
loop_
_space_group_symop_operation_xyz
x,y,z
-x,1/2+y,-z
-x,-y,-z
x,1/2-y,z
loop_
_atom_site_type_symbol
_atom_site_label
_atom_site_fract_x
_atom_site_fract_y
_atom_site_fract_z
Si Si1 0.237091 0.078270 0.455141
Si Si2 0.646442 0.424640 0.873024
Si Si3 0.122424 0.922083 0.656640
Si Si4 0.476558 0.574807 0.410296
Si Si5 0.855890 0.920070 0.715484
Si Si6 0.679507 0.080613 0.255392
Si Si7 0.590895 0.420475 0.088193
O O1 0.269983 0.250000 0.462127
O O2 0.151340 0.056196 0.391409
O O3 0.175039 0.019363 0.561891
O O4 0.355146 0.987224 0.400831
O O5 0.641744 0.250000 0.862277
O O6 0.764090 0.480472 0.793899
O O7 0.528775 0.490250 0.857088
O O8 0.650044 0.474488 0.978371
O O9 0.130428 0.750000 0.624909
O O10 0.194201 0.952988 0.731213
O O11 0.987441 0.968466 0.711174
O O12 0.500000 0.500000 0.500000
O O13 0.466650 0.750000 0.425102
O O14 0.583395 0.534898 0.316199
O O15 0.829586 0.750000 0.748017
O O16 0.639958 0.250000 0.288400
O O17 0.686532 0.057081 0.144292
O O18 0.551967 0.250000 0.089493
#
# Coordination Sequence:
#
# PCOD8074201 Si02
#       7
#     4   4   4   4   4   4   4
#     4  11  22  36  55  79 109 144 182 227 276 320
#     4  10  20  35  57  84 109 138 179 226 272 321
#     4  10  21  37  56  77 106 146 188 224 265 323
#     4  12  23  35  53  79 111 142 178 221 267 320
#     4  10  22  38  55  78 109 146 184 224 273 323
#     4  10  20  36  57  80 109 144 179 221 274 324
#     4   9  19  36  58  83 111 140 173 220 279 331
#
# _framework density 18.776717999999999
#
# number of rings (size 3 to 8) (size 9 to 14) (size 15 to 20)
#    0.000    1.714    1.429    3.429    0.000    6.286 
#    0.000    0.714    0.000    0.000    0.000    0.000 
#    0.000    0.000    0.000    0.000    0.000    0.000 
#
# Total GULP energy -347260.434476 kJ/mol
# GULP energy per Si atom -12402.158374 kJ/mol
# Density = 1.873398 g / cm^3
# Si number density = 18.776718 Si / 1000 Ang^3
#
#
#
# Elastic Constant Matrix: (Units=GPa)
#
#
# Indices 1 2 3 4 5 6 
#
# 1 138.2109 51.0995 59.3718 0.0000 8.0171 0.0000
# 2 51.0995 94.6502 36.5851 0.0000 1.5185 0.0000
# 3 59.3718 36.5851 88.2617 0.0000 11.8318 0.0000
# 4 0.0000 0.0000 0.0000 28.7132 0.0000 -3.1844
# 5 8.0171 1.5185 11.8318 0.0000 27.3338 0.0000
# 6 0.0000 0.0000 0.0000 -3.1844 0.0000 23.5906
#
#
#
# Elastic Compliance Matrix: (Units=1/GPa)
#
#
# Indices 1 2 3 4 5 6 
#
# 1 0.011187 -0.003750 -0.005901 0.000000 -0.000518 0.000000
# 2 -0.003750 0.013909 -0.003489 0.000000 0.001838 0.000000
# 3 -0.005901 -0.003489 0.017503 0.000000 -0.005652 0.000000
# 4 0.000000 0.000000 0.000000 0.035357 0.000000 0.004773
# 5 -0.000518 0.001838 -0.005652 0.000000 0.039081 0.000000
# 6 0.000000 0.000000 0.000000 0.004773 0.000000 0.043034
#
#
# Mechanical properties :
#
#
# Convention : Reuss Voigt Hill
#
# Bulk Modulus (GPa) = 61.28032 68.35952 64.81992
# Shear Modulus (GPa) = 26.06997 27.53195 26.80096
#
# Velocity S-wave (km/s) = 3.73019 3.83336 3.78213
# Velocity P-wave (km/s) = 7.15958 7.48855 7.32592
#
# Compressibility (1/GPa) = 0.01631845
#
# Stress axis : x y z
#
# Youngs Moduli (GPa) = 89.38987 71.89581 57.13166
#
# Poissons Ratio (x) = 0.26963 0.33715
# Poissons Ratio (y) = 0.33524 0.19933
# Poissons Ratio (z) = 0.52751 0.25084
#
# Static dielectric constant tensor:
#      x y z
#    x 3.623640 0.000000 0.181520 
#    y 0.000000 3.510700 0.000000 
#    z 0.181520 0.000000 3.620850 
# 
# 
# High freq. dielectric constant tensor:
#      x y z
#    x 1.729430 0.000000 0.013650 
#    y 0.000000 1.732470 0.000000 
#    z 0.013650 0.000000 1.722430 
# 
# From -- ./inp_files/37457.got.cif
#   From: 2010.06.25/outbox.cif.g09.slc.cpg/sg11_19_cif.got.tgz:37457.got - 2010.06.27 23:14:04.
