data_PCOD8074015
_publ_section_title
;
Structure prediction by ZEFSAII (Michael W. Deem and Ramdas Pophale) SiO2 
 PCOD8074015
Probable space group: P 21/M
;
_chemical_formula_sum "Si O2"
_cell_formula_units_Z 28
_cell_length_a 14.364703
_cell_length_b 8.764271
_cell_length_c 14.213468
_cell_angle_alpha 90.000000
_cell_angle_beta 120.230224
_cell_angle_gamma 90.000000
_cell_volume 1546.076360
_symmetry_space_group_name_H-M "P 21/M"
_symmetry_group_IT_number 11
_symmetry_cell_setting 'monoclinic'
loop_
_space_group_symop_operation_xyz
x,y,z
-x,1/2+y,-z
-x,-y,-z
x,1/2-y,z
loop_
_atom_site_type_symbol
_atom_site_label
_atom_site_fract_x
_atom_site_fract_y
_atom_site_fract_z
Si Si1 0.487482 0.570466 0.890399
Si Si2 0.899213 0.070231 0.504487
Si Si3 0.168756 0.579617 0.822241
Si Si4 0.306996 0.576998 0.072060
Si Si5 0.270792 0.071649 0.706402
Si Si6 0.890143 0.426033 0.909052
Si Si7 0.957997 0.424182 0.743610
O O1 0.481929 0.750000 0.900289
O O2 0.586112 0.525427 0.872025
O O3 0.381392 0.514176 0.783355
O O4 0.500000 0.500000 0.000000
O O5 0.898124 0.250000 0.485357
O O6 0.904261 0.030166 0.617632
O O7 0.786362 0.995707 0.415193
O O8 0.000000 0.000000 0.500000
O O9 0.158477 0.750000 0.774419
O O10 0.188225 0.458293 0.749706
O O11 0.058896 0.532817 0.817643
O O12 0.265991 0.574537 0.944418
O O13 0.335842 0.750000 0.117213
O O14 0.216450 0.504396 0.095259
O O15 0.292477 0.250000 0.705394
O O16 0.896152 0.250000 0.942116
O O17 0.876070 0.447519 0.789214
O O18 0.000000 0.500000 0.000000
O O19 0.998610 0.250000 0.761307
#
# Coordination Sequence:
#
# PCOD8074015 Si02
#       7
#     4   4   4   4   4   4   4
#     4  12  24  38  58  83 112 147 185 229 279 335
#     4  11  22  36  55  82 114 149 189 231 280 332
#     4  11  20  31  53  82 115 149 184 226 271 327
#     4  10  21  36  54  81 116 151 186 226 274 328
#     4  12  24  38  56  80 112 150 188 230 279 333
#     4  10  20  35  55  81 113 149 186 226 274 327
#     4  10  21  35  54  80 114 151 188 227 275 330
#
# _framework density 18.110361000000001
#
# number of rings (size 3 to 8) (size 9 to 14) (size 15 to 20)
#    0.000    1.143    4.286    3.429    0.000    1.714 
#    0.000    0.000    0.000    0.857    0.000    0.000 
#    0.000    0.000    0.000    0.000    0.000    0.000 
#
# Total GULP energy -347219.605158 kJ/mol
# GULP energy per Si atom -12400.700184 kJ/mol
# Density = 1.806914 g / cm^3
# Si number density = 18.110361 Si / 1000 Ang^3
#
#
#
# Elastic Constant Matrix: (Units=GPa)
#
#
# Indices 1 2 3 4 5 6 
#
# 1 115.7226 42.6537 47.9086 0.0000 5.3314 0.0000
# 2 42.6537 107.2935 42.1702 0.0000 8.6444 0.0000
# 3 47.9086 42.1702 99.1525 0.0000 5.6102 0.0000
# 4 0.0000 0.0000 0.0000 25.8737 0.0000 5.7675
# 5 5.3314 8.6444 5.6102 0.0000 32.2739 0.0000
# 6 0.0000 0.0000 0.0000 5.7675 0.0000 27.3841
#
#
#
# Elastic Compliance Matrix: (Units=1/GPa)
#
#
# Indices 1 2 3 4 5 6 
#
# 1 0.011496 -0.002839 -0.004325 0.000000 -0.000387 0.000000
# 2 -0.002839 0.012048 -0.003632 0.000000 -0.002127 0.000000
# 3 -0.004325 -0.003632 0.013760 0.000000 -0.000705 0.000000
# 4 0.000000 0.000000 0.000000 0.040553 0.000000 -0.008541
# 5 -0.000387 -0.002127 -0.000705 0.000000 0.031741 0.000000
# 6 0.000000 0.000000 0.000000 -0.008541 0.000000 0.038316
#
#
# Mechanical properties :
#
#
# Convention : Reuss Voigt Hill
#
# Bulk Modulus (GPa) = 63.64868 65.29261 64.47065
# Shear Modulus (GPa) = 28.61328 29.73541 29.17435
#
# Velocity S-wave (km/s) = 3.97916 4.05643 4.01798
# Velocity P-wave (km/s) = 7.50552 7.62040 7.56317
#
# Compressibility (1/GPa) = 0.01571124
#
# Stress axis : x y z
#
# Youngs Moduli (GPa) = 86.98432 83.00372 72.67459
#
# Poissons Ratio (x) = 0.23565 0.31435
# Poissons Ratio (y) = 0.24695 0.26394
# Poissons Ratio (z) = 0.37625 0.30146
#
# Static dielectric constant tensor:
#      x y z
#    x 3.448080 0.000000 -0.060260 
#    y 0.000000 3.477640 0.000000 
#    z -0.060260 0.000000 3.383710 
# 
# 
# High freq. dielectric constant tensor:
#      x y z
#    x 1.693210 0.000000 0.000250 
#    y 0.000000 1.707490 0.000000 
#    z 0.000250 0.000000 1.689490 
# 
# From -- ./inp_files/51122.got.cif
#   From: 2010.06.25/outbox.cif.g09.slc.cpg/sg11_26_cif.got.tgz:51122.got - 2010.06.27 23:14:04.
