data_PCOD8074290
_publ_section_title
;
Structure prediction by ZEFSAII (Michael W. Deem and Ramdas Pophale) SiO2 
 PCOD8074290
Probable space group: P 21/M
;
_chemical_formula_sum "Si O2"
_cell_formula_units_Z 32
_cell_length_a 20.148185
_cell_length_b 8.946234
_cell_length_c 14.684293
_cell_angle_alpha 90.000000
_cell_angle_beta 141.205552
_cell_angle_gamma 90.000000
_cell_volume 1658.326003
_symmetry_space_group_name_H-M "P 21/M"
_symmetry_group_IT_number 11
_symmetry_cell_setting 'monoclinic'
loop_
_space_group_symop_operation_xyz
x,y,z
-x,1/2+y,-z
-x,-y,-z
x,1/2-y,z
loop_
_atom_site_type_symbol
_atom_site_label
_atom_site_fract_x
_atom_site_fract_y
_atom_site_fract_z
Si Si1 0.822310 0.071611 0.373573
Si Si2 0.063315 0.426829 0.341497
Si Si3 0.093149 0.072879 0.161465
Si Si4 0.400716 0.579834 0.930026
Si Si5 0.665066 0.573363 0.617272
Si Si6 0.113885 0.080339 0.739248
Si Si7 0.468116 0.077947 0.351633
Si Si8 0.351806 0.414558 0.045021
O O1 0.835038 0.250000 0.381095
O O2 0.702755 0.017329 0.230805
O O3 0.850782 0.010959 0.503752
O O4 0.890873 0.996314 0.365742
O O5 0.075527 0.250000 0.366686
O O6 0.076833 0.471974 0.249929
O O7 0.951164 0.482888 0.258221
O O8 0.084198 0.250000 0.138286
O O9 0.212445 0.016143 0.260393
O O10 0.000000 0.000000 0.000000
O O11 0.414485 0.750000 0.924072
O O12 0.500000 0.500000 0.000000
O O13 0.396261 0.547679 0.031903
O O14 0.667722 0.750000 0.609129
O O15 0.607003 0.517569 0.647343
O O16 0.581170 0.505629 0.454409
O O17 0.068440 0.250000 0.680424
O O18 0.226177 0.083879 0.907214
O O19 0.496156 0.250000 0.397320
O O20 0.390800 0.048826 0.186054
O O21 0.392525 0.250000 0.056635
#
# Coordination Sequence:
#
# PCOD8074290 Si02
#       8
#     4   4   4   4   4   4   4   4
#     4  10  21  38  58  82 112 148 189 235 280 333
#     4  11  23  38  56  83 114 149 189 233 285 339
#     4  10  24  42  60  83 115 152 192 239 287 342
#     4  10  21  36  55  80 112 147 181 224 275 331
#     4   9  19  37  58  81 112 146 185 234 286 337
#     4  10  20  35  58  85 114 151 189 233 284 337
#     4   9  18  34  58  85 111 143 185 235 284 334
#     4   9  19  34  54  82 111 144 187 231 278 332
#
# _framework density 19.296567
#
# number of rings (size 3 to 8) (size 9 to 14) (size 15 to 20)
#    0.000    2.250    0.000    1.875    1.750    5.000 
#    0.000    2.500    0.000    0.000    0.000    0.000 
#    0.000    0.000    0.000    0.000    0.000    0.000 
#
# Total GULP energy -396489.378697 kJ/mol
# GULP energy per Si atom -12390.293084 kJ/mol
# Density = 1.925265 g / cm^3
# Si number density = 19.296567 Si / 1000 Ang^3
#
#
#
# Elastic Constant Matrix: (Units=GPa)
#
#
# Indices 1 2 3 4 5 6 
#
# 1 117.9945 36.1551 71.5451 0.0000 12.5095 0.0000
# 2 36.1551 47.6948 42.0664 0.0000 -0.9158 0.0000
# 3 71.5451 42.0664 112.6533 0.0000 -7.4767 0.0000
# 4 0.0000 0.0000 0.0000 32.1013 0.0000 1.7295
# 5 12.5095 -0.9158 -7.4767 0.0000 30.5164 0.0000
# 6 0.0000 0.0000 0.0000 1.7295 0.0000 31.1115
#
#
#
# Elastic Compliance Matrix: (Units=1/GPa)
#
#
# Indices 1 2 3 4 5 6 
#
# 1 0.016545 -0.004340 -0.009500 0.000000 -0.009240 0.000000
# 2 -0.004340 0.032517 -0.009355 0.000000 0.000463 0.000000
# 3 -0.009500 -0.009355 0.018951 0.000000 0.008257 0.000000
# 4 0.000000 0.000000 0.000000 0.031245 0.000000 -0.001737
# 5 -0.009240 0.000463 0.008257 0.000000 0.038594 0.000000
# 6 0.000000 0.000000 0.000000 -0.001737 0.000000 0.032239
#
#
# Mechanical properties :
#
#
# Convention : Reuss Voigt Hill
#
# Bulk Modulus (GPa) = 46.24836 64.20842 55.22839
# Shear Modulus (GPa) = 22.35250 27.31756 24.83503
#
# Velocity S-wave (km/s) = 3.40717 3.76662 3.59140
# Velocity P-wave (km/s) = 6.28471 7.22934 6.77351
#
# Compressibility (1/GPa) = 0.02162239
#
# Stress axis : x y z
#
# Youngs Moduli (GPa) = 60.44222 30.75340 52.76659
#
# Poissons Ratio (x) = 0.13348 0.50128
# Poissons Ratio (y) = 0.26234 0.49363
# Poissons Ratio (z) = 0.57420 0.28770
#
# Static dielectric constant tensor:
#      x y z
#    x 3.537840 0.000000 0.134210 
#    y 0.000000 3.929720 0.000000 
#    z 0.134210 0.000000 3.719420 
# 
# 
# High freq. dielectric constant tensor:
#      x y z
#    x 1.744490 0.000000 0.008020 
#    y 0.000000 1.751220 0.000000 
#    z 0.008020 0.000000 1.765600 
# 
# From -- ./inp_files/54377.got.cif
#   From: 2010.06.25/outbox.cif.g09.slc.cpg/sg11_28_cif.got.tgz:54377.got - 2010.06.27 23:14:04.
