data_PCOD8074348
_publ_section_title
;
Structure prediction by ZEFSAII (Michael W. Deem and Ramdas Pophale) SiO2 
 PCOD8074348
Probable space group: P 21/M
;
_chemical_formula_sum "Si O2"
_cell_formula_units_Z 24
_cell_length_a 9.904146
_cell_length_b 8.927094
_cell_length_c 13.829143
_cell_angle_alpha 90.000000
_cell_angle_beta 88.837199
_cell_angle_gamma 90.000000
_cell_volume 1222.455237
_symmetry_space_group_name_H-M "P 21/M"
_symmetry_group_IT_number 11
_symmetry_cell_setting 'monoclinic'
loop_
_space_group_symop_operation_xyz
x,y,z
-x,1/2+y,-z
-x,-y,-z
x,1/2-y,z
loop_
_atom_site_type_symbol
_atom_site_label
_atom_site_fract_x
_atom_site_fract_y
_atom_site_fract_z
Si Si1 0.732478 0.921291 0.287511
Si Si2 0.769119 0.576535 0.714742
Si Si3 0.640066 0.076663 0.109831
Si Si4 0.038931 0.923380 0.598851
Si Si5 0.647572 0.423557 0.891531
Si Si6 0.541057 0.078218 0.597582
O O1 0.779315 0.750000 0.277861
O O2 0.578350 0.935255 0.323400
O O3 0.744492 0.999926 0.182492
O O4 0.825149 0.002988 0.363958
O O5 0.730193 0.750000 0.723615
O O6 0.922336 0.553558 0.679482
O O7 0.756569 0.499030 0.819586
O O8 0.672485 0.501514 0.637509
O O9 0.624029 0.250000 0.136937
O O10 0.495507 0.000528 0.121833
O O11 0.698267 0.055552 0.000829
O O12 0.066342 0.750000 0.577909
O O13 0.000000 0.000000 0.500000
O O14 0.631074 0.250000 0.864289
O O15 0.576525 0.250000 0.575170
O O16 0.500000 0.000000 0.500000
#
# Coordination Sequence:
#
# PCOD8074348 Si02
#       6
#     4   4   4   4   4   4
#     4  11  23  39  60  88 119 155 201 245 294 354
#     4  11  23  39  60  87 118 155 199 245 296 355
#     4  10  20  35  59  89 122 157 194 241 296 352
#     4  11  25  43  62  86 118 159 204 245 298 359
#     4  10  20  35  58  90 122 155 196 241 295 355
#     4  11  23  37  57  86 117 149 194 247 297 354
#
# _framework density 19.632622000000001
#
# number of rings (size 3 to 8) (size 9 to 14) (size 15 to 20)
#    0.000    1.333    1.667    4.000    0.000   10.667 
#    0.000    0.833    0.000    0.000    0.000    0.000 
#    0.000    0.000    0.000    0.000    0.000    0.000 
#
# Total GULP energy -297732.694063 kJ/mol
# GULP energy per Si atom -12405.528919 kJ/mol
# Density = 1.958794 g / cm^3
# Si number density = 19.632622 Si / 1000 Ang^3
#
#
#
# Elastic Constant Matrix: (Units=GPa)
#
#
# Indices 1 2 3 4 5 6 
#
# 1 34.4708 27.3553 3.1025 0.0000 7.0486 0.0000
# 2 27.3553 158.4485 57.0405 0.0000 1.9566 0.0000
# 3 3.1025 57.0405 110.4130 0.0000 7.5951 0.0000
# 4 0.0000 0.0000 0.0000 42.2876 0.0000 1.9471
# 5 7.0486 1.9566 7.5951 0.0000 33.4051 0.0000
# 6 0.0000 0.0000 0.0000 1.9471 0.0000 30.9394
#
#
#
# Elastic Compliance Matrix: (Units=1/GPa)
#
#
# Indices 1 2 3 4 5 6 
#
# 1 0.036164 -0.007342 0.003324 0.000000 -0.007956 0.000000
# 2 -0.007342 0.009251 -0.004716 0.000000 0.002080 0.000000
# 3 0.003324 -0.004716 0.011611 0.000000 -0.003065 0.000000
# 4 0.000000 0.000000 0.000000 0.023716 0.000000 -0.001493
# 5 -0.007956 0.002080 -0.003065 0.000000 0.032189 0.000000
# 6 0.000000 0.000000 0.000000 -0.001493 0.000000 0.032415
#
#
# Mechanical properties :
#
#
# Convention : Reuss Voigt Hill
#
# Bulk Modulus (GPa) = 25.27919 53.14766 39.21342
# Shear Modulus (GPa) = 28.40910 35.71535 32.06223
#
# Velocity S-wave (km/s) = 3.80812 4.26982 4.04556
# Velocity P-wave (km/s) = 5.67801 7.17205 6.46831
#
# Compressibility (1/GPa) = 0.03955823
#
# Stress axis : x y z
#
# Youngs Moduli (GPa) = 27.65158 108.09966 86.12857
#
# Poissons Ratio (x) = 0.79366 -0.28630
# Poissons Ratio (y) = 0.20302 0.40616
# Poissons Ratio (z) = -0.09192 0.50977
#
# Static dielectric constant tensor:
#      x y z
#    x 3.371500 0.000000 0.001970 
#    y 0.000000 3.927860 0.000000 
#    z 0.001970 0.000000 3.955290 
# 
# 
# High freq. dielectric constant tensor:
#      x y z
#    x 1.740930 0.000000 0.001890 
#    y 0.000000 1.787170 0.000000 
#    z 0.001890 0.000000 1.781790 
# 
# From -- ./inp_files/46561.got.cif
#   From: 2010.06.25/outbox.cif.g09.slc.cpg/sg11_24_cif.got.tgz:46561.got - 2010.06.27 23:14:04.
