data_PCOD8074561
_publ_section_title
;
Structure prediction by ZEFSAII (Michael W. Deem and Ramdas Pophale) SiO2 
 PCOD8074561
Probable space group: P 21/M
;
_chemical_formula_sum "Si O2"
_cell_formula_units_Z 32
_cell_length_a 24.922410
_cell_length_b 9.102974
_cell_length_c 16.257568
_cell_angle_alpha 90.000000
_cell_angle_beta 153.425895
_cell_angle_gamma 90.000000
_cell_volume 1649.989354
_symmetry_space_group_name_H-M "P 21/M"
_symmetry_group_IT_number 11
_symmetry_cell_setting 'monoclinic'
loop_
_space_group_symop_operation_xyz
x,y,z
-x,1/2+y,-z
-x,-y,-z
x,1/2-y,z
loop_
_atom_site_type_symbol
_atom_site_label
_atom_site_fract_x
_atom_site_fract_y
_atom_site_fract_z
Si Si1 0.336407 0.078320 0.470274
Si Si2 0.766602 0.420370 0.364940
Si Si3 0.978503 0.575405 0.217621
Si Si4 0.326337 0.424764 0.919194
Si Si5 0.477699 0.419174 0.385169
Si Si6 0.232766 0.418621 0.962838
Si Si7 0.600925 0.078951 0.287731
Si Si8 0.081790 0.078509 0.046186
O O1 0.365253 0.250000 0.513737
O O2 0.220067 0.046286 0.256001
O O3 0.448424 0.993337 0.586073
O O4 0.320076 0.014570 0.539589
O O5 0.775723 0.250000 0.353694
O O6 0.750947 0.512506 0.261129
O O7 0.654998 0.450500 0.271972
O O8 0.888190 0.474239 0.575672
O O9 0.964625 0.750000 0.196268
O O10 0.885401 0.509231 0.157619
O O11 0.946894 0.514091 0.083620
O O12 0.321850 0.250000 0.910568
O O13 0.269163 0.490193 0.925103
O O14 0.464038 0.477154 0.100669
O O15 0.500000 0.500000 0.500000
O O16 0.516151 0.250000 0.445772
O O17 0.338356 0.434738 0.173560
O O18 0.205703 0.250000 0.906742
O O19 0.610844 0.250000 0.325449
O O20 0.052480 0.250000 0.010698
O O21 0.000000 0.000000 0.000000
#
# Coordination Sequence:
#
# PCOD8074561 Si02
#       8
#     4   4   4   4   4   4   4   4
#     4  11  22  35  56  87 116 145 187 237 287 337
#     4  10  21  35  56  83 109 143 187 237 284 333
#     4   9  18  35  56  78 108 147 188 225 274 338
#     4  10  20  36  57  80 108 147 189 230 283 342
#     4  11  21  36  57  82 113 150 191 232 280 339
#     4   9  18  35  57  78 108 149 186 224 276 340
#     4  10  20  37  57  81 114 150 188 227 285 349
#     4  10  21  37  57  82 113 151 191 232 278 339
#
# _framework density 19.394064
#
# number of rings (size 3 to 8) (size 9 to 14) (size 15 to 20)
#    0.000    2.000    1.250    2.625    0.000    5.500 
#    0.000    0.625    0.000    2.250    0.000    0.000 
#    0.000    0.000    0.000    0.000    0.000    0.000 
#
# Total GULP energy -396853.921774 kJ/mol
# GULP energy per Si atom -12401.685055 kJ/mol
# Density = 1.934992 g / cm^3
# Si number density = 19.394064 Si / 1000 Ang^3
#
#
#
# Elastic Constant Matrix: (Units=GPa)
#
#
# Indices 1 2 3 4 5 6 
#
# 1 142.7413 26.4585 59.0910 0.0000 -1.8138 0.0000
# 2 26.4585 45.9087 28.4074 0.0000 -3.8197 0.0000
# 3 59.0910 28.4074 109.2810 0.0000 -10.8732 0.0000
# 4 0.0000 0.0000 0.0000 29.3539 0.0000 -8.1792
# 5 -1.8138 -3.8197 -10.8732 0.0000 40.3876 0.0000
# 6 0.0000 0.0000 0.0000 -8.1792 0.0000 26.4445
#
#
#
# Elastic Compliance Matrix: (Units=1/GPa)
#
#
# Indices 1 2 3 4 5 6 
#
# 1 0.009336 -0.002716 -0.004445 0.000000 -0.001034 0.000000
# 2 -0.002716 0.026765 -0.005393 0.000000 0.000957 0.000000
# 3 -0.004445 -0.005393 0.013240 0.000000 0.002855 0.000000
# 4 0.000000 0.000000 0.000000 0.037280 0.000000 0.011531
# 5 -0.001034 0.000957 0.002855 0.000000 0.025573 0.000000
# 6 0.000000 0.000000 0.000000 0.011531 0.000000 0.041381
#
#
# Mechanical properties :
#
#
# Convention : Reuss Voigt Hill
#
# Bulk Modulus (GPa) = 41.26823 58.42719 49.84771
# Shear Modulus (GPa) = 26.77199 31.50214 29.13706
#
# Velocity S-wave (km/s) = 3.71943 4.03466 3.88025
# Velocity P-wave (km/s) = 6.30639 7.20391 6.77004
#
# Compressibility (1/GPa) = 0.02423171
#
# Stress axis : x y z
#
# Youngs Moduli (GPa) = 107.11021 37.36250 75.52637
#
# Poissons Ratio (x) = 0.10148 0.33573
# Poissons Ratio (y) = 0.29093 0.40735
# Poissons Ratio (z) = 0.47612 0.20151
#
# Static dielectric constant tensor:
#      x y z
#    x 3.931800 0.000000 0.099100 
#    y 0.000000 3.314990 0.000000 
#    z 0.099100 0.000000 3.557920 
# 
# 
# High freq. dielectric constant tensor:
#      x y z
#    x 1.771070 0.000000 -0.002120 
#    y 0.000000 1.722220 0.000000 
#    z -0.002120 0.000000 1.760530 
# 
# From -- ./inp_files/55727.got.cif
#   From: 2010.06.25/outbox.cif.g09.slc.cpg/sg11_28_cif.got.tgz:55727.got - 2010.06.27 23:14:04.
