data_PCOD8074439
_publ_section_title
;
Structure prediction by ZEFSAII (Michael W. Deem and Ramdas Pophale) SiO2 
 PCOD8074439
Probable space group: P 21/M
;
_chemical_formula_sum "Si O2"
_cell_formula_units_Z 32
_cell_length_a 12.189533
_cell_length_b 8.955134
_cell_length_c 23.060706
_cell_angle_alpha 90.000000
_cell_angle_beta 133.545002
_cell_angle_gamma 90.000000
_cell_volume 1824.609816
_symmetry_space_group_name_H-M "P 21/M"
_symmetry_group_IT_number 11
_symmetry_cell_setting 'monoclinic'
loop_
_space_group_symop_operation_xyz
x,y,z
-x,1/2+y,-z
-x,-y,-z
x,1/2-y,z
loop_
_atom_site_type_symbol
_atom_site_label
_atom_site_fract_x
_atom_site_fract_y
_atom_site_fract_z
Si Si1 0.430402 0.575131 0.707399
Si Si2 0.182706 0.425687 0.813350
Si Si3 0.366555 0.423458 0.984273
Si Si4 0.841089 0.427984 0.672626
Si Si5 0.842562 0.919163 0.446019
Si Si6 0.324210 0.421925 0.494634
Si Si7 0.542814 0.425218 0.153694
Si Si8 0.598279 0.926958 0.653828
O O1 0.398909 0.750000 0.691735
O O2 0.271558 0.494310 0.640476
O O3 0.491673 0.525755 0.792818
O O4 0.550831 0.527433 0.701942
O O5 0.194667 0.250000 0.807785
O O6 0.305341 0.499092 0.815486
O O7 0.015053 0.482322 0.737210
O O8 0.213443 0.466844 0.893367
O O9 0.393334 0.250000 0.987816
O O10 0.389998 0.468295 0.060790
O O11 0.500000 0.500000 0.000000
O O12 0.827717 0.250000 0.667700
O O13 0.763254 0.496644 0.588211
O O14 0.758991 0.495064 0.699729
O O15 0.864505 0.750000 0.434047
O O16 0.782812 0.931768 0.489086
O O17 0.000000 0.000000 0.500000
O O18 0.360199 0.250000 0.491384
O O19 0.479830 0.508879 0.563684
O O20 0.574796 0.250000 0.162699
O O21 0.609710 0.750000 0.650176
#
# Coordination Sequence:
#
# PCOD8074439 Si02
#       8
#     4   4   4   4   4   4   4   4
#     4   9  19  34  51  73  97 125 164 204 243 289
#     4   9  19  32  47  73 104 131 159 195 243 294
#     4   8  14  28  48  70  98 129 158 191 237 289
#     4  11  22  34  50  72  99 129 164 206 245 289
#     4  10  21  34  49  69  98 133 163 197 241 289
#     4  10  21  36  52  71  94 126 167 205 244 289
#     4   9  17  30  52  77 100 127 160 199 240 291
#     4  10  20  36  54  70  94 128 166 207 247 288
#
# _framework density 17.537997000000001
#
# number of rings (size 3 to 8) (size 9 to 14) (size 15 to 20)
#    0.000    2.500    0.000    1.875    1.750    3.500 
#    0.000    0.000    0.000    0.750    0.000    0.000 
#    0.000    0.000    0.000    0.000    0.000    0.500 
#
# Total GULP energy -396548.391555 kJ/mol
# GULP energy per Si atom -12392.137236 kJ/mol
# Density = 1.749808 g / cm^3
# Si number density = 17.537997 Si / 1000 Ang^3
#
#
#
# Elastic Constant Matrix: (Units=GPa)
#
#
# Indices 1 2 3 4 5 6 
#
# 1 57.3079 21.6762 53.1700 0.0000 -1.9170 0.0000
# 2 21.6762 53.1519 32.4989 0.0000 -2.4098 0.0000
# 3 53.1700 32.4989 125.4362 0.0000 -19.9366 0.0000
# 4 0.0000 0.0000 0.0000 20.6902 0.0000 -0.4031
# 5 -1.9170 -2.4098 -19.9366 0.0000 22.3021 0.0000
# 6 0.0000 0.0000 0.0000 -0.4031 0.0000 26.6921
#
#
#
# Elastic Compliance Matrix: (Units=1/GPa)
#
#
# Indices 1 2 3 4 5 6 
#
# 1 0.031800 -0.004992 -0.013798 0.000000 -0.010140 0.000000
# 2 -0.004992 0.023339 -0.004194 0.000000 -0.001657 0.000000
# 3 -0.013798 -0.004194 0.017073 0.000000 0.013623 0.000000
# 4 0.000000 0.000000 0.000000 0.048346 0.000000 0.000730
# 5 -0.010140 -0.001657 0.013623 0.000000 0.055966 0.000000
# 6 0.000000 0.000000 0.000000 0.000730 0.000000 0.037475
#
#
# Mechanical properties :
#
#
# Convention : Reuss Voigt Hill
#
# Bulk Modulus (GPa) = 38.10382 50.06514 44.08448
# Shear Modulus (GPa) = 18.60707 22.50694 20.55701
#
# Velocity S-wave (km/s) = 3.26077 3.58624 3.42737
# Velocity P-wave (km/s) = 5.99587 6.76438 6.39168
#
# Compressibility (1/GPa) = 0.02624409
#
# Stress axis : x y z
#
# Youngs Moduli (GPa) = 31.44644 42.84651 58.57335
#
# Poissons Ratio (x) = 0.21388 0.80818
# Poissons Ratio (y) = 0.15698 0.24567
# Poissons Ratio (z) = 0.43389 0.17971
#
# Static dielectric constant tensor:
#      x y z
#    x 3.257030 0.000000 -0.157200 
#    y 0.000000 3.329930 0.000000 
#    z -0.157200 0.000000 3.880870 
# 
# 
# High freq. dielectric constant tensor:
#      x y z
#    x 1.659030 0.000000 -0.010400 
#    y 0.000000 1.684940 0.000000 
#    z -0.010400 0.000000 1.682250 
# 
# From -- ./inp_files/64410.got.cif
#   From: 2010.06.25/outbox.cif.g09.slc.cpg/sg11_33_cif.got.tgz:64410.got - 2010.06.27 23:14:04.
