data_PCOD8074549
_publ_section_title
;
Structure prediction by ZEFSAII (Michael W. Deem and Ramdas Pophale) SiO2 
 PCOD8074549
Probable space group: P 21/M
;
_chemical_formula_sum "Si O2"
_cell_formula_units_Z 32
_cell_length_a 7.405731
_cell_length_b 20.341225
_cell_length_c 18.981455
_cell_angle_alpha 90.000000
_cell_angle_beta 141.289174
_cell_angle_gamma 90.000000
_cell_volume 1788.238922
_symmetry_space_group_name_H-M "P 21/M"
_symmetry_group_IT_number 11
_symmetry_cell_setting 'monoclinic'
loop_
_space_group_symop_operation_xyz
x,y,z
-x,1/2+y,-z
-x,-y,-z
x,1/2-y,z
loop_
_atom_site_type_symbol
_atom_site_label
_atom_site_fract_x
_atom_site_fract_y
_atom_site_fract_z
Si Si1 0.152357 0.674153 0.720361
Si Si2 0.444122 0.087943 0.077554
Si Si3 0.680721 0.555131 0.340361
Si Si4 0.823160 0.095556 0.411580
Si Si5 0.729086 0.825847 0.720361
Si Si6 0.866095 0.087943 0.077554
Si Si7 0.389823 0.447775 0.838357
Si Si8 0.963605 0.447775 0.838357
O O1 0.187412 0.750000 0.711261
O O2 0.460189 0.650100 0.846253
O O3 0.076885 0.633048 0.628311
O O4 0.896999 0.662125 0.698499
O O5 0.644554 0.077822 0.072277
O O6 0.487657 0.021561 0.135510
O O7 0.121847 0.095977 0.947534
O O8 0.732900 0.478056 0.366450
O O9 0.720578 0.576210 0.271004
O O10 0.907232 0.597535 0.453616
O O11 0.363438 0.576210 0.271004
O O12 0.563640 0.133048 0.371689
O O13 0.657634 0.750000 0.711261
O O14 0.924824 0.849900 0.846253
O O15 0.054383 0.021561 0.135510
O O16 0.668290 0.095977 0.947534
O O17 0.124162 0.442868 0.812081
#
# Coordination Sequence:
#
# PCOD8074549 Si02
#       8
#     4   4   4   4   4   4   4   4
#     4  10  20  36  57  76 100 134 171 217 263 302
#     4   8  15  29  51  79 105 129 162 203 255 312
#     4  11  22  32  50  74 103 146 173 205 262 306
#     4  11  23  35  47  75 107 134 182 220 245 299
#     4  10  20  36  57  76 100 134 171 217 263 302
#     4   8  15  29  51  79 105 129 162 203 255 312
#     4   9  17  31  50  75 109 136 160 205 255 311
#     4   9  17  31  50  75 109 136 160 205 255 311
#
# _framework density 17.894701000000001
#
# number of rings (size 3 to 8) (size 9 to 14) (size 15 to 20)
#    0.000    2.500    2.500    1.875    0.000    4.000 
#    0.000    2.500    0.000    3.000    0.000    3.500 
#    0.000    0.000    0.000    0.000    0.000    0.000 
#
# Total GULP energy -396586.424324 kJ/mol
# GULP energy per Si atom -12393.325760 kJ/mol
# Density = 1.785397 g / cm^3
# Si number density = 17.894701 Si / 1000 Ang^3
#
#
#
# Elastic Constant Matrix: (Units=GPa)
#
#
# Indices 1 2 3 4 5 6 
#
# 1 88.0940 31.8151 63.8031 0.0000 -0.1256 0.0000
# 2 31.8151 79.5670 55.5893 0.0000 -0.1777 0.0000
# 3 63.8031 55.5893 168.4926 0.0000 -0.4754 0.0000
# 4 0.0000 0.0000 0.0000 24.3017 0.0000 -0.1025
# 5 -0.1256 -0.1777 -0.4754 0.0000 20.5607 0.0000
# 6 0.0000 0.0000 0.0000 -0.1025 0.0000 10.6011
#
#
#
# Elastic Compliance Matrix: (Units=1/GPa)
#
#
# Indices 1 2 3 4 5 6 
#
# 1 0.016118 -0.002834 -0.005169 0.000000 -0.000046 0.000000
# 2 -0.002834 0.016831 -0.004480 0.000000 0.000025 0.000000
# 3 -0.005169 -0.004480 0.009371 0.000000 0.000146 0.000000
# 4 0.000000 0.000000 0.000000 0.041151 0.000000 0.000398
# 5 -0.000046 0.000025 0.000146 0.000000 0.048640 0.000000
# 6 0.000000 0.000000 0.000000 0.000398 0.000000 0.094334
#
#
# Mechanical properties :
#
#
# Convention : Reuss Voigt Hill
#
# Bulk Modulus (GPa) = 57.61957 70.95206 64.28581
# Shear Modulus (GPa) = 19.44055 23.42245 21.43150
#
# Velocity S-wave (km/s) = 3.29961 3.62180 3.46446
# Velocity P-wave (km/s) = 6.84001 7.56477 7.21150
#
# Compressibility (1/GPa) = 0.01735522
#
# Stress axis : x y z
#
# Youngs Moduli (GPa) = 62.04083 59.41430 106.71720
#
# Poissons Ratio (x) = 0.16838 0.55159
# Poissons Ratio (y) = 0.17582 0.47806
# Poissons Ratio (z) = 0.32067 0.26616
#
# Static dielectric constant tensor:
#      x y z
#    x 3.257580 0.000000 -0.001680 
#    y 0.000000 3.109790 0.000000 
#    z -0.001680 0.000000 3.482200 
# 
# 
# High freq. dielectric constant tensor:
#      x y z
#    x 1.699300 0.000000 0.000060 
#    y 0.000000 1.652360 0.000000 
#    z 0.000060 0.000000 1.691090 
# 
# From -- ./inp_files/64003.got.cif
#   From: 2010.06.25/outbox.cif.g09.slc.cpg/sg11_33_cif.got.tgz:64003.got - 2010.06.27 23:14:04.
