data_PCOD8074429
_publ_section_title
;
Structure prediction by ZEFSAII (Michael W. Deem and Ramdas Pophale) SiO2 
 PCOD8074429
Probable space group: P 21/M
;
_chemical_formula_sum "Si O2"
_cell_formula_units_Z 28
_cell_length_a 11.557913
_cell_length_b 13.354578
_cell_length_c 9.586212
_cell_angle_alpha 90.000000
_cell_angle_beta 116.853604
_cell_angle_gamma 90.000000
_cell_volume 1320.082642
_symmetry_space_group_name_H-M "P 21/M"
_symmetry_group_IT_number 11
_symmetry_cell_setting 'monoclinic'
loop_
_space_group_symop_operation_xyz
x,y,z
-x,1/2+y,-z
-x,-y,-z
x,1/2-y,z
loop_
_atom_site_type_symbol
_atom_site_label
_atom_site_fract_x
_atom_site_fract_y
_atom_site_fract_z
Si Si1 0.978799 0.868373 0.410546
Si Si2 0.350140 0.363447 0.103633
Si Si3 0.792911 0.132846 0.660065
Si Si4 0.162860 0.868295 0.750252
Si Si5 0.144394 0.973951 0.035453
Si Si6 0.313617 0.364203 0.766409
Si Si7 0.380570 0.943899 0.669955
O O1 0.971454 0.750000 0.419337
O O2 0.066406 0.897260 0.325426
O O3 0.044448 0.910233 0.588818
O O4 0.833496 0.908721 0.308662
O O5 0.319468 0.250000 0.128587
O O6 0.223950 0.423570 0.081339
O O7 0.475581 0.400470 0.254330
O O8 0.376189 0.373009 0.952695
O O9 0.765565 0.250000 0.628224
O O10 0.790091 0.101954 0.819171
O O11 0.681447 0.074584 0.514892
O O12 0.150790 0.750000 0.765843
O O13 0.299120 0.890479 0.748708
O O14 0.152993 0.921934 0.891514
O O15 0.000000 0.000000 0.000000
O O16 0.319568 0.250000 0.714138
O O17 0.391046 0.436352 0.703478
#
# Coordination Sequence:
#
# PCOD8074429 Si02
#       7
#     4   4   4   4   4   4   4
#     4   8  17  35  61  91 123 165 204 255 319 365
#     4  11  24  44  65  91 129 169 213 265 325 385
#     4  10  22  40  63  92 130 171 213 262 317 386
#     4  10  21  38  64  94 125 159 214 270 310 377
#     4  12  26  40  62  94 126 174 213 257 323 387
#     4  10  20  35  62  96 128 158 205 268 318 371
#     4  11  22  41  69  94 122 167 219 263 329 380
#
# _framework density 21.210795000000001
#
# number of rings (size 3 to 8) (size 9 to 14) (size 15 to 20)
#    0.000    1.714    1.429    3.857    2.000    4.000 
#    0.000    1.429    0.000    0.000    0.000    0.000 
#    0.000    0.000    0.000    0.000    0.000    0.000 
#
# Total GULP energy -347316.835077 kJ/mol
# GULP energy per Si atom -12404.172681 kJ/mol
# Density = 2.116252 g / cm^3
# Si number density = 21.210795 Si / 1000 Ang^3
#
#
#
# Elastic Constant Matrix: (Units=GPa)
#
#
# Indices 1 2 3 4 5 6 
#
# 1 69.1739 23.5986 35.5178 0.0000 9.7406 0.0000
# 2 23.5986 83.6189 27.0887 0.0000 1.7030 0.0000
# 3 35.5178 27.0887 116.1642 0.0000 -4.2587 0.0000
# 4 0.0000 0.0000 0.0000 32.3136 0.0000 2.4981
# 5 9.7406 1.7030 -4.2587 0.0000 31.8911 0.0000
# 6 0.0000 0.0000 0.0000 2.4981 0.0000 27.7547
#
#
#
# Elastic Compliance Matrix: (Units=1/GPa)
#
#
# Indices 1 2 3 4 5 6 
#
# 1 0.019309 -0.003602 -0.005299 0.000000 -0.006413 0.000000
# 2 -0.003602 0.013647 -0.002078 0.000000 0.000094 0.000000
# 3 -0.005299 -0.002078 0.010830 0.000000 0.003176 0.000000
# 4 0.000000 0.000000 0.000000 0.031164 0.000000 -0.002805
# 5 -0.006413 0.000094 0.003176 0.000000 0.033734 0.000000
# 6 0.000000 0.000000 0.000000 -0.002805 0.000000 0.036282
#
#
# Mechanical properties :
#
#
# Convention : Reuss Voigt Hill
#
# Bulk Modulus (GPa) = 45.81241 49.04080 47.42660
# Shear Modulus (GPa) = 28.70285 30.57534 29.63910
#
# Velocity S-wave (km/s) = 3.68260 3.80083 3.74218
# Velocity P-wave (km/s) = 6.30298 6.51403 6.40938
#
# Compressibility (1/GPa) = 0.02182815
#
# Stress axis : x y z
#
# Youngs Moduli (GPa) = 51.78945 73.27790 92.33981
#
# Poissons Ratio (x) = 0.26395 0.48930
# Poissons Ratio (y) = 0.18655 0.19184
# Poissons Ratio (z) = 0.27443 0.15224
#
# Static dielectric constant tensor:
#      x y z
#    x 3.638020 0.000000 0.176430 
#    y 0.000000 4.023970 0.000000 
#    z 0.176430 0.000000 3.958870 
# 
# 
# High freq. dielectric constant tensor:
#      x y z
#    x 1.803370 0.000000 0.016890 
#    y 0.000000 1.852150 0.000000 
#    z 0.016890 0.000000 1.838640 
# 
# From -- ./inp_files/18159.got.cif
#   From: 2010.06.25/outbox.cif.g09.slc.cpg/sg11_10_cif.got.tgz:18159.got - 2010.06.27 23:14:04.
