data_PCOD8074645
_publ_section_title
;
Structure prediction by ZEFSAII (Michael W. Deem and Ramdas Pophale) SiO2 
 PCOD8074645
Probable space group: P 21/M
;
_chemical_formula_sum "Si O2"
_cell_formula_units_Z 32
_cell_length_a 14.598162
_cell_length_b 14.723351
_cell_length_c 18.853511
_cell_angle_alpha 90.000000
_cell_angle_beta 158.754120
_cell_angle_gamma 90.000000
_cell_volume 1468.420843
_symmetry_space_group_name_H-M "P 21/M"
_symmetry_group_IT_number 11
_symmetry_cell_setting 'monoclinic'
loop_
_space_group_symop_operation_xyz
x,y,z
-x,1/2+y,-z
-x,-y,-z
x,1/2-y,z
loop_
_atom_site_type_symbol
_atom_site_label
_atom_site_fract_x
_atom_site_fract_y
_atom_site_fract_z
Si Si1 0.883971 0.853644 0.805854
Si Si2 0.237432 0.461278 0.413541
Si Si3 0.115630 0.851849 0.367484
Si Si4 0.623781 0.466365 0.817943
Si Si5 0.331310 0.347594 0.194720
Si Si6 0.327889 0.353795 0.853913
Si Si7 0.882356 0.145403 0.257971
Si Si8 0.184176 0.075813 0.603094
O O1 0.900410 0.750000 0.791394
O O2 0.722905 0.912670 0.633292
O O3 0.732233 0.861276 0.768888
O O4 0.169821 0.888914 0.021878
O O5 0.164794 0.567503 0.346100
O O6 0.486195 0.451775 0.642477
O O7 0.003893 0.411155 0.282329
O O8 0.058478 0.750000 0.293928
O O9 0.365771 0.844470 0.596213
O O10 0.895375 0.894287 0.258590
O O11 0.765474 0.565374 0.919569
O O12 0.426818 0.468000 0.740147
O O13 0.218901 0.250000 0.086548
O O14 0.334482 0.250000 0.880449
O O15 0.274063 0.362181 0.732113
O O16 0.602246 0.396390 0.069873
O O17 0.866217 0.250000 0.221874
O O18 0.039408 0.139583 0.443454
O O19 0.000000 0.000000 0.500000
#
# Coordination Sequence:
#
# PCOD8074645 Si02
#       8
#     4   4   4   4   4   4   4   4
#     4  11  23  38  61  88 113 148 192 236 287 345
#     4  10  21  37  59  84 115 150 183 233 288 335
#     4   9  19  37  59  83 113 151 192 235 284 337
#     4  10  22  38  59  86 116 150 188 235 285 339
#     4   9  19  39  62  84 114 149 188 237 288 339
#     4  10  20  36  58  80 109 151 191 230 279 332
#     4  10  21  35  53  81 114 147 187 233 280 332
#     4  11  22  35  54  82 114 151 191 230 279 336
#
# _framework density 21.792117999999999
#
# number of rings (size 3 to 8) (size 9 to 14) (size 15 to 20)
#    0.000    2.000    0.000    4.125    0.000    9.000 
#    0.000    1.250    0.000    5.250    0.000    0.000 
#    0.000    0.000    0.000    0.000    0.000    0.000 
#
# Total GULP energy -396599.455010 kJ/mol
# GULP energy per Si atom -12393.732969 kJ/mol
# Density = 2.174252 g / cm^3
# Si number density = 21.792118 Si / 1000 Ang^3
#
#
#
# Elastic Constant Matrix: (Units=GPa)
#
#
# Indices 1 2 3 4 5 6 
#
# 1 41.8156 16.9572 16.1692 0.0000 2.9280 0.0000
# 2 16.9572 115.1797 9.6229 0.0000 0.5830 0.0000
# 3 16.1692 9.6229 62.9680 0.0000 1.5003 0.0000
# 4 0.0000 0.0000 0.0000 24.2833 0.0000 3.0554
# 5 2.9280 0.5830 1.5003 0.0000 21.7142 0.0000
# 6 0.0000 0.0000 0.0000 3.0554 0.0000 29.4932
#
#
#
# Elastic Compliance Matrix: (Units=1/GPa)
#
#
# Indices 1 2 3 4 5 6 
#
# 1 0.028145 -0.003575 -0.006604 0.000000 -0.003243 0.000000
# 2 -0.003575 0.009249 -0.000502 0.000000 0.000268 0.000000
# 3 -0.006604 -0.000502 0.017661 0.000000 -0.000316 0.000000
# 4 0.000000 0.000000 0.000000 0.041724 0.000000 -0.004323
# 5 -0.003243 0.000268 -0.000316 0.000000 0.046505 0.000000
# 6 0.000000 0.000000 0.000000 -0.004323 0.000000 0.034354
#
#
# Mechanical properties :
#
#
# Convention : Reuss Voigt Hill
#
# Bulk Modulus (GPa) = 29.67927 33.94020 31.80974
# Shear Modulus (GPa) = 23.78341 26.91243 25.34792
#
# Velocity S-wave (km/s) = 3.30718 3.51801 3.41423
# Velocity P-wave (km/s) = 5.31339 5.66659 5.49283
#
# Compressibility (1/GPa) = 0.03369355
#
# Stress axis : x y z
#
# Youngs Moduli (GPa) = 35.53033 108.11935 56.62200
#
# Poissons Ratio (x) = 0.38658 0.37390
# Poissons Ratio (y) = 0.12704 0.02841
# Poissons Ratio (z) = 0.23462 0.05425
#
# Static dielectric constant tensor:
#      x y z
#    x 3.841840 0.000000 0.193380 
#    y 0.000000 4.266940 0.000000 
#    z 0.193380 0.000000 3.989710 
# 
# 
# High freq. dielectric constant tensor:
#      x y z
#    x 1.841180 0.000000 0.021390 
#    y 0.000000 1.872960 0.000000 
#    z 0.021390 0.000000 1.846820 
# 
# From -- ./inp_files/65781.got.cif
#   From: 2010.06.25/outbox.cif.g09.slc.cpg/sg11_33_cif.got.tgz:65781.got - 2010.06.27 23:14:04.
