data_PCOD8074713
_publ_section_title
;
Structure prediction by ZEFSAII (Michael W. Deem and Ramdas Pophale) SiO2 
 PCOD8074713
Probable space group: P 21/M
;
_chemical_formula_sum "Si O2"
_cell_formula_units_Z 32
_cell_length_a 27.711749
_cell_length_b 8.597401
_cell_length_c 11.833167
_cell_angle_alpha 90.000000
_cell_angle_beta 146.638320
_cell_angle_gamma 90.000000
_cell_volume 1550.363072
_symmetry_space_group_name_H-M "P 21/M"
_symmetry_group_IT_number 11
_symmetry_cell_setting 'monoclinic'
loop_
_space_group_symop_operation_xyz
x,y,z
-x,1/2+y,-z
-x,-y,-z
x,1/2-y,z
loop_
_atom_site_type_symbol
_atom_site_label
_atom_site_fract_x
_atom_site_fract_y
_atom_site_fract_z
Si Si1 0.579973 0.566604 0.081732
Si Si2 0.614861 0.065540 0.663865
Si Si3 0.454141 0.931319 0.229502
Si Si4 0.892110 0.433637 0.953978
Si Si5 0.194617 0.931239 0.993892
Si Si6 0.773960 0.933722 0.538056
Si Si7 0.927438 0.429614 0.436213
Si Si8 0.925063 0.065226 0.682741
O O1 0.573263 0.750000 0.076697
O O2 0.674847 0.509990 0.314911
O O3 0.500000 0.500000 0.000000
O O4 0.574833 0.519504 0.940236
O O5 0.601698 0.250000 0.623926
O O6 0.603839 0.020455 0.774649
O O7 0.708472 0.000041 0.807232
O O8 0.552454 0.975686 0.455879
O O9 0.447158 0.750000 0.189046
O O10 0.907528 0.250000 0.976588
O O11 0.871860 0.497581 0.041153
O O12 0.806842 0.480059 0.714916
O O13 0.980480 0.516454 0.080152
O O14 0.200455 0.750000 0.030661
O O15 0.163654 0.963243 0.805746
O O16 0.776317 0.750000 0.560728
O O17 0.842267 0.981136 0.574904
O O18 0.948140 0.250000 0.489884
O O19 0.924044 0.502316 0.553436
O O20 0.000000 0.500000 0.500000
O O21 0.912666 0.250000 0.669655
#
# Coordination Sequence:
#
# PCOD8074713 Si02
#       8
#     4   4   4   4   4   4   4   4
#     4  11  26  46  67  91 122 159 203 256 313 373
#     4   9  19  37  62  90 123 162 204 250 298 360
#     4  10  21  38  63  92 125 160 199 249 307 365
#     4  11  22  39  64  90 124 165 209 256 305 360
#     4   9  19  35  58  88 119 158 201 245 298 355
#     4  11  26  45  64  89 122 158 205 258 308 364
#     4  10  20  36  58  86 121 157 197 241 292 353
#     4  11  23  39  64  93 124 163 206 253 305 363
#
# _framework density 20.640328
#
# number of rings (size 3 to 8) (size 9 to 14) (size 15 to 20)
#    0.000    1.750    1.250    2.250    3.500    3.000 
#    0.000    1.250    0.000    0.000    0.000    0.000 
#    0.000    0.000    0.000    0.000    0.000    0.000 
#
# Total GULP energy -396648.749479 kJ/mol
# GULP energy per Si atom -12395.273421 kJ/mol
# Density = 2.059335 g / cm^3
# Si number density = 20.640328 Si / 1000 Ang^3
#
#
#
# Elastic Constant Matrix: (Units=GPa)
#
#
# Indices 1 2 3 4 5 6 
#
# 1 83.9543 17.9425 51.6847 0.0000 9.5608 0.0000
# 2 17.9425 41.2377 25.0484 0.0000 1.3346 0.0000
# 3 51.6847 25.0484 109.1821 0.0000 9.3005 0.0000
# 4 0.0000 0.0000 0.0000 31.1818 0.0000 -0.1664
# 5 9.5608 1.3346 9.3005 0.0000 45.4929 0.0000
# 6 0.0000 0.0000 0.0000 -0.1664 0.0000 29.5332
#
#
#
# Elastic Compliance Matrix: (Units=1/GPa)
#
#
# Indices 1 2 3 4 5 6 
#
# 1 0.017296 -0.003012 -0.007322 0.000000 -0.002050 0.000000
# 2 -0.003012 0.028712 -0.005235 0.000000 0.000861 0.000000
# 3 -0.007322 -0.005235 0.013924 0.000000 -0.001154 0.000000
# 4 0.000000 0.000000 0.000000 0.032071 0.000000 0.000181
# 5 -0.002050 0.000861 -0.001154 0.000000 0.022623 0.000000
# 6 0.000000 0.000000 0.000000 0.000181 0.000000 0.033861
#
#
# Mechanical properties :
#
#
# Convention : Reuss Voigt Hill
#
# Bulk Modulus (GPa) = 34.72779 47.08059 40.90419
# Shear Modulus (GPa) = 26.42394 30.55483 28.48939
#
# Velocity S-wave (km/s) = 3.58188 3.85170 3.71924
# Velocity P-wave (km/s) = 5.82823 6.52996 6.18905
#
# Compressibility (1/GPa) = 0.02879538
#
# Stress axis : x y z
#
# Youngs Moduli (GPa) = 57.81697 34.82894 71.81640
#
# Poissons Ratio (x) = 0.10489 0.52584
# Poissons Ratio (y) = 0.17412 0.37594
# Poissons Ratio (z) = 0.42334 0.18232
#
# Static dielectric constant tensor:
#      x y z
#    x 3.985650 0.000000 -0.036770 
#    y 0.000000 3.578590 0.000000 
#    z -0.036770 0.000000 4.132450 
# 
# 
# High freq. dielectric constant tensor:
#      x y z
#    x 1.817720 0.000000 -0.002880 
#    y 0.000000 1.794540 0.000000 
#    z -0.002880 0.000000 1.819920 
# 
# From -- ./inp_files/45339.got.cif
#   From: 2010.06.25/outbox.cif.g09.slc.cpg/sg11_23_cif.got.tgz:45339.got - 2010.06.27 23:14:04.
