data_PCOD8074945
_publ_section_title
;
Structure prediction by ZEFSAII (Michael W. Deem and Ramdas Pophale) SiO2 
 PCOD8074945
Probable space group: P 21/M
;
_chemical_formula_sum "Si O2"
_cell_formula_units_Z 28
_cell_length_a 12.709043
_cell_length_b 13.672695
_cell_length_c 8.914913
_cell_angle_alpha 90.000000
_cell_angle_beta 120.313387
_cell_angle_gamma 90.000000
_cell_volume 1337.317659
_symmetry_space_group_name_H-M "P 21/M"
_symmetry_group_IT_number 11
_symmetry_cell_setting 'monoclinic'
loop_
_space_group_symop_operation_xyz
x,y,z
-x,1/2+y,-z
-x,-y,-z
x,1/2-y,z
loop_
_atom_site_type_symbol
_atom_site_label
_atom_site_fract_x
_atom_site_fract_y
_atom_site_fract_z
Si Si1 0.814243 0.977760 0.246808
Si Si2 0.027376 0.921031 0.198073
Si Si3 0.777710 0.141020 0.446625
Si Si4 0.152681 0.102830 0.165486
Si Si5 0.636862 0.867253 0.908690
Si Si6 0.430928 0.980744 0.604454
Si Si7 0.247108 0.143513 0.541170
O O1 0.847142 0.911664 0.415795
O O2 0.924332 0.986075 0.209079
O O3 0.782585 0.084793 0.290094
O O4 0.697724 0.921073 0.094008
O O5 0.093940 0.855969 0.370977
O O6 0.122579 0.989504 0.178733
O O7 0.954973 0.855343 0.021264
O O8 0.737498 0.250000 0.377631
O O9 0.683542 0.092338 0.496588
O O10 0.281752 0.115001 0.178844
O O11 0.168880 0.158369 0.333140
O O12 0.616342 0.750000 0.920777
O O13 0.512957 0.927011 0.788744
O O14 0.500000 0.000000 0.500000
O O15 0.374316 0.083974 0.618055
O O16 0.282378 0.250000 0.628690
#
# Coordination Sequence:
#
# PCOD8074945 Si02
#       7
#     4   4   4   4   4   4   4
#     4  10  23  41  61  89 124 164 203 253 297 359
#     4  10  20  40  61  86 126 165 198 253 311 355
#     4  11  23  38  60  91 124 163 204 247 309 370
#     4  10  20  36  62  90 121 155 208 254 296 352
#     4  11  22  40  66  92 120 163 209 246 302 366
#     4  11  22  40  62  88 120 156 196 257 306 356
#     4  11  22  37  59  93 123 156 208 253 300 357
#
# _framework density 20.937432999999999
#
# number of rings (size 3 to 8) (size 9 to 14) (size 15 to 20)
#    0.000    1.429    4.286    1.714    0.000    6.286 
#    0.000    2.857    0.000    8.571    0.000    0.000 
#    0.000    0.000    0.000    0.000    0.000    0.000 
#
# Total GULP energy -346873.955698 kJ/mol
# GULP energy per Si atom -12388.355561 kJ/mol
# Density = 2.088978 g / cm^3
# Si number density = 20.937433 Si / 1000 Ang^3
#
#
#
# Elastic Constant Matrix: (Units=GPa)
#
#
# Indices 1 2 3 4 5 6 
#
# 1 62.2188 33.1110 24.4263 0.0000 -2.4895 0.0000
# 2 33.1110 138.3778 21.2550 0.0000 0.2132 0.0000
# 3 24.4263 21.2550 104.1051 0.0000 0.8987 0.0000
# 4 0.0000 0.0000 0.0000 16.8488 0.0000 1.3895
# 5 -2.4895 0.2132 0.8987 0.0000 35.2203 0.0000
# 6 0.0000 0.0000 0.0000 1.3895 0.0000 7.7896
#
#
#
# Elastic Compliance Matrix: (Units=1/GPa)
#
#
# Indices 1 2 3 4 5 6 
#
# 1 0.019850 -0.004165 -0.003820 0.000000 0.001526 0.000000
# 2 -0.004165 0.008335 -0.000722 0.000000 -0.000326 0.000000
# 3 -0.003820 -0.000722 0.010654 0.000000 -0.000538 0.000000
# 4 0.000000 0.000000 0.000000 0.060238 0.000000 -0.010745
# 5 0.001526 -0.000326 -0.000538 0.000000 0.028516 0.000000
# 6 0.000000 0.000000 0.000000 -0.010745 0.000000 0.130293
#
#
# Mechanical properties :
#
#
# Convention : Reuss Voigt Hill
#
# Bulk Modulus (GPa) = 46.67560 51.36514 49.02037
# Shear Modulus (GPa) = 17.70288 27.03237 22.36763
#
# Velocity S-wave (km/s) = 2.91093 3.59709 3.27204
# Velocity P-wave (km/s) = 5.79994 6.46823 6.14318
#
# Compressibility (1/GPa) = 0.02142447
#
# Stress axis : x y z
#
# Youngs Moduli (GPa) = 50.37861 119.98214 93.86191
#
# Poissons Ratio (x) = 0.49975 0.35856
# Poissons Ratio (y) = 0.20984 0.06773
# Poissons Ratio (z) = 0.19245 0.08657
#
# Static dielectric constant tensor:
#      x y z
#    x 3.764020 0.000000 0.011720 
#    y 0.000000 3.653180 0.000000 
#    z 0.011720 0.000000 4.168720 
# 
# 
# High freq. dielectric constant tensor:
#      x y z
#    x 1.813630 0.000000 -0.002680 
#    y 0.000000 1.805180 0.000000 
#    z -0.002680 0.000000 1.830640 
# 
# From -- ./inp_files/18148.got.cif
#   From: 2010.06.25/outbox.cif.g09.slc.cpg/sg11_10_cif.got.tgz:18148.got - 2010.06.27 23:14:04.
