data_PCOD8074186
_publ_section_title
;
Structure prediction by ZEFSAII (Michael W. Deem and Ramdas Pophale) SiO2 
 PCOD8074186
Probable space group: P 21/M
;
_chemical_formula_sum "Si O2"
_cell_formula_units_Z 32
_cell_length_a 25.817478
_cell_length_b 9.578886
_cell_length_c 20.075418
_cell_angle_alpha 90.000000
_cell_angle_beta 20.944868
_cell_angle_gamma 90.000000
_cell_volume 1774.730289
_symmetry_space_group_name_H-M "P 21/M"
_symmetry_group_IT_number 11
_symmetry_cell_setting 'monoclinic'
loop_
_space_group_symop_operation_xyz
x,y,z
-x,1/2+y,-z
-x,-y,-z
x,1/2-y,z
loop_
_atom_site_type_symbol
_atom_site_label
_atom_site_fract_x
_atom_site_fract_y
_atom_site_fract_z
Si Si1 0.855966 0.087894 0.673403
Si Si2 0.414807 0.911069 0.744095
Si Si3 0.184635 0.586128 0.910121
Si Si4 0.349123 0.589611 0.346206
Si Si5 0.103520 0.911816 0.742615
Si Si6 0.695545 0.411392 0.376694
Si Si7 0.360095 0.590138 0.181723
Si Si8 0.379251 0.589960 0.937802
O O1 0.897468 0.250000 0.621336
O O2 0.766097 0.042720 0.716301
O O3 0.765908 0.050721 0.848023
O O4 0.000000 0.000000 0.500000
O O5 0.456189 0.750000 0.682796
O O6 0.294988 0.959877 0.835249
O O7 0.349213 0.936714 0.896071
O O8 0.559122 0.999543 0.562811
O O9 0.149692 0.750000 0.954235
O O10 0.255490 0.541983 0.755217
O O11 0.037544 0.503810 0.097841
O O12 0.385923 0.750000 0.318400
O O13 0.216964 0.538391 0.550453
O O14 0.302810 0.568401 0.325391
O O15 0.490769 0.502349 0.191673
O O16 0.061885 0.750000 0.783651
O O17 0.171098 0.940067 0.734005
O O18 0.648868 0.250000 0.434779
O O19 0.403403 0.750000 0.116015
O O20 0.500000 0.500000 0.000000
O O21 0.422343 0.750000 0.899933
#
# Coordination Sequence:
#
# PCOD8074186 Si02
#       8
#     4   4   4   4   4   4   4   4
#     4  10  22  38  55  81 114 145 180 220 267 321
#     4  10  21  36  56  82 110 142 183 226 271 326
#     4  10  22  37  53  79 113 145 181 226 273 324
#     4  10  20  35  57  83 110 140 181 228 270 319
#     4  10  21  36  54  80 110 142 183 227 272 323
#     4  10  20  36  57  80 108 143 184 227 271 324
#     4  10  20  35  57  83 110 141 179 223 267 316
#     4  10  20  36  57  80 109 143 180 224 270 321
#
# _framework density 18.030909000000001
#
# number of rings (size 3 to 8) (size 9 to 14) (size 15 to 20)
#    0.000    2.000    2.500    0.750    0.000    4.000 
#    0.000    0.000    0.000    0.000    0.000    0.000 
#    0.000    0.000    0.000    0.000    0.000    0.000 
#
# Total GULP energy -396926.204119 kJ/mol
# GULP energy per Si atom -12403.943879 kJ/mol
# Density = 1.798987 g / cm^3
# Si number density = 18.030909 Si / 1000 Ang^3
#
#
#
# Elastic Constant Matrix: (Units=GPa)
#
#
# Indices 1 2 3 4 5 6 
#
# 1 92.4064 23.3156 38.5523 0.0000 8.7032 0.0000
# 2 23.3156 52.8364 49.1624 0.0000 -5.3774 0.0000
# 3 38.5523 49.1624 109.1342 0.0000 2.7323 0.0000
# 4 0.0000 0.0000 0.0000 39.4753 0.0000 -4.5744
# 5 8.7032 -5.3774 2.7323 0.0000 31.8759 0.0000
# 6 0.0000 0.0000 0.0000 -4.5744 0.0000 23.6210
#
#
#
# Elastic Compliance Matrix: (Units=1/GPa)
#
#
# Indices 1 2 3 4 5 6 
#
# 1 0.013341 -0.003439 -0.003065 0.000000 -0.003960 0.000000
# 2 -0.003439 0.034996 -0.014753 0.000000 0.008107 0.000000
# 3 -0.003065 -0.014753 0.016969 0.000000 -0.003107 0.000000
# 4 0.000000 0.000000 0.000000 0.025914 0.000000 0.005018
# 5 -0.003960 0.008107 -0.003107 0.000000 0.034087 0.000000
# 6 0.000000 0.000000 0.000000 0.005018 0.000000 0.043307
#
#
# Mechanical properties :
#
#
# Convention : Reuss Voigt Hill
#
# Bulk Modulus (GPa) = 43.87189 52.93753 48.40471
# Shear Modulus (GPa) = 22.85974 28.55087 25.70531
#
# Velocity S-wave (km/s) = 3.56449 3.98356 3.77984
# Velocity P-wave (km/s) = 6.42846 7.11206 6.77888
#
# Compressibility (1/GPa) = 0.02279364
#
# Stress axis : x y z
#
# Youngs Moduli (GPa) = 74.95747 28.57449 58.92955
#
# Poissons Ratio (x) = 0.09826 0.18060
# Poissons Ratio (y) = 0.25775 0.86940
# Poissons Ratio (z) = 0.22972 0.42157
#
# Static dielectric constant tensor:
#      x y z
#    x 3.676060 0.000000 0.261880 
#    y 0.000000 3.311150 0.000000 
#    z 0.261880 0.000000 3.268520 
# 
# 
# High freq. dielectric constant tensor:
#      x y z
#    x 1.715480 0.000000 0.011540 
#    y 0.000000 1.696060 0.000000 
#    z 0.011540 0.000000 1.695390 
# 
# From -- ./inp_files/67026.got.cif
#   From: 2010.06.25/outbox.cif.g09.slc.cpg/sg11_34_cif.got.tgz:67026.got - 2010.06.27 23:14:04.
