data_PCOD8074216
_publ_section_title
;
Structure prediction by ZEFSAII (Michael W. Deem and Ramdas Pophale) SiO2 
 PCOD8074216
Probable space group: P 21/M
;
_chemical_formula_sum "Si O2"
_cell_formula_units_Z 28
_cell_length_a 16.141676
_cell_length_b 8.787325
_cell_length_c 20.392543
_cell_angle_alpha 90.000000
_cell_angle_beta 150.047773
_cell_angle_gamma 90.000000
_cell_volume 1444.171943
_symmetry_space_group_name_H-M "P 21/M"
_symmetry_group_IT_number 11
_symmetry_cell_setting 'monoclinic'
loop_
_space_group_symop_operation_xyz
x,y,z
-x,1/2+y,-z
-x,-y,-z
x,1/2-y,z
loop_
_atom_site_type_symbol
_atom_site_label
_atom_site_fract_x
_atom_site_fract_y
_atom_site_fract_z
Si Si1 0.369138 0.569754 0.360097
Si Si2 0.129503 0.930820 0.408024
Si Si3 0.910576 0.570011 0.376866
Si Si4 0.958231 0.070072 0.794166
Si Si5 0.538265 0.570083 0.096286
Si Si6 0.328490 0.070385 0.066899
Si Si7 0.496617 0.070270 0.317298
O O1 0.500000 0.500000 0.500000
O O2 0.387170 0.750000 0.375660
O O3 0.184782 0.514999 0.254315
O O4 0.395067 0.511913 0.304588
O O5 0.125115 0.750000 0.403297
O O6 0.076104 0.999949 0.301400
O O7 0.314223 0.986823 0.551953
O O8 0.001987 0.993086 0.374695
O O9 0.926233 0.750000 0.391884
O O10 0.720261 0.516546 0.244362
O O11 0.000000 0.500000 0.500000
O O12 0.952908 0.250000 0.784462
O O13 0.137563 0.016993 0.942920
O O14 0.528963 0.750000 0.083581
O O15 0.405579 0.512950 0.057590
O O16 0.500000 0.500000 0.000000
O O17 0.343588 0.250000 0.065397
O O18 0.421077 0.019264 0.196229
O O19 0.482155 0.250000 0.318389
#
# Coordination Sequence:
#
# PCOD8074216 Si02
#       7
#     4   4   4   4   4   4   4
#     4  11  21  36  59  84 113 147 187 235 287 340
#     4   9  16  31  54  76 103 143 186 223 270 332
#     4  10  21  36  57  83 112 149 191 238 286 341
#     4   9  18  34  57  81 108 145 188 231 279 340
#     4  11  23  39  60  86 120 157 197 242 291 346
#     4  10  21  38  60  84 113 152 195 234 284 344
#     4  10  20  35  57  84 114 148 187 232 283 342
#
# _framework density 19.388272000000001
#
# number of rings (size 3 to 8) (size 9 to 14) (size 15 to 20)
#    0.000    2.000    1.429    2.571    0.000    5.714 
#    0.000    2.143    0.000    0.000    0.000    0.000 
#    0.000    0.000    0.000    0.000    0.000    0.000 
#
# Total GULP energy -347252.073697 kJ/mol
# GULP energy per Si atom -12401.859775 kJ/mol
# Density = 1.934414 g / cm^3
# Si number density = 19.388272 Si / 1000 Ang^3
#
#
#
# Elastic Constant Matrix: (Units=GPa)
#
#
# Indices 1 2 3 4 5 6 
#
# 1 129.7041 31.0383 47.2418 0.0000 8.9193 0.0000
# 2 31.0383 38.4925 28.4868 0.0000 -0.1904 0.0000
# 3 47.2418 28.4868 139.4971 0.0000 4.6631 0.0000
# 4 0.0000 0.0000 0.0000 18.7172 0.0000 -1.3704
# 5 8.9193 -0.1904 4.6631 0.0000 43.0721 0.0000
# 6 0.0000 0.0000 0.0000 -1.3704 0.0000 34.6863
#
#
#
# Elastic Compliance Matrix: (Units=1/GPa)
#
#
# Indices 1 2 3 4 5 6 
#
# 1 0.010186 -0.006735 -0.002010 0.000000 -0.001921 0.000000
# 2 -0.006735 0.035087 -0.004954 0.000000 0.002086 0.000000
# 3 -0.002010 -0.004954 0.008880 0.000000 -0.000567 0.000000
# 4 0.000000 0.000000 0.000000 0.053582 0.000000 0.002117
# 5 -0.001921 0.002086 -0.000567 0.000000 0.023685 0.000000
# 6 0.000000 0.000000 0.000000 0.002117 0.000000 0.028913
#
#
# Mechanical properties :
#
#
# Convention : Reuss Voigt Hill
#
# Bulk Modulus (GPa) = 37.37737 57.91417 47.64577
# Shear Modulus (GPa) = 25.42602 32.69025 29.05814
#
# Velocity S-wave (km/s) = 3.62527 4.11065 3.87557
# Velocity P-wave (km/s) = 6.06990 7.24331 6.68241
#
# Compressibility (1/GPa) = 0.02675416
#
# Stress axis : x y z
#
# Youngs Moduli (GPa) = 98.17583 28.50094 112.61471
#
# Poissons Ratio (x) = 0.19196 0.22634
# Poissons Ratio (y) = 0.66125 0.55787
# Poissons Ratio (z) = 0.19732 0.14119
#
# Static dielectric constant tensor:
#      x y z
#    x 3.263310 0.000000 -0.103510 
#    y 0.000000 3.260410 0.000000 
#    z -0.103510 0.000000 3.717760 
# 
# 
# High freq. dielectric constant tensor:
#      x y z
#    x 1.770730 0.000000 0.003710 
#    y 0.000000 1.721590 0.000000 
#    z 0.003710 0.000000 1.769420 
# 
# From -- ./inp_files/65428.got.cif
#   From: 2010.06.25/outbox.cif.g09.slc.cpg/sg11_33_cif.got.tgz:65428.got - 2010.06.27 23:14:04.
