data_PCOD8074343
_publ_section_title
;
Structure prediction by ZEFSAII (Michael W. Deem and Ramdas Pophale) SiO2 
 PCOD8074343
Probable space group: P 21/M
;
_chemical_formula_sum "Si O2"
_cell_formula_units_Z 32
_cell_length_a 20.796148
_cell_length_b 13.391492
_cell_length_c 13.338661
_cell_angle_alpha 90.000000
_cell_angle_beta 154.999917
_cell_angle_gamma 90.000000
_cell_volume 1569.906218
_symmetry_space_group_name_H-M "P 21/M"
_symmetry_group_IT_number 11
_symmetry_cell_setting 'monoclinic'
loop_
_space_group_symop_operation_xyz
x,y,z
-x,1/2+y,-z
-x,-y,-z
x,1/2-y,z
loop_
_atom_site_type_symbol
_atom_site_label
_atom_site_fract_x
_atom_site_fract_y
_atom_site_fract_z
Si Si1 0.144598 0.504098 0.000932
Si Si2 0.400239 0.359678 0.109475
Si Si3 0.770648 0.136153 0.199686
Si Si4 0.857526 0.867220 0.621045
Si Si5 0.067275 0.358275 0.721698
Si Si6 0.270624 0.135412 0.342639
Si Si7 0.591882 0.450499 0.767549
Si Si8 0.350430 0.034159 0.839600
O O1 0.164725 0.434052 0.125490
O O2 0.315574 0.539178 0.206813
O O3 0.057295 0.442811 0.791551
O O4 0.032273 0.593892 0.873379
O O5 0.475886 0.250000 0.233223
O O6 0.226876 0.358911 0.894768
O O7 0.403309 0.386400 0.997387
O O8 0.477291 0.443611 0.289543
O O9 0.712048 0.250000 0.128114
O O10 0.952378 0.126670 0.466194
O O11 0.709531 0.070060 0.203255
O O12 0.720966 0.092120 0.023531
O O13 0.866753 0.750000 0.615104
O O14 0.763310 0.891617 0.589474
O O15 0.769666 0.917449 0.405352
O O16 0.035926 0.250000 0.728560
O O17 0.227589 0.250000 0.260380
O O18 0.447984 0.122826 0.561532
O O19 0.500000 0.000000 0.000000
#
# Coordination Sequence:
#
# PCOD8074343 Si02
#       8
#     4   4   4   4   4   4   4   4
#     4  11  22  40  64  89 119 154 207 257 300 350
#     4   9  19  34  56  85 119 154 190 235 300 361
#     4  10  20  35  58  89 122 151 188 240 296 360
#     4  11  24  40  61  89 123 161 205 251 302 353
#     4   9  18  34  59  90 116 148 190 241 302 358
#     4  11  24  44  63  83 118 165 206 251 306 361
#     4  10  22  37  63  92 122 154 200 253 307 359
#     4  11  22  36  56  84 123 164 198 236 288 365
#
# _framework density 20.383382000000001
#
# number of rings (size 3 to 8) (size 9 to 14) (size 15 to 20)
#    0.000    1.750    1.250    3.375    1.750    5.000 
#    0.000    0.625    0.000    2.250    0.000    0.000 
#    0.000    0.000    0.000    0.000    0.000    0.000 
#
# Total GULP energy -396640.988855 kJ/mol
# GULP energy per Si atom -12395.030902 kJ/mol
# Density = 2.033699 g / cm^3
# Si number density = 20.383382 Si / 1000 Ang^3
#
#
#
# Elastic Constant Matrix: (Units=GPa)
#
#
# Indices 1 2 3 4 5 6 
#
# 1 80.4922 31.2257 1.0261 0.0000 -7.6548 0.0000
# 2 31.2257 111.8215 6.1998 0.0000 -5.9736 0.0000
# 3 1.0261 6.1998 31.2402 0.0000 -7.1705 0.0000
# 4 0.0000 0.0000 0.0000 20.7766 0.0000 2.8025
# 5 -7.6548 -5.9736 -7.1705 0.0000 17.4980 0.0000
# 6 0.0000 0.0000 0.0000 2.8025 0.0000 26.7120
#
#
#
# Elastic Compliance Matrix: (Units=1/GPa)
#
#
# Indices 1 2 3 4 5 6 
#
# 1 0.014420 -0.003812 0.001581 0.000000 0.005655 0.000000
# 2 -0.003812 0.010158 -0.001631 0.000000 0.001132 0.000000
# 3 0.001581 -0.001631 0.035668 0.000000 0.014751 0.000000
# 4 0.000000 0.000000 0.000000 0.048822 0.000000 -0.005122
# 5 0.005655 0.001132 0.014751 0.000000 0.066054 0.000000
# 6 0.000000 0.000000 0.000000 -0.005122 0.000000 0.037974
#
#
# Mechanical properties :
#
#
# Convention : Reuss Voigt Hill
#
# Bulk Modulus (GPa) = 19.03998 33.38413 26.21206
# Shear Modulus (GPa) = 20.97950 25.33748 23.15849
#
# Velocity S-wave (km/s) = 3.21167 3.52951 3.37433
# Velocity P-wave (km/s) = 4.80773 5.74662 5.29801
#
# Compressibility (1/GPa) = 0.05252105
#
# Stress axis : x y z
#
# Youngs Moduli (GPa) = 69.34770 98.44169 28.03666
#
# Poissons Ratio (x) = 0.37529 -0.04432
# Poissons Ratio (y) = 0.26438 0.04573
# Poissons Ratio (z) = -0.10963 0.16056
#
# Static dielectric constant tensor:
#      x y z
#    x 3.622840 0.000000 -0.027450 
#    y 0.000000 4.596780 0.000000 
#    z -0.027450 0.000000 3.578180 
# 
# 
# High freq. dielectric constant tensor:
#      x y z
#    x 1.791960 0.000000 -0.002470 
#    y 0.000000 1.811310 0.000000 
#    z -0.002470 0.000000 1.787130 
# 
# From -- ./inp_files/41727.got.cif
#   From: 2010.06.25/outbox.cif.g09.slc.cpg/sg11_21_cif.got.tgz:41727.got - 2010.06.27 23:14:04.
