data_PCOD8074596
_publ_section_title
;
Structure prediction by ZEFSAII (Michael W. Deem and Ramdas Pophale) SiO2 
 PCOD8074596
Probable space group: P 21/M
;
_chemical_formula_sum "Si O2"
_cell_formula_units_Z 28
_cell_length_a 13.556709
_cell_length_b 9.035476
_cell_length_c 11.772228
_cell_angle_alpha 90.000000
_cell_angle_beta 75.713449
_cell_angle_gamma 90.000000
_cell_volume 1397.400115
_symmetry_space_group_name_H-M "P 21/M"
_symmetry_group_IT_number 11
_symmetry_cell_setting 'monoclinic'
loop_
_space_group_symop_operation_xyz
x,y,z
-x,1/2+y,-z
-x,-y,-z
x,1/2-y,z
loop_
_atom_site_type_symbol
_atom_site_label
_atom_site_fract_x
_atom_site_fract_y
_atom_site_fract_z
Si Si1 0.545699 0.580030 0.095265
Si Si2 0.203437 0.421002 0.711557
Si Si3 0.606054 0.578510 0.492070
Si Si4 0.174912 0.925095 0.184466
Si Si5 0.244293 0.925688 0.922662
Si Si6 0.648653 0.418741 0.702737
Si Si7 0.013843 0.075520 0.616705
O O1 0.570111 0.750000 0.057520
O O2 0.645068 0.497925 0.110241
O O3 0.466027 0.571080 0.220309
O O4 0.500000 0.500000 0.000000
O O5 0.187057 0.250000 0.748957
O O6 0.317322 0.449096 0.633957
O O7 0.183790 0.518494 0.829260
O O8 0.122583 0.468527 0.638462
O O9 0.500000 0.500000 0.500000
O O10 0.583266 0.750000 0.515582
O O11 0.660984 0.517497 0.588171
O O12 0.175323 0.750000 0.183921
O O13 0.273549 0.982321 0.225307
O O14 0.072525 0.984959 0.272345
O O15 0.183087 0.980273 0.051969
O O16 0.256546 0.750000 0.916344
O O17 0.676546 0.250000 0.663336
O O18 0.003553 0.250000 0.601445
O O19 0.000000 0.000000 0.500000
#
# Coordination Sequence:
#
# PCOD8074596 Si02
#       7
#     4   4   4   4   4   4   4
#     4  11  21  35  56  84 120 158 193 236 287 341
#     4  10  23  41  58  84 120 154 188 242 300 343
#     4  11  23  38  56  81 114 149 191 236 285 344
#     4   9  19  37  59  85 115 150 188 236 291 343
#     4  11  22  38  59  86 118 155 200 239 284 351
#     4  10  20  36  57  82 115 149 188 236 286 338
#     4  10  21  40  65  87 115 150 191 241 297 350
#
# _framework density 20.037209000000001
#
# number of rings (size 3 to 8) (size 9 to 14) (size 15 to 20)
#    0.000    1.714    1.429    3.000    0.000    6.857 
#    0.000    1.429    0.000    0.000    0.000    0.000 
#    0.000    0.000    0.000    0.000    0.000    0.000 
#
# Total GULP energy -347282.081438 kJ/mol
# GULP energy per Si atom -12402.931480 kJ/mol
# Density = 1.999160 g / cm^3
# Si number density = 20.037209 Si / 1000 Ang^3
#
#
#
# Elastic Constant Matrix: (Units=GPa)
#
#
# Indices 1 2 3 4 5 6 
#
# 1 117.4806 43.2479 56.8112 0.0000 1.8437 0.0000
# 2 43.2479 88.7285 60.5445 0.0000 6.8574 0.0000
# 3 56.8112 60.5445 137.0885 0.0000 14.0159 0.0000
# 4 0.0000 0.0000 0.0000 34.9870 0.0000 8.7219
# 5 1.8437 6.8574 14.0159 0.0000 36.4892 0.0000
# 6 0.0000 0.0000 0.0000 8.7219 0.0000 29.2827
#
#
#
# Elastic Compliance Matrix: (Units=1/GPa)
#
#
# Indices 1 2 3 4 5 6 
#
# 1 0.011348 -0.003338 -0.003366 0.000000 0.001347 0.000000
# 2 -0.003338 0.017117 -0.006104 0.000000 -0.000703 0.000000
# 3 -0.003366 -0.006104 0.011711 0.000000 -0.003181 0.000000
# 4 0.000000 0.000000 0.000000 0.030874 0.000000 -0.009196
# 5 0.001347 -0.000703 -0.003181 0.000000 0.028691 0.000000
# 6 0.000000 0.000000 0.000000 -0.009196 0.000000 0.036889
#
#
# Mechanical properties :
#
#
# Convention : Reuss Voigt Hill
#
# Bulk Modulus (GPa) = 68.69013 73.83386 71.26199
# Shear Modulus (GPa) = 29.92220 32.33139 31.12680
#
# Velocity S-wave (km/s) = 3.86856 4.02128 3.94566
# Velocity P-wave (km/s) = 7.36953 7.64783 7.50997
#
# Compressibility (1/GPa) = 0.01455813
#
# Stress axis : x y z
#
# Youngs Moduli (GPa) = 88.12499 58.42061 85.39262
#
# Poissons Ratio (x) = 0.19503 0.28742
# Poissons Ratio (y) = 0.29419 0.52127
# Poissons Ratio (z) = 0.29662 0.35662
#
# Static dielectric constant tensor:
#      x y z
#    x 3.256740 0.000000 -0.287520 
#    y 0.000000 3.580070 0.000000 
#    z -0.287520 0.000000 3.699240 
# 
# 
# High freq. dielectric constant tensor:
#      x y z
#    x 1.786130 0.000000 0.003320 
#    y 0.000000 1.767170 0.000000 
#    z 0.003320 0.000000 1.793260 
# 
# From -- ./inp_files/37477.got.cif
#   From: 2010.06.25/outbox.cif.g09.slc.cpg/sg11_19_cif.got.tgz:37477.got - 2010.06.27 23:14:04.
