data_PCOD8074122
_publ_section_title
;
Structure prediction by ZEFSAII (Michael W. Deem and Ramdas Pophale) SiO2 
 PCOD8074122
Probable space group: P 21/M
;
_chemical_formula_sum "Si O2"
_cell_formula_units_Z 28
_cell_length_a 29.382467
_cell_length_b 8.773107
_cell_length_c 9.301183
_cell_angle_alpha 90.000000
_cell_angle_beta 142.347464
_cell_angle_gamma 90.000000
_cell_volume 1464.635815
_symmetry_space_group_name_H-M "P 21/M"
_symmetry_group_IT_number 11
_symmetry_cell_setting 'monoclinic'
loop_
_space_group_symop_operation_xyz
x,y,z
-x,1/2+y,-z
-x,-y,-z
x,1/2-y,z
loop_
_atom_site_type_symbol
_atom_site_label
_atom_site_fract_x
_atom_site_fract_y
_atom_site_fract_z
Si Si1 0.496375 0.429847 0.647984
Si Si2 0.228219 0.927230 0.663807
Si Si3 0.934254 0.929725 0.425614
Si Si4 0.363009 0.931343 0.816859
Si Si5 0.061606 0.928405 0.254218
Si Si6 0.365513 0.927956 0.497623
Si Si7 0.782786 0.072178 0.042488
O O1 0.500000 0.500000 0.500000
O O2 0.499161 0.250000 0.638763
O O3 0.421346 0.478083 0.539026
O O4 0.565996 0.489386 0.915937
O O5 0.246609 0.750000 0.716773
O O6 0.288739 0.001140 0.706858
O O7 0.144425 0.956745 0.396083
O O8 0.238182 0.991871 0.850943
O O9 0.939236 0.750000 0.431588
O O10 0.944077 0.986641 0.610803
O O11 0.855095 0.984606 0.163761
O O12 0.000000 0.000000 0.500000
O O13 0.359146 0.750000 0.801375
O O14 0.369178 0.992045 0.669218
O O15 0.046498 0.750000 0.238036
O O16 0.000000 0.000000 0.000000
O O17 0.386369 0.750000 0.540431
O O18 0.282945 0.958440 0.233074
O O19 0.803298 0.250000 0.105789
#
# Coordination Sequence:
#
# PCOD8074122 Si02
#       7
#     4   4   4   4   4   4   4
#     4  11  22  36  56  80 109 144 185 229 273 325
#     4   8  15  30  51  74 103 140 182 222 264 320
#     4  11  22  37  57  81 112 148 187 234 284 338
#     4   9  18  33  54  81 109 140 179 224 271 323
#     4  10  20  35  56  83 113 147 188 234 283 336
#     4  10  20  35  57  83 112 144 179 221 274 333
#     4   9  18  34  55  78 107 145 186 226 270 329
#
# _framework density 19.117381000000002
#
# number of rings (size 3 to 8) (size 9 to 14) (size 15 to 20)
#    0.000    2.286    0.000    4.286    0.000    4.000 
#    0.000    3.571    0.000    6.857    0.000    0.000 
#    0.000    0.000    0.000    0.000    0.000    0.000 
#
# Total GULP energy -347182.021227 kJ/mol
# GULP energy per Si atom -12399.357901 kJ/mol
# Density = 1.907387 g / cm^3
# Si number density = 19.117381 Si / 1000 Ang^3
#
#
#
# Elastic Constant Matrix: (Units=GPa)
#
#
# Indices 1 2 3 4 5 6 
#
# 1 151.3856 47.6870 66.8994 0.0000 7.4936 0.0000
# 2 47.6870 80.4624 49.7954 0.0000 7.8707 0.0000
# 3 66.8994 49.7954 143.3101 0.0000 -3.6698 0.0000
# 4 0.0000 0.0000 0.0000 28.6255 0.0000 1.7690
# 5 7.4936 7.8707 -3.6698 0.0000 30.3216 0.0000
# 6 0.0000 0.0000 0.0000 1.7690 0.0000 27.8249
#
#
#
# Elastic Compliance Matrix: (Units=1/GPa)
#
#
# Indices 1 2 3 4 5 6 
#
# 1 0.009125 -0.003272 -0.003169 0.000000 -0.001789 0.000000
# 2 -0.003272 0.017732 -0.004745 0.000000 -0.004368 0.000000
# 3 -0.003169 -0.004745 0.010189 0.000000 0.003248 0.000000
# 4 0.000000 0.000000 0.000000 0.035072 0.000000 -0.002230
# 5 -0.001789 -0.004368 0.003248 0.000000 0.034949 0.000000
# 6 0.000000 0.000000 0.000000 -0.002230 0.000000 0.036081
#
#
# Mechanical properties :
#
#
# Convention : Reuss Voigt Hill
#
# Bulk Modulus (GPa) = 68.15095 78.21353 73.18224
# Shear Modulus (GPa) = 29.34081 31.40616 30.37348
#
# Velocity S-wave (km/s) = 3.92187 4.05755 3.99029
# Velocity P-wave (km/s) = 7.49894 7.93427 7.71968
#
# Compressibility (1/GPa) = 0.01467331
#
# Stress axis : x y z
#
# Youngs Moduli (GPa) = 109.58612 56.39653 98.14380
#
# Poissons Ratio (x) = 0.18454 0.31098
# Poissons Ratio (y) = 0.35859 0.46574
# Poissons Ratio (z) = 0.34724 0.26763
#
# Static dielectric constant tensor:
#      x y z
#    x 3.824870 0.000000 0.068440 
#    y 0.000000 3.306620 0.000000 
#    z 0.068440 0.000000 3.716250 
# 
# 
# High freq. dielectric constant tensor:
#      x y z
#    x 1.752020 0.000000 0.006580 
#    y 0.000000 1.716500 0.000000 
#    z 0.006580 0.000000 1.754520 
# 
# From -- ./inp_files/28634.got.cif
#   From: 2010.06.25/outbox.cif.g09.slc.cpg/sg11_15_cif.got.tgz:28634.got - 2010.06.27 23:14:04.
