data_PCOD8074286
_publ_section_title
;
Structure prediction by ZEFSAII (Michael W. Deem and Ramdas Pophale) SiO2 
 PCOD8074286
Probable space group: P 21/M
;
_chemical_formula_sum "Si O2"
_cell_formula_units_Z 28
_cell_length_a 26.484414
_cell_length_b 8.769401
_cell_length_c 12.149644
_cell_angle_alpha 90.000000
_cell_angle_beta 148.288275
_cell_angle_gamma 90.000000
_cell_volume 1483.259053
_symmetry_space_group_name_H-M "P 21/M"
_symmetry_group_IT_number 11
_symmetry_cell_setting 'monoclinic'
loop_
_space_group_symop_operation_xyz
x,y,z
-x,1/2+y,-z
-x,-y,-z
x,1/2-y,z
loop_
_atom_site_type_symbol
_atom_site_label
_atom_site_fract_x
_atom_site_fract_y
_atom_site_fract_z
Si Si1 0.045815 0.426924 0.886915
Si Si2 0.353172 0.574012 0.442908
Si Si3 0.804073 0.428491 0.676443
Si Si4 0.527456 0.428221 0.667271
Si Si5 0.158960 0.070753 0.480974
Si Si6 0.726280 0.574561 0.091575
Si Si7 0.793330 0.576729 0.981372
O O1 0.018489 0.250000 0.851012
O O2 0.951419 0.527907 0.707482
O O3 0.109465 0.477306 0.108809
O O4 0.102964 0.458073 0.879304
O O5 0.381030 0.750000 0.488834
O O6 0.296331 0.533399 0.449366
O O7 0.451153 0.478327 0.619066
O O8 0.286458 0.535926 0.214822
O O9 0.828247 0.250000 0.730126
O O10 0.793391 0.480035 0.531259
O O11 0.500000 0.500000 0.500000
O O12 0.523355 0.250000 0.643748
O O13 0.631829 0.474874 0.902180
O O14 0.167339 0.250000 0.475366
O O15 0.216909 0.018735 0.696121
O O16 0.694694 0.750000 0.043369
O O17 0.797956 0.551485 0.120824
O O18 0.762484 0.750000 0.894851
#
# Coordination Sequence:
#
# PCOD8074286 Si02
#       7
#     4   4   4   4   4   4   4
#     4  10  20  35  58  85 112 146 191 236 282 335
#     4  10  20  35  58  87 113 142 184 235 284 327
#     4  10  21  38  60  84 112 146 191 239 279 329
#     4  12  23  36  59  88 116 147 184 226 276 335
#     4  11  23  38  56  80 114 154 191 232 283 334
#     4  10  22  39  57  81 115 151 189 232 280 334
#     4   9  18  34  56  82 112 147 185 230 282 333
#
# _framework density 18.87735
#
# number of rings (size 3 to 8) (size 9 to 14) (size 15 to 20)
#    0.000    1.714    1.429    3.429    0.000    4.000 
#    0.000    0.714    0.000    0.000    0.000    0.000 
#    0.000    0.000    0.000    0.000    0.000    0.000 
#
# Total GULP energy -347301.735074 kJ/mol
# GULP energy per Si atom -12403.633395 kJ/mol
# Density = 1.883438 g / cm^3
# Si number density = 18.877350 Si / 1000 Ang^3
#
#
#
# Elastic Constant Matrix: (Units=GPa)
#
#
# Indices 1 2 3 4 5 6 
#
# 1 138.5461 43.2971 65.9649 0.0000 -4.5872 0.0000
# 2 43.2971 76.7411 26.8562 0.0000 -0.7070 0.0000
# 3 65.9649 26.8562 66.6769 0.0000 -11.5840 0.0000
# 4 0.0000 0.0000 0.0000 30.5110 0.0000 3.7801
# 5 -4.5872 -0.7070 -11.5840 0.0000 27.0425 0.0000
# 6 0.0000 0.0000 0.0000 3.7801 0.0000 28.1437
#
#
#
# Elastic Compliance Matrix: (Units=1/GPa)
#
#
# Indices 1 2 3 4 5 6 
#
# 1 0.014782 -0.003541 -0.013805 0.000000 -0.003499 0.000000
# 2 -0.003541 0.016163 -0.003282 0.000000 -0.001584 0.000000
# 3 -0.013805 -0.003282 0.031933 0.000000 0.011251 0.000000
# 4 0.000000 0.000000 0.000000 0.033330 0.000000 -0.004477
# 5 -0.003499 -0.001584 0.011251 0.000000 0.041163 0.000000
# 6 0.000000 0.000000 0.000000 -0.004477 0.000000 0.036133
#
#
# Mechanical properties :
#
#
# Convention : Reuss Voigt Hill
#
# Bulk Modulus (GPa) = 46.25421 61.57785 53.91603
# Shear Modulus (GPa) = 22.52594 26.86251 24.69423
#
# Velocity S-wave (km/s) = 3.45813 3.77636 3.62075
# Velocity P-wave (km/s) = 6.36401 7.19064 6.78992
#
# Compressibility (1/GPa) = 0.02161965
#
# Stress axis : x y z
#
# Youngs Moduli (GPa) = 67.65194 61.87153 31.31604
#
# Poissons Ratio (x) = 0.21906 0.43233
# Poissons Ratio (y) = 0.23953 0.10279
# Poissons Ratio (z) = 0.93397 0.20309
#
# Static dielectric constant tensor:
#      x y z
#    x 3.750090 0.000000 0.068710 
#    y 0.000000 3.522570 0.000000 
#    z 0.068710 0.000000 3.265530 
# 
# 
# High freq. dielectric constant tensor:
#      x y z
#    x 1.748870 0.000000 0.008870 
#    y 0.000000 1.742990 0.000000 
#    z 0.008870 0.000000 1.708150 
# 
# From -- ./inp_files/44662.got.cif
#   From: 2010.06.25/outbox.cif.g09.slc.cpg/sg11_23_cif.got.tgz:44662.got - 2010.06.27 23:14:04.
