data_PCOD8074069
_publ_section_title
;
Structure prediction by ZEFSAII (Michael W. Deem and Ramdas Pophale) SiO2 
 PCOD8074069
Probable space group: P 21/M
;
_chemical_formula_sum "Si O2"
_cell_formula_units_Z 28
_cell_length_a 10.897870
_cell_length_b 8.730459
_cell_length_c 28.336719
_cell_angle_alpha 90.000000
_cell_angle_beta 147.549945
_cell_angle_gamma 90.000000
_cell_volume 1446.605025
_symmetry_space_group_name_H-M "P 21/M"
_symmetry_group_IT_number 11
_symmetry_cell_setting 'monoclinic'
loop_
_space_group_symop_operation_xyz
x,y,z
-x,1/2+y,-z
-x,-y,-z
x,1/2-y,z
loop_
_atom_site_type_symbol
_atom_site_label
_atom_site_fract_x
_atom_site_fract_y
_atom_site_fract_z
Si Si1 0.204102 0.424744 0.036749
Si Si2 0.393992 0.427769 0.418767
Si Si3 0.085116 0.069519 0.746699
Si Si4 0.205735 0.077714 0.621753
Si Si5 0.640194 0.076966 0.242806
Si Si6 0.495086 0.931236 0.050964
Si Si7 0.732644 0.922120 0.463534
O O1 0.140015 0.250000 0.003647
O O2 0.412474 0.436365 0.139614
O O3 0.278826 0.506936 0.011812
O O4 0.000000 0.500000 0.000000
O O5 0.500000 0.500000 0.500000
O O6 0.342867 0.250000 0.410506
O O7 0.580828 0.450407 0.439092
O O8 0.168808 0.510786 0.325229
O O9 0.084679 0.250000 0.739737
O O10 0.264664 0.022428 0.846112
O O11 0.149685 0.991476 0.718398
O O12 0.120515 0.250000 0.604220
O O13 0.328653 0.068068 0.611426
O O14 0.391651 0.023759 0.720438
O O15 0.996730 0.960228 0.557567
O O16 0.698472 0.250000 0.275364
O O17 0.467409 0.750000 0.038289
O O18 0.500000 0.000000 0.000000
O O19 0.685717 0.750000 0.467552
#
# Coordination Sequence:
#
# PCOD8074069 Si02
#       7
#     4   4   4   4   4   4   4
#     4  10  21  38  60  87 118 152 193 243 292 347
#     4  12  24  38  57  81 112 149 188 234 282 332
#     4  10  21  38  59  84 114 148 190 234 279 338
#     4  10  20  35  56  80 107 144 184 225 276 330
#     4  10  20  35  57  83 111 144 184 227 276 332
#     4  10  21  39  64  90 119 157 197 243 298 358
#     4  10  21  37  55  77 109 145 184 230 274 326
#
# _framework density 19.355661999999999
#
# number of rings (size 3 to 8) (size 9 to 14) (size 15 to 20)
#    0.000    1.714    0.000    4.714    0.000    5.143 
#    2.571    0.000    0.000    0.000    0.000    0.000 
#    0.000    0.000    0.000    0.000    0.000    0.000 
#
# Total GULP energy -347173.752762 kJ/mol
# GULP energy per Si atom -12399.062599 kJ/mol
# Density = 1.931161 g / cm^3
# Si number density = 19.355662 Si / 1000 Ang^3
#
#
#
# Elastic Constant Matrix: (Units=GPa)
#
#
# Indices 1 2 3 4 5 6 
#
# 1 122.6807 54.4455 45.1625 0.0000 -6.8900 0.0000
# 2 54.4455 97.5590 36.6694 0.0000 -14.1018 0.0000
# 3 45.1625 36.6694 58.5153 0.0000 -8.6026 0.0000
# 4 0.0000 0.0000 0.0000 30.9537 0.0000 1.0114
# 5 -6.8900 -14.1018 -8.6026 0.0000 34.0281 0.0000
# 6 0.0000 0.0000 0.0000 1.0114 0.0000 37.6026
#
#
#
# Elastic Compliance Matrix: (Units=1/GPa)
#
#
# Indices 1 2 3 4 5 6 
#
# 1 0.012753 -0.004602 -0.007125 0.000000 -0.001126 0.000000
# 2 -0.004602 0.015499 -0.005560 0.000000 0.004086 0.000000
# 3 -0.007125 -0.005560 0.026507 0.000000 0.002954 0.000000
# 4 0.000000 0.000000 0.000000 0.032335 0.000000 -0.000870
# 5 -0.001126 0.004086 0.002954 0.000000 0.031600 0.000000
# 6 0.000000 0.000000 0.000000 -0.000870 0.000000 0.026617
#
#
# Mechanical properties :
#
#
# Convention : Reuss Voigt Hill
#
# Bulk Modulus (GPa) = 49.54016 61.25664 55.39840
# Shear Modulus (GPa) = 26.79347 30.01538 28.40442
#
# Velocity S-wave (km/s) = 3.72461 3.94220 3.83495
# Velocity P-wave (km/s) = 6.64434 7.24140 6.94928
#
# Compressibility (1/GPa) = 0.02018564
#
# Stress axis : x y z
#
# Youngs Moduli (GPa) = 78.41169 64.52052 37.72593
#
# Poissons Ratio (x) = 0.29693 0.26878
# Poissons Ratio (y) = 0.36086 0.20976
# Poissons Ratio (z) = 0.55865 0.35873
#
# Static dielectric constant tensor:
#      x y z
#    x 3.693410 0.000000 -0.059240 
#    y 0.000000 3.790750 0.000000 
#    z -0.059240 0.000000 3.237280 
# 
# 
# High freq. dielectric constant tensor:
#      x y z
#    x 1.753550 0.000000 -0.008820 
#    y 0.000000 1.771900 0.000000 
#    z -0.008820 0.000000 1.745130 
# 
# From -- ./inp_files/60151.got.cif
#   From: 2010.06.25/outbox.cif.g09.slc.cpg/sg11_31_cif.got.tgz:60151.got - 2010.06.27 23:14:04.
