data_PCOD8074785
_publ_section_title
;
Structure prediction by ZEFSAII (Michael W. Deem and Ramdas Pophale) SiO2 
 PCOD8074785
Probable space group: P 21/M
;
_chemical_formula_sum "Si O2"
_cell_formula_units_Z 28
_cell_length_a 26.417862
_cell_length_b 8.653641
_cell_length_c 12.086138
_cell_angle_alpha 90.000000
_cell_angle_beta 148.339492
_cell_angle_gamma 90.000000
_cell_volume 1450.268212
_symmetry_space_group_name_H-M "P 21/M"
_symmetry_group_IT_number 11
_symmetry_cell_setting 'monoclinic'
loop_
_space_group_symop_operation_xyz
x,y,z
-x,1/2+y,-z
-x,-y,-z
x,1/2-y,z
loop_
_atom_site_type_symbol
_atom_site_label
_atom_site_fract_x
_atom_site_fract_y
_atom_site_fract_z
Si Si1 0.766676 0.428801 0.401314
Si Si2 0.970303 0.569595 0.827961
Si Si3 0.316446 0.428758 0.543313
Si Si4 0.851783 0.572867 0.937968
Si Si5 0.697304 0.569713 0.829546
Si Si6 0.445036 0.929563 0.605747
Si Si7 0.649169 0.427558 0.965292
O O1 0.769076 0.250000 0.438741
O O2 0.873652 0.494881 0.602326
O O3 0.695664 0.515324 0.354056
O O4 0.726623 0.457446 0.204743
O O5 0.953123 0.750000 0.810173
O O6 0.000000 0.500000 0.000000
O O7 0.054981 0.535997 0.897165
O O8 0.346008 0.250000 0.594882
O O9 0.215797 0.457768 0.293579
O O10 0.401936 0.524008 0.644567
O O11 0.885999 0.750000 0.003354
O O12 0.794367 0.530509 0.942538
O O13 0.690470 0.750000 0.845233
O O14 0.604308 0.526760 0.583754
O O15 0.701205 0.470748 0.947866
O O16 0.426770 0.750000 0.549530
O O17 0.557977 0.963517 0.815607
O O18 0.615359 0.250000 0.899973
#
# Coordination Sequence:
#
# PCOD8074785 Si02
#       7
#     4   4   4   4   4   4   4
#     4  11  24  40  59  84 118 156 195 240 292 351
#     4  12  23  36  60  89 119 152 191 237 287 349
#     4  10  20  36  59  87 119 152 191 242 292 344
#     4   9  19  36  59  88 117 147 189 241 290 338
#     4  10  21  39  63  88 117 152 195 244 290 341
#     4  11  22  37  61  88 117 154 197 242 289 345
#     4  11  24  41  59  83 117 156 198 243 291 346
#
# _framework density 19.306774000000001
#
# number of rings (size 3 to 8) (size 9 to 14) (size 15 to 20)
#    0.000    1.429    1.429    5.571    0.000    5.714 
#    0.000    0.714    0.000    0.000    0.000    0.000 
#    0.000    0.000    0.000    0.000    0.000    0.000 
#
# Total GULP energy -347375.108843 kJ/mol
# GULP energy per Si atom -12406.253887 kJ/mol
# Density = 1.926283 g / cm^3
# Si number density = 19.306774 Si / 1000 Ang^3
#
#
#
# Elastic Constant Matrix: (Units=GPa)
#
#
# Indices 1 2 3 4 5 6 
#
# 1 111.7835 32.6784 56.0734 0.0000 2.0537 0.0000
# 2 32.6784 59.4539 25.6986 0.0000 -4.9790 0.0000
# 3 56.0734 25.6986 79.1377 0.0000 -3.4331 0.0000
# 4 0.0000 0.0000 0.0000 28.3003 0.0000 2.5271
# 5 2.0537 -4.9790 -3.4331 0.0000 22.5587 0.0000
# 6 0.0000 0.0000 0.0000 2.5271 0.0000 37.8401
#
#
#
# Elastic Compliance Matrix: (Units=1/GPa)
#
#
# Indices 1 2 3 4 5 6 
#
# 1 0.015027 -0.004541 -0.009337 0.000000 -0.003791 0.000000
# 2 -0.004541 0.021197 -0.003468 0.000000 0.004564 0.000000
# 3 -0.009337 -0.003468 0.020517 0.000000 0.003207 0.000000
# 4 0.000000 0.000000 0.000000 0.035547 0.000000 -0.002374
# 5 -0.003791 0.004564 0.003207 0.000000 0.046169 0.000000
# 6 0.000000 0.000000 0.000000 -0.002374 0.000000 0.026586
#
#
# Mechanical properties :
#
#
# Convention : Reuss Voigt Hill
#
# Bulk Modulus (GPa) = 45.35334 53.25288 49.30311
# Shear Modulus (GPa) = 24.14474 26.80146 25.47310
#
# Velocity S-wave (km/s) = 3.54020 3.72988 3.63628
# Velocity P-wave (km/s) = 6.34449 6.79645 6.57435
#
# Compressibility (1/GPa) = 0.02204909
#
# Stress axis : x y z
#
# Youngs Moduli (GPa) = 66.54814 47.17697 48.73932
#
# Poissons Ratio (x) = 0.21423 0.45509
# Poissons Ratio (y) = 0.30219 0.16902
# Poissons Ratio (z) = 0.62137 0.16360
#
# Static dielectric constant tensor:
#      x y z
#    x 3.687770 0.000000 0.068250 
#    y 0.000000 3.627490 0.000000 
#    z 0.068250 0.000000 3.324340 
# 
# 
# High freq. dielectric constant tensor:
#      x y z
#    x 1.762570 0.000000 0.007930 
#    y 0.000000 1.764140 0.000000 
#    z 0.007930 0.000000 1.731060 
# 
# From -- ./inp_files/44670.got.cif
#   From: 2010.06.25/outbox.cif.g09.slc.cpg/sg11_23_cif.got.tgz:44670.got - 2010.06.27 23:14:04.
