data_PCOD8074205
_publ_section_title
;
Structure prediction by ZEFSAII (Michael W. Deem and Ramdas Pophale) SiO2 
 PCOD8074205
Probable space group: P 21/M
;
_chemical_formula_sum "Si O2"
_cell_formula_units_Z 32
_cell_length_a 21.647543
_cell_length_b 8.921736
_cell_length_c 11.703610
_cell_angle_alpha 90.000000
_cell_angle_beta 127.887274
_cell_angle_gamma 90.000000
_cell_volume 1783.923310
_symmetry_space_group_name_H-M "P 21/M"
_symmetry_group_IT_number 11
_symmetry_cell_setting 'monoclinic'
loop_
_space_group_symop_operation_xyz
x,y,z
-x,1/2+y,-z
-x,-y,-z
x,1/2-y,z
loop_
_atom_site_type_symbol
_atom_site_label
_atom_site_fract_x
_atom_site_fract_y
_atom_site_fract_z
Si Si1 0.664704 0.425133 0.951229
Si Si2 0.190890 0.077497 0.771558
Si Si3 0.205451 0.926854 0.355113
Si Si4 0.097830 0.575150 0.836457
Si Si5 0.576614 0.924864 0.038302
Si Si6 0.728130 0.580050 0.359086
Si Si7 0.757681 0.073400 0.850376
Si Si8 0.039070 0.425575 0.153812
O O1 0.646985 0.250000 0.944440
O O2 0.679363 0.470821 0.834089
O O3 0.745179 0.465334 0.104710
O O4 0.593425 0.514672 0.928886
O O5 0.207784 0.250000 0.826065
O O6 0.196903 0.063838 0.640817
O O7 0.108126 0.019429 0.729443
O O8 0.191880 0.750000 0.337999
O O9 0.246342 0.985288 0.284321
O O10 0.262530 0.970313 0.523379
O O11 0.122886 0.006763 0.277043
O O12 0.108978 0.750000 0.822015
O O13 0.013254 0.542649 0.793682
O O14 0.163076 0.513157 0.999881
O O15 0.562340 0.750000 0.012867
O O16 0.649153 0.964843 0.202724
O O17 0.500000 0.000000 0.000000
O O18 0.722411 0.750000 0.397775
O O19 0.765358 0.250000 0.857360
O O20 0.046198 0.250000 0.137424
O O21 0.000000 0.500000 0.000000
#
# Coordination Sequence:
#
# PCOD8074205 Si02
#       8
#     4   4   4   4   4   4   4   4
#     4   9  16  29  50  75 105 135 165 204 255 303
#     4   9  17  30  49  72  99 129 170 218 261 307
#     4  11  21  34  52  75 103 138 179 216 257 313
#     4   9  17  31  49  69  98 130 169 219 268 310
#     4  10  20  35  57  84 111 134 166 209 253 303
#     4   9  20  37  52  74 107 137 166 209 257 307
#     4   8  15  29  47  71 101 131 167 212 256 296
#     4  11  21  34  50  72 103 137 175 222 269 312
#
# _framework density 17.937989999999999
#
# number of rings (size 3 to 8) (size 9 to 14) (size 15 to 20)
#    0.000    2.500    1.250    3.375    0.000    4.000 
#    0.000    2.500    0.000    0.750    0.000    0.000 
#    0.000    0.000    0.000    0.000    0.000    0.000 
#
# Total GULP energy -396571.323407 kJ/mol
# GULP energy per Si atom -12392.853856 kJ/mol
# Density = 1.789716 g / cm^3
# Si number density = 17.937990 Si / 1000 Ang^3
#
#
#
# Elastic Constant Matrix: (Units=GPa)
#
#
# Indices 1 2 3 4 5 6 
#
# 1 166.5029 66.5658 51.0056 0.0000 -16.4487 0.0000
# 2 66.5658 80.0241 33.0194 0.0000 -5.4458 0.0000
# 3 51.0056 33.0194 56.3351 0.0000 -12.9872 0.0000
# 4 0.0000 0.0000 0.0000 25.4012 0.0000 -1.9561
# 5 -16.4487 -5.4458 -12.9872 0.0000 21.1205 0.0000
# 6 0.0000 0.0000 0.0000 -1.9561 0.0000 32.6416
#
#
#
# Elastic Compliance Matrix: (Units=1/GPa)
#
#
# Indices 1 2 3 4 5 6 
#
# 1 0.010399 -0.006409 -0.004862 0.000000 0.003457 0.000000
# 2 -0.006409 0.020503 -0.007162 0.000000 -0.004109 0.000000
# 3 -0.004862 -0.007162 0.029190 0.000000 0.012316 0.000000
# 4 0.000000 0.000000 0.000000 0.039551 0.000000 0.002370
# 5 0.003457 -0.004109 0.012316 0.000000 0.056553 0.000000
# 6 0.000000 0.000000 0.000000 0.002370 0.000000 0.030778
#
#
# Mechanical properties :
#
#
# Convention : Reuss Voigt Hill
#
# Bulk Modulus (GPa) = 43.05442 67.11595 55.08518
# Shear Modulus (GPa) = 21.59080 25.98408 23.78744
#
# Velocity S-wave (km/s) = 3.47311 3.81011 3.64551
# Velocity P-wave (km/s) = 6.33539 7.54007 6.96383
#
# Compressibility (1/GPa) = 0.02322642
#
# Stress axis : x y z
#
# Youngs Moduli (GPa) = 96.16447 48.77435 34.25844
#
# Poissons Ratio (x) = 0.31258 0.16656
# Poissons Ratio (y) = 0.61628 0.24535
# Poissons Ratio (z) = 0.46755 0.34932
#
# Static dielectric constant tensor:
#      x y z
#    x 3.821450 0.000000 -0.327380 
#    y 0.000000 3.321940 0.000000 
#    z -0.327380 0.000000 3.031290 
# 
# 
# High freq. dielectric constant tensor:
#      x y z
#    x 1.709450 0.000000 -0.022630 
#    y 0.000000 1.695080 0.000000 
#    z -0.022630 0.000000 1.644210 
# 
# From -- ./inp_files/42864.got.cif
#   From: 2010.06.25/outbox.cif.g09.slc.cpg/sg11_22_cif.got.tgz:42864.got - 2010.06.27 23:14:04.
