data_PCOD8074705
_publ_section_title
;
Structure prediction by ZEFSAII (Michael W. Deem and Ramdas Pophale) SiO2 
 PCOD8074705
Probable space group: P 21/M
;
_chemical_formula_sum "Si O2"
_cell_formula_units_Z 28
_cell_length_a 15.271073
_cell_length_b 9.093838
_cell_length_c 20.622097
_cell_angle_alpha 90.000000
_cell_angle_beta 152.485848
_cell_angle_gamma 90.000000
_cell_volume 1323.004111
_symmetry_space_group_name_H-M "P 21/M"
_symmetry_group_IT_number 11
_symmetry_cell_setting 'monoclinic'
loop_
_space_group_symop_operation_xyz
x,y,z
-x,1/2+y,-z
-x,-y,-z
x,1/2-y,z
loop_
_atom_site_type_symbol
_atom_site_label
_atom_site_fract_x
_atom_site_fract_y
_atom_site_fract_z
Si Si1 0.420939 0.078196 0.626551
Si Si2 0.817799 0.578681 0.911210
Si Si3 0.657965 0.412146 0.184572
Si Si4 0.968758 0.580276 0.148723
Si Si5 0.237065 0.087799 0.859758
Si Si6 0.804271 0.576188 0.393582
Si Si7 0.329101 0.078881 0.421198
O O1 0.471233 0.250000 0.665564
O O2 0.272018 0.031304 0.585039
O O3 0.319344 0.041370 0.491509
O O4 0.619504 0.991642 0.759226
O O5 0.819672 0.750000 0.892465
O O6 0.000000 0.500000 0.000000
O O7 0.831874 0.558920 0.997759
O O8 0.734655 0.250000 0.254067
O O9 0.804018 0.481460 0.228006
O O10 0.646276 0.516164 0.239798
O O11 0.457938 0.399539 0.019315
O O12 0.031225 0.750000 0.196010
O O13 0.150696 0.478053 0.263397
O O14 0.860184 0.522863 0.140652
O O15 0.158541 0.250000 0.790920
O O16 0.826421 0.750000 0.401842
O O17 0.000000 0.500000 0.500000
O O18 0.350321 0.250000 0.423423
O O19 0.500000 0.000000 0.500000
#
# Coordination Sequence:
#
# PCOD8074705 Si02
#       7
#     4   4   4   4   4   4   4
#     4  10  24  44  64  90 128 166 209 262 315 371
#     4  11  23  40  65  95 127 162 206 257 315 378
#     4  10  20  36  58  85 120 156 197 247 299 355
#     4  10  22  39  60  88 121 155 199 252 302 361
#     4   9  19  36  58  85 116 154 197 245 300 357
#     4  11  24  41  61  87 122 164 210 259 310 368
#     4  11  24  42  63  90 123 161 204 253 310 371
#
# _framework density 21.163954
#
# number of rings (size 3 to 8) (size 9 to 14) (size 15 to 20)
#    0.000    1.714    0.000    3.429    2.000    9.143 
#    0.000    0.000    0.000    0.000    0.000    0.000 
#    0.000    0.000    0.000    0.000    0.000    0.000 
#
# Total GULP energy -347146.599335 kJ/mol
# GULP energy per Si atom -12398.092833 kJ/mol
# Density = 2.111578 g / cm^3
# Si number density = 21.163954 Si / 1000 Ang^3
#
#
#
# Elastic Constant Matrix: (Units=GPa)
#
#
# Indices 1 2 3 4 5 6 
#
# 1 96.7834 35.8091 -5.0793 0.0000 1.4831 0.0000
# 2 35.8091 95.3945 24.3013 0.0000 -0.2594 0.0000
# 3 -5.0793 24.3013 50.8691 0.0000 -0.1030 0.0000
# 4 0.0000 0.0000 0.0000 36.4838 0.0000 -0.5180
# 5 1.4831 -0.2594 -0.1030 0.0000 35.0260 0.0000
# 6 0.0000 0.0000 0.0000 -0.5180 0.0000 34.7539
#
#
#
# Elastic Compliance Matrix: (Units=1/GPa)
#
#
# Indices 1 2 3 4 5 6 
#
# 1 0.012697 -0.005796 0.004035 0.000000 -0.000569 0.000000
# 2 -0.005796 0.014581 -0.007544 0.000000 0.000331 0.000000
# 3 0.004035 -0.007544 0.023665 0.000000 -0.000157 0.000000
# 4 0.000000 0.000000 0.000000 0.027415 0.000000 0.000409
# 5 -0.000569 0.000331 -0.000157 0.000000 0.028576 0.000000
# 6 0.000000 0.000000 0.000000 0.000409 0.000000 0.028780
#
#
# Mechanical properties :
#
#
# Convention : Reuss Voigt Hill
#
# Bulk Modulus (GPa) = 30.92641 39.23438 35.08039
# Shear Modulus (GPa) = 30.28448 33.78712 32.03580
#
# Velocity S-wave (km/s) = 3.78689 3.99989 3.89485
# Velocity P-wave (km/s) = 5.81078 6.31749 6.06943
#
# Compressibility (1/GPa) = 0.03233482
#
# Stress axis : x y z
#
# Youngs Moduli (GPa) = 78.75699 68.58202 42.25696
#
# Poissons Ratio (x) = 0.39749 -0.17053
# Poissons Ratio (y) = 0.45647 0.31878
# Poissons Ratio (z) = -0.31782 0.51737
#
# Static dielectric constant tensor:
#      x y z
#    x 4.024120 0.000000 -0.323780 
#    y 0.000000 4.104300 0.000000 
#    z -0.323780 0.000000 3.687220 
# 
# 
# High freq. dielectric constant tensor:
#      x y z
#    x 1.843910 0.000000 -0.006270 
#    y 0.000000 1.833790 0.000000 
#    z -0.006270 0.000000 1.824850 
# 
# From -- ./inp_files/65389.got.cif
#   From: 2010.06.25/outbox.cif.g09.slc.cpg/sg11_33_cif.got.tgz:65389.got - 2010.06.27 23:14:04.
