data_PCOD8074004
_publ_section_title
;
Structure prediction by ZEFSAII (Michael W. Deem and Ramdas Pophale) SiO2 
 PCOD8074004
Probable space group: P 21/M
;
_chemical_formula_sum "Si O2"
_cell_formula_units_Z 32
_cell_length_a 24.809493
_cell_length_b 9.336880
_cell_length_c 16.150290
_cell_angle_alpha 90.000000
_cell_angle_beta 153.471175
_cell_angle_gamma 90.000000
_cell_volume 1670.957391
_symmetry_space_group_name_H-M "P 21/M"
_symmetry_group_IT_number 11
_symmetry_cell_setting 'monoclinic'
loop_
_space_group_symop_operation_xyz
x,y,z
-x,1/2+y,-z
-x,-y,-z
x,1/2-y,z
loop_
_atom_site_type_symbol
_atom_site_label
_atom_site_fract_x
_atom_site_fract_y
_atom_site_fract_z
Si Si1 0.427422 0.087840 0.264378
Si Si2 0.012253 0.079639 0.269378
Si Si3 0.772059 0.914280 0.543193
Si Si4 0.346310 0.412402 0.973901
Si Si5 0.777348 0.584577 0.894071
Si Si6 0.670469 0.917000 0.573551
Si Si7 0.084329 0.081980 0.552878
Si Si8 0.526037 0.914544 0.117903
O O1 0.473774 0.250000 0.339616
O O2 0.346868 0.039205 0.231602
O O3 0.543078 0.988733 0.416366
O O4 0.340535 0.075844 0.065031
O O5 0.002823 0.250000 0.250815
O O6 0.108141 0.017897 0.333610
O O7 0.055310 0.033191 0.419752
O O8 0.883508 0.012996 0.073785
O O9 0.800153 0.750000 0.600586
O O10 0.734119 0.985269 0.579080
O O11 0.666547 0.930371 0.331143
O O12 0.377335 0.250000 0.988479
O O13 0.221217 0.461525 0.761520
O O14 0.450694 0.519290 0.089213
O O15 0.807334 0.750000 0.954736
O O16 0.761288 0.557853 0.774361
O O17 0.642600 0.750000 0.521060
O O18 0.063641 0.250000 0.537246
O O19 0.000000 0.000000 0.500000
O O20 0.488981 0.750000 0.055068
O O21 0.500000 0.000000 0.000000
#
# Coordination Sequence:
#
# PCOD8074004 Si02
#       8
#     4   4   4   4   4   4   4   4
#     4  10  20  35  56  84 118 148 180 232 289 338
#     4  10  21  38  58  80 110 151 195 232 276 337
#     4   9  19  37  58  80 111 148 184 231 283 331
#     4  10  20  35  55  80 112 147 184 228 281 337
#     4  10  22  38  57  83 114 149 187 235 291 334
#     4  10  20  37  60  84 112 147 189 233 282 343
#     4  10  21  37  57  81 113 153 192 235 283 338
#     4  11  21  35  56  81 111 146 185 229 278 334
#
# _framework density 19.150697999999998
#
# number of rings (size 3 to 8) (size 9 to 14) (size 15 to 20)
#    0.000    2.000    1.250    2.250    0.000    5.500 
#    0.000    3.125    0.000    0.000    0.000    0.000 
#    0.000    0.000    0.000    0.000    0.000    0.000 
#
# Total GULP energy -396843.092636 kJ/mol
# GULP energy per Si atom -12401.346645 kJ/mol
# Density = 1.910711 g / cm^3
# Si number density = 19.150698 Si / 1000 Ang^3
#
#
#
# Elastic Constant Matrix: (Units=GPa)
#
#
# Indices 1 2 3 4 5 6 
#
# 1 127.5054 34.9969 34.0187 0.0000 0.8886 0.0000
# 2 34.9969 53.2457 30.7977 0.0000 4.1887 0.0000
# 3 34.0187 30.7977 84.6825 0.0000 0.6682 0.0000
# 4 0.0000 0.0000 0.0000 29.5533 0.0000 1.5872
# 5 0.8886 4.1887 0.6682 0.0000 32.8955 0.0000
# 6 0.0000 0.0000 0.0000 1.5872 0.0000 29.3866
#
#
#
# Elastic Compliance Matrix: (Units=1/GPa)
#
#
# Indices 1 2 3 4 5 6 
#
# 1 0.009843 -0.005339 -0.002016 0.000000 0.000455 0.000000
# 2 -0.005339 0.026951 -0.007632 0.000000 -0.003132 0.000000
# 3 -0.002016 -0.007632 0.015389 0.000000 0.000714 0.000000
# 4 0.000000 0.000000 0.000000 0.033936 0.000000 -0.001833
# 5 0.000455 -0.003132 0.000714 0.000000 0.030771 0.000000
# 6 0.000000 0.000000 0.000000 -0.001833 0.000000 0.034128
#
#
# Mechanical properties :
#
#
# Convention : Reuss Voigt Hill
#
# Bulk Modulus (GPa) = 45.02834 51.67335 48.35084
# Shear Modulus (GPa) = 26.53997 29.40845 27.97421
#
# Velocity S-wave (km/s) = 3.72674 3.92297 3.82611
# Velocity P-wave (km/s) = 6.48705 6.89642 6.69486
#
# Compressibility (1/GPa) = 0.02220824
#
# Stress axis : x y z
#
# Youngs Moduli (GPa) = 101.59529 37.10420 64.98279
#
# Poissons Ratio (x) = 0.19811 0.13100
# Poissons Ratio (y) = 0.54245 0.49595
# Poissons Ratio (z) = 0.20481 0.28318
#
# Static dielectric constant tensor:
#      x y z
#    x 3.874170 0.000000 -0.086460 
#    y 0.000000 3.590610 0.000000 
#    z -0.086460 0.000000 3.507390 
# 
# 
# High freq. dielectric constant tensor:
#      x y z
#    x 1.760770 0.000000 -0.008140 
#    y 0.000000 1.725250 0.000000 
#    z -0.008140 0.000000 1.746910 
# 
# From -- ./inp_files/55698.got.cif
#   From: 2010.06.25/outbox.cif.g09.slc.cpg/sg11_28_cif.got.tgz:55698.got - 2010.06.27 23:14:04.
