data_PCOD8074990
_publ_section_title
;
Structure prediction by ZEFSAII (Michael W. Deem and Ramdas Pophale) SiO2 
 PCOD8074990
Probable space group: P 21/M
;
_chemical_formula_sum "Si O2"
_cell_formula_units_Z 32
_cell_length_a 32.641520
_cell_length_b 9.031441
_cell_length_c 12.339017
_cell_angle_alpha 90.000000
_cell_angle_beta 151.081465
_cell_angle_gamma 90.000000
_cell_volume 1758.989939
_symmetry_space_group_name_H-M "P 21/M"
_symmetry_group_IT_number 11
_symmetry_cell_setting 'monoclinic'
loop_
_space_group_symop_operation_xyz
x,y,z
-x,1/2+y,-z
-x,-y,-z
x,1/2-y,z
loop_
_atom_site_type_symbol
_atom_site_label
_atom_site_fract_x
_atom_site_fract_y
_atom_site_fract_z
Si Si1 0.659239 0.581708 0.206695
Si Si2 0.995929 0.418358 0.302426
Si Si3 0.524502 0.079329 0.165978
Si Si4 0.181499 0.423419 0.804672
Si Si5 0.035267 0.578704 0.185588
Si Si6 0.185123 0.578280 0.031192
Si Si7 0.223760 0.922621 0.687916
Si Si8 0.688030 0.575739 0.524736
O O1 0.689048 0.750000 0.253967
O O2 0.704233 0.471407 0.228616
O O3 0.682487 0.538046 0.384170
O O4 0.558283 0.566894 0.949140
O O5 0.000808 0.250000 0.271637
O O6 0.081536 0.459574 0.564379
O O7 0.984438 0.522640 0.172277
O O8 0.916065 0.442862 0.195378
O O9 0.547107 0.250000 0.195988
O O10 0.607793 0.995685 0.403855
O O11 0.500000 0.000000 0.000000
O O12 0.199932 0.250000 0.856282
O O13 0.232232 0.487675 0.819445
O O14 0.216559 0.503355 0.993015
O O15 0.017150 0.750000 0.131065
O O16 0.134169 0.541301 0.425341
O O17 0.000000 0.500000 0.000000
O O18 0.210950 0.750000 0.090945
O O19 0.227526 0.497551 0.231916
O O20 0.233500 0.750000 0.736756
O O21 0.688228 0.750000 0.546153
#
# Coordination Sequence:
#
# PCOD8074990 Si02
#       8
#     4   4   4   4   4   4   4   4
#     4   9  19  34  54  80 109 139 174 213 257 315
#     4   9  20  36  53  75 101 136 179 221 266 313
#     4   9  17  32  53  78 108 141 174 212 261 315
#     4  10  20  37  57  75 102 139 180 223 267 313
#     4  10  21  34  49  71 103 141 176 217 263 311
#     4  11  22  35  54  79 108 138 176 225 268 314
#     4  10  21  35  53  77 103 136 179 219 260 311
#     4  10  21  35  52  80 112 142 177 214 264 319
#
# _framework density 18.192260000000001
#
# number of rings (size 3 to 8) (size 9 to 14) (size 15 to 20)
#    0.000    2.250    0.000    3.375    1.750    6.000 
#    0.000    0.000    0.000    0.750    0.000    0.000 
#    0.000    0.000    0.000    0.000    0.000    0.000 
#
# Total GULP energy -396806.315917 kJ/mol
# GULP energy per Si atom -12400.197372 kJ/mol
# Density = 1.815085 g / cm^3
# Si number density = 18.192260 Si / 1000 Ang^3
#
#
#
# Elastic Constant Matrix: (Units=GPa)
#
#
# Indices 1 2 3 4 5 6 
#
# 1 91.1830 50.5840 28.9027 0.0000 2.3944 0.0000
# 2 50.5840 100.7403 28.2474 0.0000 2.8932 0.0000
# 3 28.9027 28.2474 47.8375 0.0000 5.1705 0.0000
# 4 0.0000 0.0000 0.0000 32.4358 0.0000 -0.9388
# 5 2.3944 2.8932 5.1705 0.0000 20.4396 0.0000
# 6 0.0000 0.0000 0.0000 -0.9388 0.0000 34.9919
#
#
#
# Elastic Compliance Matrix: (Units=1/GPa)
#
#
# Indices 1 2 3 4 5 6 
#
# 1 0.016574 -0.006608 -0.006172 0.000000 0.000555 0.000000
# 2 -0.006608 0.014531 -0.004574 0.000000 -0.000126 0.000000
# 3 -0.006172 -0.004574 0.027950 0.000000 -0.005700 0.000000
# 4 0.000000 0.000000 0.000000 0.030854 0.000000 0.000828
# 5 0.000555 -0.000126 -0.005700 0.000000 0.050319 0.000000
# 6 0.000000 0.000000 0.000000 0.000828 0.000000 0.028600
#
#
# Mechanical properties :
#
#
# Convention : Reuss Voigt Hill
#
# Bulk Modulus (GPa) = 41.07281 50.58098 45.82690
# Shear Modulus (GPa) = 23.62354 26.37524 24.99939
#
# Velocity S-wave (km/s) = 3.60745 3.81176 3.71101
# Velocity P-wave (km/s) = 6.32279 6.87289 6.60357
#
# Compressibility (1/GPa) = 0.02434700
#
# Stress axis : x y z
#
# Youngs Moduli (GPa) = 60.33375 68.82030 35.77760
#
# Poissons Ratio (x) = 0.45474 0.22083
# Poissons Ratio (y) = 0.39866 0.16366
# Poissons Ratio (z) = 0.37240 0.31480
#
# Static dielectric constant tensor:
#      x y z
#    x 3.014110 0.000000 0.418110 
#    y 0.000000 3.492680 0.000000 
#    z 0.418110 0.000000 3.151840 
# 
# 
# High freq. dielectric constant tensor:
#      x y z
#    x 1.690620 0.000000 0.006630 
#    y 0.000000 1.721340 0.000000 
#    z 0.006630 0.000000 1.689130 
# 
# From -- ./inp_files/42859.got.cif
#   From: 2010.06.25/outbox.cif.g09.slc.cpg/sg11_22_cif.got.tgz:42859.got - 2010.06.27 23:14:04.
