data_PCOD8074582
_publ_section_title
;
Structure prediction by ZEFSAII (Michael W. Deem and Ramdas Pophale) SiO2 
 PCOD8074582
Probable space group: P 21/M
;
_chemical_formula_sum "Si O2"
_cell_formula_units_Z 28
_cell_length_a 12.330154
_cell_length_b 8.726598
_cell_length_c 15.113648
_cell_angle_alpha 90.000000
_cell_angle_beta 106.076904
_cell_angle_gamma 90.000000
_cell_volume 1562.632446
_symmetry_space_group_name_H-M "P 21/M"
_symmetry_group_IT_number 11
_symmetry_cell_setting 'monoclinic'
loop_
_space_group_symop_operation_xyz
x,y,z
-x,1/2+y,-z
-x,-y,-z
x,1/2-y,z
loop_
_atom_site_type_symbol
_atom_site_label
_atom_site_fract_x
_atom_site_fract_y
_atom_site_fract_z
Si Si1 0.600109 0.069430 0.713191
Si Si2 0.790601 0.573794 0.291656
Si Si3 0.346604 0.430041 0.904763
Si Si4 0.968476 0.073163 0.585624
Si Si5 0.738592 0.568606 0.592404
Si Si6 0.593919 0.428696 0.910827
Si Si7 0.365586 0.569569 0.601298
O O1 0.584183 0.250000 0.695744
O O2 0.635212 0.029812 0.821815
O O3 0.699966 0.005168 0.675695
O O4 0.482995 0.987456 0.666135
O O5 0.752767 0.750000 0.299662
O O6 0.749298 0.516021 0.186122
O O7 0.736109 0.471217 0.355868
O O8 0.925355 0.557967 0.324624
O O9 0.345909 0.250000 0.913356
O O10 0.466498 0.491644 0.895155
O O11 0.323085 0.497285 0.997229
O O12 0.933636 0.250000 0.563822
O O13 0.866583 0.980942 0.605445
O O14 0.000000 0.000000 0.500000
O O15 0.730807 0.750000 0.596309
O O16 0.655458 0.510595 0.497196
O O17 0.595716 0.250000 0.927700
O O18 0.369721 0.750000 0.587120
#
# Coordination Sequence:
#
# PCOD8074582 Si02
#       7
#     4   4   4   4   4   4   4
#     4  11  22  39  58  79 113 149 186 226 277 334
#     4  10  20  36  57  81 113 148 182 227 276 324
#     4   9  17  32  53  80 111 144 178 219 273 326
#     4  11  22  37  59  83 109 146 190 231 277 322
#     4  12  25  40  56  78 112 149 189 231 276 328
#     4   9  18  32  53  80 111 144 176 221 274 327
#     4  12  23  35  55  83 113 147 186 224 274 331
#
# _framework density 17.918481
#
# number of rings (size 3 to 8) (size 9 to 14) (size 15 to 20)
#    0.000    1.429    2.857    3.857    0.000    2.286 
#    0.000    0.000    0.000    0.857    0.000    0.000 
#    0.000    0.000    0.000    0.000    0.000    0.000 
#
# Total GULP energy -347275.638366 kJ/mol
# GULP energy per Si atom -12402.701370 kJ/mol
# Density = 1.787770 g / cm^3
# Si number density = 17.918481 Si / 1000 Ang^3
#
#
#
# Elastic Constant Matrix: (Units=GPa)
#
#
# Indices 1 2 3 4 5 6 
#
# 1 64.7559 36.4178 29.8395 0.0000 -12.0918 0.0000
# 2 36.4178 152.1898 51.9897 0.0000 -16.7254 0.0000
# 3 29.8395 51.9897 133.0548 0.0000 -9.4672 0.0000
# 4 0.0000 0.0000 0.0000 30.9585 0.0000 -3.4429
# 5 -12.0918 -16.7254 -9.4672 0.0000 27.4104 0.0000
# 6 0.0000 0.0000 0.0000 -3.4429 0.0000 26.6142
#
#
#
# Elastic Compliance Matrix: (Units=1/GPa)
#
#
# Indices 1 2 3 4 5 6 
#
# 1 0.019534 -0.003097 -0.002760 0.000000 0.005774 0.000000
# 2 -0.003097 0.008457 -0.002399 0.000000 0.002966 0.000000
# 3 -0.002760 -0.002399 0.009105 0.000000 0.000463 0.000000
# 4 0.000000 0.000000 0.000000 0.032773 0.000000 0.004240
# 5 0.005774 0.002966 0.000463 0.000000 0.041000 0.000000
# 6 0.000000 0.000000 0.000000 0.004240 0.000000 0.038122
#
#
# Mechanical properties :
#
#
# Convention : Reuss Voigt Hill
#
# Bulk Modulus (GPa) = 48.57953 65.16608 56.87280
# Shear Modulus (GPa) = 29.00826 32.44686 30.72756
#
# Velocity S-wave (km/s) = 4.02792 4.25997 4.14557
# Velocity P-wave (km/s) = 6.98588 7.78739 7.39750
#
# Compressibility (1/GPa) = 0.02058480
#
# Stress axis : x y z
#
# Youngs Moduli (GPa) = 51.19195 118.24117 109.82967
#
# Poissons Ratio (x) = 0.36619 0.30312
# Poissons Ratio (y) = 0.15854 0.26348
# Poissons Ratio (z) = 0.14128 0.28366
#
# Static dielectric constant tensor:
#      x y z
#    x 3.249560 0.000000 0.039010 
#    y 0.000000 3.493740 0.000000 
#    z 0.039010 0.000000 3.514210 
# 
# 
# High freq. dielectric constant tensor:
#      x y z
#    x 1.669830 0.000000 0.000700 
#    y 0.000000 1.701710 0.000000 
#    z 0.000700 0.000000 1.700190 
# 
# From -- ./inp_files/48927.got.cif
#   From: 2010.06.25/outbox.cif.g09.slc.cpg/sg11_25_cif.got.tgz:48927.got - 2010.06.27 23:14:04.
