data_PCOD8074376
_publ_section_title
;
Structure prediction by ZEFSAII (Michael W. Deem and Ramdas Pophale) SiO2 
 PCOD8074376
Probable space group: P 21/M
;
_chemical_formula_sum "Si O2"
_cell_formula_units_Z 28
_cell_length_a 14.234518
_cell_length_b 8.627950
_cell_length_c 17.304611
_cell_angle_alpha 90.000000
_cell_angle_beta 42.746861
_cell_angle_gamma 90.000000
_cell_volume 1442.543096
_symmetry_space_group_name_H-M "P 21/M"
_symmetry_group_IT_number 11
_symmetry_cell_setting 'monoclinic'
loop_
_space_group_symop_operation_xyz
x,y,z
-x,1/2+y,-z
-x,-y,-z
x,1/2-y,z
loop_
_atom_site_type_symbol
_atom_site_label
_atom_site_fract_x
_atom_site_fract_y
_atom_site_fract_z
Si Si1 0.609118 0.431459 0.164895
Si Si2 0.755818 0.571749 0.938473
Si Si3 0.683143 0.429944 0.658377
Si Si4 0.926633 0.070292 0.245435
Si Si5 0.860376 0.431507 0.117182
Si Si6 0.089378 0.070342 0.586385
Si Si7 0.795727 0.929819 0.739890
O O1 0.580246 0.250000 0.192489
O O2 0.472713 0.525857 0.269197
O O3 0.727502 0.494717 0.151390
O O4 0.654272 0.464119 0.049413
O O5 0.722076 0.750000 0.977687
O O6 0.732339 0.535149 0.862418
O O7 0.912850 0.531276 0.866556
O O8 0.708753 0.250000 0.626372
O O9 0.784129 0.532197 0.545486
O O10 0.710023 0.467089 0.731903
O O11 0.910233 0.250000 0.277983
O O12 0.842939 0.026806 0.218404
O O13 0.867333 0.969349 0.351775
O O14 0.872194 0.250000 0.098267
O O15 0.000000 0.500000 0.000000
O O16 0.051484 0.250000 0.602264
O O17 0.957739 0.970540 0.639628
O O18 0.780218 0.750000 0.727366
#
# Coordination Sequence:
#
# PCOD8074376 Si02
#       7
#     4   4   4   4   4   4   4
#     4  11  23  37  56  85 119 153 191 236 286 340
#     4   9  18  34  57  84 116 151 186 230 285 338
#     4  12  25  41  59  80 112 155 196 236 287 341
#     4   9  18  35  58  86 118 150 189 236 284 333
#     4  10  20  35  59  88 118 151 189 235 283 337
#     4  11  22  38  61  88 116 147 191 239 284 337
#     4  10  21  39  62  87 116 149 191 237 283 336
#
# _framework density 19.410164999999999
#
# number of rings (size 3 to 8) (size 9 to 14) (size 15 to 20)
#    0.000    1.714    1.429    4.714    0.000    4.571 
#    0.000    0.714    0.000    0.000    0.000    0.000 
#    0.000    0.000    0.000    0.000    0.000    0.000 
#
# Total GULP energy -347318.533612 kJ/mol
# GULP energy per Si atom -12404.233343 kJ/mol
# Density = 1.936599 g / cm^3
# Si number density = 19.410165 Si / 1000 Ang^3
#
#
#
# Elastic Constant Matrix: (Units=GPa)
#
#
# Indices 1 2 3 4 5 6 
#
# 1 105.0277 16.3015 26.1552 0.0000 -0.7565 0.0000
# 2 16.3015 56.1033 8.0706 0.0000 4.4412 0.0000
# 3 26.1552 8.0706 33.6201 0.0000 -0.9014 0.0000
# 4 0.0000 0.0000 0.0000 34.6607 0.0000 2.9317
# 5 -0.7565 4.4412 -0.9014 0.0000 21.8916 0.0000
# 6 0.0000 0.0000 0.0000 2.9317 0.0000 25.0746
#
#
#
# Elastic Compliance Matrix: (Units=1/GPa)
#
#
# Indices 1 2 3 4 5 6 
#
# 1 0.012079 -0.002280 -0.008836 0.000000 0.000516 0.000000
# 2 -0.002280 0.019236 -0.002954 0.000000 -0.004103 0.000000
# 3 -0.008836 -0.002954 0.037377 0.000000 0.001833 0.000000
# 4 0.000000 0.000000 0.000000 0.029139 0.000000 -0.003407
# 5 0.000516 -0.004103 0.001833 0.000000 0.046605 0.000000
# 6 0.000000 0.000000 0.000000 -0.003407 0.000000 0.040279
#
#
# Mechanical properties :
#
#
# Convention : Reuss Voigt Hill
#
# Bulk Modulus (GPa) = 24.65961 32.86729 28.76345
# Shear Modulus (GPa) = 22.08737 25.94031 24.01384
#
# Velocity S-wave (km/s) = 3.37698 3.65969 3.52117
# Velocity P-wave (km/s) = 5.28558 5.90149 5.60200
#
# Compressibility (1/GPa) = 0.04055214
#
# Stress axis : x y z
#
# Youngs Moduli (GPa) = 82.78615 51.98484 26.75467
#
# Poissons Ratio (x) = 0.11850 0.23641
# Poissons Ratio (y) = 0.18871 0.07904
# Poissons Ratio (z) = 0.73151 0.15358
#
# Static dielectric constant tensor:
#      x y z
#    x 3.629550 0.000000 0.150150 
#    y 0.000000 3.485580 0.000000 
#    z 0.150150 0.000000 3.392780 
# 
# 
# High freq. dielectric constant tensor:
#      x y z
#    x 1.756060 0.000000 0.012910 
#    y 0.000000 1.756510 0.000000 
#    z 0.012910 0.000000 1.746430 
# 
# From -- ./inp_files/60097.got.cif
#   From: 2010.06.25/outbox.cif.g09.slc.cpg/sg11_31_cif.got.tgz:60097.got - 2010.06.27 23:14:04.
