data_PCOD8074384
_publ_section_title
;
Structure prediction by ZEFSAII (Michael W. Deem and Ramdas Pophale) SiO2 
 PCOD8074384
Probable space group: P 21/M
;
_chemical_formula_sum "Si O2"
_cell_formula_units_Z 20
_cell_length_a 23.229673
_cell_length_b 9.024530
_cell_length_c 14.716469
_cell_angle_alpha 90.000000
_cell_angle_beta 18.131929
_cell_angle_gamma 90.000000
_cell_volume 960.106413
_symmetry_space_group_name_H-M "P 21/M"
_symmetry_group_IT_number 11
_symmetry_cell_setting 'monoclinic'
loop_
_space_group_symop_operation_xyz
x,y,z
-x,1/2+y,-z
-x,-y,-z
x,1/2-y,z
loop_
_atom_site_type_symbol
_atom_site_label
_atom_site_fract_x
_atom_site_fract_y
_atom_site_fract_z
Si Si1 0.199006 0.925387 0.707049
Si Si2 0.500027 0.076446 0.597637
Si Si3 0.707041 0.911301 0.608222
Si Si4 0.292863 0.588702 0.229569
Si Si5 0.199012 0.425386 0.195978
O O1 0.180916 0.750000 0.725216
O O2 0.314893 0.969026 0.623659
O O3 0.307855 0.988902 0.458390
O O4 0.000000 0.000000 0.000000
O O5 0.499974 0.250000 0.580409
O O6 0.500000 0.000000 0.500000
O O7 0.315016 0.030933 0.931549
O O8 0.805053 0.750000 0.444435
O O9 0.813010 0.999993 0.530422
O O10 0.499968 0.879470 0.952135
O O11 0.194838 0.750000 0.359866
O O12 0.307696 0.488901 0.118365
O O13 0.180912 0.250000 0.232080
O O14 0.000000 0.500000 0.500000
#
# Coordination Sequence:
#
# PCOD8074384 Si02
#       5
#     4   4   4   4   4
#     4  11  23  41  63  92 127 166 212 266 320 384
#     4  10  24  44  67  92 127 170 217 266 324 384
#     4  10  20  35  59  89 119 155 197 247 308 371
#     4  10  20  35  59  89 119 155 197 247 308 371
#     4  11  23  41  63  92 127 166 212 266 320 384
#
# _framework density 20.831022999999998
#
# number of rings (size 3 to 8) (size 9 to 14) (size 15 to 20)
#    0.000    1.600    2.000    2.400    0.000    6.400 
#    0.000    4.000    0.000    0.000    0.000    0.000 
#    0.000    0.000    0.000    0.000    0.000    0.000 
#
# Total GULP energy -247827.426522 kJ/mol
# GULP energy per Si atom -12391.371326 kJ/mol
# Density = 2.078361 g / cm^3
# Si number density = 20.831023 Si / 1000 Ang^3
#
#
#
# Elastic Constant Matrix: (Units=GPa)
#
#
# Indices 1 2 3 4 5 6 
#
# 1 167.2921 84.8126 65.5930 0.0000 32.6468 0.0000
# 2 84.8126 146.3126 55.3925 0.0000 12.4630 0.0000
# 3 65.5930 55.3925 99.8709 0.0000 -4.1288 0.0000
# 4 0.0000 0.0000 0.0000 29.8479 0.0000 5.0376
# 5 32.6468 12.4630 -4.1288 0.0000 27.9855 0.0000
# 6 0.0000 0.0000 0.0000 5.0376 0.0000 41.7084
#
#
#
# Elastic Compliance Matrix: (Units=1/GPa)
#
#
# Indices 1 2 3 4 5 6 
#
# 1 0.014067 -0.003874 -0.007744 0.000000 -0.015827 0.000000
# 2 -0.003874 0.010346 -0.003218 0.000000 -0.000563 0.000000
# 3 -0.007744 -0.003218 0.017423 0.000000 0.013037 0.000000
# 4 0.000000 0.000000 0.000000 0.034200 0.000000 -0.004131
# 5 -0.015827 -0.000563 0.013037 0.000000 0.056370 0.000000
# 6 0.000000 0.000000 0.000000 -0.004131 0.000000 0.024475
#
#
# Mechanical properties :
#
#
# Convention : Reuss Voigt Hill
#
# Bulk Modulus (GPa) = 82.20784 91.67464 86.94124
# Shear Modulus (GPa) = 26.23198 33.75351 29.99275
#
# Velocity S-wave (km/s) = 3.55248 4.02972 3.79860
# Velocity P-wave (km/s) = 7.50843 8.10899 7.81449
#
# Compressibility (1/GPa) = 0.01216429
#
# Stress axis : x y z
#
# Youngs Moduli (GPa) = 71.09083 96.65265 57.39618
#
# Poissons Ratio (x) = 0.37442 0.44449
# Poissons Ratio (y) = 0.27540 0.18467
# Poissons Ratio (z) = 0.55055 0.31098
#
# Static dielectric constant tensor:
#      x y z
#    x 3.929500 0.000000 0.473800 
#    y 0.000000 4.246250 0.000000 
#    z 0.473800 0.000000 2.821190 
# 
# 
# High freq. dielectric constant tensor:
#      x y z
#    x 1.817740 0.000000 0.008500 
#    y 0.000000 1.834330 0.000000 
#    z 0.008500 0.000000 1.797680 
# 
# From -- ./inp_files/55354.got.cif
#   From: 2010.06.25/outbox.cif.g09.slc.cpg/sg11_28_cif.got.tgz:55354.got - 2010.06.27 23:14:04.
