data_PCOD8074527
_publ_section_title
;
Structure prediction by ZEFSAII (Michael W. Deem and Ramdas Pophale) SiO2 
 PCOD8074527
Probable space group: P 21/M
;
_chemical_formula_sum "Si O2"
_cell_formula_units_Z 32
_cell_length_a 7.167811
_cell_length_b 13.582871
_cell_length_c 17.372227
_cell_angle_alpha 90.000000
_cell_angle_beta 101.141154
_cell_angle_gamma 90.000000
_cell_volume 1659.475528
_symmetry_space_group_name_H-M "P 21/M"
_symmetry_group_IT_number 11
_symmetry_cell_setting 'monoclinic'
loop_
_space_group_symop_operation_xyz
x,y,z
-x,1/2+y,-z
-x,-y,-z
x,1/2-y,z
loop_
_atom_site_type_symbol
_atom_site_label
_atom_site_fract_x
_atom_site_fract_y
_atom_site_fract_z
Si Si1 0.098347 0.449757 0.395022
Si Si2 0.758307 0.638862 0.157165
Si Si3 0.735757 0.039923 0.262375
Si Si4 0.503522 0.864108 0.628826
Si Si5 0.171975 0.639621 0.877800
Si Si6 0.941126 0.025184 0.909415
Si Si7 0.148616 0.862488 0.493200
Si Si8 0.628084 0.138596 0.949242
O O1 0.289996 0.398799 0.381224
O O2 0.137202 0.563725 0.420017
O O3 0.942561 0.445967 0.316002
O O4 0.021693 0.388099 0.461651
O O5 0.773003 0.750000 0.189464
O O6 0.718932 0.571149 0.228670
O O7 0.594619 0.626484 0.080065
O O8 0.942921 0.611681 0.123154
O O9 0.566278 0.065140 0.307555
O O10 0.715005 0.117426 0.191102
O O11 0.510080 0.750000 0.655987
O O12 0.355378 0.876421 0.547404
O O13 0.100146 0.750000 0.875744
O O14 0.978332 0.574308 0.863990
O O15 0.315286 0.611752 0.958653
O O16 0.726162 0.064467 0.895539
O O17 0.000000 0.000000 0.000000
O O18 0.121200 0.750000 0.462561
O O19 0.695184 0.250000 0.936888
#
# Coordination Sequence:
#
# PCOD8074527 Si02
#       8
#     4   4   4   4   4   4   4   4
#     4  10  20  36  56  82 113 142 172 212 261 312
#     4  10  21  37  55  75 104 142 180 221 271 321
#     4  10  22  35  51  78 111 142 175 214 259 315
#     4  10  20  36  58  81 107 141 178 214 256 307
#     4   9  18  33  51  73 103 137 175 222 269 311
#     4   9  18  31  52  76  98 127 169 223 273 319
#     4   9  19  36  59  84 108 137 175 217 256 303
#     4   9  18  34  55  76  99 132 178 228 271 312
#
# _framework density 19.283200999999998
#
# number of rings (size 3 to 8) (size 9 to 14) (size 15 to 20)
#    0.000    2.500    0.000    1.500    0.000    9.000 
#    0.000    1.875    0.000    6.000    0.000    0.000 
#    0.000    0.000    0.000    0.000    0.000    0.000 
#
# Total GULP energy -396623.665383 kJ/mol
# GULP energy per Si atom -12394.489543 kJ/mol
# Density = 1.923931 g / cm^3
# Si number density = 19.283201 Si / 1000 Ang^3
#
#
#
# Elastic Constant Matrix: (Units=GPa)
#
#
# Indices 1 2 3 4 5 6 
#
# 1 99.1848 38.1175 33.1025 0.0000 -9.5150 0.0000
# 2 38.1175 116.0605 30.3359 0.0000 -4.8052 0.0000
# 3 33.1025 30.3359 57.0037 0.0000 -9.6373 0.0000
# 4 0.0000 0.0000 0.0000 30.2606 0.0000 -1.5613
# 5 -9.5150 -4.8052 -9.6373 0.0000 18.1292 0.0000
# 6 0.0000 0.0000 0.0000 -1.5613 0.0000 25.1699
#
#
#
# Elastic Compliance Matrix: (Units=1/GPa)
#
#
# Indices 1 2 3 4 5 6 
#
# 1 0.013370 -0.002754 -0.005753 0.000000 0.003229 0.000000
# 2 -0.002754 0.010576 -0.004175 0.000000 -0.000861 0.000000
# 3 -0.005753 -0.004175 0.024620 0.000000 0.008962 0.000000
# 4 0.000000 0.000000 0.000000 0.033152 0.000000 0.002056
# 5 0.003229 -0.000861 0.008962 0.000000 0.061390 0.000000
# 6 0.000000 0.000000 0.000000 0.002056 0.000000 0.039858
#
#
# Mechanical properties :
#
#
# Convention : Reuss Voigt Hill
#
# Bulk Modulus (GPa) = 43.09612 52.81785 47.95698
# Shear Modulus (GPa) = 23.14126 26.09149 24.61637
#
# Velocity S-wave (km/s) = 3.46797 3.68240 3.57679
# Velocity P-wave (km/s) = 6.19946 6.74760 6.47933
#
# Compressibility (1/GPa) = 0.02320395
#
# Stress axis : x y z
#
# Youngs Moduli (GPa) = 74.79303 94.55204 40.61686
#
# Poissons Ratio (x) = 0.26038 0.23366
# Poissons Ratio (y) = 0.20597 0.16957
# Poissons Ratio (z) = 0.43026 0.39474
#
# Static dielectric constant tensor:
#      x y z
#    x 3.570580 0.000000 -0.124510 
#    y 0.000000 3.774060 0.000000 
#    z -0.124510 0.000000 3.471300 
# 
# 
# High freq. dielectric constant tensor:
#      x y z
#    x 1.742260 0.000000 -0.006740 
#    y 0.000000 1.763270 0.000000 
#    z -0.006740 0.000000 1.735760 
# 
# From -- ./inp_files/57070.got.cif
#   From: 2010.06.25/outbox.cif.g09.slc.cpg/sg11_29_cif.got.tgz:57070.got - 2010.06.27 23:14:04.
