data_PCOD8074342
_publ_section_title
;
Structure prediction by ZEFSAII (Michael W. Deem and Ramdas Pophale) SiO2 
 PCOD8074342
Probable space group: P 21/M
;
_chemical_formula_sum "Si O2"
_cell_formula_units_Z 32
_cell_length_a 11.307898
_cell_length_b 15.471382
_cell_length_c 16.592837
_cell_angle_alpha 90.000000
_cell_angle_beta 144.979273
_cell_angle_gamma 90.000000
_cell_volume 1665.893474
_symmetry_space_group_name_H-M "P 21/M"
_symmetry_group_IT_number 11
_symmetry_cell_setting 'monoclinic'
loop_
_space_group_symop_operation_xyz
x,y,z
-x,1/2+y,-z
-x,-y,-z
x,1/2-y,z
loop_
_atom_site_type_symbol
_atom_site_label
_atom_site_fract_x
_atom_site_fract_y
_atom_site_fract_z
Si Si1 0.966876 0.649135 0.145911
Si Si2 0.286196 0.654387 0.017392
Si Si3 0.691363 0.060893 0.124865
Si Si4 0.983449 0.429464 0.652072
Si Si5 0.817782 0.063969 0.878126
Si Si6 0.380511 0.991674 0.649325
Si Si7 0.502484 0.650831 0.844374
Si Si8 0.257853 0.153623 0.681059
O O1 0.984520 0.750000 0.170725
O O2 0.018865 0.603499 0.258437
O O3 0.133239 0.620501 0.172840
O O4 0.740369 0.623547 0.988066
O O5 0.201512 0.750000 0.954837
O O6 0.205319 0.626136 0.058695
O O7 0.533385 0.650080 0.150554
O O8 0.204937 0.593630 0.900374
O O9 0.613110 0.141616 0.134564
O O10 0.865714 0.011276 0.271900
O O11 0.500000 0.000000 0.000000
O O12 0.752654 0.456608 0.499410
O O13 0.067084 0.358321 0.635632
O O14 0.606907 0.013185 0.742630
O O15 0.000000 0.000000 0.000000
O O16 0.397278 0.915830 0.724542
O O17 0.266435 0.077605 0.619508
O O18 0.481954 0.750000 0.802819
O O19 0.236454 0.250000 0.629310
#
# Coordination Sequence:
#
# PCOD8074342 Si02
#       8
#     4   4   4   4   4   4   4   4
#     4  11  23  39  63  92 118 161 215 260 306 361
#     4  10  20  35  58  89 117 151 201 254 297 352
#     4  12  19  35  59  87 124 163 196 242 299 372
#     4  12  23  37  61  89 131 160 198 251 313 365
#     4  11  21  40  65  82 112 158 210 258 308 356
#     4  11  24  42  60  93 125 163 206 251 314 368
#     4  11  22  38  62  93 126 160 205 257 302 363
#     4  10  20  37  62  89 122 165 205 242 301 373
#
# _framework density 19.208911000000001
#
# number of rings (size 3 to 8) (size 9 to 14) (size 15 to 20)
#    0.000    1.000    5.000    3.000    0.000    4.000 
#    0.000    0.625    0.000    1.500    0.000    0.000 
#    0.000    0.000    0.000    0.000    0.000    0.000 
#
# Total GULP energy -396850.747826 kJ/mol
# GULP energy per Si atom -12401.585870 kJ/mol
# Density = 1.916519 g / cm^3
# Si number density = 19.208911 Si / 1000 Ang^3
#
#
#
# Elastic Constant Matrix: (Units=GPa)
#
#
# Indices 1 2 3 4 5 6 
#
# 1 114.8742 42.6312 35.8238 0.0000 4.8260 0.0000
# 2 42.6312 116.9245 50.4277 0.0000 -6.1995 0.0000
# 3 35.8238 50.4277 101.6495 0.0000 0.0731 0.0000
# 4 0.0000 0.0000 0.0000 17.6585 0.0000 0.3575
# 5 4.8260 -6.1995 0.0731 0.0000 21.4226 0.0000
# 6 0.0000 0.0000 0.0000 0.3575 0.0000 30.4702
#
#
#
# Elastic Compliance Matrix: (Units=1/GPa)
#
#
# Indices 1 2 3 4 5 6 
#
# 1 0.010693 -0.003116 -0.002220 0.000000 -0.003303 0.000000
# 2 -0.003116 0.012008 -0.004862 0.000000 0.004194 0.000000
# 3 -0.002220 -0.004862 0.013033 0.000000 -0.000951 0.000000
# 4 0.000000 0.000000 0.000000 0.056643 0.000000 -0.000665
# 5 -0.003303 0.004194 -0.000951 0.000000 0.048641 0.000000
# 6 0.000000 0.000000 0.000000 -0.000665 0.000000 0.032827
#
#
# Mechanical properties :
#
#
# Convention : Reuss Voigt Hill
#
# Bulk Modulus (GPa) = 65.20135 65.69039 65.44587
# Shear Modulus (GPa) = 25.08117 27.54796 26.31457
#
# Velocity S-wave (km/s) = 3.61737 3.79109 3.70525
# Velocity P-wave (km/s) = 7.17385 7.30994 7.24222
#
# Compressibility (1/GPa) = 0.01533711
#
# Stress axis : x y z
#
# Youngs Moduli (GPa) = 93.52121 83.27851 76.72994
#
# Poissons Ratio (x) = 0.25952 0.17034
# Poissons Ratio (y) = 0.29144 0.37305
# Poissons Ratio (z) = 0.20762 0.40488
#
# Static dielectric constant tensor:
#      x y z
#    x -1.111560 0.000000 -1.607330 
#    y 0.000000 3.564970 0.000000 
#    z -1.607330 0.000000 2.747400 
# 
# 
# High freq. dielectric constant tensor:
#      x y z
#    x 1.743140 0.000000 -0.000010 
#    y 0.000000 1.760450 0.000000 
#    z -0.000010 0.000000 1.726670 
# 
# From -- ./inp_files/59536.got.cif
#   From: 2010.06.25/outbox.cif.g09.slc.cpg/sg11_30_cif.got.tgz:59536.got - 2010.06.27 23:14:04.
