data_PCOD8074581
_publ_section_title
;
Structure prediction by ZEFSAII (Michael W. Deem and Ramdas Pophale) SiO2 
 PCOD8074581
Probable space group: P 21/M
;
_chemical_formula_sum "Si O2"
_cell_formula_units_Z 32
_cell_length_a 15.262217
_cell_length_b 14.575564
_cell_length_c 19.643595
_cell_angle_alpha 90.000000
_cell_angle_beta 21.860413
_cell_angle_gamma 90.000000
_cell_volume 1627.089309
_symmetry_space_group_name_H-M "P 21/M"
_symmetry_group_IT_number 11
_symmetry_cell_setting 'monoclinic'
loop_
_space_group_symop_operation_xyz
x,y,z
-x,1/2+y,-z
-x,-y,-z
x,1/2-y,z
loop_
_atom_site_type_symbol
_atom_site_label
_atom_site_fract_x
_atom_site_fract_y
_atom_site_fract_z
Si Si1 0.003248 0.008128 0.295705
Si Si2 0.254273 0.356103 0.903054
Si Si3 0.634321 0.850881 0.696929
Si Si4 0.442793 0.463433 0.889415
Si Si5 0.626887 0.144584 0.527082
Si Si6 0.348081 0.354847 0.469616
Si Si7 0.273388 0.641391 0.697046
Si Si8 0.104449 0.938520 0.366086
O O1 0.805658 0.086403 0.444237
O O2 0.122394 0.995597 0.283200
O O3 0.888760 0.913693 0.351207
O O4 0.193856 0.042494 0.105039
O O5 0.256131 0.250000 0.924707
O O6 0.423031 0.412318 0.831997
O O7 0.364394 0.367102 0.747822
O O8 0.988743 0.395943 0.097170
O O9 0.561260 0.750000 0.777420
O O10 0.517251 0.929947 0.826805
O O11 0.547408 0.862756 0.681892
O O12 0.920979 0.854871 0.489411
O O13 0.633832 0.409796 0.798767
O O14 0.708710 0.250000 0.471768
O O15 0.635841 0.109318 0.442671
O O16 0.284926 0.250000 0.534003
O O17 0.545492 0.397216 0.377453
O O18 0.270920 0.750000 0.704803
O O19 0.000000 0.000000 0.500000
#
# Coordination Sequence:
#
# PCOD8074581 Si02
#       8
#     4   4   4   4   4   4   4   4
#     4  11  21  36  56  83 113 146 183 229 282 336
#     4  10  20  36  58  83 113 147 188 234 285 333
#     4   9  19  37  57  79 110 147 188 231 273 331
#     4  11  21  36  56  84 114 147 182 233 278 337
#     4  10  20  36  57  81 113 147 184 235 284 332
#     4   9  19  37  58  78 109 150 188 230 278 327
#     4   9  18  36  57  81 111 146 190 237 280 327
#     4   9  19  36  57  77 105 141 184 225 277 328
#
# _framework density 19.667020999999998
#
# number of rings (size 3 to 8) (size 9 to 14) (size 15 to 20)
#    0.000    2.250    1.250    2.625    0.000    1.500 
#    2.250    5.000    0.000    4.500    0.000    0.000 
#    0.000    0.000    0.000    0.000    0.000    0.000 
#
# Total GULP energy -396712.180718 kJ/mol
# GULP energy per Si atom -12397.255647 kJ/mol
# Density = 1.962226 g / cm^3
# Si number density = 19.667021 Si / 1000 Ang^3
#
#
#
# Elastic Constant Matrix: (Units=GPa)
#
#
# Indices 1 2 3 4 5 6 
#
# 1 112.2684 21.1338 54.4190 0.0000 -14.4217 0.0000
# 2 21.1338 59.3538 20.7886 0.0000 -2.1610 0.0000
# 3 54.4190 20.7886 111.3373 0.0000 2.6413 0.0000
# 4 0.0000 0.0000 0.0000 22.2030 0.0000 1.8748
# 5 -14.4217 -2.1610 2.6413 0.0000 35.5650 0.0000
# 6 0.0000 0.0000 0.0000 1.8748 0.0000 22.3890
#
#
#
# Elastic Compliance Matrix: (Units=1/GPa)
#
#
# Indices 1 2 3 4 5 6 
#
# 1 0.012991 -0.002303 -0.006052 0.000000 0.005577 0.000000
# 2 -0.002303 0.018500 -0.002337 0.000000 0.000364 0.000000
# 3 -0.006052 -0.002337 0.012460 0.000000 -0.003521 0.000000
# 4 0.000000 0.000000 0.000000 0.045360 0.000000 -0.003798
# 5 0.005577 0.000364 -0.003521 0.000000 0.030663 0.000000
# 6 0.000000 0.000000 0.000000 -0.003798 0.000000 0.044983
#
#
# Mechanical properties :
#
#
# Convention : Reuss Voigt Hill
#
# Bulk Modulus (GPa) = 44.31389 52.84916 48.58152
# Shear Modulus (GPa) = 25.79157 28.47259 27.13208
#
# Velocity S-wave (km/s) = 3.62527 3.80904 3.71829
# Velocity P-wave (km/s) = 6.33281 6.80260 6.57190
#
# Compressibility (1/GPa) = 0.02256629
#
# Stress axis : x y z
#
# Youngs Moduli (GPa) = 76.97860 54.05417 80.25894
#
# Poissons Ratio (x) = 0.12448 0.48571
# Poissons Ratio (y) = 0.17727 0.18759
# Poissons Ratio (z) = 0.46586 0.12634
#
# Static dielectric constant tensor:
#      x y z
#    x 4.049370 0.000000 -0.412940 
#    y 0.000000 3.477570 0.000000 
#    z -0.412940 0.000000 3.811220 
# 
# 
# High freq. dielectric constant tensor:
#      x y z
#    x 1.770050 0.000000 -0.002430 
#    y 0.000000 1.752060 0.000000 
#    z -0.002430 0.000000 1.760240 
# 
# From -- ./inp_files/65743.got.cif
#   From: 2010.06.25/outbox.cif.g09.slc.cpg/sg11_33_cif.got.tgz:65743.got - 2010.06.27 23:14:04.
