data_PCOD8074295
_publ_section_title
;
Structure prediction by ZEFSAII (Michael W. Deem and Ramdas Pophale) SiO2 
 PCOD8074295
Probable space group: P 21/M
;
_chemical_formula_sum "Si O2"
_cell_formula_units_Z 24
_cell_length_a 11.164266
_cell_length_b 19.259724
_cell_length_c 8.995282
_cell_angle_alpha 90.000000
_cell_angle_beta 138.892696
_cell_angle_gamma 90.000000
_cell_volume 1271.662369
_symmetry_space_group_name_H-M "P 21/M"
_symmetry_group_IT_number 11
_symmetry_cell_setting 'monoclinic'
loop_
_space_group_symop_operation_xyz
x,y,z
-x,1/2+y,-z
-x,-y,-z
x,1/2-y,z
loop_
_atom_site_type_symbol
_atom_site_label
_atom_site_fract_x
_atom_site_fract_y
_atom_site_fract_z
Si Si1 0.520777 0.531198 0.683829
Si Si2 0.405037 0.827528 0.467488
Si Si3 0.739662 0.827879 0.591085
Si Si4 0.121975 0.047348 0.815590
Si Si5 0.010329 0.329223 0.901535
Si Si6 0.786784 0.953032 0.436092
O O1 0.500000 0.500000 0.500000
O O2 0.468631 0.613013 0.641772
O O3 0.394126 0.492040 0.682027
O O4 0.728569 0.520799 0.927570
O O5 0.436396 0.750000 0.566789
O O6 0.524902 0.834199 0.429346
O O7 0.194501 0.838080 0.228103
O O8 0.794758 0.750000 0.598170
O O9 0.788576 0.874938 0.497818
O O10 0.852348 0.852579 0.840778
O O11 0.041698 0.122054 0.788195
O O12 0.213839 0.052953 0.741027
O O13 0.961657 0.991600 0.665510
O O14 0.048266 0.250000 0.887709
#
# Coordination Sequence:
#
# PCOD8074295 Si02
#       6
#     4   4   4   4   4   4
#     4  12  22  37  62  86 110 152 195 239 285 328
#     4  10  20  35  58  86 112 139 188 241 281 329
#     4  10  21  38  60  85 110 145 191 237 283 335
#     4  11  24  38  56  84 120 154 189 231 284 347
#     4  10  20  36  60  85 111 146 190 236 280 334
#     4  11  24  39  55  84 120 153 187 234 285 345
#
# _framework density 18.872933
#
# number of rings (size 3 to 8) (size 9 to 14) (size 15 to 20)
#    0.000    1.333    5.000    0.500    2.333    2.000 
#    0.000    0.000    0.000    0.000    0.000    0.000 
#    0.000    0.000    0.000    0.000    0.000    0.000 
#
# Total GULP energy -297635.883037 kJ/mol
# GULP energy per Si atom -12401.495127 kJ/mol
# Density = 1.882998 g / cm^3
# Si number density = 18.872933 Si / 1000 Ang^3
#
#
#
# Elastic Constant Matrix: (Units=GPa)
#
#
# Indices 1 2 3 4 5 6 
#
# 1 94.9788 43.6547 43.0583 0.0000 8.6769 0.0000
# 2 43.6547 113.8947 38.0781 0.0000 -7.6283 0.0000
# 3 43.0583 38.0781 100.2765 0.0000 10.3550 0.0000
# 4 0.0000 0.0000 0.0000 23.5524 0.0000 1.2781
# 5 8.6769 -7.6283 10.3550 0.0000 26.8729 0.0000
# 6 0.0000 0.0000 0.0000 1.2781 0.0000 29.0663
#
#
#
# Elastic Compliance Matrix: (Units=1/GPa)
#
#
# Indices 1 2 3 4 5 6 
#
# 1 0.014981 -0.004641 -0.004202 0.000000 -0.004535 0.000000
# 2 -0.004641 0.012047 -0.003218 0.000000 0.006158 0.000000
# 3 -0.004202 -0.003218 0.013490 0.000000 -0.004755 0.000000
# 4 0.000000 0.000000 0.000000 0.042560 0.000000 -0.001871
# 5 -0.004535 0.006158 -0.004755 0.000000 0.042257 0.000000
# 6 0.000000 0.000000 0.000000 -0.001871 0.000000 0.034486
#
#
# Mechanical properties :
#
#
# Convention : Reuss Voigt Hill
#
# Bulk Modulus (GPa) = 60.99005 62.08135 61.53570
# Shear Modulus (GPa) = 26.39796 28.18892 27.29344
#
# Velocity S-wave (km/s) = 3.74400 3.86893 3.80698
# Velocity P-wave (km/s) = 7.14678 7.27488 7.21111
#
# Compressibility (1/GPa) = 0.01639612
#
# Stress axis : x y z
#
# Youngs Moduli (GPa) = 66.75050 83.00740 74.13069
#
# Poissons Ratio (x) = 0.38524 0.31151
# Poissons Ratio (y) = 0.30979 0.23854
# Poissons Ratio (z) = 0.28050 0.26710
#
# Static dielectric constant tensor:
#      x y z
#    x 3.466140 0.000000 0.249240 
#    y 0.000000 3.719980 0.000000 
#    z 0.249240 0.000000 3.381700 
# 
# 
# High freq. dielectric constant tensor:
#      x y z
#    x 1.730440 0.000000 0.028060 
#    y 0.000000 1.750190 0.000000 
#    z 0.028060 0.000000 1.720020 
# 
# From -- ./inp_files/19060.got.cif
#   From: 2010.06.25/outbox.cif.g09.slc.cpg/sg11_10_cif.got.tgz:19060.got - 2010.06.27 23:14:04.
