data_PCOD8074444
_publ_section_title
;
Structure prediction by ZEFSAII (Michael W. Deem and Ramdas Pophale) SiO2 
 PCOD8074444
Probable space group: P 21/M
;
_chemical_formula_sum "Si O2"
_cell_formula_units_Z 28
_cell_length_a 14.430847
_cell_length_b 8.626424
_cell_length_c 14.377621
_cell_angle_alpha 90.000000
_cell_angle_beta 61.009230
_cell_angle_gamma 90.000000
_cell_volume 1565.552680
_symmetry_space_group_name_H-M "P 21/M"
_symmetry_group_IT_number 11
_symmetry_cell_setting 'monoclinic'
loop_
_space_group_symop_operation_xyz
x,y,z
-x,1/2+y,-z
-x,-y,-z
x,1/2-y,z
loop_
_atom_site_type_symbol
_atom_site_label
_atom_site_fract_x
_atom_site_fract_y
_atom_site_fract_z
Si Si1 0.004784 0.432281 0.101875
Si Si2 0.772618 0.567063 0.938235
Si Si3 0.198798 0.075158 0.725221
Si Si4 0.607844 0.566680 0.491189
Si Si5 0.406256 0.433402 0.110593
Si Si6 0.433859 0.933326 0.298981
Si Si7 0.662432 0.924389 0.166778
O O1 0.008162 0.250000 0.087288
O O2 0.107485 0.495665 0.109441
O O3 0.907873 0.475587 0.217248
O O4 0.000000 0.500000 0.000000
O O5 0.777131 0.750000 0.952002
O O6 0.710745 0.526849 0.873673
O O7 0.702448 0.489548 0.054697
O O8 0.170154 0.250000 0.708778
O O9 0.288009 0.003542 0.613759
O O10 0.243394 0.071507 0.807009
O O11 0.500000 0.500000 0.500000
O O12 0.601795 0.750000 0.481871
O O13 0.629168 0.517403 0.587386
O O14 0.423825 0.250000 0.111070
O O15 0.399089 0.512896 0.214151
O O16 0.500000 0.500000 0.000000
O O17 0.417810 0.750000 0.317546
O O18 0.553694 0.996412 0.257650
O O19 0.629805 0.750000 0.155537
#
# Coordination Sequence:
#
# PCOD8074444 Si02
#       7
#     4   4   4   4   4   4   4
#     4  11  21  34  54  80 108 144 184 224 270 325
#     4   9  18  33  52  74 109 147 177 213 272 327
#     4  10  20  36  54  76 111 148 178 219 273 325
#     4  11  22  36  56  82 112 148 185 224 275 331
#     4  11  21  35  55  80 109 146 185 225 274 331
#     4  11  21  36  55  79 112 148 182 226 275 327
#     4   9  15  29  51  75 108 146 173 205 266 327
#
# _framework density 17.885058000000001
#
# number of rings (size 3 to 8) (size 9 to 14) (size 15 to 20)
#    0.000    1.714    4.286    1.714    0.000    1.143 
#    0.000    4.286    0.000    0.857    0.000    0.000 
#    0.000    0.000    0.000    0.000    0.000    0.000 
#
# Total GULP energy -346936.970278 kJ/mol
# GULP energy per Si atom -12390.606081 kJ/mol
# Density = 1.784435 g / cm^3
# Si number density = 17.885058 Si / 1000 Ang^3
#
#
#
# Elastic Constant Matrix: (Units=GPa)
#
#
# Indices 1 2 3 4 5 6 
#
# 1 107.4342 27.3773 47.2738 0.0000 -12.4072 0.0000
# 2 27.3773 51.7521 26.2543 0.0000 -5.3126 0.0000
# 3 47.2738 26.2543 123.0061 0.0000 -6.7600 0.0000
# 4 0.0000 0.0000 0.0000 29.0992 0.0000 0.5536
# 5 -12.4072 -5.3126 -6.7600 0.0000 30.0356 0.0000
# 6 0.0000 0.0000 0.0000 0.5536 0.0000 22.9834
#
#
#
# Elastic Compliance Matrix: (Units=1/GPa)
#
#
# Indices 1 2 3 4 5 6 
#
# 1 0.012437 -0.004362 -0.003654 0.000000 0.003543 0.000000
# 2 -0.004362 0.023439 -0.003238 0.000000 0.001615 0.000000
# 3 -0.003654 -0.003238 0.010237 0.000000 0.000222 0.000000
# 4 0.000000 0.000000 0.000000 0.034381 0.000000 -0.000828
# 5 0.003543 0.001615 0.000222 0.000000 0.035093 0.000000
# 6 0.000000 0.000000 0.000000 -0.000828 0.000000 0.043530
#
#
# Mechanical properties :
#
#
# Convention : Reuss Voigt Hill
#
# Bulk Modulus (GPa) = 42.36238 53.77814 48.07026
# Shear Modulus (GPa) = 26.38646 28.50944 27.44795
#
# Velocity S-wave (km/s) = 3.84518 3.99687 3.92176
# Velocity P-wave (km/s) = 6.59175 7.17175 6.88786
#
# Compressibility (1/GPa) = 0.02360585
#
# Stress axis : x y z
#
# Youngs Moduli (GPa) = 80.40821 42.66478 97.68282
#
# Poissons Ratio (x) = 0.18609 0.35693
# Poissons Ratio (y) = 0.35071 0.31626
# Poissons Ratio (z) = 0.29381 0.13813
#
# Static dielectric constant tensor:
#      x y z
#    x 3.439960 0.000000 -0.116180 
#    y 0.000000 3.174070 0.000000 
#    z -0.116180 0.000000 3.411150 
# 
# 
# High freq. dielectric constant tensor:
#      x y z
#    x 1.684730 0.000000 -0.004090 
#    y 0.000000 1.674820 0.000000 
#    z -0.004090 0.000000 1.689350 
# 
# From -- ./inp_files/51120.got.cif
#   From: 2010.06.25/outbox.cif.g09.slc.cpg/sg11_26_cif.got.tgz:51120.got - 2010.06.27 23:14:04.
