data_PCOD8074418
_publ_section_title
;
Structure prediction by ZEFSAII (Michael W. Deem and Ramdas Pophale) SiO2 
 PCOD8074418
Probable space group: P 21/M
;
_chemical_formula_sum "Si O2"
_cell_formula_units_Z 28
_cell_length_a 9.798750
_cell_length_b 8.640379
_cell_length_c 28.211796
_cell_angle_alpha 90.000000
_cell_angle_beta 37.516242
_cell_angle_gamma 90.000000
_cell_volume 1454.593789
_symmetry_space_group_name_H-M "P 21/M"
_symmetry_group_IT_number 11
_symmetry_cell_setting 'monoclinic'
loop_
_space_group_symop_operation_xyz
x,y,z
-x,1/2+y,-z
-x,-y,-z
x,1/2-y,z
loop_
_atom_site_type_symbol
_atom_site_label
_atom_site_fract_x
_atom_site_fract_y
_atom_site_fract_z
Si Si1 0.001730 0.572587 0.205758
Si Si2 0.658882 0.429742 0.803625
Si Si3 0.735704 0.568683 0.948369
Si Si4 0.025110 0.933464 0.637666
Si Si5 0.218910 0.566532 0.962311
Si Si6 0.648512 0.067230 0.369618
Si Si7 0.862127 0.566478 0.493729
O O1 0.947638 0.750000 0.211116
O O2 0.210347 0.550121 0.183250
O O3 0.062214 0.493653 0.139588
O O4 0.779054 0.496765 0.288298
O O5 0.618092 0.250000 0.802966
O O6 0.427067 0.520674 0.871871
O O7 0.794093 0.509756 0.724097
O O8 0.723630 0.750000 0.945400
O O9 0.500000 0.500000 0.000000
O O10 0.778159 0.523081 0.989771
O O11 0.023918 0.750000 0.632342
O O12 0.233437 0.988999 0.613731
O O13 0.032428 0.010994 0.584419
O O14 0.212059 0.750000 0.971520
O O15 0.000000 0.500000 0.000000
O O16 0.658141 0.250000 0.364922
O O17 0.394649 0.005794 0.435653
O O18 0.871187 0.750000 0.494197
O O19 0.000000 0.500000 0.500000
#
# Coordination Sequence:
#
# PCOD8074418 Si02
#       7
#     4   4   4   4   4   4   4
#     4  10  20  35  60  92 122 153 197 249 301 351
#     4  10  20  37  61  89 122 156 198 247 297 355
#     4  12  23  38  62  90 122 160 204 250 301 357
#     4  10  20  37  63  91 117 151 196 244 298 355
#     4  12  25  42  62  87 122 162 204 251 303 360
#     4   9  20  38  61  88 119 153 195 245 296 353
#     4  11  23  40  60  86 121 158 196 240 296 357
#
# _framework density 19.249359999999999
#
# number of rings (size 3 to 8) (size 9 to 14) (size 15 to 20)
#    0.000    1.429    1.429    4.714    0.000    2.857 
#    2.571    0.000    0.000    0.000    0.000    0.000 
#    0.000    0.000    0.000    0.000    0.000    0.000 
#
# Total GULP energy -347266.235464 kJ/mol
# GULP energy per Si atom -12402.365552 kJ/mol
# Density = 1.920555 g / cm^3
# Si number density = 19.249360 Si / 1000 Ang^3
#
#
#
# Elastic Constant Matrix: (Units=GPa)
#
#
# Indices 1 2 3 4 5 6 
#
# 1 -39.5486 -241.6321 -21.8188 0.0000 15.9040 0.0000
# 2 -241.6321 -428.7217 -137.9261 0.0000 15.0224 0.0000
# 3 -21.8188 -137.9261 88.2130 0.0000 13.1925 0.0000
# 4 0.0000 0.0000 0.0000 39.6089 0.0000 2.5079
# 5 15.9040 15.0224 13.1925 0.0000 25.6247 0.0000
# 6 0.0000 0.0000 0.0000 2.5079 0.0000 30.5621
#
#
#
# Elastic Compliance Matrix: (Units=1/GPa)
#
#
# Indices 1 2 3 4 5 6 
#
# 1 0.013801 -0.006022 -0.005688 0.000000 -0.002107 0.000000
# 2 -0.006022 0.001196 -0.000081 0.000000 0.003078 0.000000
# 3 -0.005688 -0.000081 0.010041 0.000000 -0.001592 0.000000
# 4 0.000000 0.000000 0.000000 0.025379 0.000000 -0.002083
# 5 -0.002107 0.003078 -0.001592 0.000000 0.039348 0.000000
# 6 0.000000 0.000000 0.000000 -0.002083 0.000000 0.032891
#
#
# Mechanical properties :
#
#
# Convention : Reuss Voigt Hill
#
# Bulk Modulus (GPa) = 686.53908 -131.42350 277.55779
# Shear Modulus (GPa) = 34.07785 20.58046 27.32916
#
# Velocity S-wave (km/s) = 4.21210 3.27333 3.77204
# Velocity P-wave (km/s) = 19.52141 7.35773 12.78572
#
# Compressibility (1/GPa) = 0.00145658
#
# Stress axis : x y z
#
# Youngs Moduli (GPa) = 72.45753 836.39192 99.58684
#
# Poissons Ratio (x) = 5.03715 0.56643
# Poissons Ratio (y) = 0.43637 0.00803
# Poissons Ratio (z) = 0.41212 0.06741
#
# Static dielectric constant tensor:
#      x y z
#    x 3.333430 0.000000 0.090460 
#    y 0.000000 3.498290 0.000000 
#    z 0.090460 0.000000 3.584770 
# 
# 
# High freq. dielectric constant tensor:
#      x y z
#    x 1.735430 0.000000 0.003560 
#    y 0.000000 1.763480 0.000000 
#    z 0.003560 0.000000 1.765270 
# 
# From -- ./inp_files/70801.got.cif
#   From: 2010.06.25/outbox.cif.g09.slc.cpg/sg11_36_cif.got.tgz:70801.got - 2010.06.27 23:14:04.
