data_PCOD8074896
_publ_section_title
;
Structure prediction by ZEFSAII (Michael W. Deem and Ramdas Pophale) SiO2 
 PCOD8074896
Probable space group: P 21/M
;
_chemical_formula_sum "Si O2"
_cell_formula_units_Z 32
_cell_length_a 12.002542
_cell_length_b 15.782385
_cell_length_c 18.976678
_cell_angle_alpha 90.000000
_cell_angle_beta 27.478341
_cell_angle_gamma 90.000000
_cell_volume 1658.655290
_symmetry_space_group_name_H-M "P 21/M"
_symmetry_group_IT_number 11
_symmetry_cell_setting 'monoclinic'
loop_
_space_group_symop_operation_xyz
x,y,z
-x,1/2+y,-z
-x,-y,-z
x,1/2-y,z
loop_
_atom_site_type_symbol
_atom_site_label
_atom_site_fract_x
_atom_site_fract_y
_atom_site_fract_z
Si Si1 0.354179 0.654724 0.945436
Si Si2 0.350066 0.066172 0.627545
Si Si3 0.929780 0.495513 0.958760
Si Si4 0.026482 0.847045 0.256668
Si Si5 0.133449 0.096520 0.368633
Si Si6 0.346605 0.847789 0.426199
Si Si7 0.615041 0.654756 0.133119
Si Si8 0.141888 0.905355 0.341530
O O1 0.268421 0.750000 0.971832
O O2 0.644115 0.653143 0.782398
O O3 0.245562 0.585826 0.952488
O O4 0.261351 0.634922 0.076573
O O5 0.211783 0.128828 0.652649
O O6 0.534587 0.122199 0.568574
O O7 0.500000 0.000000 0.500000
O O8 0.167888 0.014469 0.778906
O O9 0.808222 0.583827 0.002157
O O10 0.000000 0.500000 0.000000
O O11 0.008781 0.750000 0.289698
O O12 0.040252 0.902416 0.319672
O O13 0.905457 0.104078 0.444510
O O14 0.060307 0.125877 0.488906
O O15 0.220580 0.999772 0.318898
O O16 0.281819 0.750000 0.467508
O O17 0.533643 0.866041 0.258362
O O18 0.725475 0.750000 0.065557
O O19 0.381843 0.651677 0.212913
#
# Coordination Sequence:
#
# PCOD8074896 Si02
#       8
#     4   4   4   4   4   4   4   4
#     4  10  22  39  59  89 122 157 202 247 298 356
#     4  11  23  40  59  85 119 159 200 239 301 364
#     4  11  22  40  63  85 118 155 203 252 299 350
#     4  10  22  39  59  85 119 161 199 240 296 363
#     4  10  20  36  62  93 119 150 201 250 300 346
#     4  10  20  36  61  87 117 159 200 243 295 357
#     4  10  20  37  61  90 117 154 203 249 299 354
#     4  10  20  36  61  87 122 158 193 243 299 359
#
# _framework density 19.292738
#
# number of rings (size 3 to 8) (size 9 to 14) (size 15 to 20)
#    0.000    1.750    2.500    1.875    0.000    4.000 
#    2.250    1.250    0.000    0.000    0.000    0.000 
#    0.000    0.000    0.000    0.000    0.000    0.000 
#
# Total GULP energy -396882.340191 kJ/mol
# GULP energy per Si atom -12402.573131 kJ/mol
# Density = 1.924883 g / cm^3
# Si number density = 19.292738 Si / 1000 Ang^3
#
#
#
# Elastic Constant Matrix: (Units=GPa)
#
#
# Indices 1 2 3 4 5 6 
#
# 1 127.7826 28.1017 41.8020 0.0000 10.1399 0.0000
# 2 28.1017 95.0012 33.7081 0.0000 -3.0287 0.0000
# 3 41.8020 33.7081 96.9217 0.0000 -5.3727 0.0000
# 4 0.0000 0.0000 0.0000 23.7474 0.0000 -0.3381
# 5 10.1399 -3.0287 -5.3727 0.0000 19.6920 0.0000
# 6 0.0000 0.0000 0.0000 -0.3381 0.0000 29.6132
#
#
#
# Elastic Compliance Matrix: (Units=1/GPa)
#
#
# Indices 1 2 3 4 5 6 
#
# 1 0.010071 -0.001732 -0.004106 0.000000 -0.006573 0.000000
# 2 -0.001732 0.012316 -0.003434 0.000000 0.001849 0.000000
# 3 -0.004106 -0.003434 0.013576 0.000000 0.005290 0.000000
# 4 0.000000 0.000000 0.000000 0.042117 0.000000 0.000481
# 5 -0.006573 0.001849 0.005290 0.000000 0.055894 0.000000
# 6 0.000000 0.000000 0.000000 0.000481 0.000000 0.033774
#
#
# Mechanical properties :
#
#
# Convention : Reuss Voigt Hill
#
# Bulk Modulus (GPa) = 57.40484 58.54768 57.97626
# Shear Modulus (GPa) = 26.02843 29.01678 27.52260
#
# Velocity S-wave (km/s) = 3.67704 3.88238 3.78110
# Velocity P-wave (km/s) = 6.91713 7.10705 7.01273
#
# Compressibility (1/GPa) = 0.01742013
#
# Stress axis : x y z
#
# Youngs Moduli (GPa) = 99.29164 81.19645 73.65995
#
# Poissons Ratio (x) = 0.14062 0.30243
# Poissons Ratio (y) = 0.17196 0.25294
# Poissons Ratio (z) = 0.40767 0.27881
#
# Static dielectric constant tensor:
#      x y z
#    x 5.788900 0.000000 -0.513710 
#    y 0.000000 3.632080 0.000000 
#    z -0.513710 0.000000 3.682620 
# 
# 
# High freq. dielectric constant tensor:
#      x y z
#    x 1.747420 0.000000 -0.004640 
#    y 0.000000 1.760330 0.000000 
#    z -0.004640 0.000000 1.741600 
# 
# From -- ./inp_files/41640.got.cif
#   From: 2010.06.25/outbox.cif.g09.slc.cpg/sg11_21_cif.got.tgz:41640.got - 2010.06.27 23:14:04.
