data_PCOD8074161
_publ_section_title
;
Structure prediction by ZEFSAII (Michael W. Deem and Ramdas Pophale) SiO2 
 PCOD8074161
Probable space group: P 21/M
;
_chemical_formula_sum "Si O2"
_cell_formula_units_Z 20
_cell_length_a 7.702469
_cell_length_b 20.155560
_cell_length_c 6.903947
_cell_angle_alpha 90.000000
_cell_angle_beta 109.479998
_cell_angle_gamma 90.000000
_cell_volume 1010.467821
_symmetry_space_group_name_H-M "P 21/M"
_symmetry_group_IT_number 11
_symmetry_cell_setting 'monoclinic'
loop_
_space_group_symop_operation_xyz
x,y,z
-x,1/2+y,-z
-x,-y,-z
x,1/2-y,z
loop_
_atom_site_type_symbol
_atom_site_label
_atom_site_fract_x
_atom_site_fract_y
_atom_site_fract_z
Si Si1 0.375479 0.822545 0.983748
Si Si2 0.860686 0.927958 0.130558
Si Si3 0.249350 0.944569 0.129443
Si Si4 0.322046 0.326226 0.200553
Si Si5 0.387159 0.387118 0.634794
O O1 0.279519 0.750000 0.961265
O O2 0.471435 0.831338 0.810135
O O3 0.231657 0.882149 0.971064
O O4 0.538192 0.825807 0.207038
O O5 0.824323 0.861612 0.993589
O O6 0.749137 0.987768 0.989542
O O7 0.787348 0.920723 0.322278
O O8 0.078897 0.942415 0.215716
O O9 0.442024 0.939699 0.318980
O O10 0.261430 0.250000 0.202963
O O11 0.318277 0.363120 0.403469
#
# Coordination Sequence:
#
# PCOD8074161 Si02
#       5
#     4   4   4   4   4
#     4   8  17  34  54  75 106 142 177 220 267 318
#     4  10  20  39  54  83 111 142 181 227 267 321
#     4   9  20  37  58  79 112 143 182 221 271 325
#     4  10  20  35  57  81 109 143 183 225 271 322
#     4   9  19  35  58  75 108 141 178 221 269 318
#
# _framework density 19.792812999999999
#
# number of rings (size 3 to 8) (size 9 to 14) (size 15 to 20)
#    1.200    1.600    0.000    1.200    0.000    2.400 
#    3.600    2.000    0.000    0.000    0.000    0.000 
#    0.000    0.000    0.000    0.000    0.000    0.000 
#
# Total GULP energy -247796.489280 kJ/mol
# GULP energy per Si atom -12389.824464 kJ/mol
# Density = 1.974776 g / cm^3
# Si number density = 19.792813 Si / 1000 Ang^3
#
#
#
# Elastic Constant Matrix: (Units=GPa)
#
#
# Indices 1 2 3 4 5 6 
#
# 1 71.8521 6.1347 17.7115 0.0000 -18.0727 0.0000
# 2 6.1347 65.9339 -3.9659 0.0000 -7.0413 0.0000
# 3 17.7115 -3.9659 58.3530 0.0000 -10.3386 0.0000
# 4 0.0000 0.0000 0.0000 20.6611 0.0000 -9.3867
# 5 -18.0727 -7.0413 -10.3386 0.0000 13.8022 0.0000
# 6 0.0000 0.0000 0.0000 -9.3867 0.0000 19.3424
#
#
#
# Elastic Compliance Matrix: (Units=1/GPa)
#
#
# Indices 1 2 3 4 5 6 
#
# 1 0.020941 0.000802 -0.001581 0.000000 0.026645 0.000000
# 2 0.000802 0.016518 0.002950 0.000000 0.011686 0.000000
# 3 -0.001581 0.002950 0.020428 0.000000 0.014737 0.000000
# 4 0.000000 0.000000 0.000000 0.062089 0.000000 0.030131
# 5 0.026645 0.011686 0.014737 0.000000 0.124342 0.000000
# 6 0.000000 0.000000 0.000000 0.030131 0.000000 0.066322
#
#
# Mechanical properties :
#
#
# Convention : Reuss Voigt Hill
#
# Bulk Modulus (GPa) = 16.06980 26.21107 21.14043
# Shear Modulus (GPa) = 15.28861 22.51172 18.90017
#
# Velocity S-wave (km/s) = 2.78228 3.37615 3.09350
# Velocity P-wave (km/s) = 4.29629 5.33566 4.84393
#
# Compressibility (1/GPa) = 0.06222854
#
# Stress axis : x y z
#
# Youngs Moduli (GPa) = 47.75424 60.54176 48.95164
#
# Poissons Ratio (x) = -0.04856 0.07738
# Poissons Ratio (y) = -0.03830 -0.14439
# Poissons Ratio (z) = 0.07548 -0.17858
#
# Static dielectric constant tensor:
#      x y z
#    x 3.388310 0.000000 -0.298600 
#    y 0.000000 3.671540 0.000000 
#    z -0.298600 0.000000 3.169580 
# 
# 
# High freq. dielectric constant tensor:
#      x y z
#    x 1.757490 0.000000 -0.027880 
#    y 0.000000 1.779520 0.000000 
#    z -0.027880 0.000000 1.739230 
# 
# From -- ./inp_files/2184.got.cif
#   From: 2010.06.25/outbox.cif.g09.slc.cpg/sg11_2_cif.got.tgz:2184.got - 2010.06.27 23:14:04.
