data_PCOD8074508
_publ_section_title
;
Structure prediction by ZEFSAII (Michael W. Deem and Ramdas Pophale) SiO2 
 PCOD8074508
Probable space group: P 21/M
;
_chemical_formula_sum "Si O2"
_cell_formula_units_Z 32
_cell_length_a 16.069012
_cell_length_b 9.331640
_cell_length_c 24.560264
_cell_angle_alpha 90.000000
_cell_angle_beta 152.889753
_cell_angle_gamma 90.000000
_cell_volume 1678.275005
_symmetry_space_group_name_H-M "P 21/M"
_symmetry_group_IT_number 11
_symmetry_cell_setting 'monoclinic'
loop_
_space_group_symop_operation_xyz
x,y,z
-x,1/2+y,-z
-x,-y,-z
x,1/2-y,z
loop_
_atom_site_type_symbol
_atom_site_label
_atom_site_fract_x
_atom_site_fract_y
_atom_site_fract_z
Si Si1 0.544276 0.418612 0.080663
Si Si2 0.959944 0.413672 0.325266
Si Si3 0.726608 0.582329 0.984646
Si Si4 0.786516 0.416524 0.600114
Si Si5 0.496866 0.084379 0.249530
Si Si6 0.139064 0.082637 0.543414
Si Si7 0.580740 0.916851 0.671503
Si Si8 0.135213 0.582282 0.232061
O O1 0.514749 0.250000 0.054306
O O2 0.752007 0.453380 0.218696
O O3 0.414503 0.480762 0.052936
O O4 0.500000 0.500000 0.000000
O O5 0.974650 0.250000 0.315229
O O6 0.033463 0.507462 0.318220
O O7 0.085039 0.445488 0.449882
O O8 0.733800 0.750000 0.999049
O O9 0.662431 0.547283 0.886016
O O10 0.929273 0.519366 0.111388
O O11 0.812806 0.250000 0.603267
O O12 0.604144 0.474869 0.464603
O O13 0.772653 0.448707 0.656040
O O14 0.560346 0.250000 0.281063
O O15 0.423236 0.052263 0.266705
O O16 0.662447 0.981449 0.330984
O O17 0.136911 0.250000 0.557009
O O18 0.000000 0.000000 0.500000
O O19 0.606220 0.750000 0.673178
O O20 0.752396 0.001785 0.748624
O O21 0.136470 0.750000 0.218819
#
# Coordination Sequence:
#
# PCOD8074508 Si02
#       8
#     4   4   4   4   4   4   4   4
#     4  10  20  36  56  80 111 147 186 225 270 327
#     4  10  21  35  55  83 112 144 182 226 277 330
#     4   9  19  37  58  79 109 151 190 225 275 335
#     4  10  20  36  57  83 113 145 184 230 283 336
#     4  10  20  38  60  80 111 149 185 229 281 334
#     4  11  22  36  56  83 112 145 185 226 274 329
#     4  10  21  36  56  83 112 145 184 233 291 333
#     4  10  21  36  57  82 109 148 193 232 275 335
#
# _framework density 19.067197
#
# number of rings (size 3 to 8) (size 9 to 14) (size 15 to 20)
#    0.000    2.000    1.250    2.250    0.000    6.000 
#    0.000    3.125    0.000    0.000    0.000    0.000 
#    0.000    0.000    0.000    0.000    0.000    0.000 
#
# Total GULP energy -396902.595287 kJ/mol
# GULP energy per Si atom -12403.206103 kJ/mol
# Density = 1.902380 g / cm^3
# Si number density = 19.067197 Si / 1000 Ang^3
#
#
#
# Elastic Constant Matrix: (Units=GPa)
#
#
# Indices 1 2 3 4 5 6 
#
# 1 135.8671 48.9450 59.9063 0.0000 11.1638 0.0000
# 2 48.9450 53.4131 28.6708 0.0000 6.1088 0.0000
# 3 59.9063 28.6708 118.8602 0.0000 3.0584 0.0000
# 4 0.0000 0.0000 0.0000 25.9664 0.0000 6.3474
# 5 11.1638 6.1088 3.0584 0.0000 36.0367 0.0000
# 6 0.0000 0.0000 0.0000 6.3474 0.0000 36.3930
#
#
#
# Elastic Compliance Matrix: (Units=1/GPa)
#
#
# Indices 1 2 3 4 5 6 
#
# 1 0.012629 -0.009136 -0.004109 0.000000 -0.002015 0.000000
# 2 -0.009136 0.028494 -0.002222 0.000000 -0.001811 0.000000
# 3 -0.004109 -0.002222 0.011002 0.000000 0.000716 0.000000
# 4 0.000000 0.000000 0.000000 0.040226 0.000000 -0.007016
# 5 -0.002015 -0.001811 0.000716 0.000000 0.028620 0.000000
# 6 0.000000 0.000000 0.000000 -0.007016 0.000000 0.028701
#
#
# Mechanical properties :
#
#
# Convention : Reuss Voigt Hill
#
# Bulk Modulus (GPa) = 47.19275 64.79830 55.99552
# Shear Modulus (GPa) = 26.64251 31.05377 28.84814
#
# Velocity S-wave (km/s) = 3.74210 4.04003 3.89391
# Velocity P-wave (km/s) = 6.59360 7.47131 7.04613
#
# Compressibility (1/GPa) = 0.02118970
#
# Stress axis : x y z
#
# Youngs Moduli (GPa) = 79.18410 35.09556 90.89331
#
# Poissons Ratio (x) = 0.32064 0.37352
# Poissons Ratio (y) = 0.72344 0.20195
# Poissons Ratio (z) = 0.32540 0.07798
#
# Static dielectric constant tensor:
#      x y z
#    x 3.473030 0.000000 0.146360 
#    y 0.000000 3.538840 0.000000 
#    z 0.146360 0.000000 3.464270 
# 
# 
# High freq. dielectric constant tensor:
#      x y z
#    x 1.749360 0.000000 -0.001070 
#    y 0.000000 1.721420 0.000000 
#    z -0.001070 0.000000 1.749800 
# 
# From -- ./inp_files/55674.got.cif
#   From: 2010.06.25/outbox.cif.g09.slc.cpg/sg11_28_cif.got.tgz:55674.got - 2010.06.27 23:14:04.
