data_PCOD8074782
_publ_section_title
;
Structure prediction by ZEFSAII (Michael W. Deem and Ramdas Pophale) SiO2 
 PCOD8074782
Probable space group: P 21/M
;
_chemical_formula_sum "Si O2"
_cell_formula_units_Z 32
_cell_length_a 12.652493
_cell_length_b 8.997018
_cell_length_c 13.776424
_cell_angle_alpha 90.000000
_cell_angle_beta 87.673402
_cell_angle_gamma 90.000000
_cell_volume 1566.942430
_symmetry_space_group_name_H-M "P 21/M"
_symmetry_group_IT_number 11
_symmetry_cell_setting 'monoclinic'
loop_
_space_group_symop_operation_xyz
x,y,z
-x,1/2+y,-z
-x,-y,-z
x,1/2-y,z
loop_
_atom_site_type_symbol
_atom_site_label
_atom_site_fract_x
_atom_site_fract_y
_atom_site_fract_z
Si Si1 0.647674 0.923934 0.832399
Si Si2 0.974530 0.923082 0.644302
Si Si3 0.149994 0.587298 0.210114
Si Si4 0.894431 0.089584 0.008906
Si Si5 0.832372 0.076789 0.494088
Si Si6 0.305807 0.077452 0.949863
Si Si7 0.403652 0.926587 0.563250
Si Si8 0.553135 0.925201 0.237562
O O1 0.625794 0.750000 0.817923
O O2 0.756206 0.969633 0.775603
O O3 0.564866 0.022154 0.776952
O O4 0.645722 0.966496 0.947059
O O5 0.959263 0.750000 0.663065
O O6 0.092056 0.958808 0.601083
O O7 0.958220 0.013515 0.745025
O O8 0.878506 0.979655 0.579714
O O9 0.170697 0.750000 0.258060
O O10 0.143697 0.614202 0.097607
O O11 0.913394 0.250000 0.058329
O O12 0.803725 0.004168 0.070699
O O13 0.000000 0.000000 0.000000
O O14 0.842188 0.250000 0.520213
O O15 0.710483 0.032676 0.479017
O O16 0.279473 0.250000 0.950086
O O17 0.384217 0.030000 0.861799
O O18 0.420814 0.750000 0.564417
O O19 0.500000 0.000000 0.500000
O O20 0.399691 0.989095 0.672240
O O21 0.555968 0.750000 0.258219
#
# Coordination Sequence:
#
# PCOD8074782 Si02
#       8
#     4   4   4   4   4   4   4   4
#     4  10  20  36  59  87 118 154 198 245 288 345
#     4  10  20  36  62  91 115 147 192 242 297 353
#     4  10  21  36  55  83 117 152 191 235 290 349
#     4  10  21  36  56  82 115 155 193 236 289 345
#     4   9  21  41  61  83 115 151 192 245 298 350
#     4   9  20  38  59  85 118 153 195 243 291 348
#     4  11  25  44  63  86 119 159 204 250 300 358
#     4  11  23  39  60  87 118 156 195 240 299 356
#
# _framework density 20.421938999999998
#
# number of rings (size 3 to 8) (size 9 to 14) (size 15 to 20)
#    0.000    2.000    0.000    2.625    1.750    5.500 
#    0.000    2.500    0.000    0.000    0.000    0.000 
#    0.000    0.000    0.000    0.000    0.000    0.000 
#
# Total GULP energy -396691.223652 kJ/mol
# GULP energy per Si atom -12396.600739 kJ/mol
# Density = 2.037546 g / cm^3
# Si number density = 20.421939 Si / 1000 Ang^3
#
#
#
# Elastic Constant Matrix: (Units=GPa)
#
#
# Indices 1 2 3 4 5 6 
#
# 1 118.5365 40.6434 17.2603 0.0000 -4.5124 0.0000
# 2 40.6434 89.1431 25.0672 0.0000 -5.0152 0.0000
# 3 17.2603 25.0672 48.1772 0.0000 -14.4148 0.0000
# 4 0.0000 0.0000 0.0000 32.6583 0.0000 -1.5061
# 5 -4.5124 -5.0152 -14.4148 0.0000 28.6586 0.0000
# 6 0.0000 0.0000 0.0000 -1.5061 0.0000 36.1161
#
#
#
# Elastic Compliance Matrix: (Units=1/GPa)
#
#
# Indices 1 2 3 4 5 6 
#
# 1 0.010083 -0.004201 -0.001379 0.000000 0.000159 0.000000
# 2 -0.004201 0.014934 -0.006688 0.000000 -0.001412 0.000000
# 3 -0.001379 -0.006688 0.028623 0.000000 0.013009 0.000000
# 4 0.000000 0.000000 0.000000 0.030679 0.000000 0.001279
# 5 0.000159 -0.001412 0.013009 0.000000 0.041215 0.000000
# 6 0.000000 0.000000 0.000000 0.001279 0.000000 0.027742
#
#
# Mechanical properties :
#
#
# Convention : Reuss Voigt Hill
#
# Bulk Modulus (GPa) = 34.35849 46.86652 40.61250
# Shear Modulus (GPa) = 26.66458 31.01233 28.83845
#
# Velocity S-wave (km/s) = 3.61734 3.90112 3.76191
# Velocity P-wave (km/s) = 5.85728 6.57956 6.22890
#
# Compressibility (1/GPa) = 0.02910489
#
# Stress axis : x y z
#
# Youngs Moduli (GPa) = 99.17299 66.95974 34.93660
#
# Poissons Ratio (x) = 0.28127 0.04819
# Poissons Ratio (y) = 0.41658 0.23366
# Poissons Ratio (z) = 0.13681 0.44783
#
# Static dielectric constant tensor:
#      x y z
#    x 3.314830 0.000000 -0.494040 
#    y 0.000000 3.972990 0.000000 
#    z -0.494040 0.000000 3.552720 
# 
# 
# High freq. dielectric constant tensor:
#      x y z
#    x 1.799390 0.000000 -0.014370 
#    y 0.000000 1.810150 0.000000 
#    z -0.014370 0.000000 1.792090 
# 
# From -- ./inp_files/49397.got.cif
#   From: 2010.06.25/outbox.cif.g09.slc.cpg/sg11_25_cif.got.tgz:49397.got - 2010.06.27 23:14:04.
