data_PCOD8074701
_publ_section_title
;
Structure prediction by ZEFSAII (Michael W. Deem and Ramdas Pophale) SiO2 
 PCOD8074701
Probable space group: P 21/M
;
_chemical_formula_sum "Si O2"
_cell_formula_units_Z 28
_cell_length_a 15.715855
_cell_length_b 8.800088
_cell_length_c 15.373710
_cell_angle_alpha 90.000000
_cell_angle_beta 38.075726
_cell_angle_gamma 90.000000
_cell_volume 1311.231487
_symmetry_space_group_name_H-M "P 21/M"
_symmetry_group_IT_number 11
_symmetry_cell_setting 'monoclinic'
loop_
_space_group_symop_operation_xyz
x,y,z
-x,1/2+y,-z
-x,-y,-z
x,1/2-y,z
loop_
_atom_site_type_symbol
_atom_site_label
_atom_site_fract_x
_atom_site_fract_y
_atom_site_fract_z
Si Si1 0.575683 0.069295 0.522925
Si Si2 0.100811 0.571669 0.490738
Si Si3 0.363322 0.931099 0.818409
Si Si4 0.919290 0.569325 0.986210
Si Si5 0.317188 0.082261 0.214061
Si Si6 0.360891 0.918918 0.014319
Si Si7 0.880680 0.429503 0.328069
O O1 0.568884 0.250000 0.520362
O O2 0.733997 0.011415 0.406921
O O3 0.500000 0.000000 0.500000
O O4 0.496680 0.012181 0.671901
O O5 0.078901 0.750000 0.507382
O O6 0.255624 0.528818 0.336618
O O7 0.084659 0.507464 0.602603
O O8 0.000000 0.500000 0.500000
O O9 0.380171 0.750000 0.796876
O O10 0.345919 0.987905 0.931045
O O11 0.227222 0.990023 0.881330
O O12 0.906054 0.750000 0.003949
O O13 0.994977 0.520398 0.835547
O O14 0.000000 0.500000 0.000000
O O15 0.252399 0.250000 0.276691
O O16 0.479314 0.086967 0.091546
O O17 0.277714 0.023112 0.149180
O O18 0.297580 0.750000 0.070139
O O19 0.868308 0.250000 0.343797
#
# Coordination Sequence:
#
# PCOD8074701 Si02
#       7
#     4   4   4   4   4   4   4
#     4  11  22  40  66  95 124 162 205 257 320 382
#     4  11  23  40  60  86 120 162 208 257 305 367
#     4  11  23  39  60  90 125 159 203 255 304 368
#     4  11  23  42  65  92 124 164 207 257 316 377
#     4  10  20  36  58  85 118 156 198 248 303 359
#     4   9  20  37  58  85 118 156 199 249 300 355
#     4   9  22  42  64  89 125 165 208 256 313 376
#
# _framework density 21.353971999999999
#
# number of rings (size 3 to 8) (size 9 to 14) (size 15 to 20)
#    0.000    1.714    0.000    3.857    2.000    2.857 
#    0.000    6.429    0.000    0.000    0.000    0.000 
#    0.000    0.000    0.000    0.000    0.000    0.000 
#
# Total GULP energy -347128.466091 kJ/mol
# GULP energy per Si atom -12397.445218 kJ/mol
# Density = 2.130537 g / cm^3
# Si number density = 21.353972 Si / 1000 Ang^3
#
#
#
# Elastic Constant Matrix: (Units=GPa)
#
#
# Indices 1 2 3 4 5 6 
#
# 1 86.7346 23.3492 5.3730 0.0000 18.6939 0.0000
# 2 23.3492 68.2776 18.0119 0.0000 4.8399 0.0000
# 3 5.3730 18.0119 75.4628 0.0000 8.6002 0.0000
# 4 0.0000 0.0000 0.0000 33.9035 0.0000 2.8577
# 5 18.6939 4.8399 8.6002 0.0000 36.6770 0.0000
# 6 0.0000 0.0000 0.0000 2.8577 0.0000 31.2793
#
#
#
# Elastic Compliance Matrix: (Units=1/GPa)
#
#
# Indices 1 2 3 4 5 6 
#
# 1 0.014184 -0.004595 0.000865 0.000000 -0.006826 0.000000
# 2 -0.004595 0.017172 -0.003884 0.000000 0.000987 0.000000
# 3 0.000865 -0.003884 0.014496 0.000000 -0.003327 0.000000
# 4 0.000000 0.000000 0.000000 0.029724 0.000000 -0.002716
# 5 -0.006826 0.000987 -0.003327 0.000000 0.031394 0.000000
# 6 0.000000 0.000000 0.000000 -0.002716 0.000000 0.032218
#
#
# Mechanical properties :
#
#
# Convention : Reuss Voigt Hill
#
# Bulk Modulus (GPa) = 32.65402 35.99368 34.32385
# Shear Modulus (GPa) = 30.37202 32.62135 31.49669
#
# Velocity S-wave (km/s) = 3.77545 3.91275 3.84471
# Velocity P-wave (km/s) = 5.85921 6.10780 5.98479
#
# Compressibility (1/GPa) = 0.03062410
#
# Stress axis : x y z
#
# Youngs Moduli (GPa) = 70.50215 58.23408 68.98329
#
# Poissons Ratio (x) = 0.26757 -0.05965
# Poissons Ratio (y) = 0.32394 0.26793
# Poissons Ratio (z) = -0.06097 0.22618
#
# Static dielectric constant tensor:
#      x y z
#    x 4.114650 0.000000 0.112460 
#    y 0.000000 3.940700 0.000000 
#    z 0.112460 0.000000 4.327700 
# 
# 
# High freq. dielectric constant tensor:
#      x y z
#    x 1.847850 0.000000 0.006550 
#    y 0.000000 1.827110 0.000000 
#    z 0.006550 0.000000 1.847900 
# 
# From -- ./inp_files/51908.got.cif
#   From: 2010.06.25/outbox.cif.g09.slc.cpg/sg11_26_cif.got.tgz:51908.got - 2010.06.27 23:14:04.
