data_PCOD8074867
_publ_section_title
;
Structure prediction by ZEFSAII (Michael W. Deem and Ramdas Pophale) SiO2 
 PCOD8074867
Probable space group: P 21/M
;
_chemical_formula_sum "Si O2"
_cell_formula_units_Z 24
_cell_length_a 11.116446
_cell_length_b 17.850432
_cell_length_c 10.161549
_cell_angle_alpha 90.000000
_cell_angle_beta 144.635838
_cell_angle_gamma 90.000000
_cell_volume 1167.028668
_symmetry_space_group_name_H-M "P 21/M"
_symmetry_group_IT_number 11
_symmetry_cell_setting 'monoclinic'
loop_
_space_group_symop_operation_xyz
x,y,z
-x,1/2+y,-z
-x,-y,-z
x,1/2-y,z
loop_
_atom_site_type_symbol
_atom_site_label
_atom_site_fract_x
_atom_site_fract_y
_atom_site_fract_z
Si Si1 0.732561 0.661354 0.827267
Si Si2 0.184684 0.547326 0.724307
Si Si3 0.448678 0.411754 0.592592
Si Si4 0.904840 0.668149 0.595957
Si Si5 0.459915 0.046218 0.165164
Si Si6 0.138870 0.830478 0.070963
O O1 0.672551 0.750000 0.764084
O O2 0.640816 0.610705 0.627628
O O3 0.640188 0.624760 0.877303
O O4 0.984393 0.650543 0.055545
O O5 0.356554 0.567349 0.769915
O O6 0.000000 0.500000 0.500000
O O7 0.082821 0.625289 0.676131
O O8 0.285855 0.504180 0.937836
O O9 0.320113 0.372911 0.598215
O O10 0.446900 0.500272 0.625771
O O11 0.691251 0.391475 0.809517
O O12 0.874636 0.750000 0.503610
O O13 0.975473 0.677149 0.808136
O O14 0.250311 0.750000 0.194942
#
# Coordination Sequence:
#
# PCOD8074867 Si02
#       6
#     4   4   4   4   4   4
#     4  10  23  40  59  91 126 155 197 248 304 370
#     4  11  23  43  60  85 122 162 205 254 294 356
#     4  11  19  37  63  91 118 156 198 247 306 360
#     4  10  20  36  60  89 117 153 204 252 295 350
#     4  11  24  39  63  88 120 165 203 248 304 359
#     4   9  18  34  57  85 119 150 188 247 298 346
#
# _framework density 20.565047
#
# number of rings (size 3 to 8) (size 9 to 14) (size 15 to 20)
#    0.000    1.667    3.333    3.000    0.000    2.667 
#    0.000    0.833    0.000    0.000    0.000    0.000 
#    0.000    0.000    0.000    0.000    0.000    0.000 
#
# Total GULP energy -297410.565982 kJ/mol
# GULP energy per Si atom -12392.106916 kJ/mol
# Density = 2.051824 g / cm^3
# Si number density = 20.565047 Si / 1000 Ang^3
#
#
#
# Elastic Constant Matrix: (Units=GPa)
#
#
# Indices 1 2 3 4 5 6 
#
# 1 125.8696 69.4571 32.2098 0.0000 28.0255 0.0000
# 2 69.4571 114.8471 20.6853 0.0000 20.9306 0.0000
# 3 32.2098 20.6853 58.9875 0.0000 22.1591 0.0000
# 4 0.0000 0.0000 0.0000 22.1293 0.0000 7.7348
# 5 28.0255 20.9306 22.1591 0.0000 31.7591 0.0000
# 6 0.0000 0.0000 0.0000 7.7348 0.0000 34.3788
#
#
#
# Elastic Compliance Matrix: (Units=1/GPa)
#
#
# Indices 1 2 3 4 5 6 
#
# 1 0.013646 -0.006703 -0.003031 0.000000 -0.005509 0.000000
# 2 -0.006703 0.013272 0.000095 0.000000 -0.002898 0.000000
# 3 -0.003031 0.000095 0.023843 0.000000 -0.014023 0.000000
# 4 0.000000 0.000000 0.000000 0.049046 0.000000 -0.011035
# 5 -0.005509 -0.002898 -0.014023 0.000000 0.048043 0.000000
# 6 0.000000 0.000000 0.000000 -0.011035 0.000000 0.031570
#
#
# Mechanical properties :
#
#
# Convention : Reuss Voigt Hill
#
# Bulk Modulus (GPa) = 31.76438 60.48983 46.12711
# Shear Modulus (GPa) = 23.90151 29.47691 26.68921
#
# Velocity S-wave (km/s) = 3.41286 3.79007 3.60640
# Velocity P-wave (km/s) = 5.56862 6.97356 6.31031
#
# Compressibility (1/GPa) = 0.03148180
#
# Stress axis : x y z
#
# Youngs Moduli (GPa) = 73.28328 75.34669 41.94170
#
# Poissons Ratio (x) = 0.50502 0.12713
# Poissons Ratio (y) = 0.49119 -0.00396
# Poissons Ratio (z) = 0.22213 -0.00712
#
# Static dielectric constant tensor:
#      x y z
#    x 4.031440 0.000000 0.368130 
#    y 0.000000 42.046240 0.000000 
#    z 0.368130 0.000000 3.683910 
# 
# 
# High freq. dielectric constant tensor:
#      x y z
#    x 1.804270 0.000000 0.028100 
#    y 0.000000 1.802920 0.000000 
#    z 0.028100 0.000000 1.790460 
# 
# From -- ./inp_files/36173.got.cif
#   From: 2010.06.25/outbox.cif.g09.slc.cpg/sg11_19_cif.got.tgz:36173.got - 2010.06.27 23:14:04.
