data_PCOD8074353
_publ_section_title
;
Structure prediction by ZEFSAII (Michael W. Deem and Ramdas Pophale) SiO2 
 PCOD8074353
Probable space group: P 21/M
;
_chemical_formula_sum "Si O2"
_cell_formula_units_Z 32
_cell_length_a 15.295728
_cell_length_b 21.011371
_cell_length_c 8.794852
_cell_angle_alpha 90.000000
_cell_angle_beta 143.789619
_cell_angle_gamma 90.000000
_cell_volume 1669.775868
_symmetry_space_group_name_H-M "P 21/M"
_symmetry_group_IT_number 11
_symmetry_cell_setting 'monoclinic'
loop_
_space_group_symop_operation_xyz
x,y,z
-x,1/2+y,-z
-x,-y,-z
x,1/2-y,z
loop_
_atom_site_type_symbol
_atom_site_label
_atom_site_fract_x
_atom_site_fract_y
_atom_site_fract_z
Si Si1 0.498612 0.935473 0.904098
Si Si2 0.409431 0.176357 0.772857
Si Si3 0.776414 0.907852 0.080461
Si Si4 0.951890 0.180508 0.991042
Si Si5 0.097373 0.365281 0.462214
Si Si6 0.742045 0.676495 0.741804
Si Si7 0.964972 0.002216 0.177542
Si Si8 0.804574 0.063680 0.680300
O O1 0.364786 0.943674 0.600056
O O2 0.478671 0.874594 0.991219
O O3 0.644316 0.927138 0.007150
O O4 0.500000 0.000000 0.000000
O O5 0.456648 0.250000 0.873000
O O6 0.250569 0.162326 0.618300
O O7 0.393565 0.165821 0.567641
O O8 0.893135 0.863742 0.340685
O O9 0.859854 0.973552 0.159733
O O10 0.718313 0.869136 0.853143
O O11 0.904209 0.250000 0.873132
O O12 0.818701 0.136121 0.754531
O O13 0.972550 0.177767 0.204922
O O14 0.103945 0.158103 0.123727
O O15 0.061657 0.437472 0.361830
O O16 0.744806 0.750000 0.798822
O O17 0.852756 0.015570 0.880921
O O18 0.085760 0.948480 0.306709
#
# Coordination Sequence:
#
# PCOD8074353 Si02
#       8
#     4   4   4   4   4   4   4   4
#     4  11  25  39  56  89 121 156 197 245 294 352
#     4   9  19  38  60  81 116 161 198 236 294 357
#     4  11  21  34  58  87 116 153 193 244 291 346
#     4   9  17  33  56  80 109 146 187 238 293 345
#     4   9  18  31  53  85 111 144 187 233 283 335
#     4   9  18  34  58  87 112 146 200 250 289 345
#     4  10  20  35  59  83 117 148 188 235 293 346
#     4  10  20  36  57  83 111 148 190 234 287 351
#
# _framework density 19.164249000000002
#
# number of rings (size 3 to 8) (size 9 to 14) (size 15 to 20)
#    0.000    2.250    1.250    3.000    3.500    3.500 
#    0.000    0.000    0.000    0.000    0.000    0.000 
#    0.000    0.000    0.000    0.000    0.000    0.000 
#
# Total GULP energy -396432.750705 kJ/mol
# GULP energy per Si atom -12388.523460 kJ/mol
# Density = 1.912063 g / cm^3
# Si number density = 19.164249 Si / 1000 Ang^3
#
#
#
# Elastic Constant Matrix: (Units=GPa)
#
#
# Indices 1 2 3 4 5 6 
#
# 1 68.6158 29.5169 19.1554 0.0000 -14.3333 0.0000
# 2 29.5169 94.1428 19.2926 0.0000 -6.0963 0.0000
# 3 19.1554 19.2926 65.2976 0.0000 -8.6701 0.0000
# 4 0.0000 0.0000 0.0000 26.8164 0.0000 -3.4996
# 5 -14.3333 -6.0963 -8.6701 0.0000 24.1116 0.0000
# 6 0.0000 0.0000 0.0000 -3.4996 0.0000 20.2923
#
#
#
# Elastic Compliance Matrix: (Units=1/GPa)
#
#
# Indices 1 2 3 4 5 6 
#
# 1 0.019450 -0.004877 -0.003038 0.000000 0.009236 0.000000
# 2 -0.004877 0.012600 -0.002367 0.000000 -0.000565 0.000000
# 3 -0.003038 -0.002367 0.017417 0.000000 0.003858 0.000000
# 4 0.000000 0.000000 0.000000 0.038149 0.000000 0.006579
# 5 0.009236 -0.000565 0.003858 0.000000 0.048209 0.000000
# 6 0.000000 0.000000 0.000000 0.006579 0.000000 0.050414
#
#
# Mechanical properties :
#
#
# Convention : Reuss Voigt Hill
#
# Bulk Modulus (GPa) = 34.59983 40.44289 37.52136
# Shear Modulus (GPa) = 23.10128 24.91683 24.00906
#
# Velocity S-wave (km/s) = 3.47571 3.60970 3.54334
# Velocity P-wave (km/s) = 5.84816 6.20664 6.03006
#
# Compressibility (1/GPa) = 0.02890188
#
# Stress axis : x y z
#
# Youngs Moduli (GPa) = 51.41495 79.36598 57.41382
#
# Poissons Ratio (x) = 0.38710 0.17444
# Poissons Ratio (y) = 0.25077 0.13589
# Poissons Ratio (z) = 0.15621 0.18785
#
# Static dielectric constant tensor:
#      x y z
#    x 3.321040 0.000000 -0.412930 
#    y 0.000000 3.649690 0.000000 
#    z -0.412930 0.000000 3.792670 
# 
# 
# High freq. dielectric constant tensor:
#      x y z
#    x 1.710040 0.000000 -0.027410 
#    y 0.000000 1.753120 0.000000 
#    z -0.027410 0.000000 1.746160 
# 
# From -- ./inp_files/23135.got.cif
#   From: 2010.06.25/outbox.cif.g09.slc.cpg/sg11_12_cif.got.tgz:23135.got - 2010.06.27 23:14:04.
