data_PCOD8074936
_publ_section_title
;
Structure prediction by ZEFSAII (Michael W. Deem and Ramdas Pophale) SiO2 
 PCOD8074936
Probable space group: P 21/M
;
_chemical_formula_sum "Si O2"
_cell_formula_units_Z 28
_cell_length_a 9.360499
_cell_length_b 21.477249
_cell_length_c 14.688924
_cell_angle_alpha 90.000000
_cell_angle_beta 153.535299
_cell_angle_gamma 90.000000
_cell_volume 1316.006440
_symmetry_space_group_name_H-M "P 21/M"
_symmetry_group_IT_number 11
_symmetry_cell_setting 'monoclinic'
loop_
_space_group_symop_operation_xyz
x,y,z
-x,1/2+y,-z
-x,-y,-z
x,1/2-y,z
loop_
_atom_site_type_symbol
_atom_site_label
_atom_site_fract_x
_atom_site_fract_y
_atom_site_fract_z
Si Si1 0.692568 0.079753 0.783163
Si Si2 0.008834 0.040959 0.224957
Si Si3 0.152392 0.177421 0.780694
Si Si4 0.728601 0.377529 0.224022
Si Si5 0.368978 0.471895 0.134002
Si Si6 0.699850 0.678879 0.342978
Si Si7 0.354258 0.582105 0.451153
O O1 0.595871 0.138167 0.789846
O O2 0.576395 0.092639 0.616002
O O3 0.513448 0.016619 0.717058
O O4 0.074147 0.070231 0.000498
O O5 0.276525 0.070478 0.307518
O O6 0.898991 0.089279 0.237547
O O7 0.140392 0.978465 0.348676
O O8 0.715116 0.019901 0.995129
O O9 0.082445 0.250000 0.754176
O O10 0.262818 0.162137 0.741876
O O11 0.814131 0.142117 0.602015
O O12 0.412731 0.156697 0.004932
O O13 0.643990 0.426474 0.255373
O O14 0.974974 0.330765 0.413084
O O15 0.596724 0.750000 0.295384
#
# Coordination Sequence:
#
# PCOD8074936 Si02
#       7
#     4   4   4   4   4   4   4
#     4  10  20  41  59  93 125 161 205 256 314 371
#     4  10  20  36  61  93 128 153 204 255 316 376
#     4  11  25  45  64  89 127 171 214 259 305 371
#     4  12  22  41  66  96 125 168 205 262 318 370
#     4  10  22  36  64  98 130 157 203 263 321 378
#     4  11  26  43  63  91 126 169 218 255 301 375
#     4  10  21  40  61  90 126 164 203 256 312 376
#
# _framework density 21.276491
#
# number of rings (size 3 to 8) (size 9 to 14) (size 15 to 20)
#    0.000    1.429    4.286    1.714    2.000    5.714 
#    0.000    0.000    0.000    4.286    0.000    0.000 
#    0.000    0.000    0.000    0.000    0.000    0.000 
#
# Total GULP energy -347061.240312 kJ/mol
# GULP energy per Si atom -12395.044297 kJ/mol
# Density = 2.122806 g / cm^3
# Si number density = 21.276491 Si / 1000 Ang^3
#
#
#
# Elastic Constant Matrix: (Units=GPa)
#
#
# Indices 1 2 3 4 5 6 
#
# 1 73.5656 41.4945 17.2622 0.0000 -8.1973 0.0000
# 2 41.4945 100.2960 18.7065 0.0000 6.5274 0.0000
# 3 17.2622 18.7065 35.1392 0.0000 1.2181 0.0000
# 4 0.0000 0.0000 0.0000 31.2015 0.0000 5.7320
# 5 -8.1973 6.5274 1.2181 0.0000 29.6881 0.0000
# 6 0.0000 0.0000 0.0000 5.7320 0.0000 41.9986
#
#
#
# Elastic Compliance Matrix: (Units=1/GPa)
#
#
# Indices 1 2 3 4 5 6 
#
# 1 0.020212 -0.007718 -0.006082 0.000000 0.007527 0.000000
# 2 -0.007718 0.014161 -0.003571 0.000000 -0.005098 0.000000
# 3 -0.006082 -0.003571 0.033425 0.000000 -0.002266 0.000000
# 4 0.000000 0.000000 0.000000 0.032874 0.000000 -0.004487
# 5 0.007527 -0.005098 -0.002266 0.000000 0.036976 0.000000
# 6 0.000000 0.000000 0.000000 -0.004487 0.000000 0.024423
#
#
# Mechanical properties :
#
#
# Convention : Reuss Voigt Hill
#
# Bulk Modulus (GPa) = 30.24940 40.43637 35.34288
# Shear Modulus (GPa) = 24.05797 29.34682 26.70239
#
# Velocity S-wave (km/s) = 3.36628 3.71793 3.54647
# Velocity P-wave (km/s) = 5.41824 6.12186 5.78076
#
# Compressibility (1/GPa) = 0.03305851
#
# Stress axis : x y z
#
# Youngs Moduli (GPa) = 49.47463 70.61503 29.91748
#
# Poissons Ratio (x) = 0.54500 0.18195
# Poissons Ratio (y) = 0.38184 0.10683
# Poissons Ratio (z) = 0.30089 0.25214
#
# Static dielectric constant tensor:
#      x y z
#    x 3.981610 0.000000 -0.119340 
#    y 0.000000 3.785250 0.000000 
#    z -0.119340 0.000000 3.972170 
# 
# 
# High freq. dielectric constant tensor:
#      x y z
#    x 1.848260 0.000000 -0.005010 
#    y 0.000000 1.820860 0.000000 
#    z -0.005010 0.000000 1.828680 
# 
# From -- ./inp_files/48333.got.cif
#   From: 2010.06.25/outbox.cif.g09.slc.cpg/sg11_25_cif.got.tgz:48333.got - 2010.06.27 23:14:04.
