data_PCOD8074587
_publ_section_title
;
Structure prediction by ZEFSAII (Michael W. Deem and Ramdas Pophale) SiO2 
 PCOD8074587
Probable space group: P 21/M
;
_chemical_formula_sum "Si O2"
_cell_formula_units_Z 28
_cell_length_a 9.144942
_cell_length_b 9.039123
_cell_length_c 29.051290
_cell_angle_alpha 90.000000
_cell_angle_beta 141.795665
_cell_angle_gamma 90.000000
_cell_volume 1485.216628
_symmetry_space_group_name_H-M "P 21/M"
_symmetry_group_IT_number 11
_symmetry_cell_setting 'monoclinic'
loop_
_space_group_symop_operation_xyz
x,y,z
-x,1/2+y,-z
-x,-y,-z
x,1/2-y,z
loop_
_atom_site_type_symbol
_atom_site_label
_atom_site_fract_x
_atom_site_fract_y
_atom_site_fract_z
Si Si1 0.508648 0.576679 0.134868
Si Si2 0.645891 0.926105 0.995630
Si Si3 0.048461 0.580047 0.285759
Si Si4 0.625788 0.423599 0.718273
Si Si5 0.753359 0.420879 0.432366
Si Si6 0.412937 0.080312 0.433421
Si Si7 0.818430 0.074911 0.862552
O O1 0.473854 0.750000 0.114630
O O2 0.334442 0.521073 0.131905
O O3 0.772962 0.543523 0.216647
O O4 0.459040 0.478385 0.078413
O O5 0.628011 0.750000 0.995295
O O6 0.915134 0.983215 0.065928
O O7 0.500000 0.000000 0.000000
O O8 0.095931 0.750000 0.309703
O O9 0.162114 0.540444 0.264543
O O10 0.163295 0.484669 0.354827
O O11 0.569546 0.250000 0.706148
O O12 0.386431 0.506667 0.644756
O O13 0.705937 0.486982 0.787557
O O14 0.795799 0.250000 0.431515
O O15 0.607786 0.444518 0.442746
O O16 0.000000 0.500000 0.500000
O O17 0.372774 0.250000 0.435506
O O18 0.500000 0.000000 0.500000
O O19 0.818146 0.250000 0.859739
#
# Coordination Sequence:
#
# PCOD8074587 Si02
#       7
#     4   4   4   4   4   4   4
#     4  10  20  36  57  82 111 142 176 219 269 320
#     4  11  22  37  57  81 109 144 184 223 264 316
#     4   9  18  33  54  77 106 144 183 220 264 318
#     4   9  17  33  54  75 103 142 182 219 260 314
#     4  10  21  36  54  79 108 140 177 220 267 317
#     4  10  21  36  55  79 109 142 180 223 269 320
#     4   9  19  35  56  81 110 142 177 218 267 319
#
# _framework density 18.852468999999999
#
# number of rings (size 3 to 8) (size 9 to 14) (size 15 to 20)
#    0.000    2.286    0.000    2.571    0.000    5.714 
#    0.000    8.571    0.000    0.000    0.000    0.000 
#    0.000    0.000    0.000    0.000    0.000    0.000 
#
# Total GULP energy -347289.269006 kJ/mol
# GULP energy per Si atom -12403.188179 kJ/mol
# Density = 1.880956 g / cm^3
# Si number density = 18.852469 Si / 1000 Ang^3
#
#
#
# Elastic Constant Matrix: (Units=GPa)
#
#
# Indices 1 2 3 4 5 6 
#
# 1 116.7148 49.6165 77.8079 0.0000 4.4772 0.0000
# 2 49.6165 85.1665 70.5294 0.0000 -1.0735 0.0000
# 3 77.8079 70.5294 149.5255 0.0000 -1.1925 0.0000
# 4 0.0000 0.0000 0.0000 36.6906 0.0000 -2.3532
# 5 4.4772 -1.0735 -1.1925 0.0000 41.1227 0.0000
# 6 0.0000 0.0000 0.0000 -2.3532 0.0000 26.3242
#
#
#
# Elastic Compliance Matrix: (Units=1/GPa)
#
#
# Indices 1 2 3 4 5 6 
#
# 1 0.013822 -0.003457 -0.005576 0.000000 -0.001757 0.000000
# 2 -0.003457 0.020135 -0.007693 0.000000 0.000679 0.000000
# 3 -0.005576 -0.007693 0.013224 0.000000 0.000790 0.000000
# 4 0.000000 0.000000 0.000000 0.027412 0.000000 0.002450
# 5 -0.001757 0.000679 0.000790 0.000000 0.024549 0.000000
# 6 0.000000 0.000000 0.000000 0.002450 0.000000 0.038207
#
#
# Mechanical properties :
#
#
# Convention : Reuss Voigt Hill
#
# Bulk Modulus (GPa) = 72.83612 83.03494 77.93553
# Shear Modulus (GPa) = 28.50968 31.05770 29.78369
#
# Velocity S-wave (km/s) = 3.89299 4.06323 3.97902
# Velocity P-wave (km/s) = 7.67631 8.13347 7.90820
#
# Compressibility (1/GPa) = 0.01372945
#
# Stress axis : x y z
#
# Youngs Moduli (GPa) = 72.34805 49.66399 75.61769
#
# Poissons Ratio (x) = 0.17169 0.42164
# Poissons Ratio (y) = 0.25011 0.58174
# Poissons Ratio (z) = 0.40340 0.38208
#
# Static dielectric constant tensor:
#      x y z
#    x 3.628380 0.000000 0.018330 
#    y 0.000000 3.520480 0.000000 
#    z 0.018330 0.000000 3.616690 
# 
# 
# High freq. dielectric constant tensor:
#      x y z
#    x 1.734060 0.000000 0.001330 
#    y 0.000000 1.720030 0.000000 
#    z 0.001330 0.000000 1.747430 
# 
# From -- ./inp_files/28237.got.cif
#   From: 2010.06.25/outbox.cif.g09.slc.cpg/sg11_15_cif.got.tgz:28237.got - 2010.06.27 23:14:04.
