data_PCOD8074232
_publ_section_title
;
Structure prediction by ZEFSAII (Michael W. Deem and Ramdas Pophale) SiO2 
 PCOD8074232
Probable space group: P 21/M
;
_chemical_formula_sum "Si O2"
_cell_formula_units_Z 28
_cell_length_a 12.503316
_cell_length_b 9.216386
_cell_length_c 15.329710
_cell_angle_alpha 90.000000
_cell_angle_beta 127.202526
_cell_angle_gamma 90.000000
_cell_volume 1407.042971
_symmetry_space_group_name_H-M "P 21/M"
_symmetry_group_IT_number 11
_symmetry_cell_setting 'monoclinic'
loop_
_space_group_symop_operation_xyz
x,y,z
-x,1/2+y,-z
-x,-y,-z
x,1/2-y,z
loop_
_atom_site_type_symbol
_atom_site_label
_atom_site_fract_x
_atom_site_fract_y
_atom_site_fract_z
Si Si1 0.341442 0.410362 0.644337
Si Si2 0.597089 0.417130 0.484898
Si Si3 0.683090 0.917356 0.025790
Si Si4 0.619366 0.418312 0.166379
Si Si5 0.097797 0.584965 0.308954
Si Si6 0.045781 0.080774 0.935871
Si Si7 0.954456 0.908077 0.558485
O O1 0.407442 0.250000 0.691672
O O2 0.427264 0.512028 0.622276
O O3 0.317034 0.492704 0.722862
O O4 0.203310 0.386852 0.526378
O O5 0.500000 0.500000 0.500000
O O6 0.555417 0.250000 0.456639
O O7 0.744942 0.434002 0.597719
O O8 0.700425 0.750000 0.064011
O O9 0.802950 0.963024 0.019320
O O10 0.685701 0.019222 0.111629
O O11 0.541136 0.940434 0.907859
O O12 0.658391 0.250000 0.193234
O O13 0.051901 0.750000 0.302045
O O14 0.058537 0.536924 0.191993
O O15 0.011720 0.489222 0.334522
O O16 0.039030 0.250000 0.953467
O O17 0.000000 0.000000 0.000000
O O18 0.025912 0.750000 0.593998
O O19 0.000000 0.000000 0.500000
#
# Coordination Sequence:
#
# PCOD8074232 Si02
#       7
#     4   4   4   4   4   4   4
#     4  10  21  36  54  79 111 146 183 224 276 336
#     4  10  20  36  57  81 111 146 186 230 279 334
#     4   9  20  38  57  80 113 150 187 234 292 345
#     4  10  20  35  57  85 114 146 188 237 287 341
#     4   9  20  38  57  80 111 146 185 230 276 330
#     4  10  22  40  60  82 112 150 193 237 286 341
#     4  10  21  35  54  81 112 145 180 221 275 336
#
# _framework density 19.899891
#
# number of rings (size 3 to 8) (size 9 to 14) (size 15 to 20)
#    0.000    2.286    0.000    1.714    2.000    5.143 
#    0.000    2.857    0.000    0.000    0.000    0.000 
#    0.000    0.000    0.000    0.000    0.000    0.000 
#
# Total GULP energy -347146.408584 kJ/mol
# GULP energy per Si atom -12398.086021 kJ/mol
# Density = 1.985460 g / cm^3
# Si number density = 19.899891 Si / 1000 Ang^3
#
#
#
# Elastic Constant Matrix: (Units=GPa)
#
#
# Indices 1 2 3 4 5 6 
#
# 1 110.1711 64.2102 35.9299 0.0000 -30.9010 0.0000
# 2 64.2102 153.7084 55.3589 0.0000 -31.4611 0.0000
# 3 35.9299 55.3589 97.1254 0.0000 -29.1888 0.0000
# 4 0.0000 0.0000 0.0000 31.5681 0.0000 -11.6975
# 5 -30.9010 -31.4611 -29.1888 0.0000 35.4223 0.0000
# 6 0.0000 0.0000 0.0000 -11.6975 0.0000 37.8380
#
#
#
# Elastic Compliance Matrix: (Units=1/GPa)
#
#
# Indices 1 2 3 4 5 6 
#
# 1 0.013809 -0.003946 -0.000389 0.000000 0.008222 0.000000
# 2 -0.003946 0.009906 -0.003425 0.000000 0.002534 0.000000
# 3 -0.000389 -0.003425 0.015120 0.000000 0.009078 0.000000
# 4 0.000000 0.000000 0.000000 0.035776 0.000000 0.011060
# 5 0.008222 0.002534 0.009078 0.000000 0.045135 0.000000
# 6 0.000000 0.000000 0.000000 0.011060 0.000000 0.029848
#
#
# Mechanical properties :
#
#
# Convention : Reuss Voigt Hill
#
# Bulk Modulus (GPa) = 42.88761 74.66698 58.77730
# Shear Modulus (GPa) = 28.92085 34.66608 31.79346
#
# Velocity S-wave (km/s) = 3.81638 4.17828 4.00142
# Velocity P-wave (km/s) = 6.40454 7.80257 7.13787
#
# Compressibility (1/GPa) = 0.02331676
#
# Stress axis : x y z
#
# Youngs Moduli (GPa) = 72.41449 100.94447 66.13643
#
# Poissons Ratio (x) = 0.39832 0.02570
# Poissons Ratio (y) = 0.28574 0.22653
# Poissons Ratio (z) = 0.02814 0.34575
#
# Static dielectric constant tensor:
#      x y z
#    x 3.606240 0.000000 0.044650 
#    y 0.000000 3.665200 0.000000 
#    z 0.044650 0.000000 3.663330 
# 
# 
# High freq. dielectric constant tensor:
#      x y z
#    x 1.769580 0.000000 -0.005460 
#    y 0.000000 1.787530 0.000000 
#    z -0.005460 0.000000 1.771540 
# 
# From -- ./inp_files/49465.got.cif
#   From: 2010.06.25/outbox.cif.g09.slc.cpg/sg11_25_cif.got.tgz:49465.got - 2010.06.27 23:14:04.
