data_PCOD8074744
_publ_section_title
;
Structure prediction by ZEFSAII (Michael W. Deem and Ramdas Pophale) SiO2 
 PCOD8074744
Probable space group: P 21/M
;
_chemical_formula_sum "Si O2"
_cell_formula_units_Z 28
_cell_length_a 14.153662
_cell_length_b 9.366817
_cell_length_c 16.698747
_cell_angle_alpha 90.000000
_cell_angle_beta 138.735241
_cell_angle_gamma 90.000000
_cell_volume 1460.109834
_symmetry_space_group_name_H-M "P 21/M"
_symmetry_group_IT_number 11
_symmetry_cell_setting 'monoclinic'
loop_
_space_group_symop_operation_xyz
x,y,z
-x,1/2+y,-z
-x,-y,-z
x,1/2-y,z
loop_
_atom_site_type_symbol
_atom_site_label
_atom_site_fract_x
_atom_site_fract_y
_atom_site_fract_z
Si Si1 0.096145 0.581511 0.496635
Si Si2 0.072004 0.914884 0.299183
Si Si3 0.325762 0.582860 0.197732
Si Si4 0.615167 0.587084 0.306792
Si Si5 0.355401 0.584421 0.394750
Si Si6 0.836621 0.418474 0.055973
Si Si7 0.549745 0.090612 0.958433
O O1 0.097572 0.750000 0.517177
O O2 0.034796 0.553715 0.368129
O O3 0.255284 0.521076 0.599527
O O4 0.000000 0.500000 0.500000
O O5 0.047038 0.750000 0.262249
O O6 0.237932 0.955559 0.386871
O O7 0.976027 0.005129 0.178009
O O8 0.337000 0.750000 0.186930
O O9 0.484538 0.524806 0.277183
O O10 0.288189 0.544549 0.265017
O O11 0.200732 0.526514 0.058367
O O12 0.658469 0.750000 0.358630
O O13 0.570585 0.583584 0.186037
O O14 0.500000 0.500000 0.500000
O O15 0.396482 0.750000 0.423422
O O16 0.864636 0.250000 0.076442
O O17 0.702143 0.465115 0.024235
O O18 0.568413 0.250000 0.002115
O O19 0.500000 0.000000 0.000000
#
# Coordination Sequence:
#
# PCOD8074744 Si02
#       7
#     4   4   4   4   4   4   4
#     4  11  24  39  54  75 107 145 184 228 277 329
#     4  10  23  39  54  80 116 145 177 231 284 321
#     4   8  16  34  59  83 111 145 179 220 270 323
#     4   9  18  35  56  79 106 137 177 224 271 321
#     4  10  20  36  59  85 113 146 183 225 274 326
#     4   9  19  36  56  80 110 146 187 222 262 329
#     4   9  19  33  52  78 106 137 177 226 270 316
#
# _framework density 19.176639000000002
#
# number of rings (size 3 to 8) (size 9 to 14) (size 15 to 20)
#    0.000    2.571    0.000    3.000    2.000    3.429 
#    0.000    2.857    0.000    0.000    0.000    0.000 
#    0.000    0.000    0.000    0.000    0.000    0.000 
#
# Total GULP energy -347111.760320 kJ/mol
# GULP energy per Si atom -12396.848583 kJ/mol
# Density = 1.913299 g / cm^3
# Si number density = 19.176639 Si / 1000 Ang^3
#
#
#
# Elastic Constant Matrix: (Units=GPa)
#
#
# Indices 1 2 3 4 5 6 
#
# 1 98.8053 43.0835 45.2963 0.0000 -12.8128 0.0000
# 2 43.0835 67.7327 50.1869 0.0000 0.2186 0.0000
# 3 45.2963 50.1869 108.4982 0.0000 6.9657 0.0000
# 4 0.0000 0.0000 0.0000 35.1789 0.0000 5.3076
# 5 -12.8128 0.2186 6.9657 0.0000 26.0208 0.0000
# 6 0.0000 0.0000 0.0000 5.3076 0.0000 27.4484
#
#
#
# Elastic Compliance Matrix: (Units=1/GPa)
#
#
# Indices 1 2 3 4 5 6 
#
# 1 0.016417 -0.007540 -0.003957 0.000000 0.009206 0.000000
# 2 -0.007540 0.026105 -0.008827 0.000000 -0.001569 0.000000
# 3 -0.003957 -0.008827 0.015335 0.000000 -0.005980 0.000000
# 4 0.000000 0.000000 0.000000 0.029280 0.000000 -0.005662
# 5 0.009206 -0.001569 -0.005980 0.000000 0.044578 0.000000
# 6 0.000000 0.000000 0.000000 -0.005662 0.000000 0.037527
#
#
# Mechanical properties :
#
#
# Convention : Reuss Voigt Hill
#
# Bulk Modulus (GPa) = 58.10598 61.35217 59.72907
# Shear Modulus (GPa) = 23.18826 26.82758 25.00792
#
# Velocity S-wave (km/s) = 3.48112 3.74434 3.61513
# Velocity P-wave (km/s) = 6.82083 7.12433 6.97423
#
# Compressibility (1/GPa) = 0.01720993
#
# Stress axis : x y z
#
# Youngs Moduli (GPa) = 60.91391 38.30654 65.20829
#
# Poissons Ratio (x) = 0.28883 0.25803
# Poissons Ratio (y) = 0.45929 0.57557
# Poissons Ratio (z) = 0.24104 0.33812
#
# Static dielectric constant tensor:
#      x y z
#    x 3.609110 0.000000 -0.120850 
#    y 0.000000 3.345120 0.000000 
#    z -0.120850 0.000000 3.526860 
# 
# 
# High freq. dielectric constant tensor:
#      x y z
#    x 1.751790 0.000000 -0.007010 
#    y 0.000000 1.726530 0.000000 
#    z -0.007010 0.000000 1.748900 
# 
# From -- ./inp_files/60140.got.cif
#   From: 2010.06.25/outbox.cif.g09.slc.cpg/sg11_31_cif.got.tgz:60140.got - 2010.06.27 23:14:04.
