data_PCOD8074673
_publ_section_title
;
Structure prediction by ZEFSAII (Michael W. Deem and Ramdas Pophale) SiO2 
 PCOD8074673
Probable space group: P 21/M
;
_chemical_formula_sum "Si O2"
_cell_formula_units_Z 32
_cell_length_a 16.341205
_cell_length_b 24.603061
_cell_length_c 9.461305
_cell_angle_alpha 90.000000
_cell_angle_beta 154.168283
_cell_angle_gamma 90.000000
_cell_volume 1657.452714
_symmetry_space_group_name_H-M "P 21/M"
_symmetry_group_IT_number 11
_symmetry_cell_setting 'monoclinic'
loop_
_space_group_symop_operation_xyz
x,y,z
-x,1/2+y,-z
-x,-y,-z
x,1/2-y,z
loop_
_atom_site_type_symbol
_atom_site_label
_atom_site_fract_x
_atom_site_fract_y
_atom_site_fract_z
Si Si1 0.846062 0.364424 0.090247
Si Si2 0.232890 0.411330 0.713979
Si Si3 0.523209 0.445448 0.624964
Si Si4 0.729872 0.866312 0.921079
Si Si5 0.649789 0.474360 0.132142
Si Si6 0.884140 0.186866 0.452130
Si Si7 0.625387 0.310720 0.525672
Si Si8 0.629124 0.371047 0.251126
O O1 0.837531 0.343526 0.235673
O O2 0.053199 0.382645 0.367578
O O3 0.707590 0.415246 0.853359
O O4 0.786880 0.315861 0.894250
O O5 0.202611 0.476772 0.660178
O O6 0.247204 0.401295 0.902229
O O7 0.407729 0.385877 0.897238
O O8 0.500000 0.500000 0.500000
O O9 0.343075 0.406053 0.317668
O O10 0.546915 0.456665 0.827720
O O11 0.576800 0.819677 0.716094
O O12 0.926354 0.838108 0.182823
O O13 0.741500 0.423157 0.359040
O O14 0.500000 0.500000 0.000000
O O15 0.916879 0.250000 0.474104
O O16 0.702126 0.179344 0.270316
O O17 0.629435 0.250000 0.467752
O O18 0.672077 0.356104 0.479633
#
# Coordination Sequence:
#
# PCOD8074673 Si02
#       8
#     4   4   4   4   4   4   4   4
#     4  10  22  37  60  90 114 148 201 246 280 348
#     4   9  19  38  59  84 118 154 188 232 295 355
#     4  11  20  36  61  89 118 152 193 239 295 349
#     4   9  20  35  60  88 113 148 195 241 287 350
#     4  10  20  36  58  83 120 151 186 234 291 350
#     4  11  21  38  60  87 115 150 196 247 297 341
#     4  10  20  39  59  79 112 154 194 237 287 342
#     4  10  21  38  58  82 116 153 189 235 292 351
#
# _framework density 19.306736000000001
#
# number of rings (size 3 to 8) (size 9 to 14) (size 15 to 20)
#    0.000    2.000    2.500    1.125    1.750    1.500 
#    4.500    2.500    0.000    0.000    0.000    0.000 
#    0.000    0.000    0.000    0.000    0.000    0.000 
#
# Total GULP energy -396549.498464 kJ/mol
# GULP energy per Si atom -12392.171827 kJ/mol
# Density = 1.926279 g / cm^3
# Si number density = 19.306736 Si / 1000 Ang^3
#
#
#
# Elastic Constant Matrix: (Units=GPa)
#
#
# Indices 1 2 3 4 5 6 
#
# 1 75.3434 33.2475 36.1073 0.0000 0.1186 0.0000
# 2 33.2475 109.5793 48.0954 0.0000 -0.4027 0.0000
# 3 36.1073 48.0954 102.7143 0.0000 1.2874 0.0000
# 4 0.0000 0.0000 0.0000 26.7172 0.0000 -2.7604
# 5 0.1186 -0.4027 1.2874 0.0000 24.8790 0.0000
# 6 0.0000 0.0000 0.0000 -2.7604 0.0000 29.0188
#
#
#
# Elastic Compliance Matrix: (Units=1/GPa)
#
#
# Indices 1 2 3 4 5 6 
#
# 1 0.016783 -0.003149 -0.004427 0.000000 0.000098 0.000000
# 2 -0.003149 0.012083 -0.004556 0.000000 0.000446 0.000000
# 3 -0.004427 -0.004556 0.013435 0.000000 -0.000748 0.000000
# 4 0.000000 0.000000 0.000000 0.037801 0.000000 0.003596
# 5 0.000098 0.000446 -0.000748 0.000000 0.040240 0.000000
# 6 0.000000 0.000000 0.000000 0.003596 0.000000 0.034802
#
#
# Mechanical properties :
#
#
# Convention : Reuss Voigt Hill
#
# Bulk Modulus (GPa) = 55.44174 58.05971 56.75073
# Shear Modulus (GPa) = 26.96582 27.46878 27.21730
#
# Velocity S-wave (km/s) = 3.74131 3.77604 3.75871
# Velocity P-wave (km/s) = 6.88780 7.01062 6.94948
#
# Compressibility (1/GPa) = 0.01803695
#
# Stress axis : x y z
#
# Youngs Moduli (GPa) = 59.58274 82.76300 74.43434
#
# Poissons Ratio (x) = 0.26062 0.32949
# Poissons Ratio (y) = 0.18763 0.33914
# Poissons Ratio (z) = 0.26375 0.37709
#
# Static dielectric constant tensor:
#      x y z
#    x 3.655950 0.000000 -0.359720 
#    y 0.000000 3.836060 0.000000 
#    z -0.359720 0.000000 4.184850 
# 
# 
# High freq. dielectric constant tensor:
#      x y z
#    x 1.743340 0.000000 -0.002960 
#    y 0.000000 1.762430 0.000000 
#    z -0.002960 0.000000 1.737380 
# 
# From -- ./inp_files/23377.got.cif
#   From: 2010.06.25/outbox.cif.g09.slc.cpg/sg11_12_cif.got.tgz:23377.got - 2010.06.27 23:14:04.
