data_PCOD8074808
_publ_section_title
;
Structure prediction by ZEFSAII (Michael W. Deem and Ramdas Pophale) SiO2 
 PCOD8074808
Probable space group: P 21/M
;
_chemical_formula_sum "Si O2"
_cell_formula_units_Z 32
_cell_length_a 27.279897
_cell_length_b 9.127626
_cell_length_c 21.309243
_cell_angle_alpha 90.000000
_cell_angle_beta 161.345597
_cell_angle_gamma 90.000000
_cell_volume 1697.177525
_symmetry_space_group_name_H-M "P 21/M"
_symmetry_group_IT_number 11
_symmetry_cell_setting 'monoclinic'
loop_
_space_group_symop_operation_xyz
x,y,z
-x,1/2+y,-z
-x,-y,-z
x,1/2-y,z
loop_
_atom_site_type_symbol
_atom_site_label
_atom_site_fract_x
_atom_site_fract_y
_atom_site_fract_z
Si Si1 0.529275 0.076091 0.349794
Si Si2 0.606214 0.081094 0.580409
Si Si3 0.339597 0.079712 0.808332
Si Si4 0.212675 0.423325 0.914357
Si Si5 0.179604 0.921510 0.374392
Si Si6 0.041267 0.579923 0.986102
Si Si7 0.848012 0.918784 0.297106
Si Si8 0.881501 0.421491 0.556526
O O1 0.522373 0.250000 0.343189
O O2 0.579313 0.014749 0.478274
O O3 0.655262 0.027429 0.451272
O O4 0.363113 0.008889 0.130343
O O5 0.559242 0.250000 0.523984
O O6 0.780472 0.057624 0.812200
O O7 0.500000 0.000000 0.500000
O O8 0.359812 0.250000 0.816680
O O9 0.282203 0.056384 0.809435
O O10 0.220833 0.011476 0.615656
O O11 0.500000 0.000000 0.000000
O O12 0.228179 0.250000 0.933986
O O13 0.211296 0.481295 0.841193
O O14 0.058305 0.471920 0.763208
O O15 0.150556 0.750000 0.326413
O O16 0.174104 0.958344 0.441131
O O17 0.047266 0.011065 0.179597
O O18 0.998902 0.750000 0.942006
O O19 0.000000 0.500000 0.000000
O O20 0.892661 0.750000 0.344153
O O21 0.000000 0.000000 0.500000
O O22 0.863014 0.250000 0.518632
#
# Coordination Sequence:
#
# PCOD8074808 Si02
#       8
#     4   4   4   4   4   4   4   4
#     4   9  18  35  56  81 114 146 186 237 284 339
#     4  10  22  38  58  85 115 150 192 240 293 345
#     4  11  24  39  59  87 120 157 197 243 295 346
#     4   9  18  33  56  84 112 144 187 238 286 343
#     4  10  21  37  60  87 116 154 198 239 288 351
#     4  11  22  39  61  86 117 154 196 243 295 348
#     4  10  20  36  60  85 111 148 191 235 291 346
#     4  10  21  37  60  87 115 152 196 238 289 349
#
# _framework density 18.854835000000001
#
# number of rings (size 3 to 8) (size 9 to 14) (size 15 to 20)
#    0.000    2.000    2.500    0.750    3.500    2.000 
#    0.000    0.000    0.000    1.500    0.000    0.000 
#    0.000    0.000    0.000    0.000    0.000    0.000 
#
# Total GULP energy -396840.906057 kJ/mol
# GULP energy per Si atom -12401.278314 kJ/mol
# Density = 1.881192 g / cm^3
# Si number density = 18.854835 Si / 1000 Ang^3
#
#
#
# Elastic Constant Matrix: (Units=GPa)
#
#
# Indices 1 2 3 4 5 6 
#
# 1 143.7658 39.2919 60.3391 0.0000 9.7429 0.0000
# 2 39.2919 57.8593 39.5549 0.0000 6.5376 0.0000
# 3 60.3391 39.5549 146.4285 0.0000 5.8872 0.0000
# 4 0.0000 0.0000 0.0000 32.3332 0.0000 -1.5025
# 5 9.7429 6.5376 5.8872 0.0000 29.9790 0.0000
# 6 0.0000 0.0000 0.0000 -1.5025 0.0000 27.1908
#
#
#
# Elastic Compliance Matrix: (Units=1/GPa)
#
#
# Indices 1 2 3 4 5 6 
#
# 1 0.009357 -0.004396 -0.002605 0.000000 -0.001571 0.000000
# 2 -0.004396 0.023639 -0.004460 0.000000 -0.002851 0.000000
# 3 -0.002605 -0.004460 0.009106 0.000000 0.000031 0.000000
# 4 0.000000 0.000000 0.000000 0.031008 0.000000 0.001713
# 5 -0.001571 -0.002851 0.000031 0.000000 0.034483 0.000000
# 6 0.000000 0.000000 0.000000 0.001713 0.000000 0.036872
#
#
# Mechanical properties :
#
#
# Convention : Reuss Voigt Hill
#
# Bulk Modulus (GPa) = 52.13417 69.60281 60.86849
# Shear Modulus (GPa) = 28.77199 31.82510 30.29855
#
# Velocity S-wave (km/s) = 3.91061 4.11286 4.01301
# Velocity P-wave (km/s) = 6.93547 7.71683 7.33656
#
# Compressibility (1/GPa) = 0.01918128
#
# Stress axis : x y z
#
# Youngs Moduli (GPa) = 106.87188 42.30215 109.81461
#
# Poissons Ratio (x) = 0.18595 0.28608
# Poissons Ratio (y) = 0.46979 0.48975
# Poissons Ratio (z) = 0.27842 0.18866
#
# Static dielectric constant tensor:
#      x y z
#    x 3.110480 0.000000 -0.501730 
#    y 0.000000 3.590750 0.000000 
#    z -0.501730 0.000000 3.765980 
# 
# 
# High freq. dielectric constant tensor:
#      x y z
#    x 1.746610 0.000000 0.001550 
#    y 0.000000 1.703440 0.000000 
#    z 0.001550 0.000000 1.745170 
# 
# From -- ./inp_files/67137.got.cif
#   From: 2010.06.25/outbox.cif.g09.slc.cpg/sg11_34_cif.got.tgz:67137.got - 2010.06.27 23:14:04.
