data_PCOD8074490
_publ_section_title
;
Structure prediction by ZEFSAII (Michael W. Deem and Ramdas Pophale) SiO2 
 PCOD8074490
Probable space group: P 21/M
;
_chemical_formula_sum "Si O2"
_cell_formula_units_Z 32
_cell_length_a 20.609398
_cell_length_b 9.205226
_cell_length_c 21.162745
_cell_angle_alpha 90.000000
_cell_angle_beta 154.467007
_cell_angle_gamma 90.000000
_cell_volume 1730.533583
_symmetry_space_group_name_H-M "P 21/M"
_symmetry_group_IT_number 11
_symmetry_cell_setting 'monoclinic'
loop_
_space_group_symop_operation_xyz
x,y,z
-x,1/2+y,-z
-x,-y,-z
x,1/2-y,z
loop_
_atom_site_type_symbol
_atom_site_label
_atom_site_fract_x
_atom_site_fract_y
_atom_site_fract_z
Si Si1 0.262770 0.921077 0.896012
Si Si2 0.334637 0.087780 0.173981
Si Si3 0.224159 0.080670 0.403116
Si Si4 0.875304 0.418118 0.094658
Si Si5 0.425850 0.919658 0.829900
Si Si6 0.137193 0.580796 0.653802
Si Si7 0.534973 0.077339 0.465658
Si Si8 0.363836 0.913815 0.634592
O O1 0.291567 0.750000 0.925358
O O2 0.188692 0.982962 0.895542
O O3 0.146411 0.955713 0.736630
O O4 0.422623 0.993821 0.022539
O O5 0.270198 0.250000 0.121657
O O6 0.398217 0.039666 0.298042
O O7 0.464237 0.076963 0.235876
O O8 0.200240 0.985472 0.033842
O O9 0.265464 0.250000 0.432362
O O10 0.049897 0.049958 0.240341
O O11 0.311330 0.987303 0.427329
O O12 0.263887 0.028120 0.508412
O O13 0.838084 0.250000 0.061231
O O14 0.464817 0.750000 0.868575
O O15 0.297746 0.967951 0.766357
O O16 0.357965 0.959635 0.701994
O O17 0.110650 0.750000 0.617906
O O18 0.000000 0.500000 0.500000
O O19 0.553977 0.250000 0.490756
O O20 0.500000 0.000000 0.500000
O O21 0.302446 0.750000 0.569391
#
# Coordination Sequence:
#
# PCOD8074490 Si02
#       8
#     4   4   4   4   4   4   4   4
#     4  10  21  37  55  79 109 145 187 235 285 337
#     4   9  18  34  56  82 111 142 179 224 269 319
#     4  10  21  35  54  82 115 149 185 226 273 324
#     4  10  21  35  53  81 115 146 184 230 279 330
#     4  10  20  36  56  79 106 141 187 234 283 341
#     4  10  23  39  55  77 110 145 186 238 289 343
#     4  10  21  39  62  88 116 148 187 225 267 322
#     4   9  18  33  52  78 108 139 183 233 276 328
#
# _framework density 18.491406999999999
#
# number of rings (size 3 to 8) (size 9 to 14) (size 15 to 20)
#    0.000    2.250    1.250    1.875    1.750    5.000 
#    0.000    0.625    0.000    0.000    0.000    0.000 
#    0.000    0.000    0.000    0.000    0.000    0.000 
#
# Total GULP energy -396811.661789 kJ/mol
# GULP energy per Si atom -12400.364431 kJ/mol
# Density = 1.844932 g / cm^3
# Si number density = 18.491407 Si / 1000 Ang^3
#
#
#
# Elastic Constant Matrix: (Units=GPa)
#
#
# Indices 1 2 3 4 5 6 
#
# 1 100.1421 47.9002 57.2159 0.0000 -15.7542 0.0000
# 2 47.9002 69.9369 72.8026 0.0000 2.0350 0.0000
# 3 57.2159 72.8026 130.1548 0.0000 -7.4273 0.0000
# 4 0.0000 0.0000 0.0000 38.7118 0.0000 -1.5403
# 5 -15.7542 2.0350 -7.4273 0.0000 16.6884 0.0000
# 6 0.0000 0.0000 0.0000 -1.5403 0.0000 25.8218
#
#
#
# Elastic Compliance Matrix: (Units=1/GPa)
#
#
# Indices 1 2 3 4 5 6 
#
# 1 0.020192 -0.015523 0.001029 0.000000 0.021412 0.000000
# 2 -0.015523 0.049166 -0.022425 0.000000 -0.030630 0.000000
# 3 0.001029 -0.022425 0.020507 0.000000 0.012832 0.000000
# 4 0.000000 0.000000 0.000000 0.025893 0.000000 0.001545
# 5 0.021412 -0.030630 0.012832 0.000000 0.089582 0.000000
# 6 0.000000 0.000000 0.000000 0.001545 0.000000 0.038819
#
#
# Mechanical properties :
#
#
# Convention : Reuss Voigt Hill
#
# Bulk Modulus (GPa) = 62.40248 72.89681 67.64965
# Shear Modulus (GPa) = 15.46363 24.39874 19.93118
#
# Velocity S-wave (km/s) = 2.89495 3.63638 3.28664
# Velocity P-wave (km/s) = 6.70778 7.55901 7.14608
#
# Compressibility (1/GPa) = 0.01602500
#
# Stress axis : x y z
#
# Youngs Moduli (GPa) = 49.52505 20.33942 48.76460
#
# Poissons Ratio (x) = 0.31574 -0.05016
# Poissons Ratio (y) = 0.76879 1.09354
# Poissons Ratio (z) = -0.05094 0.45611
#
# Static dielectric constant tensor:
#      x y z
#    x 3.434740 0.000000 -0.109540 
#    y 0.000000 3.380510 0.000000 
#    z -0.109540 0.000000 3.285220 
# 
# 
# High freq. dielectric constant tensor:
#      x y z
#    x 1.715190 0.000000 -0.009560 
#    y 0.000000 1.715330 0.000000 
#    z -0.009560 0.000000 1.715530 
# 
# From -- ./inp_files/70044.got.cif
#   From: 2010.06.25/outbox.cif.g09.slc.cpg/sg11_36_cif.got.tgz:70044.got - 2010.06.27 23:14:04.
