data_PCOD8074131
_publ_section_title
;
Structure prediction by ZEFSAII (Michael W. Deem and Ramdas Pophale) SiO2 
 PCOD8074131
Probable space group: P 21/M
;
_chemical_formula_sum "Si O2"
_cell_formula_units_Z 24
_cell_length_a 5.246345
_cell_length_b 17.793031
_cell_length_c 10.317442
_cell_angle_alpha 90.000000
_cell_angle_beta 75.062655
_cell_angle_gamma 90.000000
_cell_volume 930.571122
_symmetry_space_group_name_H-M "P 21/M"
_symmetry_group_IT_number 11
_symmetry_cell_setting 'monoclinic'
loop_
_space_group_symop_operation_xyz
x,y,z
-x,1/2+y,-z
-x,-y,-z
x,1/2-y,z
loop_
_atom_site_type_symbol
_atom_site_label
_atom_site_fract_x
_atom_site_fract_y
_atom_site_fract_z
Si Si1 0.765400 0.082552 0.096176
Si Si2 0.352013 0.337507 0.737305
Si Si3 0.746543 0.943229 0.613573
Si Si4 0.706898 0.090605 0.479146
Si Si5 0.304050 0.164066 0.039706
Si Si6 0.037388 0.962828 0.198738
O O1 0.789358 0.020660 0.207834
O O2 0.472533 0.119536 0.128059
O O3 0.996788 0.143666 0.085909
O O4 0.802140 0.041534 0.954603
O O5 0.292553 0.250000 0.718754
O O6 0.595047 0.365958 0.618905
O O7 0.421686 0.351451 0.879908
O O8 0.085246 0.383849 0.735891
O O9 0.478096 0.894578 0.624071
O O10 0.990370 0.883366 0.585190
O O11 0.747450 0.000889 0.733763
O O12 0.751936 0.999178 0.486658
O O13 0.335665 0.250000 0.072002
#
# Coordination Sequence:
#
# PCOD8074131 Si02
#       6
#     4   4   4   4   4   4
#     4  10  22  36  59  88 119 152 193 249 285 339
#     4  10  21  37  59  87 121 154 189 243 301 350
#     4  10  20  35  58  81 110 145 187 237 280 338
#     4  10  20  35  56  84 110 144 187 231 285 343
#     4  10  21  38  59  85 116 153 192 236 300 356
#     4  10  21  37  59  88 119 153 200 240 290 344
#
# _framework density 25.790614999999999
#
# number of rings (size 3 to 8) (size 9 to 14) (size 15 to 20)
#    0.000    2.000    0.000    4.500    0.000   12.000 
#    0.000    6.667    0.000    6.000    0.000    0.000 
#    0.000    0.000    0.000    0.000    0.000    0.000 
#
# Total GULP energy -297466.203883 kJ/mol
# GULP energy per Si atom -12394.425162 kJ/mol
# Density = 2.573191 g / cm^3
# Si number density = 25.790615 Si / 1000 Ang^3
#
#
#
# Elastic Constant Matrix: (Units=GPa)
#
#
# Indices 1 2 3 4 5 6 
#
# 1 189.8409 42.0296 43.9451 0.0000 26.6381 0.0000
# 2 42.0296 110.6004 32.7177 0.0000 13.1196 0.0000
# 3 43.9451 32.7177 42.3822 0.0000 24.5886 0.0000
# 4 0.0000 0.0000 0.0000 34.4932 0.0000 0.4497
# 5 26.6381 13.1196 24.5886 0.0000 46.4875 0.0000
# 6 0.0000 0.0000 0.0000 0.4497 0.0000 28.4428
#
#
#
# Elastic Compliance Matrix: (Units=1/GPa)
#
#
# Indices 1 2 3 4 5 6 
#
# 1 0.006973 -0.000688 -0.006483 0.000000 -0.000372 0.000000
# 2 -0.000688 0.011933 -0.009773 0.000000 0.002195 0.000000
# 3 -0.006483 -0.009773 0.049205 0.000000 -0.019553 0.000000
# 4 0.000000 0.000000 0.000000 0.028997 0.000000 -0.000458
# 5 -0.000372 0.002195 -0.019553 0.000000 0.031447 0.000000
# 6 0.000000 0.000000 0.000000 -0.000458 0.000000 0.035166
#
#
# Mechanical properties :
#
#
# Convention : Reuss Voigt Hill
#
# Bulk Modulus (GPa) = 29.21898 64.46759 46.84328
# Shear Modulus (GPa) = 23.92160 36.82677 30.37419
#
# Velocity S-wave (km/s) = 3.04884 3.78287 3.43552
# Velocity P-wave (km/s) = 4.87317 6.64311 5.82575
#
# Compressibility (1/GPa) = 0.03422433
#
# Stress axis : x y z
#
# Youngs Moduli (GPa) = 143.41482 83.79773 20.32316
#
# Poissons Ratio (x) = 0.05764 0.13175
# Poissons Ratio (y) = 0.09864 0.19861
# Poissons Ratio (z) = 0.92974 0.81894
#
# Static dielectric constant tensor:
#      x y z
#    x 4.962030 0.000000 0.244780 
#    y 0.000000 4.355080 0.000000 
#    z 0.244780 0.000000 4.669320 
# 
# 
# High freq. dielectric constant tensor:
#      x y z
#    x 2.049390 0.000000 0.008830 
#    y 0.000000 1.981880 0.000000 
#    z 0.008830 0.000000 2.042600 
# 
# From -- ./inp_files/29766.got.cif
#   From: 2010.06.25/outbox.cif.g09.slc.cpg/sg11_15_cif.got.tgz:29766.got - 2010.06.27 23:14:04.
