data_PCOD8074156
_publ_section_title
;
Structure prediction by ZEFSAII (Michael W. Deem and Ramdas Pophale) SiO2 
 PCOD8074156
Probable space group: P 21/M
;
_chemical_formula_sum "Si O2"
_cell_formula_units_Z 32
_cell_length_a 12.402922
_cell_length_b 19.328796
_cell_length_c 9.899437
_cell_angle_alpha 90.000000
_cell_angle_beta 43.660203
_cell_angle_gamma 90.000000
_cell_volume 1638.428760
_symmetry_space_group_name_H-M "P 21/M"
_symmetry_group_IT_number 11
_symmetry_cell_setting 'monoclinic'
loop_
_space_group_symop_operation_xyz
x,y,z
-x,1/2+y,-z
-x,-y,-z
x,1/2-y,z
loop_
_atom_site_type_symbol
_atom_site_label
_atom_site_fract_x
_atom_site_fract_y
_atom_site_fract_z
Si Si1 0.278498 0.174434 0.400326
Si Si2 0.864581 0.946531 0.137554
Si Si3 0.340189 0.043657 0.927807
Si Si4 0.762352 0.171523 0.816876
Si Si5 0.175060 0.973515 0.333777
Si Si6 0.639749 0.533486 0.581153
Si Si7 0.431006 0.173985 0.000629
Si Si8 0.986400 0.326477 0.836071
O O1 0.344721 0.250000 0.383910
O O2 0.380689 0.115761 0.380522
O O3 0.098116 0.167167 0.604050
O O4 0.281678 0.166419 0.234599
O O5 0.791777 0.932990 0.057120
O O6 0.734604 0.977356 0.356676
O O7 0.951739 0.877023 0.105337
O O8 0.000000 0.000000 0.000000
O O9 0.428118 0.113620 0.893987
O O10 0.467468 0.998409 0.731905
O O11 0.265608 0.001023 0.118740
O O12 0.817926 0.250000 0.724125
O O13 0.830887 0.110290 0.660287
O O14 0.576081 0.166545 0.972527
O O15 0.816279 0.157025 0.924403
O O16 0.265481 0.999946 0.382115
O O17 0.000000 0.000000 0.500000
O O18 0.433762 0.250000 0.926937
O O19 0.989195 0.250000 0.898169
#
# Coordination Sequence:
#
# PCOD8074156 Si02
#       8
#     4   4   4   4   4   4   4   4
#     4   9  17  32  55  85 115 145 193 246 290 347
#     4  11  24  41  58  85 121 161 204 247 299 362
#     4  12  23  39  59  87 125 157 198 252 303 358
#     4  10  20  35  56  86 120 151 191 248 299 354
#     4  12  22  36  61  93 121 154 201 251 305 359
#     4  11  21  38  60  86 118 160 203 247 300 357
#     4  10  20  35  57  90 123 155 192 245 310 361
#     4   9  19  37  60  83 113 155 201 244 291 351
#
# _framework density 19.530906999999999
#
# number of rings (size 3 to 8) (size 9 to 14) (size 15 to 20)
#    0.000    1.500    2.500    4.500    0.000    0.500 
#    0.000    0.000    0.000    3.000    0.000    0.000 
#    0.000    0.000    0.000    0.000    0.000    0.000 
#
# Total GULP energy -396582.719831 kJ/mol
# GULP energy per Si atom -12393.209995 kJ/mol
# Density = 1.948645 g / cm^3
# Si number density = 19.530907 Si / 1000 Ang^3
#
#
#
# Elastic Constant Matrix: (Units=GPa)
#
#
# Indices 1 2 3 4 5 6 
#
# 1 114.8647 44.5717 9.6930 0.0000 1.9105 0.0000
# 2 44.5717 135.2368 31.9887 0.0000 -4.1970 0.0000
# 3 9.6930 31.9887 65.4945 0.0000 -2.0393 0.0000
# 4 0.0000 0.0000 0.0000 24.5743 0.0000 -3.5902
# 5 1.9105 -4.1970 -2.0393 0.0000 25.2573 0.0000
# 6 0.0000 0.0000 0.0000 -3.5902 0.0000 24.5963
#
#
#
# Elastic Compliance Matrix: (Units=1/GPa)
#
#
# Indices 1 2 3 4 5 6 
#
# 1 0.010027 -0.003374 0.000123 0.000000 -0.001309 0.000000
# 2 -0.003374 0.009524 -0.004106 0.000000 0.001506 0.000000
# 3 0.000123 -0.004106 0.017277 0.000000 0.000703 0.000000
# 4 0.000000 0.000000 0.000000 0.041580 0.000000 0.006069
# 5 -0.001309 0.001506 0.000703 0.000000 0.039999 0.000000
# 6 0.000000 0.000000 0.000000 0.006069 0.000000 0.041542
#
#
# Mechanical properties :
#
#
# Convention : Reuss Voigt Hill
#
# Bulk Modulus (GPa) = 45.21760 54.23364 49.72562
# Shear Modulus (GPa) = 27.46738 30.17509 28.82124
#
# Velocity S-wave (km/s) = 3.75421 3.93490 3.84562
# Velocity P-wave (km/s) = 6.48029 6.96226 6.72559
#
# Compressibility (1/GPa) = 0.02211528
#
# Stress axis : x y z
#
# Youngs Moduli (GPa) = 99.73408 104.99248 57.87929
#
# Poissons Ratio (x) = 0.35429 -0.00715
# Poissons Ratio (y) = 0.33655 0.23763
# Poissons Ratio (z) = -0.01231 0.43106
#
# Static dielectric constant tensor:
#      x y z
#    x 3.436110 0.000000 -0.247000 
#    y 0.000000 4.081820 0.000000 
#    z -0.247000 0.000000 3.465130 
# 
# 
# High freq. dielectric constant tensor:
#      x y z
#    x 1.750250 0.000000 -0.019330 
#    y 0.000000 1.782650 0.000000 
#    z -0.019330 0.000000 1.739540 
# 
# From -- ./inp_files/19337.got.cif
#   From: 2010.06.25/outbox.cif.g09.slc.cpg/sg11_10_cif.got.tgz:19337.got - 2010.06.27 23:14:04.
