data_PCOD8074067
_publ_section_title
;
Structure prediction by ZEFSAII (Michael W. Deem and Ramdas Pophale) SiO2 
 PCOD8074067
Probable space group: P 21/M
;
_chemical_formula_sum "Si O2"
_cell_formula_units_Z 32
_cell_length_a 14.848688
_cell_length_b 8.955036
_cell_length_c 25.735797
_cell_angle_alpha 90.000000
_cell_angle_beta 30.264963
_cell_angle_gamma 90.000000
_cell_volume 1724.738239
_symmetry_space_group_name_H-M "P 21/M"
_symmetry_group_IT_number 11
_symmetry_cell_setting 'monoclinic'
loop_
_space_group_symop_operation_xyz
x,y,z
-x,1/2+y,-z
-x,-y,-z
x,1/2-y,z
loop_
_atom_site_type_symbol
_atom_site_label
_atom_site_fract_x
_atom_site_fract_y
_atom_site_fract_z
Si Si1 0.869167 0.573015 0.920740
Si Si2 0.342502 0.080543 0.606762
Si Si3 0.494595 0.573020 0.280920
Si Si4 0.142275 0.573271 0.294601
Si Si5 0.483855 0.072812 0.845756
Si Si6 0.949032 0.078761 0.775123
Si Si7 0.094476 0.572489 0.502366
Si Si8 0.221320 0.427959 0.777884
O O1 0.886425 0.750000 0.914325
O O2 0.870247 0.521935 0.860354
O O3 0.026420 0.502406 0.877318
O O4 0.684556 0.514888 0.037621
O O5 0.401769 0.250000 0.581207
O O6 0.161688 0.058922 0.664276
O O7 0.315617 0.016931 0.678028
O O8 0.500000 0.000000 0.500000
O O9 0.504439 0.750000 0.274796
O O10 0.523687 0.506935 0.208810
O O11 0.302228 0.523830 0.398915
O O12 0.655396 0.512283 0.236737
O O13 0.115157 0.750000 0.315983
O O14 0.334450 0.516490 0.218190
O O15 0.132655 0.528101 0.238961
O O16 0.989511 0.488076 0.402607
O O17 0.484311 0.250000 0.843544
O O18 0.901016 0.250000 0.812169
O O19 0.072894 0.750000 0.509527
O O20 0.000000 0.500000 0.500000
O O21 0.195683 0.250000 0.790902
#
# Coordination Sequence:
#
# PCOD8074067 Si02
#       8
#     4   4   4   4   4   4   4   4
#     4  10  20  35  56  80 107 139 180 231 273 317
#     4   9  18  31  47  71 101 134 173 214 260 313
#     4   9  18  34  56  79 107 146 181 212 265 331
#     4  10  20  37  58  80 110 147 182 221 270 325
#     4   9  18  34  56  80 107 142 180 219 276 329
#     4   9  20  37  55  76 107 145 180 218 273 327
#     4  11  21  35  57  82 112 148 182 221 268 319
#     4   9  19  36  55  75 104 142 181 218 266 327
#
# _framework density 18.553540000000002
#
# number of rings (size 3 to 8) (size 9 to 14) (size 15 to 20)
#    0.000    2.500    1.250    1.500    1.750    3.500 
#    0.000    2.500    0.000    0.000    0.000    0.000 
#    0.000    0.000    0.000    0.000    0.000    0.000 
#
# Total GULP energy -396780.081462 kJ/mol
# GULP energy per Si atom -12399.377546 kJ/mol
# Density = 1.851131 g / cm^3
# Si number density = 18.553540 Si / 1000 Ang^3
#
#
#
# Elastic Constant Matrix: (Units=GPa)
#
#
# Indices 1 2 3 4 5 6 
#
# 1 162.9458 27.5534 66.7674 0.0000 3.3584 0.0000
# 2 27.5534 42.7438 36.2740 0.0000 -0.2358 0.0000
# 3 66.7674 36.2740 147.6285 0.0000 -3.0719 0.0000
# 4 0.0000 0.0000 0.0000 27.4899 0.0000 0.9310
# 5 3.3584 -0.2358 -3.0719 0.0000 16.8781 0.0000
# 6 0.0000 0.0000 0.0000 0.9310 0.0000 20.3310
#
#
#
# Elastic Compliance Matrix: (Units=1/GPa)
#
#
# Indices 1 2 3 4 5 6 
#
# 1 0.007823 -0.002545 -0.002957 0.000000 -0.002130 0.000000
# 2 -0.002545 0.030401 -0.006323 0.000000 -0.000220 0.000000
# 3 -0.002957 -0.006323 0.009712 0.000000 0.002268 0.000000
# 4 0.000000 0.000000 0.000000 0.036434 0.000000 -0.001668
# 5 -0.002130 -0.000220 0.002268 0.000000 0.060082 0.000000
# 6 0.000000 0.000000 0.000000 -0.001668 0.000000 0.049262
#
#
# Mechanical properties :
#
#
# Convention : Reuss Voigt Hill
#
# Bulk Modulus (GPa) = 41.17792 68.27861 54.72827
# Shear Modulus (GPa) = 22.17694 27.78802 24.98248
#
# Velocity S-wave (km/s) = 3.46105 3.87424 3.67346
# Velocity P-wave (km/s) = 6.18176 7.54279 6.89594
#
# Compressibility (1/GPa) = 0.02428486
#
# Stress axis : x y z
#
# Youngs Moduli (GPa) = 127.82940 32.89384 102.96523
#
# Poissons Ratio (x) = 0.08372 0.30447
# Poissons Ratio (y) = 0.32534 0.65108
# Poissons Ratio (z) = 0.37799 0.20800
#
# Static dielectric constant tensor:
#      x y z
#    x 3.920700 0.000000 0.133860 
#    y 0.000000 3.170060 0.000000 
#    z 0.133860 0.000000 3.627490 
# 
# 
# High freq. dielectric constant tensor:
#      x y z
#    x 1.730250 0.000000 -0.000610 
#    y 0.000000 1.692010 0.000000 
#    z -0.000610 0.000000 1.724410 
# 
# From -- ./inp_files/51639.got.cif
#   From: 2010.06.25/outbox.cif.g09.slc.cpg/sg11_26_cif.got.tgz:51639.got - 2010.06.27 23:14:04.
