data_PCOD8074315
_publ_section_title
;
Structure prediction by ZEFSAII (Michael W. Deem and Ramdas Pophale) SiO2 
 PCOD8074315
Probable space group: P 21/M
;
_chemical_formula_sum "Si O2"
_cell_formula_units_Z 32
_cell_length_a 25.548434
_cell_length_b 9.027943
_cell_length_c 24.430426
_cell_angle_alpha 90.000000
_cell_angle_beta 16.760138
_cell_angle_gamma 90.000000
_cell_volume 1624.904088
_symmetry_space_group_name_H-M "P 21/M"
_symmetry_group_IT_number 11
_symmetry_cell_setting 'monoclinic'
loop_
_space_group_symop_operation_xyz
x,y,z
-x,1/2+y,-z
-x,-y,-z
x,1/2-y,z
loop_
_atom_site_type_symbol
_atom_site_label
_atom_site_fract_x
_atom_site_fract_y
_atom_site_fract_z
Si Si1 0.451071 0.574923 0.749945
Si Si2 0.781015 0.412403 0.615256
Si Si3 0.142518 0.577256 0.135072
Si Si4 0.269721 0.074910 0.439167
Si Si5 0.307820 0.073617 0.189907
Si Si6 0.198720 0.574939 0.796167
Si Si7 0.488958 0.424531 0.431728
Si Si8 0.191571 0.089317 0.188810
O O1 0.467032 0.750000 0.730424
O O2 0.602097 0.514650 0.640923
O O3 0.482904 0.511167 0.657544
O O4 0.251253 0.527325 0.971675
O O5 0.691289 0.250000 0.716526
O O6 0.670714 0.498981 0.678171
O O7 0.803453 0.506879 0.648153
O O8 0.979053 0.389202 0.393651
O O9 0.157994 0.750000 0.128253
O O10 0.252003 0.512819 0.077926
O O11 0.933828 0.528699 0.338989
O O12 0.287663 0.250000 0.412467
O O13 0.309849 0.250000 0.193025
O O14 0.228773 0.019057 0.211020
O O15 0.500000 0.000000 0.000000
O O16 0.170712 0.750000 0.815942
O O17 0.312056 0.508283 0.631982
O O18 0.323001 0.540833 0.724886
O O19 0.000000 0.500000 0.000000
O O20 0.446613 0.250000 0.475881
O O21 0.288417 0.250000 0.087513
#
# Coordination Sequence:
#
# PCOD8074315 Si02
#       8
#     4   4   4   4   4   4   4   4
#     4   9  18  33  55  81 107 140 183 228 271 317
#     4  10  20  36  55  74  99 132 169 213 266 325
#     4   9  18  32  52  77 103 135 175 218 266 322
#     4   9  18  33  53  77 105 137 177 223 268 321
#     4  11  23  36  51  75 102 129 166 213 266 325
#     4  10  20  35  58  86 118 156 194 234 281 330
#     4   9  19  36  57  84 117 152 193 237 280 329
#     4   9  20  37  54  72  98 131 168 212 264 322
#
# _framework density 19.693470000000001
#
# number of rings (size 3 to 8) (size 9 to 14) (size 15 to 20)
#    0.000    2.500    0.000    1.500    1.750    3.000 
#    0.000    5.000    0.000    3.000    0.000    0.000 
#    0.000    0.000    0.000    0.000    0.000    0.000 
#
# Total GULP energy -396553.382500 kJ/mol
# GULP energy per Si atom -12392.293203 kJ/mol
# Density = 1.964865 g / cm^3
# Si number density = 19.693470 Si / 1000 Ang^3
#
#
#
# Elastic Constant Matrix: (Units=GPa)
#
#
# Indices 1 2 3 4 5 6 
#
# 1 109.6343 24.1700 16.1415 0.0000 15.4239 0.0000
# 2 24.1700 61.7248 24.5729 0.0000 5.2815 0.0000
# 3 16.1415 24.5729 67.0677 0.0000 3.2075 0.0000
# 4 0.0000 0.0000 0.0000 23.2594 0.0000 3.7476
# 5 15.4239 5.2815 3.2075 0.0000 32.6097 0.0000
# 6 0.0000 0.0000 0.0000 3.7476 0.0000 25.4863
#
#
#
# Elastic Compliance Matrix: (Units=1/GPa)
#
#
# Indices 1 2 3 4 5 6 
#
# 1 0.010640 -0.003343 -0.001126 0.000000 -0.004380 0.000000
# 2 -0.003343 0.020207 -0.006549 0.000000 -0.001047 0.000000
# 3 -0.001126 -0.006549 0.017587 0.000000 -0.000136 0.000000
# 4 0.000000 0.000000 0.000000 0.044037 0.000000 -0.006475
# 5 -0.004380 -0.001047 -0.000136 0.000000 0.032921 0.000000
# 6 0.000000 0.000000 0.000000 -0.006475 0.000000 0.040189
#
#
# Mechanical properties :
#
#
# Convention : Reuss Voigt Hill
#
# Bulk Modulus (GPa) = 37.88239 40.91061 39.39650
# Shear Modulus (GPa) = 25.45604 27.84058 26.64831
#
# Velocity S-wave (km/s) = 3.59919 3.76399 3.68252
# Velocity P-wave (km/s) = 6.04566 6.30151 6.17491
#
# Compressibility (1/GPa) = 0.02639749
#
# Stress axis : x y z
#
# Youngs Moduli (GPa) = 93.98143 49.48827 56.85900
#
# Poissons Ratio (x) = 0.16545 0.06405
# Poissons Ratio (y) = 0.31421 0.37236
# Poissons Ratio (z) = 0.10586 0.32409
#
# Static dielectric constant tensor:
#      x y z
#    x 2.823790 0.000000 -0.320310 
#    y 0.000000 3.692400 0.000000 
#    z -0.320310 0.000000 3.478340 
# 
# 
# High freq. dielectric constant tensor:
#      x y z
#    x 1.767040 0.000000 0.001400 
#    y 0.000000 1.751910 0.000000 
#    z 0.001400 0.000000 1.770530 
# 
# From -- ./inp_files/69939.got.cif
#   From: 2010.06.25/outbox.cif.g09.slc.cpg/sg11_35_cif.got.tgz:69939.got - 2010.06.27 23:14:04.
