data_PCOD8074072
_publ_section_title
;
Structure prediction by ZEFSAII (Michael W. Deem and Ramdas Pophale) SiO2 
 PCOD8074072
Probable space group: P 21/M
;
_chemical_formula_sum "Si O2"
_cell_formula_units_Z 20
_cell_length_a 20.959876
_cell_length_b 8.818765
_cell_length_c 7.183135
_cell_angle_alpha 90.000000
_cell_angle_beta 129.988943
_cell_angle_gamma 90.000000
_cell_volume 1017.266600
_symmetry_space_group_name_H-M "P 21/M"
_symmetry_group_IT_number 11
_symmetry_cell_setting 'monoclinic'
loop_
_space_group_symop_operation_xyz
x,y,z
-x,1/2+y,-z
-x,-y,-z
x,1/2-y,z
loop_
_atom_site_type_symbol
_atom_site_label
_atom_site_fract_x
_atom_site_fract_y
_atom_site_fract_z
Si Si1 0.295343 0.076380 0.620961
Si Si2 0.603131 0.922698 0.833300
Si Si3 0.991910 0.928345 0.282521
Si Si4 0.417984 0.924520 0.579721
Si Si5 0.123312 0.927243 0.220702
O O1 0.271033 0.250000 0.534432
O O2 0.374548 0.031360 0.647540
O O3 0.218665 0.968699 0.431206
O O4 0.320528 0.054410 0.882907
O O5 0.599599 0.750000 0.752217
O O6 0.516086 0.961133 0.772051
O O7 0.618329 0.036342 0.691941
O O8 0.984913 0.750000 0.293903
O O9 0.071274 0.976150 0.305970
O O10 0.000000 0.000000 0.500000
O O11 0.909201 0.987513 0.024227
O O12 0.398328 0.750000 0.587601
O O13 0.114449 0.750000 0.166436
#
# Coordination Sequence:
#
# PCOD8074072 Si02
#       5
#     4   4   4   4   4
#     4  11  22  36  56  81 112 147 183 228 279 329
#     4   9  20  37  55  78 109 148 191 231 275 328
#     4  10  21  39  63  86 112 147 182 222 273 328
#     4  10  20  35  56  80 109 146 188 234 279 326
#     4  10  22  39  58  84 114 143 183 228 271 327
#
# _framework density 19.660529
#
# number of rings (size 3 to 8) (size 9 to 14) (size 15 to 20)
#    0.000    2.000    0.000    3.000    0.000    6.400 
#    0.000    4.000    0.000    0.000    0.000    0.000 
#    0.000    0.000    0.000    0.000    0.000    0.000 
#
# Total GULP energy -248087.727783 kJ/mol
# GULP energy per Si atom -12404.386389 kJ/mol
# Density = 1.961578 g / cm^3
# Si number density = 19.660529 Si / 1000 Ang^3
#
#
#
# Elastic Constant Matrix: (Units=GPa)
#
#
# Indices 1 2 3 4 5 6 
#
# 1 32.5581 18.3220 26.7614 0.0000 -2.6520 0.0000
# 2 18.3220 65.2255 39.4524 0.0000 -5.1410 0.0000
# 3 26.7614 39.4524 115.5830 0.0000 -2.6612 0.0000
# 4 0.0000 0.0000 0.0000 35.8698 0.0000 -2.1242
# 5 -2.6520 -5.1410 -2.6612 0.0000 26.8741 0.0000
# 6 0.0000 0.0000 0.0000 -2.1242 0.0000 34.1051
#
#
#
# Elastic Compliance Matrix: (Units=1/GPa)
#
#
# Indices 1 2 3 4 5 6 
#
# 1 0.040537 -0.007035 -0.006939 0.000000 0.001967 0.000000
# 2 -0.007035 0.020794 -0.005406 0.000000 0.002748 0.000000
# 3 -0.006939 -0.005406 0.012092 0.000000 -0.000521 0.000000
# 4 0.000000 0.000000 0.000000 0.027982 0.000000 0.001743
# 5 0.001967 0.002748 -0.000521 0.000000 0.037879 0.000000
# 6 0.000000 0.000000 0.000000 0.001743 0.000000 0.029430
#
#
# Mechanical properties :
#
#
# Convention : Reuss Voigt Hill
#
# Bulk Modulus (GPa) = 28.84881 42.49315 35.67098
# Shear Modulus (GPa) = 22.82833 27.95852 25.39342
#
# Velocity S-wave (km/s) = 3.41123 3.77512 3.59777
# Velocity P-wave (km/s) = 5.49733 6.37670 5.95327
#
# Compressibility (1/GPa) = 0.03466347
#
# Stress axis : x y z
#
# Youngs Moduli (GPa) = 24.66876 48.09150 82.70226
#
# Poissons Ratio (x) = 0.33830 0.57389
# Poissons Ratio (y) = 0.17353 0.44705
# Poissons Ratio (z) = 0.17118 0.25996
#
# Static dielectric constant tensor:
#      x y z
#    x 3.451030 0.000000 -0.025760 
#    y 0.000000 3.607310 0.000000 
#    z -0.025760 0.000000 3.558300 
# 
# 
# High freq. dielectric constant tensor:
#      x y z
#    x 1.755010 0.000000 -0.001010 
#    y 0.000000 1.776140 0.000000 
#    z -0.001010 0.000000 1.771690 
# 
# From -- ./inp_files/8527.got.cif
#   From: 2010.06.25/outbox.cif.g09.slc.cpg/sg11_5_cif.got.tgz:8527.got - 2010.06.27 23:14:04.
