data_PCOD8074624
_publ_section_title
;
Structure prediction by ZEFSAII (Michael W. Deem and Ramdas Pophale) SiO2 
 PCOD8074624
Probable space group: P 21/M
;
_chemical_formula_sum "Si O2"
_cell_formula_units_Z 32
_cell_length_a 20.561521
_cell_length_b 14.388128
_cell_length_c 6.746630
_cell_angle_alpha 90.000000
_cell_angle_beta 120.791555
_cell_angle_gamma 90.000000
_cell_volume 1714.578857
_symmetry_space_group_name_H-M "P 21/M"
_symmetry_group_IT_number 11
_symmetry_cell_setting 'monoclinic'
loop_
_space_group_symop_operation_xyz
x,y,z
-x,1/2+y,-z
-x,-y,-z
x,1/2-y,z
loop_
_atom_site_type_symbol
_atom_site_label
_atom_site_fract_x
_atom_site_fract_y
_atom_site_fract_z
Si Si1 0.554723 0.070880 0.192502
Si Si2 0.907223 0.357070 0.791585
Si Si3 0.922231 0.642963 0.804289
Si Si4 0.339844 0.001474 0.309328
Si Si5 0.833039 0.992494 0.934036
Si Si6 0.541418 0.645117 0.617608
Si Si7 0.917404 0.497232 0.463424
Si Si8 0.403215 0.643859 0.143241
O O1 0.619196 0.020388 0.420134
O O2 0.503026 0.138206 0.244424
O O3 0.598804 0.130804 0.095689
O O4 0.500000 0.000000 0.000000
O O5 0.881405 0.250000 0.730603
O O6 0.849127 0.412025 0.841405
O O7 0.908746 0.403391 0.577590
O O8 0.988875 0.365322 0.019180
O O9 0.896376 0.750000 0.745242
O O10 0.879076 0.594713 0.918814
O O11 0.903011 0.589106 0.572200
O O12 0.338711 0.914503 0.155853
O O13 0.254957 0.031985 0.222846
O O14 0.383053 0.084478 0.264627
O O15 0.854135 0.005166 0.195952
O O16 0.567138 0.750000 0.621399
O O17 0.485108 0.610100 0.355118
O O18 0.000000 0.500000 0.500000
O O19 0.388529 0.750000 0.177609
#
# Coordination Sequence:
#
# PCOD8074624 Si02
#       8
#     4   4   4   4   4   4   4   4
#     4  11  18  37  63  80 106 149 191 228 278 329
#     4  10  21  38  61  87 113 148 195 240 280 336
#     4  10  21  38  61  87 113 148 196 239 279 336
#     4  11  23  37  57  84 118 151 182 232 288 337
#     4  11  23  39  57  83 123 153 184 237 291 336
#     4  10  20  36  57  85 112 144 190 232 274 335
#     4  11  19  37  61  85 111 149 193 231 280 340
#     4  10  20  36  60  86 110 144 192 234 274 333
#
# _framework density 18.663475999999999
#
# number of rings (size 3 to 8) (size 9 to 14) (size 15 to 20)
#    0.000    1.500    5.000    1.875    0.000    5.000 
#    0.000    1.250    0.000    0.000    0.000    0.000 
#    0.000    0.000    0.000    0.000    0.000    0.000 
#
# Total GULP energy -396907.771125 kJ/mol
# GULP energy per Si atom -12403.367848 kJ/mol
# Density = 1.862100 g / cm^3
# Si number density = 18.663476 Si / 1000 Ang^3
#
#
#
# Elastic Constant Matrix: (Units=GPa)
#
#
# Indices 1 2 3 4 5 6 
#
# 1 61.6806 17.9099 26.0591 0.0000 3.3734 0.0000
# 2 17.9099 103.3349 29.3436 0.0000 -7.3370 0.0000
# 3 26.0591 29.3436 109.6552 0.0000 -14.9415 0.0000
# 4 0.0000 0.0000 0.0000 20.7422 0.0000 -5.8615
# 5 3.3734 -7.3370 -14.9415 0.0000 29.0822 0.0000
# 6 0.0000 0.0000 0.0000 -5.8615 0.0000 11.4554
#
#
#
# Elastic Compliance Matrix: (Units=1/GPa)
#
#
# Indices 1 2 3 4 5 6 
#
# 1 0.019138 -0.002374 -0.004620 0.000000 -0.005192 0.000000
# 2 -0.002374 0.010813 -0.002065 0.000000 0.001942 0.000000
# 3 -0.004620 -0.002065 0.011583 0.000000 0.005966 0.000000
# 4 0.000000 0.000000 0.000000 0.056360 0.000000 0.028839
# 5 -0.005192 0.001942 0.005966 0.000000 0.038543 0.000000
# 6 0.000000 0.000000 0.000000 0.028839 0.000000 0.102052
#
#
# Mechanical properties :
#
#
# Convention : Reuss Voigt Hill
#
# Bulk Modulus (GPa) = 42.70550 46.81064 44.75807
# Shear Modulus (GPa) = 18.90992 25.67981 22.29487
#
# Velocity S-wave (km/s) = 3.18654 3.71339 3.46001
# Velocity P-wave (km/s) = 6.03906 6.59709 6.32423
#
# Compressibility (1/GPa) = 0.02341619
#
# Stress axis : x y z
#
# Youngs Moduli (GPa) = 52.25264 92.48211 86.33372
#
# Poissons Ratio (x) = 0.21951 0.39889
# Poissons Ratio (y) = 0.12403 0.17826
# Poissons Ratio (z) = 0.24143 0.19095
#
# Static dielectric constant tensor:
#      x y z
#    x 3.270540 0.000000 -0.230970 
#    y 0.000000 3.462020 0.000000 
#    z -0.230970 0.000000 3.633540 
# 
# 
# High freq. dielectric constant tensor:
#      x y z
#    x 1.709720 0.000000 -0.016660 
#    y 0.000000 1.728740 0.000000 
#    z -0.016660 0.000000 1.726910 
# 
# From -- ./inp_files/9037.got.cif
#   From: 2010.06.25/outbox.cif.g09.slc.cpg/sg11_5_cif.got.tgz:9037.got - 2010.06.27 23:14:04.
