data_PCOD8074962
_publ_section_title
;
Structure prediction by ZEFSAII (Michael W. Deem and Ramdas Pophale) SiO2 
 PCOD8074962
Probable space group: P 21/M
;
_chemical_formula_sum "Si O2"
_cell_formula_units_Z 24
_cell_length_a 10.703504
_cell_length_b 17.185764
_cell_length_c 4.977555
_cell_angle_alpha 90.000000
_cell_angle_beta 95.553437
_cell_angle_gamma 90.000000
_cell_volume 911.313224
_symmetry_space_group_name_H-M "P 21/M"
_symmetry_group_IT_number 11
_symmetry_cell_setting 'monoclinic'
loop_
_space_group_symop_operation_xyz
x,y,z
-x,1/2+y,-z
-x,-y,-z
x,1/2-y,z
loop_
_atom_site_type_symbol
_atom_site_label
_atom_site_fract_x
_atom_site_fract_y
_atom_site_fract_z
Si Si1 0.442944 0.916516 0.686382
Si Si2 0.829557 0.661485 0.134052
Si Si3 0.810449 0.096752 0.648530
Si Si4 0.244826 0.750000 0.125616
Si Si5 0.591130 0.250000 0.330057
Si Si6 0.005709 0.161212 0.323435
Si Si7 0.314002 0.478621 0.097013
O O1 0.341084 0.905368 0.430652
O O2 0.486276 0.827431 0.763070
O O3 0.576112 0.960253 0.654829
O O4 0.371428 0.956352 0.916677
O O5 0.784522 0.750000 0.062066
O O6 0.943126 0.637117 0.957566
O O7 0.716275 0.600455 0.071197
O O8 0.877288 0.654486 0.447722
O O9 0.840811 0.172482 0.840318
O O10 0.895782 0.101666 0.399274
O O11 0.817173 0.013231 0.802846
O O12 0.363424 0.750000 0.350584
O O13 0.281707 0.750000 0.822686
O O14 0.952989 0.250000 0.307208
#
# Coordination Sequence:
#
# PCOD8074962 Si02
#       7
#     4   4   4   2   2   4   4
#     4  10  24  41  65 100 134 173 218 275 330 391
#     4  10  25  46  66  95 132 182 223 264 332 397
#     4  11  22  40  68  98 133 169 217 279 333 382
#     4  10  20  36  62  94 124 166 206 268 325 375
#     4  10  20  40  62  90 128 166 220 250 323 389
#     4  10  23  44  70  96 131 172 226 278 321 388
#     4  11  24  42  66  94 141 172 219 273 330 394
#
# _framework density 26.335619000000001
#
# number of rings (size 3 to 8) (size 9 to 14) (size 15 to 20)
#    0.000    1.667    2.500    0.500    5.833    1.333 
#    0.000    0.000    0.000    0.000    0.000    0.000 
#    0.000    0.000    0.000    0.000    0.000    0.000 
#
# Total GULP energy -297380.027920 kJ/mol
# GULP energy per Si atom -12390.834497 kJ/mol
# Density = 2.627568 g / cm^3
# Si number density = 26.335619 Si / 1000 Ang^3
#
#
#
# Elastic Constant Matrix: (Units=GPa)
#
#
# Indices 1 2 3 4 5 6 
#
# 1 43.5577 15.4251 -16.2897 0.0000 9.6019 0.0000
# 2 15.4251 127.0344 -16.8900 0.0000 6.1472 0.0000
# 3 -16.2897 -16.8900 33.2041 0.0000 -9.1100 0.0000
# 4 0.0000 0.0000 0.0000 9.3221 0.0000 3.1628
# 5 9.6019 6.1472 -9.1100 0.0000 20.8612 0.0000
# 6 0.0000 0.0000 0.0000 3.1628 0.0000 28.5317
#
#
#
# Elastic Compliance Matrix: (Units=1/GPa)
#
#
# Indices 1 2 3 4 5 6 
#
# 1 0.029629 -0.001682 0.011446 0.000000 -0.008144 0.000000
# 2 -0.001682 0.008547 0.003458 0.000000 -0.000234 0.000000
# 3 0.011446 0.003458 0.040635 0.000000 0.011458 0.000000
# 4 0.000000 0.000000 0.000000 0.111465 0.000000 -0.012356
# 5 -0.008144 -0.000234 0.011458 0.000000 0.056757 0.000000
# 6 0.000000 0.000000 0.000000 -0.012356 0.000000 0.036418
#
#
# Mechanical properties :
#
#
# Convention : Reuss Voigt Hill
#
# Bulk Modulus (GPa) = 9.50052 18.69854 14.09953
# Shear Modulus (GPa) = 17.11791 26.51306 21.81548
#
# Velocity S-wave (km/s) = 2.55226 3.17635 2.88125
# Velocity P-wave (km/s) = 3.50723 4.53518 4.05392
#
# Compressibility (1/GPa) = 0.10525736
#
# Stress axis : x y z
#
# Youngs Moduli (GPa) = 33.75018 116.99676 24.60934
#
# Poissons Ratio (x) = 0.19677 -0.28169
# Poissons Ratio (y) = 0.05676 -0.08511
# Poissons Ratio (z) = -0.38631 -0.40462
#
# Static dielectric constant tensor:
#      x y z
#    x 4.399450 0.000000 0.145760 
#    y 0.000000 5.618190 0.000000 
#    z 0.145760 0.000000 4.511360 
# 
# 
# High freq. dielectric constant tensor:
#      x y z
#    x 2.025280 0.000000 0.013400 
#    y 0.000000 2.075810 0.000000 
#    z 0.013400 0.000000 2.051130 
# 
# From -- ./inp_files/4649.got.cif
#   From: 2010.06.25/outbox.cif.g09.slc.cpg/sg11_3_cif.got.tgz:4649.got - 2010.06.27 23:14:04.
