data_PCOD8074135
_publ_section_title
;
Structure prediction by ZEFSAII (Michael W. Deem and Ramdas Pophale) SiO2 
 PCOD8074135
Probable space group: P 21/M
;
_chemical_formula_sum "Si O2"
_cell_formula_units_Z 28
_cell_length_a 30.006346
_cell_length_b 8.859104
_cell_length_c 10.205634
_cell_angle_alpha 90.000000
_cell_angle_beta 33.619362
_cell_angle_gamma 90.000000
_cell_volume 1502.090978
_symmetry_space_group_name_H-M "P 21/M"
_symmetry_group_IT_number 11
_symmetry_cell_setting 'monoclinic'
loop_
_space_group_symop_operation_xyz
x,y,z
-x,1/2+y,-z
-x,-y,-z
x,1/2-y,z
loop_
_atom_site_type_symbol
_atom_site_label
_atom_site_fract_x
_atom_site_fract_y
_atom_site_fract_z
Si Si1 0.582471 0.072973 0.646793
Si Si2 0.738886 0.074298 0.127154
Si Si3 0.163557 0.426475 0.335274
Si Si4 0.996969 0.071763 0.364775
Si Si5 0.235400 0.424651 0.439017
Si Si6 0.846162 0.425415 0.117217
Si Si7 0.406427 0.424644 0.106877
O O1 0.589333 0.250000 0.647919
O O2 0.646038 0.024462 0.379243
O O3 0.610216 0.006327 0.716459
O O4 0.491178 0.020847 0.833865
O O5 0.746787 0.250000 0.069401
O O6 0.789289 0.038347 0.134032
O O7 0.770139 0.971464 0.933620
O O8 0.144451 0.250000 0.368624
O O9 0.082892 0.521098 0.514319
O O10 0.197833 0.469170 0.392822
O O11 0.996397 0.250000 0.382765
O O12 0.000000 0.000000 0.500000
O O13 0.072478 0.020945 0.093933
O O14 0.219371 0.250000 0.513392
O O15 0.196878 0.528587 0.643785
O O16 0.331528 0.457080 0.194273
O O17 0.868710 0.250000 0.067801
O O18 0.414129 0.250000 0.122344
#
# Coordination Sequence:
#
# PCOD8074135 Si02
#       7
#     4   4   4   4   4   4   4
#     4   9  17  31  53  83 113 144 186 234 280 328
#     4  10  20  35  56  84 115 148 190 235 281 336
#     4  11  24  40  59  82 115 154 191 233 284 339
#     4  12  24  40  62  87 114 145 187 236 285 336
#     4  10  22  39  57  84 118 154 192 232 283 338
#     4  11  22  37  61  88 115 149 189 233 282 337
#     4   9  17  31  54  81 113 148 184 231 280 328
#
# _framework density 18.640681000000001
#
# number of rings (size 3 to 8) (size 9 to 14) (size 15 to 20)
#    0.000    1.714    2.857    2.143    0.000    2.857 
#    0.000    0.714    0.000    0.000    0.000    0.000 
#    0.000    0.000    0.000    0.000    0.000    0.000 
#
# Total GULP energy -347211.806745 kJ/mol
# GULP energy per Si atom -12400.421669 kJ/mol
# Density = 1.859825 g / cm^3
# Si number density = 18.640681 Si / 1000 Ang^3
#
#
#
# Elastic Constant Matrix: (Units=GPa)
#
#
# Indices 1 2 3 4 5 6 
#
# 1 96.9695 37.6534 49.2418 0.0000 -5.8816 0.0000
# 2 37.6534 76.9312 43.5425 0.0000 -1.2858 0.0000
# 3 49.2418 43.5425 123.0582 0.0000 -12.5503 0.0000
# 4 0.0000 0.0000 0.0000 32.4555 0.0000 0.7526
# 5 -5.8816 -1.2858 -12.5503 0.0000 32.3259 0.0000
# 6 0.0000 0.0000 0.0000 0.7526 0.0000 21.0485
#
#
#
# Elastic Compliance Matrix: (Units=1/GPa)
#
#
# Indices 1 2 3 4 5 6 
#
# 1 0.014185 -0.004709 -0.003921 0.000000 0.000871 0.000000
# 2 -0.004709 0.017902 -0.004649 0.000000 -0.001950 0.000000
# 3 -0.003921 -0.004649 0.011712 0.000000 0.003649 0.000000
# 4 0.000000 0.000000 0.000000 0.030837 0.000000 -0.001103
# 5 0.000871 -0.001950 0.003649 0.000000 0.032433 0.000000
# 6 0.000000 0.000000 0.000000 -0.001103 0.000000 0.047549
#
#
# Mechanical properties :
#
#
# Convention : Reuss Voigt Hill
#
# Bulk Modulus (GPa) = 57.99946 61.98156 59.99051
# Shear Modulus (GPa) = 26.74903 28.26742 27.50823
#
# Velocity S-wave (km/s) = 3.79222 3.89837 3.84566
# Velocity P-wave (km/s) = 7.09624 7.32024 7.20911
#
# Compressibility (1/GPa) = 0.01724154
#
# Stress axis : x y z
#
# Youngs Moduli (GPa) = 70.49710 55.85955 85.37971
#
# Poissons Ratio (x) = 0.26303 0.33478
# Poissons Ratio (y) = 0.33196 0.39693
# Poissons Ratio (z) = 0.27643 0.25969
#
# Static dielectric constant tensor:
#      x y z
#    x 3.173040 0.000000 -0.152510 
#    y 0.000000 4.322490 0.000000 
#    z -0.152510 0.000000 3.664290 
# 
# 
# High freq. dielectric constant tensor:
#      x y z
#    x 1.710270 0.000000 -0.019620 
#    y 0.000000 1.726190 0.000000 
#    z -0.019620 0.000000 1.735190 
# 
# From -- ./inp_files/28252.got.cif
#   From: 2010.06.25/outbox.cif.g09.slc.cpg/sg11_15_cif.got.tgz:28252.got - 2010.06.27 23:14:04.
