data_PCOD8074595
_publ_section_title
;
Structure prediction by ZEFSAII (Michael W. Deem and Ramdas Pophale) SiO2 
 PCOD8074595
Probable space group: P 21/M
;
_chemical_formula_sum "Si O2"
_cell_formula_units_Z 32
_cell_length_a 12.209480
_cell_length_b 9.130907
_cell_length_c 15.089713
_cell_angle_alpha 90.000000
_cell_angle_beta 92.982755
_cell_angle_gamma 90.000000
_cell_volume 1679.976876
_symmetry_space_group_name_H-M "P 21/M"
_symmetry_group_IT_number 11
_symmetry_cell_setting 'monoclinic'
loop_
_space_group_symop_operation_xyz
x,y,z
-x,1/2+y,-z
-x,-y,-z
x,1/2-y,z
loop_
_atom_site_type_symbol
_atom_site_label
_atom_site_fract_x
_atom_site_fract_y
_atom_site_fract_z
Si Si1 0.889114 0.579948 0.740074
Si Si2 0.097453 0.077249 0.056797
Si Si3 0.280181 0.917431 0.558424
Si Si4 0.324028 0.578659 0.017414
Si Si5 0.039444 0.918733 0.588392
Si Si6 0.454841 0.420096 0.875491
Si Si7 0.700765 0.421665 0.641157
Si Si8 0.461267 0.077916 0.674385
O O1 0.866053 0.750000 0.724880
O O2 0.928341 0.547559 0.841157
O O3 0.776691 0.496170 0.717411
O O4 0.981393 0.522484 0.675130
O O5 0.099664 0.250000 0.035272
O O6 0.214698 0.008984 0.037053
O O7 0.000000 0.000000 0.000000
O O8 0.319738 0.750000 0.564082
O O9 0.168715 0.943134 0.607919
O O10 0.259509 0.963464 0.455705
O O11 0.372575 0.015457 0.604497
O O12 0.295452 0.750000 0.007073
O O13 0.417613 0.550671 0.095213
O O14 0.371577 0.520411 0.926713
O O15 0.011862 0.750000 0.571096
O O16 0.000000 0.000000 0.500000
O O17 0.426501 0.250000 0.891394
O O18 0.436306 0.468043 0.773794
O O19 0.706241 0.250000 0.659747
O O20 0.578891 0.483714 0.649927
O O21 0.459286 0.250000 0.663634
#
# Coordination Sequence:
#
# PCOD8074595 Si02
#       8
#     4   4   4   4   4   4   4   4
#     4  10  22  38  60  87 114 147 190 237 286 338
#     4  11  24  41  59  85 120 155 193 241 292 348
#     4  10  21  35  53  80 114 151 188 232 283 333
#     4  10  20  37  62  86 111 148 190 238 293 346
#     4  10  20  37  58  82 111 144 186 234 279 330
#     4   9  19  36  57  84 115 148 189 238 290 348
#     4  10  20  36  57  82 114 150 190 234 281 336
#     4  10  21  35  53  80 115 151 189 232 280 337
#
# _framework density 19.047882000000001
#
# number of rings (size 3 to 8) (size 9 to 14) (size 15 to 20)
#    0.000    2.000    1.250    1.875    0.000    5.500 
#    0.000    1.250    0.000    0.000    0.000    0.000 
#    0.000    0.000    0.000    0.000    0.000    0.000 
#
# Total GULP energy -396869.658117 kJ/mol
# GULP energy per Si atom -12402.176816 kJ/mol
# Density = 1.900453 g / cm^3
# Si number density = 19.047882 Si / 1000 Ang^3
#
#
#
# Elastic Constant Matrix: (Units=GPa)
#
#
# Indices 1 2 3 4 5 6 
#
# 1 111.4953 50.5038 58.0085 0.0000 -6.1099 0.0000
# 2 50.5038 64.5320 52.0431 0.0000 -2.3120 0.0000
# 3 58.0085 52.0431 105.0785 0.0000 1.1780 0.0000
# 4 0.0000 0.0000 0.0000 29.1823 0.0000 4.9211
# 5 -6.1099 -2.3120 1.1780 0.0000 29.4208 0.0000
# 6 0.0000 0.0000 0.0000 4.9211 0.0000 34.4530
#
#
#
# Elastic Compliance Matrix: (Units=1/GPa)
#
#
# Indices 1 2 3 4 5 6 
#
# 1 0.015075 -0.008271 -0.004255 0.000000 0.002651 0.000000
# 2 -0.008271 0.030532 -0.010568 0.000000 0.001105 0.000000
# 3 -0.004255 -0.010568 0.017127 0.000000 -0.002400 0.000000
# 4 0.000000 0.000000 0.000000 0.035113 0.000000 -0.005015
# 5 0.002651 0.001105 -0.002400 0.000000 0.034723 0.000000
# 6 0.000000 0.000000 0.000000 -0.005015 0.000000 0.029741
#
#
# Mechanical properties :
#
#
# Convention : Reuss Voigt Hill
#
# Bulk Modulus (GPa) = 60.44280 66.91295 63.67787
# Shear Modulus (GPa) = 23.36296 26.64792 25.00544
#
# Velocity S-wave (km/s) = 3.50600 3.74437 3.62714
# Velocity P-wave (km/s) = 6.94192 7.34158 7.14455
#
# Compressibility (1/GPa) = 0.01654457
#
# Stress axis : x y z
#
# Youngs Moduli (GPa) = 66.33653 32.75295 58.38803
#
# Poissons Ratio (x) = 0.27090 0.24845
# Poissons Ratio (y) = 0.54867 0.61705
# Poissons Ratio (z) = 0.28228 0.34613
#
# Static dielectric constant tensor:
#      x y z
#    x 3.546670 0.000000 -0.185740 
#    y 0.000000 3.442150 0.000000 
#    z -0.185740 0.000000 3.653760 
# 
# 
# High freq. dielectric constant tensor:
#      x y z
#    x 1.746610 0.000000 -0.008340 
#    y 0.000000 1.736480 0.000000 
#    z -0.008340 0.000000 1.746690 
# 
# From -- ./inp_files/49351.got.cif
#   From: 2010.06.25/outbox.cif.g09.slc.cpg/sg11_25_cif.got.tgz:49351.got - 2010.06.27 23:14:04.
