data_PCOD8074659
_publ_section_title
;
Structure prediction by ZEFSAII (Michael W. Deem and Ramdas Pophale) SiO2 
 PCOD8074659
Probable space group: P 21/M
;
_chemical_formula_sum "Si O2"
_cell_formula_units_Z 28
_cell_length_a 22.699272
_cell_length_b 9.014711
_cell_length_c 16.520839
_cell_angle_alpha 90.000000
_cell_angle_beta 25.398652
_cell_angle_gamma 90.000000
_cell_volume 1449.993106
_symmetry_space_group_name_H-M "P 21/M"
_symmetry_group_IT_number 11
_symmetry_cell_setting 'monoclinic'
loop_
_space_group_symop_operation_xyz
x,y,z
-x,1/2+y,-z
-x,-y,-z
x,1/2-y,z
loop_
_atom_site_type_symbol
_atom_site_label
_atom_site_fract_x
_atom_site_fract_y
_atom_site_fract_z
Si Si1 0.630936 0.079105 0.160009
Si Si2 0.356715 0.919382 0.676038
Si Si3 0.852567 0.919895 0.601100
Si Si4 0.353983 0.073452 0.429458
Si Si5 0.841175 0.074666 0.774774
Si Si6 0.401781 0.420149 0.186858
Si Si7 0.852733 0.072243 0.200196
O O1 0.619204 0.250000 0.150409
O O2 0.697575 0.059006 0.165421
O O3 0.475410 0.018912 0.340063
O O4 0.737650 0.000584 0.967302
O O5 0.386534 0.750000 0.617285
O O6 0.244434 0.982289 0.753301
O O7 0.500000 0.000000 0.500000
O O8 0.857375 0.750000 0.624037
O O9 0.756470 0.940780 0.642969
O O10 0.005634 0.977758 0.391285
O O11 0.792082 0.016806 0.748954
O O12 0.325648 0.250000 0.465990
O O13 0.402043 0.021497 0.279443
O O14 0.215345 0.990577 0.632197
O O15 0.831157 0.250000 0.787806
O O16 0.448205 0.250000 0.127643
O O17 0.500000 0.500000 0.000000
O O18 0.867256 0.250000 0.186786
O O19 0.000000 0.000000 0.000000
#
# Coordination Sequence:
#
# PCOD8074659 Si02
#       7
#     4   4   4   4   4   4   4
#     4   9  17  31  55  82 105 135 178 225 273 330
#     4  10  20  36  59  84 110 143 184 229 283 339
#     4   9  18  32  49  73 107 139 175 225 273 318
#     4  10  20  36  58  82 112 149 189 235 288 347
#     4   9  17  31  52  75 101 138 179 218 268 330
#     4  10  21  35  54  81 111 149 189 231 284 339
#     4  11  24  40  60  87 118 156 196 239 295 351
#
# _framework density 19.310437
#
# number of rings (size 3 to 8) (size 9 to 14) (size 15 to 20)
#    0.000    2.286    1.429    1.286    0.000    4.000 
#    0.000    5.714    0.000    3.429    0.000    0.000 
#    0.000    0.000    0.000    0.000    0.000    0.000 
#
# Total GULP energy -346995.014226 kJ/mol
# GULP energy per Si atom -12392.679079 kJ/mol
# Density = 1.926649 g / cm^3
# Si number density = 19.310437 Si / 1000 Ang^3
#
#
#
# Elastic Constant Matrix: (Units=GPa)
#
#
# Indices 1 2 3 4 5 6 
#
# 1 105.3245 29.3984 47.7599 0.0000 -2.1991 0.0000
# 2 29.3984 42.0767 41.6474 0.0000 2.6429 0.0000
# 3 47.7599 41.6474 140.9234 0.0000 8.9144 0.0000
# 4 0.0000 0.0000 0.0000 29.5594 0.0000 1.1131
# 5 -2.1991 2.6429 8.9144 0.0000 26.4002 0.0000
# 6 0.0000 0.0000 0.0000 1.1131 0.0000 23.9415
#
#
#
# Elastic Compliance Matrix: (Units=1/GPa)
#
#
# Indices 1 2 3 4 5 6 
#
# 1 0.012463 -0.006400 -0.002492 0.000000 0.002520 0.000000
# 2 -0.006400 0.036879 -0.008647 0.000000 -0.001305 0.000000
# 3 -0.002492 -0.008647 0.010683 0.000000 -0.002949 0.000000
# 4 0.000000 0.000000 0.000000 0.033890 0.000000 -0.001576
# 5 0.002520 -0.001305 -0.002949 0.000000 0.039215 0.000000
# 6 0.000000 0.000000 0.000000 -0.001576 0.000000 0.041842
#
#
# Mechanical properties :
#
#
# Convention : Reuss Voigt Hill
#
# Bulk Modulus (GPa) = 40.08571 58.43735 49.26153
# Shear Modulus (GPa) = 22.89749 27.28149 25.08949
#
# Velocity S-wave (km/s) = 3.44722 3.76278 3.60845
# Velocity P-wave (km/s) = 6.05376 7.01468 6.55186
#
# Compressibility (1/GPa) = 0.02494654
#
# Stress axis : x y z
#
# Youngs Moduli (GPa) = 80.23481 27.11598 93.60880
#
# Poissons Ratio (x) = 0.17353 0.23328
# Poissons Ratio (y) = 0.51348 0.80947
# Poissons Ratio (z) = 0.19995 0.23448
#
# Static dielectric constant tensor:
#      x y z
#    x 3.294380 0.000000 -0.366410 
#    y 0.000000 3.314880 0.000000 
#    z -0.366410 0.000000 3.404970 
# 
# 
# High freq. dielectric constant tensor:
#      x y z
#    x 1.756120 0.000000 0.000030 
#    y 0.000000 1.724470 0.000000 
#    z 0.000030 0.000000 1.759310 
# 
# From -- ./inp_files/54471.got.cif
#   From: 2010.06.25/outbox.cif.g09.slc.cpg/sg11_28_cif.got.tgz:54471.got - 2010.06.27 23:14:04.
