data_PCOD8074091
_publ_section_title
;
Structure prediction by ZEFSAII (Michael W. Deem and Ramdas Pophale) SiO2 
 PCOD8074091
Probable space group: P 21/M
;
_chemical_formula_sum "Si O2"
_cell_formula_units_Z 24
_cell_length_a 24.606951
_cell_length_b 8.847623
_cell_length_c 12.081476
_cell_angle_alpha 90.000000
_cell_angle_beta 28.171330
_cell_angle_gamma 90.000000
_cell_volume 1241.787675
_symmetry_space_group_name_H-M "P 21/M"
_symmetry_group_IT_number 11
_symmetry_cell_setting 'monoclinic'
loop_
_space_group_symop_operation_xyz
x,y,z
-x,1/2+y,-z
-x,-y,-z
x,1/2-y,z
loop_
_atom_site_type_symbol
_atom_site_label
_atom_site_fract_x
_atom_site_fract_y
_atom_site_fract_z
Si Si1 0.912688 0.427928 0.467223
Si Si2 0.696085 0.075163 0.447294
Si Si3 0.288113 0.571704 0.328738
Si Si4 0.741287 0.070912 0.961186
Si Si5 0.169104 0.428900 0.984893
Si Si6 0.432116 0.074717 0.886596
O O1 0.924394 0.250000 0.449538
O O2 0.835377 0.475929 0.500729
O O3 0.850216 0.483798 0.691709
O O4 0.040096 0.497813 0.228767
O O5 0.731311 0.250000 0.373949
O O6 0.708329 0.019097 0.551232
O O7 0.567739 0.047971 0.634450
O O8 0.783397 0.975395 0.219565
O O9 0.309933 0.750000 0.276887
O O10 0.389243 0.487558 0.081454
O O11 0.735244 0.250000 0.981847
O O12 0.750220 0.000085 0.066127
O O13 0.624447 0.014160 0.113901
O O14 0.170421 0.250000 0.994297
O O15 0.399647 0.250000 0.936324
#
# Coordination Sequence:
#
# PCOD8074091 Si02
#       6
#     4   4   4   4   4   4
#     4   8  17  34  56  81 106 135 173 218 264 310
#     4  10  22  37  53  77 111 147 177 211 261 317
#     4   9  18  36  59  80 106 140 177 216 261 314
#     4  10  20  37  59  79 104 139 177 218 268 320
#     4  11  22  35  53  79 110 141 177 220 262 310
#     4  10  20  35  56  82 108 135 176 224 264 308
#
# _framework density 19.326975999999998
#
# number of rings (size 3 to 8) (size 9 to 14) (size 15 to 20)
#    0.000    2.333    0.000    3.500    0.000    3.333 
#    0.000    7.500    0.000    0.000    0.000    0.000 
#    0.000    0.000    0.000    0.000    0.000    0.000 
#
# Total GULP energy -297652.505474 kJ/mol
# GULP energy per Si atom -12402.187728 kJ/mol
# Density = 1.928299 g / cm^3
# Si number density = 19.326976 Si / 1000 Ang^3
#
#
#
# Elastic Constant Matrix: (Units=GPa)
#
#
# Indices 1 2 3 4 5 6 
#
# 1 65.5590 20.5415 16.6176 0.0000 3.1049 0.0000
# 2 20.5415 61.9823 22.0360 0.0000 0.4238 0.0000
# 3 16.6176 22.0360 57.6949 0.0000 1.5338 0.0000
# 4 0.0000 0.0000 0.0000 28.5815 0.0000 5.9743
# 5 3.1049 0.4238 1.5338 0.0000 21.6092 0.0000
# 6 0.0000 0.0000 0.0000 5.9743 0.0000 29.0543
#
#
#
# Elastic Compliance Matrix: (Units=1/GPa)
#
#
# Indices 1 2 3 4 5 6 
#
# 1 0.017645 -0.004683 -0.003235 0.000000 -0.002214 0.000000
# 2 -0.004683 0.019912 -0.006276 0.000000 0.000728 0.000000
# 3 -0.003235 -0.006276 0.020685 0.000000 -0.000880 0.000000
# 4 0.000000 0.000000 0.000000 0.036559 0.000000 -0.007517
# 5 -0.002214 0.000728 -0.000880 0.000000 0.046643 0.000000
# 6 0.000000 0.000000 0.000000 -0.007517 0.000000 0.035964
#
#
# Mechanical properties :
#
#
# Convention : Reuss Voigt Hill
#
# Bulk Modulus (GPa) = 33.49505 33.73625 33.61565
# Shear Modulus (GPa) = 23.17540 24.25176 23.71358
#
# Velocity S-wave (km/s) = 3.46659 3.54618 3.50661
# Velocity P-wave (km/s) = 5.77852 5.85326 5.81601
#
# Compressibility (1/GPa) = 0.02985516
#
# Stress axis : x y z
#
# Youngs Moduli (GPa) = 56.67178 50.22185 48.34505
#
# Poissons Ratio (x) = 0.23517 0.15640
# Poissons Ratio (y) = 0.26537 0.30340
# Poissons Ratio (z) = 0.18333 0.31518
#
# Static dielectric constant tensor:
#      x y z
#    x 3.659250 0.000000 -0.100090 
#    y 0.000000 3.354270 0.000000 
#    z -0.100090 0.000000 3.582180 
# 
# 
# High freq. dielectric constant tensor:
#      x y z
#    x 1.762420 0.000000 -0.003160 
#    y 0.000000 1.739990 0.000000 
#    z -0.003160 0.000000 1.747830 
# 
# From -- ./inp_files/33799.got.cif
#   From: 2010.06.25/outbox.cif.g09.slc.cpg/sg11_17_cif.got.tgz:33799.got - 2010.06.27 23:14:04.
