data_PCOD8074044
_publ_section_title
;
Structure prediction by ZEFSAII (Michael W. Deem and Ramdas Pophale) SiO2 
 PCOD8074044
Probable space group: P 21/M
;
_chemical_formula_sum "Si O2"
_cell_formula_units_Z 32
_cell_length_a 24.536433
_cell_length_b 8.719768
_cell_length_c 24.546422
_cell_angle_alpha 90.000000
_cell_angle_beta 17.920326
_cell_angle_gamma 90.000000
_cell_volume 1615.934816
_symmetry_space_group_name_H-M "P 21/M"
_symmetry_group_IT_number 11
_symmetry_cell_setting 'monoclinic'
loop_
_space_group_symop_operation_xyz
x,y,z
-x,1/2+y,-z
-x,-y,-z
x,1/2-y,z
loop_
_atom_site_type_symbol
_atom_site_label
_atom_site_fract_x
_atom_site_fract_y
_atom_site_fract_z
Si Si1 0.731209 0.069619 0.327157
Si Si2 0.670109 0.569606 0.271043
Si Si3 0.128926 0.069100 0.120840
Si Si4 0.079786 0.427133 0.477725
Si Si5 0.527985 0.925301 0.144877
Si Si6 0.866497 0.070918 0.466371
Si Si7 0.933038 0.430499 0.936070
Si Si8 0.437211 0.573329 0.115136
O O1 0.760070 0.250000 0.295856
O O2 0.538104 0.028464 0.535155
O O3 0.754656 0.000618 0.244921
O O4 0.878604 0.998979 0.225811
O O5 0.701331 0.750000 0.242760
O O6 0.769483 0.499775 0.125047
O O7 0.141679 0.250000 0.095541
O O8 0.963260 0.036372 0.317875
O O9 0.096720 0.971581 0.098011
O O10 0.308848 0.001665 0.977068
O O11 0.034353 0.250000 0.519960
O O12 0.016508 0.496388 0.595843
O O13 0.285170 0.463049 0.280570
O O14 0.000000 0.500000 0.500000
O O15 0.520746 0.750000 0.169777
O O16 0.335334 0.996777 0.344084
O O17 0.573355 0.936021 0.036563
O O18 0.857911 0.250000 0.488333
O O19 0.936769 0.250000 0.941082
O O20 0.378721 0.750000 0.160653
O O21 0.500000 0.500000 0.000000
#
# Coordination Sequence:
#
# PCOD8074044 Si02
#       8
#     4   4   4   4   4   4   4   4
#     4  10  21  39  64  92 123 161 203 249 301 356
#     4  10  21  39  64  92 123 160 202 249 301 356
#     4  10  21  38  60  82 109 154 202 244 293 352
#     4  11  22  36  55  81 112 146 184 232 288 350
#     4   8  17  35  56  79 108 142 185 234 286 347
#     4   9  19  37  59  81 109 144 187 239 295 354
#     4  12  25  39  57  87 126 163 203 251 297 352
#     4  10  20  35  55  84 114 145 183 229 288 352
#
# _framework density 19.802779999999998
#
# number of rings (size 3 to 8) (size 9 to 14) (size 15 to 20)
#    0.000    2.000    0.000    4.500    1.750    3.000 
#    0.000    5.625    0.000    0.000    0.000    0.000 
#    0.000    0.000    0.000    0.000    0.000    0.000 
#
# Total GULP energy -396632.875212 kJ/mol
# GULP energy per Si atom -12394.777350 kJ/mol
# Density = 1.975771 g / cm^3
# Si number density = 19.802780 Si / 1000 Ang^3
#
#
#
# Elastic Constant Matrix: (Units=GPa)
#
#
# Indices 1 2 3 4 5 6 
#
# 1 145.2555 50.3613 66.6987 0.0000 0.6912 0.0000
# 2 50.3613 90.1303 39.4470 0.0000 3.4510 0.0000
# 3 66.6987 39.4470 102.2950 0.0000 1.5111 0.0000
# 4 0.0000 0.0000 0.0000 24.9727 0.0000 3.7369
# 5 0.6912 3.4510 1.5111 0.0000 29.9577 0.0000
# 6 0.0000 0.0000 0.0000 3.7369 0.0000 36.7864
#
#
#
# Elastic Compliance Matrix: (Units=1/GPa)
#
#
# Indices 1 2 3 4 5 6 
#
# 1 0.010683 -0.003530 -0.005610 0.000000 0.000443 0.000000
# 2 -0.003530 0.014564 -0.003293 0.000000 -0.001430 0.000000
# 3 -0.005610 -0.003293 0.014707 0.000000 -0.000233 0.000000
# 4 0.000000 0.000000 0.000000 0.040662 0.000000 -0.004131
# 5 0.000443 -0.001430 -0.000233 0.000000 0.033547 0.000000
# 6 0.000000 0.000000 0.000000 -0.004131 0.000000 0.027604
#
#
# Mechanical properties :
#
#
# Convention : Reuss Voigt Hill
#
# Bulk Modulus (GPa) = 66.28841 72.29945 69.29393
# Shear Modulus (GPa) = 29.12705 30.42160 29.77432
#
# Velocity S-wave (km/s) = 3.83934 3.92373 3.88176
# Velocity P-wave (km/s) = 7.29390 7.55755 7.42689
#
# Compressibility (1/GPa) = 0.01508559
#
# Stress axis : x y z
#
# Youngs Moduli (GPa) = 93.61059 68.66369 67.99464
#
# Poissons Ratio (x) = 0.24242 0.38148
# Poissons Ratio (y) = 0.33049 0.22391
# Poissons Ratio (z) = 0.52519 0.22611
#
# Static dielectric constant tensor:
#      x y z
#    x 3.780570 0.000000 -0.136320 
#    y 0.000000 3.485640 0.000000 
#    z -0.136320 0.000000 3.297780 
# 
# 
# High freq. dielectric constant tensor:
#      x y z
#    x 1.778480 0.000000 -0.000030 
#    y 0.000000 1.761070 0.000000 
#    z -0.000030 0.000000 1.774010 
# 
# From -- ./inp_files/69964.got.cif
#   From: 2010.06.25/outbox.cif.g09.slc.cpg/sg11_35_cif.got.tgz:69964.got - 2010.06.27 23:14:04.
