data_PCOD8074270
_publ_section_title
;
Structure prediction by ZEFSAII (Michael W. Deem and Ramdas Pophale) SiO2 
 PCOD8074270
Probable space group: P 21/M
;
_chemical_formula_sum "Si O2"
_cell_formula_units_Z 28
_cell_length_a 14.233780
_cell_length_b 8.809575
_cell_length_c 17.508359
_cell_angle_alpha 90.000000
_cell_angle_beta 137.134628
_cell_angle_gamma 90.000000
_cell_volume 1493.506392
_symmetry_space_group_name_H-M "P 21/M"
_symmetry_group_IT_number 11
_symmetry_cell_setting 'monoclinic'
loop_
_space_group_symop_operation_xyz
x,y,z
-x,1/2+y,-z
-x,-y,-z
x,1/2-y,z
loop_
_atom_site_type_symbol
_atom_site_label
_atom_site_fract_x
_atom_site_fract_y
_atom_site_fract_z
Si Si1 0.359714 0.425748 0.887791
Si Si2 0.819121 0.574224 0.669445
Si Si3 0.133304 0.925264 0.854541
Si Si4 0.707519 0.070880 0.751232
Si Si5 0.603815 0.571653 0.420343
Si Si6 0.448906 0.074907 0.776863
Si Si7 0.735303 0.571126 0.927288
O O1 0.359705 0.250000 0.911786
O O2 0.227327 0.506403 0.843994
O O3 0.348932 0.445884 0.789635
O O4 0.500000 0.500000 0.000000
O O5 0.784430 0.750000 0.664146
O O6 0.798478 0.484357 0.735297
O O7 0.719378 0.500715 0.545064
O O8 0.975486 0.553734 0.734199
O O9 0.172876 0.750000 0.889424
O O10 0.152129 0.011205 0.945807
O O11 0.717233 0.250000 0.764744
O O12 0.548677 0.017212 0.645117
O O13 0.768164 0.999679 0.864607
O O14 0.617483 0.750000 0.435885
O O15 0.629624 0.522317 0.347399
O O16 0.497023 0.250000 0.796738
O O17 0.585582 0.975406 0.870362
O O18 0.745997 0.750000 0.927227
#
# Coordination Sequence:
#
# PCOD8074270 Si02
#       7
#     4   4   4   4   4   4   4
#     4  11  21  34  57  84 111 143 180 225 272 325
#     4  10  21  37  56  78 108 147 187 225 266 320
#     4  11  23  37  53  77 113 149 182 223 272 324
#     4  10  20  35  58  83 110 141 178 227 277 325
#     4   8  16  34  58  82 107 140 181 223 271 320
#     4   9  18  34  57  83 110 138 175 226 277 320
#     4  11  21  34  55  81 109 141 181 227 272 325
#
# _framework density 18.747826
#
# number of rings (size 3 to 8) (size 9 to 14) (size 15 to 20)
#    0.000    2.000    1.429    3.857    0.000    2.286 
#    0.000    3.571    0.000    0.000    0.000    0.000 
#    0.000    0.000    0.000    0.000    0.000    0.000 
#
# Total GULP energy -347220.113016 kJ/mol
# GULP energy per Si atom -12400.718322 kJ/mol
# Density = 1.870516 g / cm^3
# Si number density = 18.747826 Si / 1000 Ang^3
#
#
#
# Elastic Constant Matrix: (Units=GPa)
#
#
# Indices 1 2 3 4 5 6 
#
# 1 113.1485 44.4919 40.6954 0.0000 -7.9301 0.0000
# 2 44.4919 95.6422 31.1709 0.0000 -0.6066 0.0000
# 3 40.6954 31.1709 72.3070 0.0000 -4.9236 0.0000
# 4 0.0000 0.0000 0.0000 17.5412 0.0000 -2.6877
# 5 -7.9301 -0.6066 -4.9236 0.0000 23.4081 0.0000
# 6 0.0000 0.0000 0.0000 -2.6877 0.0000 30.7558
#
#
#
# Elastic Compliance Matrix: (Units=1/GPa)
#
#
# Indices 1 2 3 4 5 6 
#
# 1 0.012497 -0.004153 -0.005034 0.000000 0.003067 0.000000
# 2 -0.004153 0.013560 -0.003632 0.000000 -0.001820 0.000000
# 3 -0.005034 -0.003632 0.018369 0.000000 0.002064 0.000000
# 4 0.000000 0.000000 0.000000 0.057782 0.000000 0.005049
# 5 0.003067 -0.001820 0.002064 0.000000 0.044146 0.000000
# 6 0.000000 0.000000 0.000000 0.005049 0.000000 0.032955
#
#
# Mechanical properties :
#
#
# Convention : Reuss Voigt Hill
#
# Bulk Modulus (GPa) = 53.22686 57.09045 55.15866
# Shear Modulus (GPa) = 23.67307 25.32367 24.49837
#
# Velocity S-wave (km/s) = 3.55732 3.67925 3.61880
# Velocity P-wave (km/s) = 6.73240 6.96900 6.85173
#
# Compressibility (1/GPa) = 0.01878751
#
# Stress axis : x y z
#
# Youngs Moduli (GPa) = 80.02213 73.74734 54.43851
#
# Poissons Ratio (x) = 0.30629 0.27404
# Poissons Ratio (y) = 0.33235 0.19772
# Poissons Ratio (z) = 0.40283 0.26785
#
# Static dielectric constant tensor:
#      x y z
#    x 3.408570 0.000000 -0.228490 
#    y 0.000000 3.379260 0.000000 
#    z -0.228490 0.000000 3.596660 
# 
# 
# High freq. dielectric constant tensor:
#      x y z
#    x 1.725170 0.000000 -0.016420 
#    y 0.000000 1.722210 0.000000 
#    z -0.016420 0.000000 1.722880 
# 
# From -- ./inp_files/42619.got.cif
#   From: 2010.06.25/outbox.cif.g09.slc.cpg/sg11_22_cif.got.tgz:42619.got - 2010.06.27 23:14:04.
