data_PCOD8074021
_publ_section_title
;
Structure prediction by ZEFSAII (Michael W. Deem and Ramdas Pophale) SiO2 
 PCOD8074021
Probable space group: P 21/M
;
_chemical_formula_sum "Si O2"
_cell_formula_units_Z 32
_cell_length_a 20.940317
_cell_length_b 8.788656
_cell_length_c 27.355955
_cell_angle_alpha 90.000000
_cell_angle_beta 19.577671
_cell_angle_gamma 90.000000
_cell_volume 1686.987334
_symmetry_space_group_name_H-M "P 21/M"
_symmetry_group_IT_number 11
_symmetry_cell_setting 'monoclinic'
loop_
_space_group_symop_operation_xyz
x,y,z
-x,1/2+y,-z
-x,-y,-z
x,1/2-y,z
loop_
_atom_site_type_symbol
_atom_site_label
_atom_site_fract_x
_atom_site_fract_y
_atom_site_fract_z
Si Si1 0.865346 0.578184 0.464531
Si Si2 0.450462 0.074602 0.389559
Si Si3 0.132575 0.925916 0.188546
Si Si4 0.840420 0.570336 0.081291
Si Si5 0.117787 0.428769 0.057382
Si Si6 0.832538 0.072218 0.590093
Si Si7 0.825437 0.073870 0.344274
Si Si8 0.417967 0.069036 0.920668
O O1 0.844316 0.750000 0.499356
O O2 0.698519 0.541283 0.546267
O O3 0.851036 0.464287 0.519658
O O4 0.072038 0.557819 0.289133
O O5 0.510571 0.250000 0.348520
O O6 0.633683 0.971452 0.250243
O O7 0.355574 0.028451 0.510046
O O8 0.102583 0.750000 0.194030
O O9 0.999995 0.040424 0.254238
O O10 0.346856 0.984168 0.021894
O O11 0.865462 0.750000 0.063155
O O12 0.865145 0.500308 0.008939
O O13 0.000000 0.500000 0.000000
O O14 0.147473 0.250000 0.032485
O O15 0.906715 0.466226 0.231484
O O16 0.286863 0.491066 0.970229
O O17 0.846273 0.250000 0.586862
O O18 0.631443 0.012906 0.755979
O O19 0.000000 0.000000 0.500000
O O20 0.767795 0.250000 0.390093
O O21 0.405749 0.250000 0.936410
#
# Coordination Sequence:
#
# PCOD8074021 Si02
#       8
#     4   4   4   4   4   4   4   4
#     4   9  19  35  55  80 109 136 170 214 260 311
#     4  10  20  35  55  82 110 137 172 217 263 311
#     4   9  17  30  51  81 110 134 164 212 264 309
#     4  11  22  37  54  75 106 143 180 220 265 315
#     4   8  16  32  55  79 103 131 170 216 260 308
#     4  11  23  37  54  76 106 142 181 220 263 311
#     4   9  16  30  53  80 106 134 169 212 260 311
#     4   9  18  34  55  79 103 133 173 215 258 312
#
# _framework density 18.968727000000001
#
# number of rings (size 3 to 8) (size 9 to 14) (size 15 to 20)
#    0.000    2.500    0.000    4.125    0.000    5.000 
#    0.000    8.750    0.000    0.000    0.000    0.000 
#    0.000    0.000    0.000    0.000    0.000    0.000 
#
# Total GULP energy -396648.136102 kJ/mol
# GULP energy per Si atom -12395.254253 kJ/mol
# Density = 1.892555 g / cm^3
# Si number density = 18.968727 Si / 1000 Ang^3
#
#
#
# Elastic Constant Matrix: (Units=GPa)
#
#
# Indices 1 2 3 4 5 6 
#
# 1 49.4066 25.6960 63.4311 0.0000 -3.7820 0.0000
# 2 25.6960 51.5728 38.3179 0.0000 2.9999 0.0000
# 3 63.4311 38.3179 149.3760 0.0000 20.6630 0.0000
# 4 0.0000 0.0000 0.0000 32.2608 0.0000 0.6188
# 5 -3.7820 2.9999 20.6630 0.0000 17.3423 0.0000
# 6 0.0000 0.0000 0.0000 0.6188 0.0000 25.5569
#
#
#
# Elastic Compliance Matrix: (Units=1/GPa)
#
#
# Indices 1 2 3 4 5 6 
#
# 1 0.097545 -0.017516 -0.048241 0.000000 0.081780 0.000000
# 2 -0.017516 0.027313 0.001932 0.000000 -0.010847 0.000000
# 3 -0.048241 0.001932 0.033747 0.000000 -0.051064 0.000000
# 4 0.000000 0.000000 0.000000 0.031012 0.000000 -0.000751
# 5 0.081780 -0.010847 -0.051064 0.000000 0.138214 0.000000
# 6 0.000000 0.000000 0.000000 -0.000751 0.000000 0.039147
#
#
# Mechanical properties :
#
#
# Convention : Reuss Voigt Hill
#
# Bulk Modulus (GPa) = 32.30440 56.13839 44.22139
# Shear Modulus (GPa) = 9.90207 23.22603 16.56405
#
# Velocity S-wave (km/s) = 2.28726 3.50299 2.95825
# Velocity P-wave (km/s) = 4.90334 6.78386 5.91876
#
# Compressibility (1/GPa) = 0.03095554
#
# Stress axis : x y z
#
# Youngs Moduli (GPa) = 10.25173 36.61294 29.63190
#
# Poissons Ratio (x) = 0.64132 1.42946
# Poissons Ratio (y) = 0.17957 -0.05725
# Poissons Ratio (z) = 0.49455 -0.07074
#
# Static dielectric constant tensor:
#      x y z
#    x 3.287930 0.000000 0.398170 
#    y 0.000000 3.367620 0.000000 
#    z 0.398170 0.000000 3.878440 
# 
# 
# High freq. dielectric constant tensor:
#      x y z
#    x 1.702150 0.000000 0.023430 
#    y 0.000000 1.732080 0.000000 
#    z 0.023430 0.000000 1.752800 
# 
# From -- ./inp_files/72101.got.cif
#   From: 2010.06.25/outbox.cif.g09.slc.cpg/sg11_37_cif.got.tgz:72101.got - 2010.06.27 23:14:04.
