data_PCOD8074062
_publ_section_title
;
Structure prediction by ZEFSAII (Michael W. Deem and Ramdas Pophale) SiO2 
 PCOD8074062
Probable space group: P 21/M
;
_chemical_formula_sum "Si O2"
_cell_formula_units_Z 32
_cell_length_a 19.251763
_cell_length_b 8.914205
_cell_length_c 11.211641
_cell_angle_alpha 90.000000
_cell_angle_beta 57.748658
_cell_angle_gamma 90.000000
_cell_volume 1627.220873
_symmetry_space_group_name_H-M "P 21/M"
_symmetry_group_IT_number 11
_symmetry_cell_setting 'monoclinic'
loop_
_space_group_symop_operation_xyz
x,y,z
-x,1/2+y,-z
-x,-y,-z
x,1/2-y,z
loop_
_atom_site_type_symbol
_atom_site_label
_atom_site_fract_x
_atom_site_fract_y
_atom_site_fract_z
Si Si1 0.619001 0.923362 0.313203
Si Si2 0.172274 0.419904 0.604691
Si Si3 0.773103 0.425109 0.068280
Si Si4 0.239694 0.575203 0.192925
Si Si5 0.466932 0.422287 0.360517
Si Si6 0.915401 0.920844 0.554712
Si Si7 0.089738 0.429504 0.917825
Si Si8 0.324591 0.426754 0.320942
O O1 0.638077 0.750000 0.272411
O O2 0.590404 0.955465 0.473644
O O3 0.701744 0.016468 0.220309
O O4 0.547815 0.975557 0.287102
O O5 0.194212 0.250000 0.617754
O O6 0.101500 0.430768 0.570508
O O7 0.137814 0.494014 0.757015
O O8 0.255972 0.493474 0.475708
O O9 0.788250 0.250000 0.076230
O O10 0.858123 0.512648 0.016622
O O11 0.743907 0.457947 0.960528
O O12 0.234760 0.750000 0.224907
O O13 0.153983 0.501841 0.305886
O O14 0.314381 0.505145 0.201800
O O15 0.495710 0.250000 0.334941
O O16 0.414987 0.460230 0.289373
O O17 0.919869 0.750000 0.594144
O O18 0.000000 0.000000 0.500000
O O19 0.082103 0.250000 0.926003
O O20 0.000000 0.500000 0.000000
O O21 0.308566 0.250000 0.318672
#
# Coordination Sequence:
#
# PCOD8074062 Si02
#       8
#     4   4   4   4   4   4   4   4
#     4  10  20  35  58  88 117 150 189 229 276 333
#     4   8  17  34  54  76 107 140 173 220 276 327
#     4  11  24  41  58  78 113 154 189 231 285 336
#     4  10  22  38  55  78 109 147 188 233 283 331
#     4   9  18  34  58  88 121 149 180 228 284 335
#     4  10  20  35  56  80 105 138 180 227 279 331
#     4  11  23  39  58  82 111 146 186 228 279 338
#     4   9  17  34  59  83 108 144 185 228 280 332
#
# _framework density 19.665431000000002
#
# number of rings (size 3 to 8) (size 9 to 14) (size 15 to 20)
#    0.000    2.250    0.000    3.375    1.750    5.000 
#    0.000    8.750    0.000    0.000    0.000    0.000 
#    0.000    0.000    0.000    0.000    0.000    0.000 
#
# Total GULP energy -396807.379611 kJ/mol
# GULP energy per Si atom -12400.230613 kJ/mol
# Density = 1.962067 g / cm^3
# Si number density = 19.665431 Si / 1000 Ang^3
#
#
#
# Elastic Constant Matrix: (Units=GPa)
#
#
# Indices 1 2 3 4 5 6 
#
# 1 119.8729 49.7248 22.9584 0.0000 -5.1682 0.0000
# 2 49.7248 87.5280 30.9020 0.0000 3.2569 0.0000
# 3 22.9584 30.9020 50.2246 0.0000 2.2580 0.0000
# 4 0.0000 0.0000 0.0000 29.2165 0.0000 -2.3407
# 5 -5.1682 3.2569 2.2580 0.0000 23.3517 0.0000
# 6 0.0000 0.0000 0.0000 -2.3407 0.0000 36.8404
#
#
#
# Elastic Compliance Matrix: (Units=1/GPa)
#
#
# Indices 1 2 3 4 5 6 
#
# 1 0.011278 -0.005955 -0.001648 0.000000 0.003486 0.000000
# 2 -0.005955 0.017772 -0.008077 0.000000 -0.003016 0.000000
# 3 -0.001648 -0.008077 0.025711 0.000000 -0.001724 0.000000
# 4 0.000000 0.000000 0.000000 0.034402 0.000000 0.002186
# 5 0.003486 -0.003016 -0.001724 0.000000 0.044182 0.000000
# 6 0.000000 0.000000 0.000000 0.002186 0.000000 0.027283
#
#
# Mechanical properties :
#
#
# Convention : Reuss Voigt Hill
#
# Bulk Modulus (GPa) = 42.73338 51.64399 47.18868
# Shear Modulus (GPa) = 25.02637 28.15107 26.58872
#
# Velocity S-wave (km/s) = 3.57123 3.78762 3.68102
# Velocity P-wave (km/s) = 6.22754 6.74140 6.48956
#
# Compressibility (1/GPa) = 0.02340091
#
# Stress axis : x y z
#
# Youngs Moduli (GPa) = 88.66517 56.26904 38.89386
#
# Poissons Ratio (x) = 0.33509 0.06411
# Poissons Ratio (y) = 0.52801 0.31414
# Poissons Ratio (z) = 0.14614 0.45447
#
# Static dielectric constant tensor:
#      x y z
#    x 3.691710 0.000000 0.093910 
#    y 0.000000 3.556070 0.000000 
#    z 0.093910 0.000000 3.496600 
# 
# 
# High freq. dielectric constant tensor:
#      x y z
#    x 1.778980 0.000000 0.002440 
#    y 0.000000 1.758880 0.000000 
#    z 0.002440 0.000000 1.749300 
# 
# From -- ./inp_files/42802.got.cif
#   From: 2010.06.25/outbox.cif.g09.slc.cpg/sg11_22_cif.got.tgz:42802.got - 2010.06.27 23:14:04.
