data_PCOD8074644
_publ_section_title
;
Structure prediction by ZEFSAII (Michael W. Deem and Ramdas Pophale) SiO2 
 PCOD8074644
Probable space group: P 21/M
;
_chemical_formula_sum "Si O2"
_cell_formula_units_Z 32
_cell_length_a 11.550324
_cell_length_b 15.725372
_cell_length_c 17.288527
_cell_angle_alpha 90.000000
_cell_angle_beta 32.453211
_cell_angle_gamma 90.000000
_cell_volume 1685.048530
_symmetry_space_group_name_H-M "P 21/M"
_symmetry_group_IT_number 11
_symmetry_cell_setting 'monoclinic'
loop_
_space_group_symop_operation_xyz
x,y,z
-x,1/2+y,-z
-x,-y,-z
x,1/2-y,z
loop_
_atom_site_type_symbol
_atom_site_label
_atom_site_fract_x
_atom_site_fract_y
_atom_site_fract_z
Si Si1 0.368455 0.651663 0.902019
Si Si2 0.415418 0.059628 0.612736
Si Si3 0.747685 0.503018 0.132992
Si Si4 0.991580 0.849273 0.231504
Si Si5 0.143969 0.149994 0.371901
Si Si6 0.236608 0.657916 0.505700
Si Si7 0.506326 0.655176 0.198885
Si Si8 0.086619 0.850658 0.347768
O O1 0.346216 0.750000 0.886787
O O2 0.319804 0.589503 0.858939
O O3 0.612721 0.631048 0.790042
O O4 0.213033 0.632100 0.061295
O O5 0.364596 0.011656 0.720864
O O6 0.205872 0.110248 0.703350
O O7 0.628591 0.115924 0.502547
O O8 0.500000 0.000000 0.500000
O O9 0.685369 0.580765 0.109340
O O10 0.000000 0.500000 0.000000
O O11 0.942687 0.750000 0.262854
O O12 0.020427 0.888793 0.301306
O O13 0.092764 0.250000 0.404067
O O14 0.985752 0.109935 0.395081
O O15 0.080343 0.113356 0.493038
O O16 0.174471 0.750000 0.573496
O O17 0.383867 0.665566 0.347618
O O18 0.605621 0.750000 0.122879
O O19 0.334473 0.625615 0.230047
O O20 0.069231 0.750000 0.351943
#
# Coordination Sequence:
#
# PCOD8074644 Si02
#       8
#     4   4   4   4   4   4   4   4
#     4  10  21  37  56  82 112 149 186 224 279 336
#     4  11  23  37  52  80 114 145 184 234 280 328
#     4  11  22  39  56  79 115 146 192 232 270 331
#     4  10  20  36  58  80 108 149 187 221 276 338
#     4   8  15  31  57  83 105 132 180 234 276 319
#     4   8  15  33  58  80 103 141 186 228 270 327
#     4   8  16  33  59  84 107 142 187 230 275 325
#     4   8  15  31  55  84 108 134 181 234 276 325
#
# _framework density 18.990552000000001
#
# number of rings (size 3 to 8) (size 9 to 14) (size 15 to 20)
#    0.000    2.750    1.250    1.875    1.750    1.000 
#    2.250    4.375    0.000    1.500    0.000    0.000 
#    0.000    0.000    0.000    0.000    0.000    0.000 
#
# Total GULP energy -396455.450463 kJ/mol
# GULP energy per Si atom -12389.232827 kJ/mol
# Density = 1.894733 g / cm^3
# Si number density = 18.990552 Si / 1000 Ang^3
#
#
#
# Elastic Constant Matrix: (Units=GPa)
#
#
# Indices 1 2 3 4 5 6 
#
# 1 149.6083 52.1451 65.5712 0.0000 -17.3490 0.0000
# 2 52.1451 67.0754 40.2752 0.0000 -8.9778 0.0000
# 3 65.5712 40.2752 106.1275 0.0000 -19.1898 0.0000
# 4 0.0000 0.0000 0.0000 19.9023 0.0000 0.6477
# 5 -17.3490 -8.9778 -19.1898 0.0000 34.3389 0.0000
# 6 0.0000 0.0000 0.0000 0.6477 0.0000 20.8693
#
#
#
# Elastic Compliance Matrix: (Units=1/GPa)
#
#
# Indices 1 2 3 4 5 6 
#
# 1 0.010632 -0.005544 -0.004178 0.000000 0.001587 0.000000
# 2 -0.005544 0.022234 -0.004970 0.000000 0.000235 0.000000
# 3 -0.004178 -0.004970 0.014765 0.000000 0.004841 0.000000
# 4 0.000000 0.000000 0.000000 0.050296 0.000000 -0.001561
# 5 0.001587 0.000235 0.004841 0.000000 0.032690 0.000000
# 6 0.000000 0.000000 0.000000 -0.001561 0.000000 0.047966
#
#
# Mechanical properties :
#
#
# Convention : Reuss Voigt Hill
#
# Bulk Modulus (GPa) = 54.80218 70.97712 62.88965
# Shear Modulus (GPa) = 23.35907 26.01010 24.68459
#
# Velocity S-wave (km/s) = 3.51099 3.70487 3.60923
# Velocity P-wave (km/s) = 6.73471 7.46710 7.11034
#
# Compressibility (1/GPa) = 0.01824745
#
# Stress axis : x y z
#
# Youngs Moduli (GPa) = 94.05904 44.97559 67.72601
#
# Poissons Ratio (x) = 0.24935 0.28294
# Poissons Ratio (y) = 0.52148 0.33660
# Poissons Ratio (z) = 0.39296 0.22353
#
# Static dielectric constant tensor:
#      x y z
#    x 5.003720 0.000000 -1.068000 
#    y 0.000000 0.859360 0.000000 
#    z -1.068000 0.000000 4.090780 
# 
# 
# High freq. dielectric constant tensor:
#      x y z
#    x 1.746560 0.000000 -0.018570 
#    y 0.000000 1.722980 0.000000 
#    z -0.018570 0.000000 1.717320 
# 
# From -- ./inp_files/59457.got.cif
#   From: 2010.06.25/outbox.cif.g09.slc.cpg/sg11_30_cif.got.tgz:59457.got - 2010.06.27 23:14:04.
