data_PCOD8074958
_publ_section_title
;
Structure prediction by ZEFSAII (Michael W. Deem and Ramdas Pophale) SiO2 
 PCOD8074958
Probable space group: P 21/M
;
_chemical_formula_sum "Si O2"
_cell_formula_units_Z 32
_cell_length_a 31.245607
_cell_length_b 8.739632
_cell_length_c 11.980928
_cell_angle_alpha 90.000000
_cell_angle_beta 150.361428
_cell_angle_gamma 90.000000
_cell_volume 1617.940966
_symmetry_space_group_name_H-M "P 21/M"
_symmetry_group_IT_number 11
_symmetry_cell_setting 'monoclinic'
loop_
_space_group_symop_operation_xyz
x,y,z
-x,1/2+y,-z
-x,-y,-z
x,1/2-y,z
loop_
_atom_site_type_symbol
_atom_site_label
_atom_site_fract_x
_atom_site_fract_y
_atom_site_fract_z
Si Si1 0.406240 0.929173 0.305979
Si Si2 0.251519 0.928093 0.797307
Si Si3 0.276465 0.074455 0.625512
Si Si4 0.767859 0.428577 0.702573
Si Si5 0.477941 0.073031 0.067265
Si Si6 0.910862 0.926761 0.163136
Si Si7 0.623996 0.930707 0.533857
Si Si8 0.107235 0.572390 0.646024
O O1 0.416957 0.750000 0.349646
O O2 0.500000 0.000000 0.500000
O O3 0.357942 0.999050 0.303957
O O4 0.345496 0.965199 0.062465
O O5 0.243406 0.750000 0.749933
O O6 0.177090 0.979207 0.713969
O O7 0.234957 0.023937 0.648132
O O8 0.253314 0.250000 0.548118
O O9 0.237626 0.971424 0.439458
O O10 0.378232 0.048503 0.866934
O O11 0.751058 0.250000 0.679945
O O12 0.696139 0.519788 0.609376
O O13 0.862897 0.473190 0.961064
O O14 0.504857 0.250000 0.126078
O O15 0.529956 0.987179 0.281797
O O16 0.500000 0.000000 0.000000
O O17 0.888736 0.750000 0.093269
O O18 0.012493 0.960788 0.381264
O O19 0.876482 0.972755 0.207161
O O20 0.623520 0.750000 0.541592
O O21 0.117632 0.750000 0.702416
#
# Coordination Sequence:
#
# PCOD8074958 Si02
#       8
#     4   4   4   4   4   4   4   4
#     4  11  23  39  59  86 121 159 200 245 294 350
#     4  10  22  40  61  84 115 157 200 239 289 352
#     4  11  24  40  59  85 117 153 198 247 293 348
#     4  12  24  39  60  85 117 154 195 242 297 356
#     4  11  22  37  58  83 115 154 197 245 296 349
#     4  10  20  36  62  93 123 150 188 244 299 351
#     4  12  24  38  59  87 119 153 198 249 300 353
#     4   9  19  38  63  91 121 155 194 238 293 355
#
# _framework density 19.778224999999999
#
# number of rings (size 3 to 8) (size 9 to 14) (size 15 to 20)
#    0.000    1.250    1.250    5.250    0.000    6.500 
#    0.000    0.625    0.000    0.000    0.000    0.000 
#    0.000    0.000    0.000    0.000    0.000    0.000 
#
# Total GULP energy -397013.659563 kJ/mol
# GULP energy per Si atom -12406.676861 kJ/mol
# Density = 1.973321 g / cm^3
# Si number density = 19.778225 Si / 1000 Ang^3
#
#
#
# Elastic Constant Matrix: (Units=GPa)
#
#
# Indices 1 2 3 4 5 6 
#
# 1 107.2676 37.4955 38.6014 0.0000 -0.7285 0.0000
# 2 37.4955 107.2159 46.6752 0.0000 -8.7320 0.0000
# 3 38.6014 46.6752 92.9610 0.0000 -5.3926 0.0000
# 4 0.0000 0.0000 0.0000 33.2986 0.0000 -4.6505
# 5 -0.7285 -8.7320 -5.3926 0.0000 32.1708 0.0000
# 6 0.0000 0.0000 0.0000 -4.6505 0.0000 35.8743
#
#
#
# Elastic Compliance Matrix: (Units=1/GPa)
#
#
# Indices 1 2 3 4 5 6 
#
# 1 0.011485 -0.002557 -0.003545 0.000000 -0.001028 0.000000
# 2 -0.002557 0.012670 -0.005154 0.000000 0.002517 0.000000
# 3 -0.003545 -0.005154 0.014876 0.000000 0.001014 0.000000
# 4 0.000000 0.000000 0.000000 0.030585 0.000000 0.003965
# 5 -0.001028 0.002517 0.001014 0.000000 0.031914 0.000000
# 6 0.000000 0.000000 0.000000 0.003965 0.000000 0.028389
#
#
# Mechanical properties :
#
#
# Convention : Reuss Voigt Hill
#
# Bulk Modulus (GPa) = 60.53490 61.44317 60.98903
# Shear Modulus (GPa) = 31.65839 32.58023 32.11931
#
# Velocity S-wave (km/s) = 4.00518 4.06307 4.03423
# Velocity P-wave (km/s) = 7.21539 7.29005 7.25282
#
# Compressibility (1/GPa) = 0.01651940
#
# Stress axis : x y z
#
# Youngs Moduli (GPa) = 87.07050 78.92780 67.22417
#
# Poissons Ratio (x) = 0.20182 0.23830
# Poissons Ratio (y) = 0.22264 0.34645
# Poissons Ratio (z) = 0.30865 0.40676
#
# Static dielectric constant tensor:
#      x y z
#    x 3.530260 0.000000 -0.052960 
#    y 0.000000 3.664340 0.000000 
#    z -0.052960 0.000000 3.702300 
# 
# 
# High freq. dielectric constant tensor:
#      x y z
#    x 1.768710 0.000000 -0.005110 
#    y 0.000000 1.781060 0.000000 
#    z -0.005110 0.000000 1.774770 
# 
# From -- ./inp_files/45323.got.cif
#   From: 2010.06.25/outbox.cif.g09.slc.cpg/sg11_23_cif.got.tgz:45323.got - 2010.06.27 23:14:04.
