data_PCOD8074960
_publ_section_title
;
Structure prediction by ZEFSAII (Michael W. Deem and Ramdas Pophale) SiO2 
 PCOD8074960
Probable space group: P 21/M
;
_chemical_formula_sum "Si O2"
_cell_formula_units_Z 26
_cell_length_a 18.613958
_cell_length_b 11.253910
_cell_length_c 8.418947
_cell_angle_alpha 90.000000
_cell_angle_beta 132.179787
_cell_angle_gamma 90.000000
_cell_volume 1306.900385
_symmetry_space_group_name_H-M "P 21/M"
_symmetry_group_IT_number 11
_symmetry_cell_setting 'monoclinic'
loop_
_space_group_symop_operation_xyz
x,y,z
-x,1/2+y,-z
-x,-y,-z
x,1/2-y,z
loop_
_atom_site_type_symbol
_atom_site_label
_atom_site_fract_x
_atom_site_fract_y
_atom_site_fract_z
Si Si1 0.632237 0.613594 0.428955
Si Si2 0.841666 0.619127 0.257255
Si Si3 0.715760 0.484490 0.845978
Si Si4 0.974395 0.250000 0.507055
Si Si5 0.160855 0.750000 0.007854
Si Si6 0.587512 0.116422 0.914575
Si Si7 0.141900 0.750000 0.335113
Si Si8 0.254601 0.535006 0.628487
O O1 0.644946 0.750000 0.496234
O O2 0.657330 0.528501 0.609581
O O3 0.523312 0.583975 0.210201
O O4 0.708038 0.582707 0.403602
O O5 0.800147 0.750000 0.246509
O O6 0.819793 0.513184 0.348761
O O7 0.958022 0.631981 0.406719
O O8 0.793809 0.582260 0.018820
O O9 0.631518 0.472109 0.851054
O O10 0.770266 0.362960 0.891168
O O11 0.901896 0.250000 0.248237
O O12 0.929136 0.250000 0.617116
O O13 0.100688 0.750000 0.089532
O O14 0.593862 0.250000 0.857732
O O15 0.652661 0.105321 0.167772
O O16 0.202474 0.628272 0.435832
#
# Coordination Sequence:
#
# PCOD8074960 Si02
#       8
#     4   4   4   2   2   4   2   4
#     4  11  23  37  59  92 130 164 214 257 308 372
#     4   9  22  42  65  87 124 166 207 254 334 379
#     4  11  21  40  64  89 130 165 209 262 315 378
#     4  10  24  48  66  96 128 160 216 266 328 388
#     4  12  24  42  68  98 123 168 215 268 324 378
#     4  10  20  36  62  93 123 171 211 253 308 369
#     4  12  24  42  68  98 123 168 215 268 324 378
#     4  11  21  40  64  89 130 165 209 262 315 378
#
# _framework density 19.894401999999999
#
# number of rings (size 3 to 8) (size 9 to 14) (size 15 to 20)
#    0.462    0.923    3.077    3.692    0.000    2.462 
#    2.769    1.538    3.385    0.000    0.000    0.000 
#    0.000    0.000    0.000    0.000    0.000    0.000 
#
# Total GULP energy -322186.119134 kJ/mol
# GULP energy per Si atom -12391.773813 kJ/mol
# Density = 1.984912 g / cm^3
# Si number density = 19.894402 Si / 1000 Ang^3
#
#
#
# Elastic Constant Matrix: (Units=GPa)
#
#
# Indices 1 2 3 4 5 6 
#
# 1 41.8465 33.5238 -12.2215 0.0000 -13.0192 0.0000
# 2 33.5238 88.1552 25.2201 0.0000 17.2621 0.0000
# 3 -12.2215 25.2201 29.6418 0.0000 -6.1221 0.0000
# 4 0.0000 0.0000 0.0000 34.9965 0.0000 6.1476
# 5 -13.0192 17.2621 -6.1221 0.0000 25.1174 0.0000
# 6 0.0000 0.0000 0.0000 6.1476 0.0000 22.7713
#
#
#
# Elastic Compliance Matrix: (Units=1/GPa)
#
#
# Indices 1 2 3 4 5 6 
#
# 1 -0.020552 0.026438 -0.038878 0.000000 -0.038299 0.000000
# 2 0.026438 -0.012044 0.027049 0.000000 0.028573 0.000000
# 3 -0.038878 0.027049 -0.014014 0.000000 -0.042157 0.000000
# 4 0.000000 0.000000 0.000000 0.029997 0.000000 -0.008098
# 5 -0.038299 0.028573 -0.042157 0.000000 -0.009951 0.000000
# 6 0.000000 0.000000 0.000000 -0.008098 0.000000 0.046101
#
#
# Mechanical properties :
#
#
# Convention : Reuss Voigt Hill
#
# Bulk Modulus (GPa) = -57.49423 28.07648 -14.70888
# Shear Modulus (GPa) = -323.04068 24.11845 -149.46111
#
# Velocity S-wave (km/s) = -12.75657 3.48562 -8.67700
# Velocity P-wave (km/s) = 15.68235 5.50843 10.38251
#
# Compressibility (1/GPa) = -0.01739305
#
# Stress axis : x y z
#
# Youngs Moduli (GPa) = -48.65594 -83.03208 -71.35609
#
# Poissons Ratio (x) = 2.19517 -2.77417
# Poissons Ratio (y) = 1.28635 1.93010
# Poissons Ratio (z) = -1.89164 2.24592
#
# Static dielectric constant tensor:
#      x y z
#    x 3.594690 0.000000 -0.042570 
#    y 0.000000 3.712570 0.000000 
#    z -0.042570 0.000000 3.627140 
# 
# 
# High freq. dielectric constant tensor:
#      x y z
#    x 1.769890 0.000000 -0.002160 
#    y 0.000000 1.786090 0.000000 
#    z -0.002160 0.000000 1.771920 
# 
# From -- ./inp_files/26673.got.cif
#   From: 2010.06.25/outbox.cif.g09.slc.cpg/sg11_14_cif.got.tgz:26673.got - 2010.06.27 23:14:04.
