data_PCOD8074345
_publ_section_title
;
Structure prediction by ZEFSAII (Michael W. Deem and Ramdas Pophale) SiO2 
 PCOD8074345
Probable space group: P 21/M
;
_chemical_formula_sum "Si O2"
_cell_formula_units_Z 24
_cell_length_a 22.965661
_cell_length_b 8.708376
_cell_length_c 11.462374
_cell_angle_alpha 90.000000
_cell_angle_beta 30.736466
_cell_angle_gamma 90.000000
_cell_volume 1171.623675
_symmetry_space_group_name_H-M "P 21/M"
_symmetry_group_IT_number 11
_symmetry_cell_setting 'monoclinic'
loop_
_space_group_symop_operation_xyz
x,y,z
-x,1/2+y,-z
-x,-y,-z
x,1/2-y,z
loop_
_atom_site_type_symbol
_atom_site_label
_atom_site_fract_x
_atom_site_fract_y
_atom_site_fract_z
Si Si1 0.375453 0.070098 0.730795
Si Si2 0.829821 0.576859 0.336967
Si Si3 0.172653 0.430809 0.916742
Si Si4 0.611242 0.575451 0.857540
Si Si5 0.259296 0.931054 0.156007
Si Si6 0.947584 0.932489 0.363040
O O1 0.389027 0.250000 0.729446
O O2 0.298735 0.034807 0.748706
O O3 0.500000 0.000000 0.500000
O O4 0.308568 0.996072 0.952314
O O5 0.871976 0.750000 0.248764
O O6 0.837714 0.497363 0.196263
O O7 0.699316 0.570865 0.599992
O O8 0.907878 0.500911 0.303936
O O9 0.149038 0.250000 0.960075
O O10 0.077117 0.514104 0.161111
O O11 0.590077 0.750000 0.935837
O O12 0.653770 0.476005 0.892304
O O13 0.500000 0.500000 0.000000
O O14 0.249157 0.750000 0.164245
O O15 0.133716 0.999648 0.396642
O O16 0.934405 0.750000 0.390304
#
# Coordination Sequence:
#
# PCOD8074345 Si02
#       6
#     4   4   4   4   4   4
#     4  11  25  43  63  88 121 160 205 255 303 362
#     4   8  17  34  56  86 123 156 190 239 297 358
#     4  10  21  38  61  88 120 161 200 241 300 367
#     4  10  20  35  58  89 122 158 201 249 303 363
#     4  11  23  41  63  85 118 161 205 254 305 358
#     4  10  20  37  62  92 124 154 194 251 305 362
#
# _framework density 20.484394000000002
#
# number of rings (size 3 to 8) (size 9 to 14) (size 15 to 20)
#    0.000    2.000    0.000    4.500    2.333    2.000 
#    0.000    4.167    0.000    0.000    0.000    0.000 
#    0.000    0.000    0.000    0.000    0.000    0.000 
#
# Total GULP energy -297558.439751 kJ/mol
# GULP energy per Si atom -12398.268323 kJ/mol
# Density = 2.043777 g / cm^3
# Si number density = 20.484394 Si / 1000 Ang^3
#
#
#
# Elastic Constant Matrix: (Units=GPa)
#
#
# Indices 1 2 3 4 5 6 
#
# 1 60.3536 42.0970 57.6472 0.0000 0.7083 0.0000
# 2 42.0970 110.1507 60.2125 0.0000 -2.8958 0.0000
# 3 57.6472 60.2125 120.7740 0.0000 -3.8755 0.0000
# 4 0.0000 0.0000 0.0000 37.6985 0.0000 -3.7596
# 5 0.7083 -2.8958 -3.8755 0.0000 41.3070 0.0000
# 6 0.0000 0.0000 0.0000 -3.7596 0.0000 27.2146
#
#
#
# Elastic Compliance Matrix: (Units=1/GPa)
#
#
# Indices 1 2 3 4 5 6 
#
# 1 0.032860 -0.005503 -0.013011 0.000000 -0.002170 0.000000
# 2 -0.005503 0.013405 -0.004035 0.000000 0.000656 0.000000
# 3 -0.013011 -0.004035 0.016550 0.000000 0.001493 0.000000
# 4 0.000000 0.000000 0.000000 0.026897 0.000000 0.003716
# 5 -0.002170 0.000656 0.001493 0.000000 0.024432 0.000000
# 6 0.000000 0.000000 0.000000 0.003716 0.000000 0.037258
#
#
# Mechanical properties :
#
#
# Convention : Reuss Voigt Hill
#
# Bulk Modulus (GPa) = 56.44442 67.91019 62.17731
# Shear Modulus (GPa) = 24.70284 29.99878 27.35081
#
# Velocity S-wave (km/s) = 3.47642 3.83099 3.65801
# Velocity P-wave (km/s) = 6.61277 7.26586 6.94700
#
# Compressibility (1/GPa) = 0.01771654
#
# Stress axis : x y z
#
# Youngs Moduli (GPa) = 30.43180 74.60057 60.42405
#
# Poissons Ratio (x) = 0.41056 0.78615
# Poissons Ratio (y) = 0.16748 0.24382
# Poissons Ratio (z) = 0.39594 0.30102
#
# Static dielectric constant tensor:
#      x y z
#    x 3.891740 0.000000 0.034490 
#    y 0.000000 3.625250 0.000000 
#    z 0.034490 0.000000 3.772510 
# 
# 
# High freq. dielectric constant tensor:
#      x y z
#    x 1.801610 0.000000 -0.002850 
#    y 0.000000 1.791360 0.000000 
#    z -0.002850 0.000000 1.810140 
# 
# From -- ./inp_files/43892.got.cif
#   From: 2010.06.25/outbox.cif.g09.slc.cpg/sg11_22_cif.got.tgz:43892.got - 2010.06.27 23:14:04.
