data_PCOD8074714
_publ_section_title
;
Structure prediction by ZEFSAII (Michael W. Deem and Ramdas Pophale) SiO2 
 PCOD8074714
Probable space group: P 21/M
;
_chemical_formula_sum "Si O2"
_cell_formula_units_Z 32
_cell_length_a 13.533569
_cell_length_b 25.709785
_cell_length_c 9.167168
_cell_angle_alpha 90.000000
_cell_angle_beta 30.867977
_cell_angle_gamma 90.000000
_cell_volume 1636.498014
_symmetry_space_group_name_H-M "P 21/M"
_symmetry_group_IT_number 11
_symmetry_cell_setting 'monoclinic'
loop_
_space_group_symop_operation_xyz
x,y,z
-x,1/2+y,-z
-x,-y,-z
x,1/2-y,z
loop_
_atom_site_type_symbol
_atom_site_label
_atom_site_fract_x
_atom_site_fract_y
_atom_site_fract_z
Si Si1 0.252041 0.810077 0.358044
Si Si2 0.770103 0.007766 0.520900
Si Si3 0.650709 0.965982 0.948731
Si Si4 0.776802 0.111371 0.354266
Si Si5 0.838498 0.906552 0.275555
Si Si6 0.623641 0.639177 0.812518
Si Si7 0.646217 0.900839 0.214416
Si Si8 0.824617 0.690425 0.818629
O O1 0.292395 0.750000 0.336837
O O2 0.258179 0.836853 0.509022
O O3 0.052214 0.819905 0.529993
O O4 0.418199 0.833597 0.044088
O O5 0.802180 0.998168 0.655859
O O6 0.879751 0.963343 0.291208
O O7 0.841232 0.064345 0.381326
O O8 0.540760 0.999866 0.782140
O O9 0.582393 0.914358 0.948704
O O10 0.737840 0.946170 0.992714
O O11 0.585677 0.097127 0.505991
O O12 0.955850 0.119835 0.018958
O O13 0.729640 0.868801 0.525297
O O14 0.704731 0.913338 0.303804
O O15 0.752962 0.676761 0.748369
O O16 0.724575 0.844351 0.069784
O O17 0.776018 0.750000 0.918315
#
# Coordination Sequence:
#
# PCOD8074714 Si02
#       8
#     4   4   4   4   4   4   4   4
#     4  11  21  37  64  87 106 148 200 242 289 350
#     4   9  17  34  57  82 122 158 194 239 283 339
#     4   8  16  32  57  83 111 155 197 230 276 338
#     4  11  21  37  59  88 121 156 198 238 287 350
#     4  11  23  36  58  87 126 156 184 241 300 345
#     4  10  20  38  59  84 117 148 188 242 289 337
#     4  10  20  36  58  86 122 152 194 240 288 350
#     4  10  20  37  63  85 106 147 199 242 286 349
#
# _framework density 19.553947999999998
#
# number of rings (size 3 to 8) (size 9 to 14) (size 15 to 20)
#    0.000    2.000    5.000    0.750    0.000    3.000 
#    0.000    3.125    2.750    0.000    0.000    0.000 
#    0.000    0.000    0.000    0.000    0.000    0.000 
#
# Total GULP energy -396755.233675 kJ/mol
# GULP energy per Si atom -12398.601052 kJ/mol
# Density = 1.950944 g / cm^3
# Si number density = 19.553948 Si / 1000 Ang^3
#
#
#
# Elastic Constant Matrix: (Units=GPa)
#
#
# Indices 1 2 3 4 5 6 
#
# 1 56.1357 -8.0112 23.5998 0.0000 3.4611 0.0000
# 2 -8.0112 63.2611 30.0861 0.0000 1.5980 0.0000
# 3 23.5998 30.0861 119.5812 0.0000 4.2754 0.0000
# 4 0.0000 0.0000 0.0000 28.2285 0.0000 -0.3974
# 5 3.4611 1.5980 4.2754 0.0000 31.6151 0.0000
# 6 0.0000 0.0000 0.0000 -0.3974 0.0000 16.0056
#
#
#
# Elastic Compliance Matrix: (Units=1/GPa)
#
#
# Indices 1 2 3 4 5 6 
#
# 1 0.020945 0.005263 -0.005392 0.000000 -0.001830 0.000000
# 2 0.005263 0.019281 -0.005863 0.000000 -0.000758 0.000000
# 3 -0.005392 -0.005863 0.010923 0.000000 -0.000590 0.000000
# 4 0.000000 0.000000 0.000000 0.035438 0.000000 0.000880
# 5 -0.001830 -0.000758 -0.000590 0.000000 0.031949 0.000000
# 6 0.000000 0.000000 0.000000 0.000880 0.000000 0.062500
#
#
# Mechanical properties :
#
#
# Convention : Reuss Voigt Hill
#
# Bulk Modulus (GPa) = 25.53279 36.70304 31.11791
# Shear Modulus (GPa) = 24.26308 28.05674 26.15991
#
# Velocity S-wave (km/s) = 3.52636 3.79203 3.66161
# Velocity P-wave (km/s) = 5.44667 6.16308 5.81592
#
# Compressibility (1/GPa) = 0.03916533
#
# Stress axis : x y z
#
# Youngs Moduli (GPa) = 47.74442 51.86347 91.55111
#
# Poissons Ratio (x) = -0.27296 0.49367
# Poissons Ratio (y) = -0.25129 0.53674
# Poissons Ratio (z) = 0.25745 0.30406
#
# Static dielectric constant tensor:
#      x y z
#    x 3.399420 0.000000 0.027970 
#    y 0.000000 3.618550 0.000000 
#    z 0.027970 0.000000 3.669520 
# 
# 
# High freq. dielectric constant tensor:
#      x y z
#    x 1.743100 0.000000 -0.006360 
#    y 0.000000 1.758520 0.000000 
#    z -0.006360 0.000000 1.762880 
# 
# From -- ./inp_files/23443.got.cif
#   From: 2010.06.25/outbox.cif.g09.slc.cpg/sg11_12_cif.got.tgz:23443.got - 2010.06.27 23:14:04.
