data_PCOD8074665
_publ_section_title
;
Structure prediction by ZEFSAII (Michael W. Deem and Ramdas Pophale) SiO2 
 PCOD8074665
Probable space group: P 21/M
;
_chemical_formula_sum "Si O2"
_cell_formula_units_Z 28
_cell_length_a 15.796047
_cell_length_b 8.880041
_cell_length_c 17.801231
_cell_angle_alpha 90.000000
_cell_angle_beta 142.800611
_cell_angle_gamma 90.000000
_cell_volume 1509.644988
_symmetry_space_group_name_H-M "P 21/M"
_symmetry_group_IT_number 11
_symmetry_cell_setting 'monoclinic'
loop_
_space_group_symop_operation_xyz
x,y,z
-x,1/2+y,-z
-x,-y,-z
x,1/2-y,z
loop_
_atom_site_type_symbol
_atom_site_label
_atom_site_fract_x
_atom_site_fract_y
_atom_site_fract_z
Si Si1 0.687999 0.419986 0.930932
Si Si2 0.427869 0.419682 0.646633
Si Si3 0.622727 0.578560 0.040396
Si Si4 0.846920 0.930139 0.906662
Si Si5 0.152019 0.427235 0.526320
Si Si6 0.421736 0.424250 0.375209
Si Si7 0.117993 0.080279 0.668465
O O1 0.747252 0.250000 0.982079
O O2 0.531109 0.413803 0.789747
O O3 0.790919 0.509848 0.947328
O O4 0.672963 0.497674 0.000602
O O5 0.415037 0.250000 0.602891
O O6 0.281809 0.489132 0.570803
O O7 0.478872 0.541647 0.623840
O O8 0.578510 0.750000 0.991056
O O9 0.754709 0.571576 0.186605
O O10 0.500000 0.500000 0.000000
O O11 0.858567 0.750000 0.919271
O O12 0.736768 0.977902 0.761573
O O13 0.000000 0.000000 0.000000
O O14 0.161747 0.250000 0.531678
O O15 0.161468 0.488473 0.618360
O O16 0.009417 0.483999 0.386947
O O17 0.500000 0.500000 0.500000
O O18 0.416096 0.250000 0.389465
O O19 0.064164 0.250000 0.619509
#
# Coordination Sequence:
#
# PCOD8074665 Si02
#       7
#     4   4   4   4   4   4   4
#     4  10  20  36  58  83 112 146 185 228 277 333
#     4   9  18  34  56  79 106 140 177 220 271 323
#     4  11  22  36  54  78 110 146 185 229 277 328
#     4  10  21  39  62  88 116 151 194 237 288 347
#     4   9  17  32  53  75 100 136 177 217 263 316
#     4  10  21  37  58  85 114 143 183 231 280 338
#     4   9  19  34  50  72 105 139 175 219 266 315
#
# _framework density 18.547405999999999
#
# number of rings (size 3 to 8) (size 9 to 14) (size 15 to 20)
#    0.000    2.286    0.000    2.571    0.000    6.286 
#    2.571    2.857    0.000    0.000    0.000    0.000 
#    0.000    0.000    0.000    0.000    0.000    0.000 
#
# Total GULP energy -346996.085096 kJ/mol
# GULP energy per Si atom -12392.717325 kJ/mol
# Density = 1.850519 g / cm^3
# Si number density = 18.547406 Si / 1000 Ang^3
#
#
#
# Elastic Constant Matrix: (Units=GPa)
#
#
# Indices 1 2 3 4 5 6 
#
# 1 110.4535 47.6783 58.6358 0.0000 21.3259 0.0000
# 2 47.6783 77.4274 43.4117 0.0000 1.8847 0.0000
# 3 58.6358 43.4117 88.8004 0.0000 9.3251 0.0000
# 4 0.0000 0.0000 0.0000 31.2997 0.0000 0.0010
# 5 21.3259 1.8847 9.3251 0.0000 33.5398 0.0000
# 6 0.0000 0.0000 0.0000 0.0010 0.0000 34.0325
#
#
#
# Elastic Compliance Matrix: (Units=1/GPa)
#
#
# Indices 1 2 3 4 5 6 
#
# 1 0.017440 -0.006311 -0.007523 0.000000 -0.008643 0.000000
# 2 -0.006311 0.020146 -0.006164 0.000000 0.004594 0.000000
# 3 -0.007523 -0.006164 0.019266 0.000000 -0.000227 0.000000
# 4 0.000000 0.000000 0.000000 0.031949 0.000000 -0.000001
# 5 -0.008643 0.004594 -0.000227 0.000000 0.035116 0.000000
# 6 0.000000 0.000000 0.000000 -0.000001 0.000000 0.029384
#
#
# Mechanical properties :
#
#
# Convention : Reuss Voigt Hill
#
# Bulk Modulus (GPa) = 59.32636 64.01477 61.67056
# Shear Modulus (GPa) = 25.13638 28.23809 26.68723
#
# Velocity S-wave (km/s) = 3.68537 3.90613 3.79735
# Velocity P-wave (km/s) = 7.08273 7.41167 7.24907
#
# Compressibility (1/GPa) = 0.01685591
#
# Stress axis : x y z
#
# Youngs Moduli (GPa) = 57.33844 49.63869 51.90515
#
# Poissons Ratio (x) = 0.31327 0.39049
# Poissons Ratio (y) = 0.36186 0.31993
# Poissons Ratio (z) = 0.43137 0.30596
#
# Static dielectric constant tensor:
#      x y z
#    x 3.457640 0.000000 0.039820 
#    y 0.000000 3.608230 0.000000 
#    z 0.039820 0.000000 3.579660 
# 
# 
# High freq. dielectric constant tensor:
#      x y z
#    x 1.718610 0.000000 0.006820 
#    y 0.000000 1.724220 0.000000 
#    z 0.006820 0.000000 1.719380 
# 
# From -- ./inp_files/60133.got.cif
#   From: 2010.06.25/outbox.cif.g09.slc.cpg/sg11_31_cif.got.tgz:60133.got - 2010.06.27 23:14:04.
