data_PCOD8074687
_publ_section_title
;
Structure prediction by ZEFSAII (Michael W. Deem and Ramdas Pophale) SiO2 
 PCOD8074687
Probable space group: P 21/M
;
_chemical_formula_sum "Si O2"
_cell_formula_units_Z 32
_cell_length_a 15.211292
_cell_length_b 8.751111
_cell_length_c 22.816809
_cell_angle_alpha 90.000000
_cell_angle_beta 148.431796
_cell_angle_gamma 90.000000
_cell_volume 1590.053764
_symmetry_space_group_name_H-M "P 21/M"
_symmetry_group_IT_number 11
_symmetry_cell_setting 'monoclinic'
loop_
_space_group_symop_operation_xyz
x,y,z
-x,1/2+y,-z
-x,-y,-z
x,1/2-y,z
loop_
_atom_site_type_symbol
_atom_site_label
_atom_site_fract_x
_atom_site_fract_y
_atom_site_fract_z
Si Si1 0.841363 0.071797 0.940092
Si Si2 0.343735 0.430595 0.378446
Si Si3 0.249264 0.574355 0.581774
Si Si4 0.412139 0.424551 0.285931
Si Si5 0.357076 0.068774 0.765063
Si Si6 0.051910 0.930527 0.654842
Si Si7 0.004353 0.068510 0.245351
Si Si8 0.269856 0.931420 0.998825
O O1 0.869781 0.250000 0.958134
O O2 0.673465 0.034183 0.809525
O O3 0.821113 0.006996 0.994220
O O4 0.000000 0.000000 0.000000
O O5 0.500000 0.500000 0.500000
O O6 0.352885 0.250000 0.389685
O O7 0.356737 0.481259 0.318373
O O8 0.171306 0.495666 0.308300
O O9 0.193878 0.750000 0.558837
O O10 0.388055 0.559646 0.609412
O O11 0.322088 0.512900 0.683801
O O12 0.089216 0.475445 0.472286
O O13 0.353967 0.250000 0.242475
O O14 0.351942 0.250000 0.752462
O O15 0.222899 0.017242 0.736902
O O16 0.537204 0.012764 0.892542
O O17 0.081742 0.750000 0.669298
O O18 0.998159 0.986885 0.688960
O O19 0.007120 0.250000 0.243753
O O20 0.837330 0.005870 0.117332
O O21 0.268274 0.750000 0.998189
#
# Coordination Sequence:
#
# PCOD8074687 Si02
#       8
#     4   4   4   4   4   4   4   4
#     4  11  21  35  57  85 116 152 193 236 283 344
#     4  10  20  36  58  84 117 156 196 239 286 345
#     4  11  22  38  60  87 121 153 189 244 298 350
#     4  10  21  36  57  85 117 151 190 239 293 344
#     4  11  22  39  62  87 115 150 194 243 295 353
#     4  11  23  38  59  86 115 152 197 243 292 351
#     4   9  19  37  59  83 115 155 196 236 285 347
#     4   9  19  37  60  84 114 152 193 238 290 349
#
# _framework density 20.125107
#
# number of rings (size 3 to 8) (size 9 to 14) (size 15 to 20)
#    0.000    1.750    1.250    3.375    0.000    3.500 
#    0.000    0.625    0.000    6.750    0.000    0.000 
#    0.000    0.000    0.000    0.000    0.000    0.000 
#
# Total GULP energy -396853.444397 kJ/mol
# GULP energy per Si atom -12401.670137 kJ/mol
# Density = 2.007930 g / cm^3
# Si number density = 20.125107 Si / 1000 Ang^3
#
#
#
# Elastic Constant Matrix: (Units=GPa)
#
#
# Indices 1 2 3 4 5 6 
#
# 1 116.7966 18.2178 44.3601 0.0000 7.1600 0.0000
# 2 18.2178 37.4589 13.9765 0.0000 0.6757 0.0000
# 3 44.3601 13.9765 139.1671 0.0000 2.8845 0.0000
# 4 0.0000 0.0000 0.0000 28.5242 0.0000 2.7184
# 5 7.1600 0.6757 2.8845 0.0000 38.1699 0.0000
# 6 0.0000 0.0000 0.0000 2.7184 0.0000 24.2277
#
#
#
# Elastic Compliance Matrix: (Units=1/GPa)
#
#
# Indices 1 2 3 4 5 6 
#
# 1 0.010370 -0.003941 -0.002875 0.000000 -0.001658 0.000000
# 2 -0.003941 0.029236 -0.001687 0.000000 0.000349 0.000000
# 3 -0.002875 -0.001687 0.008273 0.000000 -0.000056 0.000000
# 4 0.000000 0.000000 0.000000 0.035437 0.000000 -0.003976
# 5 -0.001658 0.000349 -0.000056 0.000000 0.026508 0.000000
# 6 0.000000 0.000000 0.000000 -0.003976 0.000000 0.041721
#
#
# Mechanical properties :
#
#
# Convention : Reuss Voigt Hill
#
# Bulk Modulus (GPa) = 32.39184 49.61459 41.00321
# Shear Modulus (GPa) = 27.95763 32.64225 30.29994
#
# Velocity S-wave (km/s) = 3.73123 4.03173 3.88439
# Velocity P-wave (km/s) = 5.89007 6.81027 6.36682
#
# Compressibility (1/GPa) = 0.03087198
#
# Stress axis : x y z
#
# Youngs Moduli (GPa) = 96.42890 34.20473 120.87837
#
# Poissons Ratio (x) = 0.13479 0.34758
# Poissons Ratio (y) = 0.38000 0.20395
# Poissons Ratio (z) = 0.27728 0.05771
#
# Static dielectric constant tensor:
#      x y z
#    x 4.004410 0.000000 0.017470 
#    y 0.000000 3.473090 0.000000 
#    z 0.017470 0.000000 3.912820 
# 
# 
# High freq. dielectric constant tensor:
#      x y z
#    x 1.798540 0.000000 0.006130 
#    y 0.000000 1.761370 0.000000 
#    z 0.006130 0.000000 1.795660 
# 
# From -- ./inp_files/69151.got.cif
#   From: 2010.06.25/outbox.cif.g09.slc.cpg/sg11_35_cif.got.tgz:69151.got - 2010.06.27 23:14:04.
