data_PCOD8074410
_publ_section_title
;
Structure prediction by ZEFSAII (Michael W. Deem and Ramdas Pophale) SiO2 
 PCOD8074410
Probable space group: P 21/M
;
_chemical_formula_sum "Si O2"
_cell_formula_units_Z 32
_cell_length_a 11.991942
_cell_length_b 8.954011
_cell_length_c 31.232361
_cell_angle_alpha 90.000000
_cell_angle_beta 149.927673
_cell_angle_gamma 90.000000
_cell_volume 1680.467593
_symmetry_space_group_name_H-M "P 21/M"
_symmetry_group_IT_number 11
_symmetry_cell_setting 'monoclinic'
loop_
_space_group_symop_operation_xyz
x,y,z
-x,1/2+y,-z
-x,-y,-z
x,1/2-y,z
loop_
_atom_site_type_symbol
_atom_site_label
_atom_site_fract_x
_atom_site_fract_y
_atom_site_fract_z
Si Si1 0.430170 0.574751 0.020670
Si Si2 0.311412 0.923769 0.753857
Si Si3 0.029518 0.572969 0.121096
Si Si4 0.187359 0.426244 0.091435
Si Si5 0.849128 0.576899 0.218147
Si Si6 0.111597 0.574282 0.598304
Si Si7 0.686702 0.074434 0.424357
Si Si8 0.777904 0.426347 0.722976
O O1 0.390201 0.750000 0.000023
O O2 0.212556 0.496320 0.966827
O O3 0.500000 0.500000 0.000000
O O4 0.620786 0.543394 0.118157
O O5 0.266630 0.750000 0.742122
O O6 0.570872 0.960764 0.848158
O O7 0.238912 0.981228 0.682918
O O8 0.155687 0.999054 0.737503
O O9 0.016583 0.750000 0.110531
O O10 0.189348 0.499827 0.138992
O O11 0.119790 0.527129 0.197445
O O12 0.143125 0.250000 0.080524
O O13 0.000000 0.500000 0.000000
O O14 0.882793 0.750000 0.237566
O O15 0.054080 0.516135 0.257893
O O16 0.064867 0.750000 0.582825
O O17 0.264026 0.529125 0.608429
O O18 0.876498 0.490604 0.518192
O O19 0.676730 0.250000 0.427262
O O20 0.454641 0.005913 0.362041
O O21 0.743670 0.250000 0.709579
#
# Coordination Sequence:
#
# PCOD8074410 Si02
#       8
#     4   4   4   4   4   4   4   4
#     4  11  21  36  56  80 112 151 194 240 287 336
#     4  10  22  39  59  82 112 151 193 233 279 338
#     4  11  22  37  57  83 114 149 193 238 288 345
#     4  11  23  39  57  83 117 152 191 238 288 338
#     4  10  22  39  56  79 113 151 192 236 281 334
#     4   9  19  38  60  84 116 147 177 225 286 339
#     4  10  20  35  60  91 115 140 182 231 279 340
#     4  10  21  38  56  80 115 150 183 230 289 337
#
# _framework density 19.04232
#
# number of rings (size 3 to 8) (size 9 to 14) (size 15 to 20)
#    0.000    1.750    1.250    3.000    0.000    7.500 
#    0.000    0.625    0.000    0.000    0.000    0.000 
#    0.000    0.000    0.000    0.000    0.000    0.000 
#
# Total GULP energy -396927.480523 kJ/mol
# GULP energy per Si atom -12403.983766 kJ/mol
# Density = 1.899898 g / cm^3
# Si number density = 19.042320 Si / 1000 Ang^3
#
#
#
# Elastic Constant Matrix: (Units=GPa)
#
#
# Indices 1 2 3 4 5 6 
#
# 1 115.9750 38.3385 51.9816 0.0000 2.0485 0.0000
# 2 38.3385 57.2647 43.4194 0.0000 3.1927 0.0000
# 3 51.9816 43.4194 107.7712 0.0000 5.5198 0.0000
# 4 0.0000 0.0000 0.0000 31.2337 0.0000 0.3057
# 5 2.0485 3.1927 5.5198 0.0000 34.8515 0.0000
# 6 0.0000 0.0000 0.0000 0.3057 0.0000 37.2760
#
#
#
# Elastic Compliance Matrix: (Units=1/GPa)
#
#
# Indices 1 2 3 4 5 6 
#
# 1 0.012010 -0.005262 -0.003691 0.000000 0.000361 0.000000
# 2 -0.005262 0.027466 -0.008483 0.000000 -0.000863 0.000000
# 3 -0.003691 -0.008483 0.014544 0.000000 -0.001309 0.000000
# 4 0.000000 0.000000 0.000000 0.032019 0.000000 -0.000263
# 5 0.000361 -0.000863 -0.001309 0.000000 0.028958 0.000000
# 6 0.000000 0.000000 0.000000 -0.000263 0.000000 0.026829
#
#
# Mechanical properties :
#
#
# Convention : Reuss Voigt Hill
#
# Bulk Modulus (GPa) = 52.22764 60.94333 56.58549
# Shear Modulus (GPa) = 27.30995 30.49034 28.90014
#
# Velocity S-wave (km/s) = 3.79115 4.00583 3.89997
# Velocity P-wave (km/s) = 6.83012 7.31226 7.07530
#
# Compressibility (1/GPa) = 0.01914695
#
# Stress axis : x y z
#
# Youngs Moduli (GPa) = 83.26259 36.40848 68.75530
#
# Poissons Ratio (x) = 0.19158 0.25380
# Poissons Ratio (y) = 0.43813 0.58328
# Poissons Ratio (z) = 0.30736 0.30887
#
# Static dielectric constant tensor:
#      x y z
#    x 3.564990 0.000000 0.002330 
#    y 0.000000 3.462290 0.000000 
#    z 0.002330 0.000000 3.421420 
# 
# 
# High freq. dielectric constant tensor:
#      x y z
#    x 1.745760 0.000000 0.003480 
#    y 0.000000 1.742090 0.000000 
#    z 0.003480 0.000000 1.737990 
# 
# From -- ./inp_files/49325.got.cif
#   From: 2010.06.25/outbox.cif.g09.slc.cpg/sg11_25_cif.got.tgz:49325.got - 2010.06.27 23:14:04.
