data_PCOD8074469
_publ_section_title
;
Structure prediction by ZEFSAII (Michael W. Deem and Ramdas Pophale) SiO2 
 PCOD8074469
Probable space group: P 21/M
;
_chemical_formula_sum "Si O2"
_cell_formula_units_Z 20
_cell_length_a 13.781288
_cell_length_b 8.411833
_cell_length_c 9.630026
_cell_angle_alpha 90.000000
_cell_angle_beta 110.965173
_cell_angle_gamma 90.000000
_cell_volume 1042.463577
_symmetry_space_group_name_H-M "P 21/M"
_symmetry_group_IT_number 11
_symmetry_cell_setting 'monoclinic'
loop_
_space_group_symop_operation_xyz
x,y,z
-x,1/2+y,-z
-x,-y,-z
x,1/2-y,z
loop_
_atom_site_type_symbol
_atom_site_label
_atom_site_fract_x
_atom_site_fract_y
_atom_site_fract_z
Si Si1 0.884741 0.064266 0.934271
Si Si2 0.330191 0.935932 0.674113
Si Si3 0.264136 0.064210 0.922891
Si Si4 0.724298 0.936384 0.640781
Si Si5 0.562286 0.562564 0.780994
O O1 0.883821 0.250000 0.901569
O O2 0.827554 0.972456 0.780451
O O3 0.829480 0.030482 0.053051
O O4 0.000000 0.000000 0.000000
O O5 0.332638 0.750000 0.707997
O O6 0.446744 0.010583 0.726698
O O7 0.266581 0.023231 0.762267
O O8 0.271181 0.968507 0.500565
O O9 0.243916 0.250000 0.936423
O O10 0.373639 0.011634 0.048953
O O11 0.717777 0.750000 0.606536
O O12 0.624079 0.998113 0.676485
O O13 0.553212 0.750000 0.767243
#
# Coordination Sequence:
#
# PCOD8074469 Si02
#       5
#     4   4   4   4   4
#     4  11  22  40  63  84 104 135 176 223 273 328
#     4  11  20  32  51  81 116 150 184 224 268 315
#     4  10  20  36  55  80 111 146 184 225 268 318
#     4  10  20  36  55  80 111 146 184 225 268 318
#     4   8  17  32  52  77 110 149 189 223 261 313
#
# _framework density 19.185323
#
# number of rings (size 3 to 8) (size 9 to 14) (size 15 to 20)
#    0.000    2.000    0.000    6.000    0.000    0.000 
#    0.000   11.000    0.000    0.000    0.000    0.000 
#    0.000    0.000    0.000    0.000    0.000    0.000 
#
# Total GULP energy -248056.578958 kJ/mol
# GULP energy per Si atom -12402.828948 kJ/mol
# Density = 1.914166 g / cm^3
# Si number density = 19.185323 Si / 1000 Ang^3
#
#
#
# Elastic Constant Matrix: (Units=GPa)
#
#
# Indices 1 2 3 4 5 6 
#
# 1 108.9032 10.5223 48.3402 0.0000 7.4198 0.0000
# 2 10.5223 55.9609 3.2522 0.0000 -1.1762 0.0000
# 3 48.3402 3.2522 115.2827 0.0000 -17.9014 0.0000
# 4 0.0000 0.0000 0.0000 29.4700 0.0000 -0.5289
# 5 7.4198 -1.1762 -17.9014 0.0000 22.0260 0.0000
# 6 0.0000 0.0000 0.0000 -0.5289 0.0000 25.7457
#
#
#
# Elastic Compliance Matrix: (Units=1/GPa)
#
#
# Indices 1 2 3 4 5 6 
#
# 1 0.013266 -0.002299 -0.007108 0.000000 -0.010369 0.000000
# 2 -0.002299 0.018305 0.000824 0.000000 0.002422 0.000000
# 3 -0.007108 0.000824 0.013745 0.000000 0.013609 0.000000
# 4 0.000000 0.000000 0.000000 0.033945 0.000000 0.000697
# 5 -0.010369 0.002422 0.013609 0.000000 0.060084 0.000000
# 6 0.000000 0.000000 0.000000 0.000697 0.000000 0.038856
#
#
# Mechanical properties :
#
#
# Convention : Reuss Voigt Hill
#
# Bulk Modulus (GPa) = 35.52511 44.93068 40.22789
# Shear Modulus (GPa) = 24.41991 29.98381 27.20186
#
# Velocity S-wave (km/s) = 3.57156 3.95758 3.76952
# Velocity P-wave (km/s) = 5.96365 6.65983 6.32133
#
# Compressibility (1/GPa) = 0.02814910
#
# Stress axis : x y z
#
# Youngs Moduli (GPa) = 75.37988 54.62993 72.75428
#
# Poissons Ratio (x) = 0.12561 0.51713
# Poissons Ratio (y) = 0.17332 -0.05993
# Poissons Ratio (z) = 0.53580 -0.04500
#
# Static dielectric constant tensor:
#      x y z
#    x 3.494550 0.000000 -0.039710 
#    y 0.000000 3.395180 0.000000 
#    z -0.039710 0.000000 3.446060 
# 
# 
# High freq. dielectric constant tensor:
#      x y z
#    x 1.733210 0.000000 -0.006180 
#    y 0.000000 1.742140 0.000000 
#    z -0.006180 0.000000 1.747130 
# 
# From -- ./inp_files/15876.got.cif
#   From: 2010.06.25/outbox.cif.g09.slc.cpg/sg11_8_cif.got.tgz:15876.got - 2010.06.27 23:14:04.
