data_PCOD8074780
_publ_section_title
;
Structure prediction by ZEFSAII (Michael W. Deem and Ramdas Pophale) SiO2 
 PCOD8074780
Probable space group: P 21/M
;
_chemical_formula_sum "Si O2"
_cell_formula_units_Z 28
_cell_length_a 14.138710
_cell_length_b 8.806962
_cell_length_c 17.338627
_cell_angle_alpha 90.000000
_cell_angle_beta 136.806171
_cell_angle_gamma 90.000000
_cell_volume 1477.760779
_symmetry_space_group_name_H-M "P 21/M"
_symmetry_group_IT_number 11
_symmetry_cell_setting 'monoclinic'
loop_
_space_group_symop_operation_xyz
x,y,z
-x,1/2+y,-z
-x,-y,-z
x,1/2-y,z
loop_
_atom_site_type_symbol
_atom_site_label
_atom_site_fract_x
_atom_site_fract_y
_atom_site_fract_z
Si Si1 0.663225 0.427159 0.830071
Si Si2 0.871304 0.924037 0.065166
Si Si3 0.813715 0.072797 0.762703
Si Si4 0.623600 0.072020 0.359349
Si Si5 0.219367 0.071068 0.414653
Si Si6 0.862496 0.071532 0.384076
Si Si7 0.071998 0.074110 0.727834
O O1 0.627921 0.250000 0.810663
O O2 0.734124 0.474918 0.792105
O O3 0.525721 0.523934 0.760152
O O4 0.765945 0.464577 0.960777
O O5 0.839511 0.750000 0.023846
O O6 0.853863 0.949848 0.146236
O O7 0.025635 0.969558 0.131130
O O8 0.799687 0.250000 0.734493
O O9 0.747905 0.979192 0.653192
O O10 0.627669 0.250000 0.378826
O O11 0.732641 0.024692 0.358738
O O12 0.654472 0.982222 0.456642
O O13 0.202958 0.250000 0.408725
O O14 0.080906 0.994498 0.363908
O O15 0.881897 0.250000 0.391254
O O16 0.835730 0.006900 0.282342
O O17 0.000000 0.000000 0.500000
O O18 0.055354 0.250000 0.697525
#
# Coordination Sequence:
#
# PCOD8074780 Si02
#       7
#     4   4   4   4   4   4   4
#     4  11  23  38  58  84 114 151 194 239 283 335
#     4   9  19  37  60  84 114 151 188 231 285 339
#     4   9  20  38  59  84 115 150 190 236 286 336
#     4  11  24  40  57  80 117 156 188 230 288 345
#     4  11  21  34  57  87 115 147 190 236 283 338
#     4  11  22  36  60  88 114 148 189 235 285 341
#     4  10  20  36  59  87 118 149 185 234 287 336
#
# _framework density 18.947586999999999
#
# number of rings (size 3 to 8) (size 9 to 14) (size 15 to 20)
#    0.000    1.714    1.429    4.286    0.000    6.286 
#    0.000    0.714    0.000    0.000    0.000    0.000 
#    0.000    0.000    0.000    0.000    0.000    0.000 
#
# Total GULP energy -347353.846564 kJ/mol
# GULP energy per Si atom -12405.494520 kJ/mol
# Density = 1.890446 g / cm^3
# Si number density = 18.947587 Si / 1000 Ang^3
#
#
#
# Elastic Constant Matrix: (Units=GPa)
#
#
# Indices 1 2 3 4 5 6 
#
# 1 114.1462 50.4989 64.4765 0.0000 -5.4933 0.0000
# 2 50.4989 86.3144 42.9413 0.0000 -4.1842 0.0000
# 3 64.4765 42.9413 80.9334 0.0000 -0.0654 0.0000
# 4 0.0000 0.0000 0.0000 36.2188 0.0000 -4.4295
# 5 -5.4933 -4.1842 -0.0654 0.0000 24.1799 0.0000
# 6 0.0000 0.0000 0.0000 -4.4295 0.0000 30.0785
#
#
#
# Elastic Compliance Matrix: (Units=1/GPa)
#
#
# Indices 1 2 3 4 5 6 
#
# 1 0.017300 -0.004229 -0.011536 0.000000 0.003167 0.000000
# 2 -0.004229 0.016953 -0.005624 0.000000 0.001958 0.000000
# 3 -0.011536 -0.005624 0.024527 0.000000 -0.003528 0.000000
# 4 0.000000 0.000000 0.000000 0.028116 0.000000 0.004141
# 5 0.003167 0.001958 -0.003528 0.000000 0.042405 0.000000
# 6 0.000000 0.000000 0.000000 0.004141 0.000000 0.033856
#
#
# Mechanical properties :
#
#
# Convention : Reuss Voigt Hill
#
# Bulk Modulus (GPa) = 62.49205 66.35860 64.42533
# Shear Modulus (GPa) = 23.66638 26.32726 24.99682
#
# Velocity S-wave (km/s) = 3.53802 3.73161 3.63610
# Velocity P-wave (km/s) = 7.05289 7.32563 7.19055
#
# Compressibility (1/GPa) = 0.01600203
#
# Stress axis : x y z
#
# Youngs Moduli (GPa) = 57.80241 58.98821 40.77087
#
# Poissons Ratio (x) = 0.24946 0.47034
# Poissons Ratio (y) = 0.24444 0.22929
# Poissons Ratio (z) = 0.66682 0.33175
#
# Static dielectric constant tensor:
#      x y z
#    x 3.593970 0.000000 -0.172160 
#    y 0.000000 3.475710 0.000000 
#    z -0.172160 0.000000 3.336650 
# 
# 
# High freq. dielectric constant tensor:
#      x y z
#    x 1.734470 0.000000 -0.014630 
#    y 0.000000 1.745170 0.000000 
#    z -0.014630 0.000000 1.730630 
# 
# From -- ./inp_files/60121.got.cif
#   From: 2010.06.25/outbox.cif.g09.slc.cpg/sg11_31_cif.got.tgz:60121.got - 2010.06.27 23:14:04.
