data_PCOD8074800
_publ_section_title
;
Structure prediction by ZEFSAII (Michael W. Deem and Ramdas Pophale) SiO2 
 PCOD8074800
Probable space group: P 21/M
;
_chemical_formula_sum "Si O2"
_cell_formula_units_Z 32
_cell_length_a 7.119368
_cell_length_b 21.171451
_cell_length_c 11.490830
_cell_angle_alpha 90.000000
_cell_angle_beta 64.144490
_cell_angle_gamma 90.000000
_cell_volume 1558.605184
_symmetry_space_group_name_H-M "P 21/M"
_symmetry_group_IT_number 11
_symmetry_cell_setting 'monoclinic'
loop_
_space_group_symop_operation_xyz
x,y,z
-x,1/2+y,-z
-x,-y,-z
x,1/2-y,z
loop_
_atom_site_type_symbol
_atom_site_label
_atom_site_fract_x
_atom_site_fract_y
_atom_site_fract_z
Si Si1 0.167252 0.131331 0.105503
Si Si2 0.899092 0.322051 0.793355
Si Si3 0.258763 0.676577 0.699203
Si Si4 0.688582 0.449775 0.450327
Si Si5 0.587658 0.177762 0.084150
Si Si6 0.794264 0.890979 0.157185
Si Si7 0.688418 0.079819 0.707019
Si Si8 0.953702 0.497344 0.806125
O O1 0.384005 0.137436 0.113192
O O2 0.125966 0.057299 0.103299
O O3 0.992354 0.169333 0.224899
O O4 0.181584 0.151610 0.966347
O O5 0.903177 0.250000 0.760080
O O6 0.795338 0.353461 0.708448
O O7 0.135973 0.345987 0.753473
O O8 0.770142 0.339604 0.944917
O O9 0.308862 0.750000 0.646837
O O10 0.357567 0.621659 0.589377
O O11 0.343713 0.662050 0.804391
O O12 0.500000 0.500000 0.500000
O O13 0.769417 0.441361 0.559574
O O14 0.871716 0.483042 0.332566
O O15 0.523882 0.250000 0.085564
O O16 0.559939 0.914722 0.233511
O O17 0.951307 0.950499 0.123228
O O18 0.757746 0.031457 0.788796
#
# Coordination Sequence:
#
# PCOD8074800 Si02
#       8
#     4   4   4   4   4   4   4   4
#     4  11  21  35  62  92 122 161 197 251 319 383
#     4  10  22  39  60  90 125 161 202 256 317 384
#     4  10  23  42  63  90 126 161 209 267 316 375
#     4  11  23  43  68  88 123 175 220 265 313 375
#     4  10  20  36  59  89 122 156 199 250 315 381
#     4  11  21  38  58  92 125 160 200 253 316 381
#     4  11  23  41  62  88 123 162 212 255 311 373
#     4  10  24  39  60  88 123 162 208 260 310 369
#
# _framework density 20.531177
#
# number of rings (size 3 to 8) (size 9 to 14) (size 15 to 20)
#    0.000    1.500    3.750    1.125    1.750    2.000 
#    0.000    0.000    0.000    0.000    0.000    0.000 
#    0.000    0.000    0.000    0.000    0.000    0.000 
#
# Total GULP energy -396636.934556 kJ/mol
# GULP energy per Si atom -12394.904205 kJ/mol
# Density = 2.048445 g / cm^3
# Si number density = 20.531177 Si / 1000 Ang^3
#
#
#
# Elastic Constant Matrix: (Units=GPa)
#
#
# Indices 1 2 3 4 5 6 
#
# 1 123.8422 31.1613 13.1259 0.0000 6.4191 0.0000
# 2 31.1613 106.6537 9.7786 0.0000 3.3330 0.0000
# 3 13.1259 9.7786 39.9728 0.0000 5.3286 0.0000
# 4 0.0000 0.0000 0.0000 29.7167 0.0000 4.2544
# 5 6.4191 3.3330 5.3286 0.0000 27.5683 0.0000
# 6 0.0000 0.0000 0.0000 4.2544 0.0000 27.4677
#
#
#
# Elastic Compliance Matrix: (Units=1/GPa)
#
#
# Indices 1 2 3 4 5 6 
#
# 1 0.008976 -0.002379 -0.002181 0.000000 -0.001381 0.000000
# 2 -0.002379 0.010236 -0.001675 0.000000 -0.000360 0.000000
# 3 -0.002181 -0.001675 0.026737 0.000000 -0.004458 0.000000
# 4 0.000000 0.000000 0.000000 0.034414 0.000000 -0.005330
# 5 -0.001381 -0.000360 -0.004458 0.000000 0.037500 0.000000
# 6 0.000000 0.000000 0.000000 -0.005330 0.000000 0.037232
#
#
# Mechanical properties :
#
#
# Convention : Reuss Voigt Hill
#
# Bulk Modulus (GPa) = 29.86999 42.06670 35.96835
# Shear Modulus (GPa) = 27.97567 31.37741 29.67654
#
# Velocity S-wave (km/s) = 3.69534 3.91356 3.80602
# Velocity P-wave (km/s) = 5.72604 6.39961 6.07217
#
# Compressibility (1/GPa) = 0.03347842
#
# Stress axis : x y z
#
# Youngs Moduli (GPa) = 111.40459 97.69294 37.40098
#
# Poissons Ratio (x) = 0.23246 0.08159
# Poissons Ratio (y) = 0.26508 0.06264
# Poissons Ratio (z) = 0.24302 0.16361
#
# Static dielectric constant tensor:
#      x y z
#    x 3.760430 0.000000 0.056160 
#    y 0.000000 3.910440 0.000000 
#    z 0.056160 0.000000 3.584910 
# 
# 
# High freq. dielectric constant tensor:
#      x y z
#    x 1.814530 0.000000 0.010430 
#    y 0.000000 1.810260 0.000000 
#    z 0.010430 0.000000 1.782320 
# 
# From -- ./inp_files/5480.got.cif
#   From: 2010.06.25/outbox.cif.g09.slc.cpg/sg11_3_cif.got.tgz:5480.got - 2010.06.27 23:14:04.
