data_PCOD8074763
_publ_section_title
;
Structure prediction by ZEFSAII (Michael W. Deem and Ramdas Pophale) SiO2 
 PCOD8074763
Probable space group: P 21/M
;
_chemical_formula_sum "Si O2"
_cell_formula_units_Z 28
_cell_length_a 25.583575
_cell_length_b 8.557567
_cell_length_c 9.068010
_cell_angle_alpha 90.000000
_cell_angle_beta 44.104580
_cell_angle_gamma 90.000000
_cell_volume 1381.701324
_symmetry_space_group_name_H-M "P 21/M"
_symmetry_group_IT_number 11
_symmetry_cell_setting 'monoclinic'
loop_
_space_group_symop_operation_xyz
x,y,z
-x,1/2+y,-z
-x,-y,-z
x,1/2-y,z
loop_
_atom_site_type_symbol
_atom_site_label
_atom_site_fract_x
_atom_site_fract_y
_atom_site_fract_z
Si Si1 0.087871 0.070064 0.658943
Si Si2 0.778983 0.067547 0.786130
Si Si3 0.931331 0.569322 0.966169
Si Si4 0.637911 0.064504 0.882962
Si Si5 0.355582 0.932818 0.462797
Si Si6 0.505246 0.933590 0.651437
Si Si7 0.217010 0.068714 0.902426
O O1 0.106631 0.250000 0.587462
O O2 0.097589 0.028825 0.811318
O O3 0.143758 0.960443 0.455681
O O4 0.003100 0.034659 0.778789
O O5 0.770633 0.250000 0.840754
O O6 0.710467 0.005229 0.824963
O O7 0.776735 0.968459 0.938970
O O8 0.955080 0.750000 0.909694
O O9 0.866602 0.526783 0.981763
O O10 0.637731 0.250000 0.879623
O O11 0.641137 0.000064 0.709894
O O12 0.562855 0.997833 0.112146
O O13 0.373614 0.750000 0.431741
O O14 0.415837 0.022791 0.438168
O O15 0.273772 0.963756 0.694047
O O16 0.497363 0.750000 0.656833
O O17 0.500000 0.000000 0.500000
O O18 0.235289 0.250000 0.837155
#
# Coordination Sequence:
#
# PCOD8074763 Si02
#       7
#     4   4   4   4   4   4   4
#     4  10  20  36  59  86 114 147 189 237 289 345
#     4  11  22  38  59  84 115 152 192 236 287 341
#     4   9  20  38  59  83 113 149 191 238 287 342
#     4   9  21  39  60  84 113 150 193 237 281 335
#     4  11  22  39  61  86 115 150 191 235 286 342
#     4  11  22  39  61  88 120 154 192 236 285 336
#     4  11  23  39  58  84 116 150 190 237 287 339
#
# _framework density 20.264872
#
# number of rings (size 3 to 8) (size 9 to 14) (size 15 to 20)
#    0.000    1.714    0.000    4.286    0.000    3.429 
#    0.000    6.429    0.000    0.000    0.000    0.000 
#    0.000    0.000    0.000    0.000    0.000    0.000 
#
# Total GULP energy -347368.648850 kJ/mol
# GULP energy per Si atom -12406.023173 kJ/mol
# Density = 2.021875 g / cm^3
# Si number density = 20.264872 Si / 1000 Ang^3
#
#
#
# Elastic Constant Matrix: (Units=GPa)
#
#
# Indices 1 2 3 4 5 6 
#
# 1 146.9804 25.0618 38.4487 0.0000 11.0656 0.0000
# 2 25.0618 41.3742 22.2953 0.0000 -0.7063 0.0000
# 3 38.4487 22.2953 74.5084 0.0000 4.1300 0.0000
# 4 0.0000 0.0000 0.0000 31.2632 0.0000 1.3654
# 5 11.0656 -0.7063 4.1300 0.0000 31.6092 0.0000
# 6 0.0000 0.0000 0.0000 1.3654 0.0000 28.5313
#
#
#
# Elastic Compliance Matrix: (Units=1/GPa)
#
#
# Indices 1 2 3 4 5 6 
#
# 1 0.008415 -0.003433 -0.003170 0.000000 -0.002608 0.000000
# 2 -0.003433 0.030317 -0.007458 0.000000 0.002854 0.000000
# 3 -0.003170 -0.007458 0.017363 0.000000 -0.001325 0.000000
# 4 0.000000 0.000000 0.000000 0.032053 0.000000 -0.001534
# 5 -0.002608 0.002854 -0.001325 0.000000 0.032786 0.000000
# 6 0.000000 0.000000 0.000000 -0.001534 0.000000 0.035123
#
#
# Mechanical properties :
#
#
# Convention : Reuss Voigt Hill
#
# Bulk Modulus (GPa) = 35.75199 48.27496 42.01348
# Shear Modulus (GPa) = 25.83924 30.08456 27.96190
#
# Velocity S-wave (km/s) = 3.57469 3.85719 3.71862
# Velocity P-wave (km/s) = 5.89225 6.61142 6.26217
#
# Compressibility (1/GPa) = 0.02797047
#
# Stress axis : x y z
#
# Youngs Moduli (GPa) = 118.83914 32.98474 57.59523
#
# Poissons Ratio (x) = 0.11324 0.18260
# Poissons Ratio (y) = 0.40800 0.42957
# Poissons Ratio (z) = 0.37676 0.24601
#
# Static dielectric constant tensor:
#      x y z
#    x 3.764350 0.000000 0.055430 
#    y 0.000000 3.513340 0.000000 
#    z 0.055430 0.000000 3.699570 
# 
# 
# High freq. dielectric constant tensor:
#      x y z
#    x 1.804050 0.000000 -0.001620 
#    y 0.000000 1.782770 0.000000 
#    z -0.001620 0.000000 1.800490 
# 
# From -- ./inp_files/28306.got.cif
#   From: 2010.06.25/outbox.cif.g09.slc.cpg/sg11_15_cif.got.tgz:28306.got - 2010.06.27 23:14:04.
