data_PCOD8074399
_publ_section_title
;
Structure prediction by ZEFSAII (Michael W. Deem and Ramdas Pophale) SiO2 
 PCOD8074399
Probable space group: P 21/M
;
_chemical_formula_sum "Si O2"
_cell_formula_units_Z 28
_cell_length_a 20.652672
_cell_length_b 15.265166
_cell_length_c 9.089220
_cell_angle_alpha 90.000000
_cell_angle_beta 151.138645
_cell_angle_gamma 90.000000
_cell_volume 1383.165999
_symmetry_space_group_name_H-M "P 21/M"
_symmetry_group_IT_number 11
_symmetry_cell_setting 'monoclinic'
loop_
_space_group_symop_operation_xyz
x,y,z
-x,1/2+y,-z
-x,-y,-z
x,1/2-y,z
loop_
_atom_site_type_symbol
_atom_site_label
_atom_site_fract_x
_atom_site_fract_y
_atom_site_fract_z
Si Si1 0.907874 0.649198 0.175376
Si Si2 0.173133 0.648144 0.879933
Si Si3 0.105773 0.422577 0.179537
Si Si4 0.674899 0.051463 0.355810
Si Si5 0.901321 0.346764 0.952147
Si Si6 0.484658 0.999190 0.220316
Si Si7 0.687688 0.530298 0.864932
O O1 0.857967 0.750000 0.081631
O O2 0.060126 0.642263 0.531253
O O3 0.902969 0.612694 0.002012
O O4 0.818543 0.589846 0.106927
O O5 0.226898 0.750000 0.993139
O O6 0.111508 0.610933 0.911782
O O7 0.286544 0.575470 0.070845
O O8 0.258262 0.453494 0.512206
O O9 0.000000 0.500000 0.000000
O O10 0.054005 0.350194 0.193351
O O11 0.796237 0.117432 0.623077
O O12 0.566199 0.061750 0.270253
O O13 0.602881 0.067710 0.055442
O O14 0.855821 0.250000 0.888917
O O15 0.386283 0.056039 0.129608
O O16 0.590052 0.947865 0.533230
#
# Coordination Sequence:
#
# PCOD8074399 Si02
#       7
#     4   4   4   4   4   4   4
#     4  11  23  39  60  92 125 152 197 252 307 360
#     4  10  22  38  61  90 119 152 197 253 304 360
#     4  10  20  35  60  87 113 151 189 242 302 351
#     4  10  20  39  58  84 111 153 195 245 282 357
#     4  10  20  36  58  86 117 148 190 246 302 354
#     4  10  22  37  61  81 112 154 210 231 288 353
#     4  11  21  40  61  85 114 161 194 248 293 354
#
# _framework density 20.243413
#
# number of rings (size 3 to 8) (size 9 to 14) (size 15 to 20)
#    0.000    1.714    2.857    1.714    6.000    0.000 
#    0.000    4.286    0.000    1.714    0.000    0.000 
#    0.000    0.000    0.000    0.000    0.000    0.000 
#
# Total GULP energy -346869.945326 kJ/mol
# GULP energy per Si atom -12388.212333 kJ/mol
# Density = 2.019734 g / cm^3
# Si number density = 20.243413 Si / 1000 Ang^3
#
#
#
# Elastic Constant Matrix: (Units=GPa)
#
#
# Indices 1 2 3 4 5 6 
#
# 1 114.2844 20.9006 29.6264 0.0000 1.5322 0.0000
# 2 20.9006 76.1906 25.2123 0.0000 6.1979 0.0000
# 3 29.6264 25.2123 85.1820 0.0000 -8.4367 0.0000
# 4 0.0000 0.0000 0.0000 19.5920 0.0000 -4.1305
# 5 1.5322 6.1979 -8.4367 0.0000 32.3849 0.0000
# 6 0.0000 0.0000 0.0000 -4.1305 0.0000 16.4252
#
#
#
# Elastic Compliance Matrix: (Units=1/GPa)
#
#
# Indices 1 2 3 4 5 6 
#
# 1 0.009847 -0.001618 -0.003040 0.000000 -0.000948 0.000000
# 2 -0.001618 0.015342 -0.004374 0.000000 -0.003999 0.000000
# 3 -0.003040 -0.004374 0.014564 0.000000 0.004775 0.000000
# 4 0.000000 0.000000 0.000000 0.053899 0.000000 0.013554
# 5 -0.000948 -0.003999 0.004775 0.000000 0.032933 0.000000
# 6 0.000000 0.000000 0.000000 0.013554 0.000000 0.064291
#
#
# Mechanical properties :
#
#
# Convention : Reuss Voigt Hill
#
# Bulk Modulus (GPa) = 46.10668 47.45952 46.78310
# Shear Modulus (GPa) = 23.13009 27.00826 25.06917
#
# Velocity S-wave (km/s) = 3.38390 3.65660 3.52289
# Velocity P-wave (km/s) = 6.17198 6.42829 6.30144
#
# Compressibility (1/GPa) = 0.02168883
#
# Stress axis : x y z
#
# Youngs Moduli (GPa) = 101.55657 65.18211 68.66070
#
# Poissons Ratio (x) = 0.10548 0.20870
# Poissons Ratio (y) = 0.16434 0.30033
# Poissons Ratio (z) = 0.30870 0.28511
#
# Static dielectric constant tensor:
#      x y z
#    x 2.340110 0.000000 -0.513130 
#    y 0.000000 3.488070 0.000000 
#    z -0.513130 0.000000 3.560210 
# 
# 
# High freq. dielectric constant tensor:
#      x y z
#    x 1.810780 0.000000 -0.005240 
#    y 0.000000 1.753770 0.000000 
#    z -0.005240 0.000000 1.789550 
# 
# From -- ./inp_files/26944.got.cif
#   From: 2010.06.25/outbox.cif.g09.slc.cpg/sg11_14_cif.got.tgz:26944.got - 2010.06.27 23:14:04.
