data_PCOD8074711
_publ_section_title
;
Structure prediction by ZEFSAII (Michael W. Deem and Ramdas Pophale) SiO2 
 PCOD8074711
Probable space group: P 21/M
;
_chemical_formula_sum "Si O2"
_cell_formula_units_Z 32
_cell_length_a 11.614801
_cell_length_b 13.191402
_cell_length_c 15.427329
_cell_angle_alpha 90.000000
_cell_angle_beta 38.795146
_cell_angle_gamma 90.000000
_cell_volume 1480.951164
_symmetry_space_group_name_H-M "P 21/M"
_symmetry_group_IT_number 11
_symmetry_cell_setting 'monoclinic'
loop_
_space_group_symop_operation_xyz
x,y,z
-x,1/2+y,-z
-x,-y,-z
x,1/2-y,z
loop_
_atom_site_type_symbol
_atom_site_label
_atom_site_fract_x
_atom_site_fract_y
_atom_site_fract_z
Si Si1 0.064141 0.059401 0.153948
Si Si2 0.357403 0.862774 0.794851
Si Si3 0.338872 0.550509 0.440166
Si Si4 0.956751 0.865198 0.652265
Si Si5 0.995521 0.133667 0.904816
Si Si6 0.685831 0.866051 0.143496
Si Si7 0.670759 0.365406 0.375318
Si Si8 0.250482 0.363653 0.394989
O O1 0.121162 0.069494 0.221208
O O2 0.892276 0.133886 0.237446
O O3 0.991121 0.943507 0.183460
O O4 0.232846 0.093665 0.994514
O O5 0.288132 0.750000 0.812032
O O6 0.410152 0.910599 0.668840
O O7 0.531656 0.860543 0.756597
O O8 0.181479 0.914897 0.941207
O O9 0.510284 0.564656 0.273055
O O10 0.401524 0.565094 0.503219
O O11 0.236846 0.442259 0.483125
O O12 0.178436 0.632349 0.515273
O O13 0.892732 0.750000 0.702712
O O14 0.863032 0.906970 0.619486
O O15 0.964531 0.250000 0.891168
O O16 0.169421 0.125462 0.864078
O O17 0.621561 0.750000 0.170176
O O18 0.603001 0.250000 0.431228
O O19 0.184237 0.250000 0.461185
#
# Coordination Sequence:
#
# PCOD8074711 Si02
#       8
#     4   4   4   4   4   4   4   4
#     4  11  20  35  62  88 115 154 205 237 287 345
#     4   9  18  36  59  85 115 154 196 235 281 349
#     4  11  22  37  62  89 121 152 193 241 304 348
#     4  10  22  43  64  84 114 155 203 250 288 343
#     4  10  21  36  56  87 130 159 187 237 299 357
#     4  11  21  35  58  93 127 154 188 239 303 357
#     4  10  20  36  58  86 119 152 191 240 290 349
#     4  10  22  40  62  85 114 158 206 243 285 345
#
# _framework density 21.607735000000002
#
# number of rings (size 3 to 8) (size 9 to 14) (size 15 to 20)
#    0.000    1.750    1.250    4.500    1.750    0.500 
#    2.250    5.000    0.000    3.750    0.000    0.000 
#    0.000    0.000    0.000    0.000    0.000    0.000 
#
# Total GULP energy -396610.004373 kJ/mol
# GULP energy per Si atom -12394.062637 kJ/mol
# Density = 2.155855 g / cm^3
# Si number density = 21.607735 Si / 1000 Ang^3
#
#
#
# Elastic Constant Matrix: (Units=GPa)
#
#
# Indices 1 2 3 4 5 6 
#
# 1 84.1825 4.2250 18.3958 0.0000 0.7587 0.0000
# 2 4.2250 78.6383 9.9656 0.0000 12.6061 0.0000
# 3 18.3958 9.9656 104.7078 0.0000 -4.0267 0.0000
# 4 0.0000 0.0000 0.0000 20.1092 0.0000 11.0436
# 5 0.7587 12.6061 -4.0267 0.0000 19.8123 0.0000
# 6 0.0000 0.0000 0.0000 11.0436 0.0000 28.1166
#
#
#
# Elastic Compliance Matrix: (Units=1/GPa)
#
#
# Indices 1 2 3 4 5 6 
#
# 1 0.012375 -0.000270 -0.002177 0.000000 -0.000745 0.000000
# 2 -0.000270 0.014476 -0.001698 0.000000 -0.009546 0.000000
# 3 -0.002177 -0.001698 0.010219 0.000000 0.003240 0.000000
# 4 0.000000 0.000000 0.000000 0.063405 0.000000 -0.024904
# 5 -0.000745 -0.009546 0.003240 0.000000 0.057235 0.000000
# 6 0.000000 0.000000 0.000000 -0.024904 0.000000 0.045348
#
#
# Mechanical properties :
#
#
# Convention : Reuss Voigt Hill
#
# Bulk Modulus (GPa) = 34.74405 36.96680 35.85542
# Shear Modulus (GPa) = 22.63050 29.27043 25.95046
#
# Velocity S-wave (km/s) = 3.23976 3.68452 3.46928
# Velocity P-wave (km/s) = 5.48718 5.93685 5.71644
#
# Compressibility (1/GPa) = 0.02878191
#
# Stress axis : x y z
#
# Youngs Moduli (GPa) = 80.80841 69.07856 97.85641
#
# Poissons Ratio (x) = 0.01862 0.21304
# Poissons Ratio (y) = 0.02178 0.16611
# Poissons Ratio (z) = 0.17593 0.11726
#
# Static dielectric constant tensor:
#      x y z
#    x 3.829340 0.000000 0.009540 
#    y 0.000000 4.233330 0.000000 
#    z 0.009540 0.000000 3.759320 
# 
# 
# High freq. dielectric constant tensor:
#      x y z
#    x 1.827800 0.000000 -0.004060 
#    y 0.000000 1.871520 0.000000 
#    z -0.004060 0.000000 1.827630 
# 
# From -- ./inp_files/50380.got.cif
#   From: 2010.06.25/outbox.cif.g09.slc.cpg/sg11_26_cif.got.tgz:50380.got - 2010.06.27 23:14:04.
