data_PCOD8074655
_publ_section_title
;
Structure prediction by ZEFSAII (Michael W. Deem and Ramdas Pophale) SiO2 
 PCOD8074655
Probable space group: P 21/M
;
_chemical_formula_sum "Si O2"
_cell_formula_units_Z 32
_cell_length_a 8.665219
_cell_length_b 30.228351
_cell_length_c 11.789776
_cell_angle_alpha 90.000000
_cell_angle_beta 145.705969
_cell_angle_gamma 90.000000
_cell_volume 1739.991860
_symmetry_space_group_name_H-M "P 21/M"
_symmetry_group_IT_number 11
_symmetry_cell_setting 'monoclinic'
loop_
_space_group_symop_operation_xyz
x,y,z
-x,1/2+y,-z
-x,-y,-z
x,1/2-y,z
loop_
_atom_site_type_symbol
_atom_site_label
_atom_site_fract_x
_atom_site_fract_y
_atom_site_fract_z
Si Si1 0.492448 0.300121 0.197538
Si Si2 0.409418 0.870206 0.564013
Si Si3 0.749657 0.879551 0.544641
Si Si4 0.647749 0.412566 0.074248
Si Si5 0.272973 0.949387 0.634211
Si Si6 0.801410 0.662743 0.184146
Si Si7 0.890874 0.800317 0.478144
Si Si8 0.344013 0.451477 0.692325
O O1 0.484940 0.250000 0.238274
O O2 0.440590 0.332044 0.272499
O O3 0.786503 0.311444 0.320568
O O4 0.260448 0.306681 0.961903
O O5 0.568670 0.875654 0.545191
O O6 0.426180 0.915829 0.644027
O O7 0.098836 0.857930 0.348060
O O8 0.736888 0.833106 0.469960
O O9 0.616174 0.917747 0.386855
O O10 0.057653 0.890952 0.767088
O O11 0.640171 0.441196 0.183643
O O12 0.420094 0.375337 0.942039
O O13 0.583457 0.444624 0.929552
O O14 0.947198 0.942652 0.423483
O O15 0.360173 0.998904 0.652889
O O16 0.783980 0.692665 0.285683
O O17 0.829713 0.750000 0.478191
#
# Coordination Sequence:
#
# PCOD8074655 Si02
#       8
#     4   4   4   4   4   4   4   4
#     4  10  20  37  60  83 107 143 190 233 270 327
#     4  11  23  37  56  83 120 149 178 229 285 336
#     4  11  23  37  55  83 118 151 177 227 290 333
#     4  11  18  37  62  82 105 145 194 230 271 326
#     4  10  20  36  59  87 108 148 193 234 280 323
#     4  11  18  37  63  81 104 144 191 229 270 325
#     4  10  20  36  58  82 108 142 187 230 272 329
#     4  10  20  37  60  82 113 146 193 236 271 335
#
# _framework density 18.390889999999999
#
# number of rings (size 3 to 8) (size 9 to 14) (size 15 to 20)
#    0.000    1.500    5.000    2.250    0.000    2.500 
#    0.000    0.625    0.000    0.000    0.000    0.000 
#    0.000    0.000    0.000    0.000    0.000    0.000 
#
# Total GULP energy -396923.060826 kJ/mol
# GULP energy per Si atom -12403.845651 kJ/mol
# Density = 1.834903 g / cm^3
# Si number density = 18.390890 Si / 1000 Ang^3
#
#
#
# Elastic Constant Matrix: (Units=GPa)
#
#
# Indices 1 2 3 4 5 6 
#
# 1 127.5232 74.4467 42.0909 0.0000 -14.9363 0.0000
# 2 74.4467 135.7764 39.4733 0.0000 -16.1270 0.0000
# 3 42.0909 39.4733 112.5850 0.0000 -18.5614 0.0000
# 4 0.0000 0.0000 0.0000 25.9118 0.0000 -3.0985
# 5 -14.9363 -16.1270 -18.5614 0.0000 19.3283 0.0000
# 6 0.0000 0.0000 0.0000 -3.0985 0.0000 8.1775
#
#
#
# Elastic Compliance Matrix: (Units=1/GPa)
#
#
# Indices 1 2 3 4 5 6 
#
# 1 0.012214 -0.005775 -0.002115 0.000000 0.002590 0.000000
# 2 -0.005775 0.011332 -0.001178 0.000000 0.003862 0.000000
# 3 -0.002115 -0.001178 0.011470 0.000000 0.008398 0.000000
# 4 0.000000 0.000000 0.000000 0.040424 0.000000 0.015317
# 5 0.002590 0.003862 0.008398 0.000000 0.065026 0.000000
# 6 0.000000 0.000000 0.000000 0.015317 0.000000 0.128091
#
#
# Mechanical properties :
#
#
# Convention : Reuss Voigt Hill
#
# Bulk Modulus (GPa) = 59.23207 76.43406 67.83306
# Shear Modulus (GPa) = 17.10453 25.34176 21.22314
#
# Velocity S-wave (km/s) = 3.05299 3.71610 3.40075
# Velocity P-wave (km/s) = 6.68617 7.75007 7.23770
#
# Compressibility (1/GPa) = 0.01688275
#
# Stress axis : x y z
#
# Youngs Moduli (GPa) = 81.87152 88.24237 87.18171
#
# Poissons Ratio (x) = 0.50957 0.18437
# Poissons Ratio (y) = 0.47279 0.10267
# Poissons Ratio (z) = 0.17314 0.10391
#
# Static dielectric constant tensor:
#      x y z
#    x 3.032260 0.000000 -0.151480 
#    y 0.000000 3.550490 0.000000 
#    z -0.151480 0.000000 3.743720 
# 
# 
# High freq. dielectric constant tensor:
#      x y z
#    x 1.679970 0.000000 -0.016000 
#    y 0.000000 1.728560 0.000000 
#    z -0.016000 0.000000 1.723170 
# 
# From -- ./inp_files/19878.got.cif
#   From: 2010.06.25/outbox.cif.g09.slc.cpg/sg11_10_cif.got.tgz:19878.got - 2010.06.27 23:14:04.
