data_PCOD8074381
_publ_section_title
;
Structure prediction by ZEFSAII (Michael W. Deem and Ramdas Pophale) SiO2 
 PCOD8074381
Probable space group: P 21/M
;
_chemical_formula_sum "Si O2"
_cell_formula_units_Z 32
_cell_length_a 15.048310
_cell_length_b 8.807416
_cell_length_c 12.212785
_cell_angle_alpha 90.000000
_cell_angle_beta 92.361089
_cell_angle_gamma 90.000000
_cell_volume 1617.268377
_symmetry_space_group_name_H-M "P 21/M"
_symmetry_group_IT_number 11
_symmetry_cell_setting 'monoclinic'
loop_
_space_group_symop_operation_xyz
x,y,z
-x,1/2+y,-z
-x,-y,-z
x,1/2-y,z
loop_
_atom_site_type_symbol
_atom_site_label
_atom_site_fract_x
_atom_site_fract_y
_atom_site_fract_z
Si Si1 0.589571 0.071994 0.550195
Si Si2 0.266756 0.427290 0.595374
Si Si3 0.033821 0.072845 0.836895
Si Si4 0.644581 0.072657 0.200813
Si Si5 0.558408 0.574603 0.768274
Si Si6 0.682871 0.926387 0.974815
Si Si7 0.862577 0.073994 0.966937
Si Si8 0.937093 0.927260 0.407302
O O1 0.580759 0.250000 0.536515
O O2 0.500000 0.000000 0.500000
O O3 0.675203 0.018723 0.488214
O O4 0.603432 0.026660 0.676850
O O5 0.286357 0.250000 0.583332
O O6 0.289634 0.477231 0.719610
O O7 0.164222 0.466819 0.567875
O O8 0.059916 0.250000 0.846343
O O9 0.039107 0.011900 0.712999
O O10 0.934965 0.043089 0.876695
O O11 0.103477 0.978418 0.912386
O O12 0.662456 0.250000 0.218668
O O13 0.544220 0.029255 0.226759
O O14 0.663082 0.029543 0.077685
O O15 0.570051 0.750000 0.736581
O O16 0.606165 0.537625 0.884204
O O17 0.684207 0.750000 0.007462
O O18 0.777129 0.975588 0.928493
O O19 0.837000 0.250000 0.972904
O O20 0.954741 0.750000 0.410411
O O21 0.000000 0.000000 0.500000
#
# Coordination Sequence:
#
# PCOD8074381 Si02
#       8
#     4   4   4   4   4   4   4   4
#     4  12  24  40  64  90 120 159 205 255 303 357
#     4  11  23  40  64  93 124 162 205 250 306 366
#     4   9  19  38  61  85 116 152 193 244 301 357
#     4  11  22  38  62  89 119 156 203 252 298 358
#     4  10  23  41  60  86 120 158 201 248 301 359
#     4  11  23  38  57  84 123 162 196 243 302 363
#     4  10  20  35  59  89 117 150 196 246 294 358
#     4  10  23  41  61  87 121 158 198 247 302 361
#
# _framework density 19.786449999999999
#
# number of rings (size 3 to 8) (size 9 to 14) (size 15 to 20)
#    0.000    1.500    1.250    3.750    0.000    5.500 
#    0.000    2.500    0.000    0.000    0.000    0.000 
#    0.000    0.000    0.000    0.000    0.000    0.000 
#
# Total GULP energy -396991.509918 kJ/mol
# GULP energy per Si atom -12405.984685 kJ/mol
# Density = 1.974142 g / cm^3
# Si number density = 19.786450 Si / 1000 Ang^3
#
#
#
# Elastic Constant Matrix: (Units=GPa)
#
#
# Indices 1 2 3 4 5 6 
#
# 1 97.4217 57.4309 53.2120 0.0000 7.3312 0.0000
# 2 57.4309 74.6317 35.4357 0.0000 1.4622 0.0000
# 3 53.2120 35.4357 87.0906 0.0000 -6.8505 0.0000
# 4 0.0000 0.0000 0.0000 31.8310 0.0000 0.3003
# 5 7.3312 1.4622 -6.8505 0.0000 33.1779 0.0000
# 6 0.0000 0.0000 0.0000 0.3003 0.0000 33.5721
#
#
#
# Elastic Compliance Matrix: (Units=1/GPa)
#
#
# Indices 1 2 3 4 5 6 
#
# 1 0.024302 -0.013964 -0.009698 0.000000 -0.006757 0.000000
# 2 -0.013964 0.024785 -0.001419 0.000000 0.001700 0.000000
# 3 -0.009698 -0.001419 0.018459 0.000000 0.006017 0.000000
# 4 0.000000 0.000000 0.000000 0.031419 0.000000 -0.000281
# 5 -0.006757 0.001700 0.006017 0.000000 0.032801 0.000000
# 6 0.000000 0.000000 0.000000 -0.000281 0.000000 0.029789
#
#
# Mechanical properties :
#
#
# Convention : Reuss Voigt Hill
#
# Bulk Modulus (GPa) = 57.52626 61.25570 59.39098
# Shear Modulus (GPa) = 22.98721 27.25390 25.12055
#
# Velocity S-wave (km/s) = 3.41217 3.71536 3.56699
# Velocity P-wave (km/s) = 6.68285 7.03071 6.85899
#
# Compressibility (1/GPa) = 0.01738337
#
# Stress axis : x y z
#
# Youngs Moduli (GPa) = 41.14830 40.34666 54.17512
#
# Poissons Ratio (x) = 0.56340 0.52541
# Poissons Ratio (y) = 0.57459 0.07687
# Poissons Ratio (z) = 0.39907 0.05725
#
# Static dielectric constant tensor:
#      x y z
#    x 3.782730 0.000000 -0.102120 
#    y 0.000000 3.710590 0.000000 
#    z -0.102120 0.000000 3.731700 
# 
# 
# High freq. dielectric constant tensor:
#      x y z
#    x 1.779650 0.000000 -0.006390 
#    y 0.000000 1.775470 0.000000 
#    z -0.006390 0.000000 1.776550 
# 
# From -- ./inp_files/38142.got.cif
#   From: 2010.06.25/outbox.cif.g09.slc.cpg/sg11_20_cif.got.tgz:38142.got - 2010.06.27 23:14:04.
