data_PCOD8074686
_publ_section_title
;
Structure prediction by ZEFSAII (Michael W. Deem and Ramdas Pophale) SiO2 
 PCOD8074686
Probable space group: P 21/M
;
_chemical_formula_sum "Si O2"
_cell_formula_units_Z 28
_cell_length_a 11.227547
_cell_length_b 8.556934
_cell_length_c 16.033558
_cell_angle_alpha 90.000000
_cell_angle_beta 61.314095
_cell_angle_gamma 90.000000
_cell_volume 1351.336211
_symmetry_space_group_name_H-M "P 21/M"
_symmetry_group_IT_number 11
_symmetry_cell_setting 'monoclinic'
loop_
_space_group_symop_operation_xyz
x,y,z
-x,1/2+y,-z
-x,-y,-z
x,1/2-y,z
loop_
_atom_site_type_symbol
_atom_site_label
_atom_site_fract_x
_atom_site_fract_y
_atom_site_fract_z
Si Si1 0.108925 0.067351 0.026697
Si Si2 0.683962 0.933250 0.580684
Si Si3 0.339965 0.569084 0.234463
Si Si4 0.619314 0.065592 0.324575
Si Si5 0.161826 0.566023 0.618863
Si Si6 0.913633 0.069451 0.790335
Si Si7 0.625584 0.434232 0.134873
O O1 0.122673 0.250000 0.006572
O O2 0.059900 0.034403 0.136891
O O3 0.253771 0.985189 0.965958
O O4 0.000000 0.000000 0.000000
O O5 0.702587 0.750000 0.558943
O O6 0.533409 0.992683 0.604743
O O7 0.706693 0.968684 0.670195
O O8 0.793812 0.027246 0.490001
O O9 0.341318 0.750000 0.259773
O O10 0.235989 0.536296 0.194668
O O11 0.487444 0.517310 0.151925
O O12 0.621683 0.250000 0.329747
O O13 0.724802 0.995849 0.355707
O O14 0.661987 0.013155 0.217097
O O15 0.142100 0.750000 0.636525
O O16 0.021190 0.479548 0.683852
O O17 0.932330 0.250000 0.807626
O O18 0.602778 0.250000 0.136830
#
# Coordination Sequence:
#
# PCOD8074686 Si02
#       7
#     4   4   4   4   4   4   4
#     4  12  25  42  65  93 124 156 193 237 291 352
#     4  10  20  36  58  84 117 155 196 243 297 358
#     4  10  22  41  62  86 116 153 201 250 296 350
#     4   8  17  33  55  85 117 149 187 235 288 345
#     4  11  21  35  57  85 118 155 197 245 300 357
#     4  11  25  43  61  84 117 156 200 248 296 352
#     4  10  20  38  64  91 121 156 195 242 297 353
#
# _framework density 20.720230999999998
#
# number of rings (size 3 to 8) (size 9 to 14) (size 15 to 20)
#    0.000    1.714    0.000    5.571    0.000    4.571 
#    0.000    7.143    0.000    0.000    0.000    0.000 
#    0.000    0.000    0.000    0.000    0.000    0.000 
#
# Total GULP energy -347341.695432 kJ/mol
# GULP energy per Si atom -12405.060551 kJ/mol
# Density = 2.067307 g / cm^3
# Si number density = 20.720231 Si / 1000 Ang^3
#
#
#
# Elastic Constant Matrix: (Units=GPa)
#
#
# Indices 1 2 3 4 5 6 
#
# 1 101.9520 39.6596 33.4573 0.0000 -4.8220 0.0000
# 2 39.6596 61.9707 10.5562 0.0000 3.1892 0.0000
# 3 33.4573 10.5562 87.4420 0.0000 -17.2388 0.0000
# 4 0.0000 0.0000 0.0000 36.3029 0.0000 -2.0475
# 5 -4.8220 3.1892 -17.2388 0.0000 29.0831 0.0000
# 6 0.0000 0.0000 0.0000 -2.0475 0.0000 30.4488
#
#
#
# Elastic Compliance Matrix: (Units=1/GPa)
#
#
# Indices 1 2 3 4 5 6 
#
# 1 0.014668 -0.008675 -0.004414 0.000000 0.000767 0.000000
# 2 -0.008675 0.021905 -0.000093 0.000000 -0.003896 0.000000
# 3 -0.004414 -0.000093 0.014713 0.000000 0.008000 0.000000
# 4 0.000000 0.000000 0.000000 0.027651 0.000000 0.001859
# 5 0.000767 -0.003896 0.008000 0.000000 0.039680 0.000000
# 6 0.000000 0.000000 0.000000 0.001859 0.000000 0.032967
#
#
# Mechanical properties :
#
#
# Convention : Reuss Voigt Hill
#
# Bulk Modulus (GPa) = 40.12472 46.52345 43.32408
# Shear Modulus (GPa) = 26.84500 30.34640 28.59570
#
# Velocity S-wave (km/s) = 3.60334 3.83113 3.71898
# Velocity P-wave (km/s) = 6.05963 6.48629 6.27659
#
# Compressibility (1/GPa) = 0.02492229
#
# Stress axis : x y z
#
# Youngs Moduli (GPa) = 68.17703 45.65265 67.96561
#
# Poissons Ratio (x) = 0.39602 0.29999
# Poissons Ratio (y) = 0.59141 0.00634
# Poissons Ratio (z) = 0.30092 0.00426
#
# Static dielectric constant tensor:
#      x y z
#    x 3.844530 0.000000 -0.073150 
#    y 0.000000 3.638130 0.000000 
#    z -0.073150 0.000000 3.664680 
# 
# 
# High freq. dielectric constant tensor:
#      x y z
#    x 1.811090 0.000000 -0.006680 
#    y 0.000000 1.808360 0.000000 
#    z -0.006680 0.000000 1.812690 
# 
# From -- ./inp_files/49105.got.cif
#   From: 2010.06.25/outbox.cif.g09.slc.cpg/sg11_25_cif.got.tgz:49105.got - 2010.06.27 23:14:04.
