data_PCOD8074535
_publ_section_title
;
Structure prediction by ZEFSAII (Michael W. Deem and Ramdas Pophale) SiO2 
 PCOD8074535
Probable space group: P 21/M
;
_chemical_formula_sum "Si O2"
_cell_formula_units_Z 32
_cell_length_a 13.240411
_cell_length_b 9.549099
_cell_length_c 21.072424
_cell_angle_alpha 90.000000
_cell_angle_beta 35.417227
_cell_angle_gamma 90.000000
_cell_volume 1544.014786
_symmetry_space_group_name_H-M "P 21/M"
_symmetry_group_IT_number 11
_symmetry_cell_setting 'monoclinic'
loop_
_space_group_symop_operation_xyz
x,y,z
-x,1/2+y,-z
-x,-y,-z
x,1/2-y,z
loop_
_atom_site_type_symbol
_atom_site_label
_atom_site_fract_x
_atom_site_fract_y
_atom_site_fract_z
Si Si1 0.655566 0.416276 0.383515
Si Si2 0.829797 0.087648 0.018607
Si Si3 0.958895 0.910547 0.286884
Si Si4 0.170485 0.910924 0.834542
Si Si5 0.244034 0.592461 0.372212
Si Si6 0.348000 0.593155 0.103087
Si Si7 0.467194 0.403994 0.866617
Si Si8 0.926749 0.593251 0.451137
O O1 0.500000 0.500000 0.500000
O O2 0.635194 0.250000 0.408970
O O3 0.839215 0.476561 0.313556
O O4 0.672672 0.439423 0.297527
O O5 0.849062 0.250000 0.992081
O O6 0.773580 0.062861 0.120856
O O7 0.679575 0.022466 0.050670
O O8 0.008353 0.014056 0.905761
O O9 0.930136 0.750000 0.277169
O O10 0.916689 0.917471 0.381822
O O11 0.159423 0.959461 0.176391
O O12 0.107939 0.750000 0.859014
O O13 0.199442 0.750000 0.414315
O O14 0.441988 0.578077 0.247841
O O15 0.230961 0.499686 0.441761
O O16 0.109322 0.538826 0.386847
O O17 0.374041 0.750000 0.064741
O O18 0.371488 0.585876 0.166903
O O19 0.500000 0.500000 0.000000
O O20 0.378469 0.250000 0.917206
O O21 0.891727 0.750000 0.491692
#
# Coordination Sequence:
#
# PCOD8074535 Si02
#       8
#     4   4   4   4   4   4   4   4
#     4  11  25  44  66  91 120 158 204 255 307 363
#     4  10  21  37  62  92 118 151 195 246 300 359
#     4  10  21  40  62  85 119 162 201 243 296 352
#     4   9  21  43  64  85 118 154 193 245 310 365
#     4   9  17  31  51  76 108 149 191 231 275 336
#     4  10  22  39  58  83 120 162 201 240 289 351
#     4  10  20  36  56  82 121 159 191 231 289 352
#     4   9  17  32  53  76 107 148 189 232 285 336
#
# _framework density 20.725189
#
# number of rings (size 3 to 8) (size 9 to 14) (size 15 to 20)
#    0.000    2.250    1.250    0.750    1.750    4.500 
#    0.000    3.750    0.000    0.000    0.000    0.000 
#    0.000    0.000    0.000    0.000    0.000    0.000 
#
# Total GULP energy -396468.310341 kJ/mol
# GULP energy per Si atom -12389.634698 kJ/mol
# Density = 2.067802 g / cm^3
# Si number density = 20.725189 Si / 1000 Ang^3
#
#
#
# Elastic Constant Matrix: (Units=GPa)
#
#
# Indices 1 2 3 4 5 6 
#
# 1 40.6120 29.6877 27.2890 0.0000 -14.1464 0.0000
# 2 29.6877 103.3641 61.2887 0.0000 -6.0996 0.0000
# 3 27.2890 61.2887 116.0619 0.0000 5.8097 0.0000
# 4 0.0000 0.0000 0.0000 38.3594 0.0000 -2.0306
# 5 -14.1464 -6.0996 5.8097 0.0000 28.2686 0.0000
# 6 0.0000 0.0000 0.0000 -2.0306 0.0000 31.1758
#
#
#
# Elastic Compliance Matrix: (Units=1/GPa)
#
#
# Indices 1 2 3 4 5 6 
#
# 1 0.041552 -0.006230 -0.007531 0.000000 0.020997 0.000000
# 2 -0.006230 0.015641 -0.006878 0.000000 0.001671 0.000000
# 3 -0.007531 -0.006878 0.014431 0.000000 -0.008219 0.000000
# 4 0.000000 0.000000 0.000000 0.026159 0.000000 0.001704
# 5 0.020997 0.001671 -0.008219 0.000000 0.047932 0.000000
# 6 0.000000 0.000000 0.000000 0.001704 0.000000 0.032187
#
#
# Mechanical properties :
#
#
# Convention : Reuss Voigt Hill
#
# Bulk Modulus (GPa) = 32.95467 55.17431 44.06449
# Shear Modulus (GPa) = 21.80594 29.01229 25.40912
#
# Velocity S-wave (km/s) = 3.24720 3.74552 3.50523
# Velocity P-wave (km/s) = 5.47671 6.73683 6.13919
#
# Compressibility (1/GPa) = 0.03034472
#
# Stress axis : x y z
#
# Youngs Moduli (GPa) = 24.06633 63.93521 69.29763
#
# Poissons Ratio (x) = 0.39829 0.52190
# Poissons Ratio (y) = 0.14992 0.47665
# Poissons Ratio (z) = 0.18125 0.43977
#
# Static dielectric constant tensor:
#      x y z
#    x 4.270870 0.000000 0.562430 
#    y 0.000000 3.823380 0.000000 
#    z 0.562430 0.000000 4.210470 
# 
# 
# High freq. dielectric constant tensor:
#      x y z
#    x 1.798110 0.000000 0.011130 
#    y 0.000000 1.809050 0.000000 
#    z 0.011130 0.000000 1.812640 
# 
# From -- ./inp_files/69027.got.cif
#   From: 2010.06.25/outbox.cif.g09.slc.cpg/sg11_35_cif.got.tgz:69027.got - 2010.06.27 23:14:04.
