data_PCOD8074856
_publ_section_title
;
Structure prediction by ZEFSAII (Michael W. Deem and Ramdas Pophale) SiO2 
 PCOD8074856
Probable space group: P 21/M
;
_chemical_formula_sum "Si O2"
_cell_formula_units_Z 24
_cell_length_a 12.447719
_cell_length_b 8.761813
_cell_length_c 11.654142
_cell_angle_alpha 90.000000
_cell_angle_beta 90.456932
_cell_angle_gamma 90.000000
_cell_volume 1271.013755
_symmetry_space_group_name_H-M "P 21/M"
_symmetry_group_IT_number 11
_symmetry_cell_setting 'monoclinic'
loop_
_space_group_symop_operation_xyz
x,y,z
-x,1/2+y,-z
-x,-y,-z
x,1/2-y,z
loop_
_atom_site_type_symbol
_atom_site_label
_atom_site_fract_x
_atom_site_fract_y
_atom_site_fract_z
Si Si1 0.616505 0.926476 0.366611
Si Si2 0.818879 0.429420 0.772849
Si Si3 0.628183 0.426605 0.605186
Si Si4 0.997491 0.426120 0.376059
Si Si5 0.882409 0.570688 0.001864
Si Si6 0.207740 0.924515 0.775774
O O1 0.644418 0.750000 0.349161
O O2 0.490579 0.960820 0.348680
O O3 0.654125 0.973762 0.493872
O O4 0.677304 0.024129 0.271280
O O5 0.829279 0.250000 0.790946
O O6 0.711216 0.474132 0.704235
O O7 0.922787 0.485920 0.706516
O O8 0.811756 0.509406 0.895859
O O9 0.640910 0.250000 0.570149
O O10 0.032016 0.250000 0.384135
O O11 0.878071 0.444493 0.326367
O O12 0.000000 0.500000 0.500000
O O13 0.895319 0.750000 0.990806
O O14 0.821793 0.529773 0.117663
O O15 0.000000 0.500000 0.000000
O O16 0.213749 0.750000 0.817582
#
# Coordination Sequence:
#
# PCOD8074856 Si02
#       6
#     4   4   4   4   4   4
#     4  10  20  36  60  88 118 153 195 240 288 343
#     4  11  22  38  60  84 115 152 193 238 288 344
#     4   9  20  38  59  86 119 155 193 237 290 345
#     4  11  23  36  54  82 117 150 187 236 290 347
#     4  12  24  40  61  85 114 152 195 237 288 345
#     4  11  23  39  58  83 116 153 194 238 287 342
#
# _framework density 18.882565
#
# number of rings (size 3 to 8) (size 9 to 14) (size 15 to 20)
#    0.000    1.333    1.667    4.500    0.000    8.000 
#    0.000    0.833    0.000    0.000    0.000    0.000 
#    0.000    0.000    0.000    0.000    0.000    0.000 
#
# Total GULP energy -297758.056232 kJ/mol
# GULP energy per Si atom -12406.585676 kJ/mol
# Density = 1.883959 g / cm^3
# Si number density = 18.882565 Si / 1000 Ang^3
#
#
#
# Elastic Constant Matrix: (Units=GPa)
#
#
# Indices 1 2 3 4 5 6 
#
# 1 87.6363 35.4986 31.2738 0.0000 -5.7545 0.0000
# 2 35.4986 103.7962 34.2926 0.0000 1.8049 0.0000
# 3 31.2738 34.2926 86.4938 0.0000 -4.8565 0.0000
# 4 0.0000 0.0000 0.0000 38.7372 0.0000 -2.8311
# 5 -5.7545 1.8049 -4.8565 0.0000 29.5549 0.0000
# 6 0.0000 0.0000 0.0000 -2.8311 0.0000 29.0033
#
#
#
# Elastic Compliance Matrix: (Units=1/GPa)
#
#
# Indices 1 2 3 4 5 6 
#
# 1 0.014374 -0.003782 -0.003560 0.000000 0.002445 0.000000
# 2 -0.003782 0.012140 -0.003562 0.000000 -0.002063 0.000000
# 3 -0.003560 -0.003562 0.014367 0.000000 0.001885 0.000000
# 4 0.000000 0.000000 0.000000 0.026000 0.000000 0.002538
# 5 0.002445 -0.002063 0.001885 0.000000 0.034747 0.000000
# 6 0.000000 0.000000 0.000000 0.002538 0.000000 0.034727
#
#
# Mechanical properties :
#
#
# Convention : Reuss Voigt Hill
#
# Bulk Modulus (GPa) = 52.43114 53.33961 52.88537
# Shear Modulus (GPa) = 30.39122 31.24983 30.82053
#
# Velocity S-wave (km/s) = 4.01619 4.07253 4.04446
# Velocity P-wave (km/s) = 7.02379 7.10094 7.06247
#
# Compressibility (1/GPa) = 0.01907264
#
# Stress axis : x y z
#
# Youngs Moduli (GPa) = 69.57051 82.36996 69.60476
#
# Poissons Ratio (x) = 0.31153 0.24782
# Poissons Ratio (y) = 0.26312 0.24791
# Poissons Ratio (z) = 0.24770 0.29337
#
# Static dielectric constant tensor:
#      x y z
#    x 3.554330 0.000000 0.016050 
#    y 0.000000 3.624230 0.000000 
#    z 0.016050 0.000000 3.585590 
# 
# 
# High freq. dielectric constant tensor:
#      x y z
#    x 1.732810 0.000000 -0.001530 
#    y 0.000000 1.749320 0.000000 
#    z -0.001530 0.000000 1.735390 
# 
# From -- ./inp_files/33781.got.cif
#   From: 2010.06.25/outbox.cif.g09.slc.cpg/sg11_17_cif.got.tgz:33781.got - 2010.06.27 23:14:04.
