data_PCOD8074741
_publ_section_title
;
Structure prediction by ZEFSAII (Michael W. Deem and Ramdas Pophale) SiO2 
 PCOD8074741
Probable space group: P 21/M
;
_chemical_formula_sum "Si O2"
_cell_formula_units_Z 24
_cell_length_a 12.031380
_cell_length_b 8.570932
_cell_length_c 11.987251
_cell_angle_alpha 90.000000
_cell_angle_beta 77.939954
_cell_angle_gamma 90.000000
_cell_volume 1208.844653
_symmetry_space_group_name_H-M "P 21/M"
_symmetry_group_IT_number 11
_symmetry_cell_setting 'monoclinic'
loop_
_space_group_symop_operation_xyz
x,y,z
-x,1/2+y,-z
-x,-y,-z
x,1/2-y,z
loop_
_atom_site_type_symbol
_atom_site_label
_atom_site_fract_x
_atom_site_fract_y
_atom_site_fract_z
Si Si1 0.407964 0.432896 0.215805
Si Si2 0.932388 0.567893 0.760148
Si Si3 0.786237 0.932654 0.584333
Si Si4 0.831269 0.932434 0.330723
Si Si5 0.262757 0.932095 0.056133
Si Si6 0.349237 0.070050 0.817372
O O1 0.387875 0.250000 0.199979
O O2 0.331556 0.492779 0.335987
O O3 0.367977 0.521438 0.113088
O O4 0.538377 0.466049 0.213358
O O5 0.914594 0.750000 0.787144
O O6 0.890348 0.523306 0.644302
O O7 0.858308 0.474448 0.865396
O O8 0.062822 0.521291 0.746372
O O9 0.776800 0.750000 0.568058
O O10 0.806589 0.006835 0.458194
O O11 0.861615 0.750000 0.329921
O O12 0.721257 0.964320 0.279358
O O13 0.268961 0.750000 0.029685
O O14 0.272898 0.024212 0.938561
O O15 0.384564 0.250000 0.818285
#
# Coordination Sequence:
#
# PCOD8074741 Si02
#       6
#     4   4   4   4   4   4
#     4  10  20  37  60  84 111 142 181 228 274 322
#     4  10  20  36  59  85 112 141 180 229 276 323
#     4   8  17  35  58  83 110 142 180 225 272 319
#     4  10  21  37  56  80 113 150 185 221 267 325
#     4  11  22  38  60  82 107 142 185 229 274 326
#     4  11  23  37  54  80 114 149 184 224 271 324
#
# _framework density 19.853667000000002
#
# number of rings (size 3 to 8) (size 9 to 14) (size 15 to 20)
#    0.000    2.000    0.000    5.000    0.000    2.667 
#    0.000    4.167    0.000    0.000    0.000    0.000 
#    0.000    0.000    0.000    0.000    0.000    0.000 
#
# Total GULP energy -297674.684911 kJ/mol
# GULP energy per Si atom -12403.111871 kJ/mol
# Density = 1.980848 g / cm^3
# Si number density = 19.853667 Si / 1000 Ang^3
#
#
#
# Elastic Constant Matrix: (Units=GPa)
#
#
# Indices 1 2 3 4 5 6 
#
# 1 52.1264 20.9693 23.7302 0.0000 -7.1954 0.0000
# 2 20.9693 38.1956 11.2371 0.0000 1.5964 0.0000
# 3 23.7302 11.2371 70.4235 0.0000 -3.0265 0.0000
# 4 0.0000 0.0000 0.0000 21.4418 0.0000 -1.6539
# 5 -7.1954 1.5964 -3.0265 0.0000 21.9063 0.0000
# 6 0.0000 0.0000 0.0000 -1.6539 0.0000 28.2484
#
#
#
# Elastic Compliance Matrix: (Units=1/GPa)
#
#
# Indices 1 2 3 4 5 6 
#
# 1 0.029714 -0.014586 -0.007263 0.000000 0.009819 0.000000
# 2 -0.014586 0.034782 -0.000955 0.000000 -0.007458 0.000000
# 3 -0.007263 -0.000955 0.016800 0.000000 0.000005 0.000000
# 4 0.000000 0.000000 0.000000 0.046850 0.000000 0.002743
# 5 0.009819 -0.007458 0.000005 0.000000 0.049418 0.000000
# 6 0.000000 0.000000 0.000000 0.002743 0.000000 0.035561
#
#
# Mechanical properties :
#
#
# Convention : Reuss Voigt Hill
#
# Bulk Modulus (GPa) = 28.02236 30.29097 29.15667
# Shear Modulus (GPa) = 18.47546 21.30656 19.89101
#
# Velocity S-wave (km/s) = 3.05385 3.27950 3.16868
# Velocity P-wave (km/s) = 5.15556 5.44338 5.30142
#
# Compressibility (1/GPa) = 0.03568579
#
# Stress axis : x y z
#
# Youngs Moduli (GPa) = 33.65430 28.75070 59.52441
#
# Poissons Ratio (x) = 0.41937 0.43233
# Poissons Ratio (y) = 0.49090 0.05686
# Poissons Ratio (z) = 0.24443 0.02747
#
# Static dielectric constant tensor:
#      x y z
#    x 3.466840 0.000000 -0.024480 
#    y 0.000000 3.450220 0.000000 
#    z -0.024480 0.000000 3.842120 
# 
# 
# High freq. dielectric constant tensor:
#      x y z
#    x 1.772090 0.000000 -0.007930 
#    y 0.000000 1.764550 0.000000 
#    z -0.007930 0.000000 1.780980 
# 
# From -- ./inp_files/33730.got.cif
#   From: 2010.06.25/outbox.cif.g09.slc.cpg/sg11_17_cif.got.tgz:33730.got - 2010.06.27 23:14:04.
