data_PCOD8074333
_publ_section_title
;
Structure prediction by ZEFSAII (Michael W. Deem and Ramdas Pophale) SiO2 
 PCOD8074333
Probable space group: P 21/M
;
_chemical_formula_sum "Si O2"
_cell_formula_units_Z 28
_cell_length_a 9.958188
_cell_length_b 9.043323
_cell_length_c 26.081798
_cell_angle_alpha 90.000000
_cell_angle_beta 141.650306
_cell_angle_gamma 90.000000
_cell_volume 1457.334671
_symmetry_space_group_name_H-M "P 21/M"
_symmetry_group_IT_number 11
_symmetry_cell_setting 'monoclinic'
loop_
_space_group_symop_operation_xyz
x,y,z
-x,1/2+y,-z
-x,-y,-z
x,1/2-y,z
loop_
_atom_site_type_symbol
_atom_site_label
_atom_site_fract_x
_atom_site_fract_y
_atom_site_fract_z
Si Si1 0.973303 0.076756 0.744579
Si Si2 0.940054 0.421198 0.848719
Si Si3 0.508801 0.580368 0.738068
Si Si4 0.359591 0.920964 0.804138
Si Si5 0.489024 0.925705 0.441706
Si Si6 0.772786 0.073575 0.443048
Si Si7 0.180393 0.421975 0.020281
O O1 0.013446 0.250000 0.755488
O O2 0.993966 0.012786 0.808735
O O3 0.739156 0.034810 0.652566
O O4 0.154434 0.005456 0.763843
O O5 0.887193 0.250000 0.826288
O O6 0.728757 0.491655 0.810308
O O7 0.138164 0.449413 0.947101
O O8 0.575722 0.750000 0.753647
O O9 0.361187 0.552509 0.743637
O O10 0.380598 0.527849 0.649846
O O11 0.332807 0.750000 0.810222
O O12 0.581229 0.984063 0.895494
O O13 0.526535 0.750000 0.456776
O O14 0.500000 0.000000 0.500000
O O15 0.679247 0.000540 0.466176
O O16 0.794811 0.250000 0.455920
O O17 0.000000 0.000000 0.500000
O O18 0.168917 0.250000 0.031245
O O19 0.000000 0.500000 0.000000
#
# Coordination Sequence:
#
# PCOD8074333 Si02
#       7
#     4   4   4   4   4   4   4
#     4  10  23  41  59  85 119 156 197 239 292 354
#     4  10  20  37  61  86 116 155 196 241 291 347
#     4  10  21  38  60  87 118 154 196 240 291 349
#     4  10  22  38  57  87 122 155 195 243 291 347
#     4  11  24  43  64  89 121 159 200 249 302 359
#     4  11  24  41  63  93 123 158 200 246 299 358
#     4  10  20  35  58  87 118 152 193 243 294 344
#
# _framework density 19.213158
#
# number of rings (size 3 to 8) (size 9 to 14) (size 15 to 20)
#    0.000    1.714    2.857    0.857    2.000    4.000 
#    0.000    0.000    0.000    0.000    0.000    0.000 
#    0.000    0.000    0.000    0.000    0.000    0.000 
#
# Total GULP energy -347271.817341 kJ/mol
# GULP energy per Si atom -12402.564905 kJ/mol
# Density = 1.916943 g / cm^3
# Si number density = 19.213158 Si / 1000 Ang^3
#
#
#
# Elastic Constant Matrix: (Units=GPa)
#
#
# Indices 1 2 3 4 5 6 
#
# 1 136.3235 45.9875 56.6703 0.0000 0.1954 0.0000
# 2 45.9875 58.0193 42.6506 0.0000 2.5851 0.0000
# 3 56.6703 42.6506 88.5346 0.0000 -7.8214 0.0000
# 4 0.0000 0.0000 0.0000 25.9260 0.0000 2.6874
# 5 0.1954 2.5851 -7.8214 0.0000 40.3967 0.0000
# 6 0.0000 0.0000 0.0000 2.6874 0.0000 37.4675
#
#
#
# Elastic Compliance Matrix: (Units=1/GPa)
#
#
# Indices 1 2 3 4 5 6 
#
# 1 0.011035 -0.005404 -0.004511 0.000000 -0.000581 0.000000
# 2 -0.005404 0.030077 -0.011393 0.000000 -0.004104 0.000000
# 3 -0.004511 -0.011393 0.020081 0.000000 0.004639 0.000000
# 4 0.000000 0.000000 0.000000 0.038860 0.000000 -0.002787
# 5 -0.000581 -0.004104 0.004639 0.000000 0.025918 0.000000
# 6 0.000000 0.000000 0.000000 -0.002787 0.000000 0.026890
#
#
# Mechanical properties :
#
#
# Convention : Reuss Voigt Hill
#
# Bulk Modulus (GPa) = 53.83213 63.72156 58.77684
# Shear Modulus (GPa) = 24.79322 29.92932 27.36127
#
# Velocity S-wave (km/s) = 3.59615 3.95112 3.77781
# Velocity P-wave (km/s) = 6.73218 7.35205 7.04893
#
# Compressibility (1/GPa) = 0.01857627
#
# Stress axis : x y z
#
# Youngs Moduli (GPa) = 90.62323 33.24810 49.79954
#
# Poissons Ratio (x) = 0.17968 0.22465
# Poissons Ratio (y) = 0.48976 0.56734
# Poissons Ratio (z) = 0.40881 0.37878
#
# Static dielectric constant tensor:
#      x y z
#    x 3.440910 0.000000 -0.219160 
#    y 0.000000 3.481680 0.000000 
#    z -0.219160 0.000000 3.851740 
# 
# 
# High freq. dielectric constant tensor:
#      x y z
#    x 1.755210 0.000000 -0.010400 
#    y 0.000000 1.742880 0.000000 
#    z -0.010400 0.000000 1.758590 
# 
# From -- ./inp_files/28572.got.cif
#   From: 2010.06.25/outbox.cif.g09.slc.cpg/sg11_15_cif.got.tgz:28572.got - 2010.06.27 23:14:04.
