data_PCOD8074210
_publ_section_title
;
Structure prediction by ZEFSAII (Michael W. Deem and Ramdas Pophale) SiO2 
 PCOD8074210
Probable space group: P 21/M
;
_chemical_formula_sum "Si O2"
_cell_formula_units_Z 28
_cell_length_a 16.352577
_cell_length_b 8.906110
_cell_length_c 11.121335
_cell_angle_alpha 90.000000
_cell_angle_beta 60.653724
_cell_angle_gamma 90.000000
_cell_volume 1411.838881
_symmetry_space_group_name_H-M "P 21/M"
_symmetry_group_IT_number 11
_symmetry_cell_setting 'monoclinic'
loop_
_space_group_symop_operation_xyz
x,y,z
-x,1/2+y,-z
-x,-y,-z
x,1/2-y,z
loop_
_atom_site_type_symbol
_atom_site_label
_atom_site_fract_x
_atom_site_fract_y
_atom_site_fract_z
Si Si1 0.114152 0.428148 0.667116
Si Si2 0.918887 0.573076 0.805811
Si Si3 0.821183 0.573771 0.118958
Si Si4 0.713219 0.075126 0.579744
Si Si5 0.745729 0.076740 0.825770
Si Si6 0.466223 0.073543 0.402182
Si Si7 0.649062 0.076354 0.136164
O O1 0.120047 0.250000 0.649529
O O2 0.134465 0.482469 0.788555
O O3 0.187292 0.504771 0.525425
O O4 0.012161 0.485162 0.702200
O O5 0.936570 0.750000 0.784630
O O6 0.837973 0.525926 0.770897
O O7 0.888160 0.521197 0.961830
O O8 0.809252 0.750000 0.126271
O O9 0.717357 0.507608 0.179518
O O10 0.712285 0.250000 0.547549
O O11 0.696874 0.047640 0.733245
O O12 0.632882 0.993438 0.563457
O O13 0.776452 0.250000 0.817354
O O14 0.670495 0.030782 0.982732
O O15 0.454344 0.250000 0.430487
O O16 0.541803 0.035121 0.243659
O O17 0.500000 0.000000 0.500000
O O18 0.668217 0.250000 0.144473
#
# Coordination Sequence:
#
# PCOD8074210 Si02
#       7
#     4   4   4   4   4   4   4
#     4  11  22  36  55  80 113 151 188 228 278 332
#     4  10  20  35  57  84 112 143 184 231 278 330
#     4   9  19  34  54  83 114 144 181 227 277 329
#     4  11  24  40  58  81 111 147 187 232 277 325
#     4   9  20  40  60  80 109 145 187 230 275 327
#     4  11  23  39  60  87 117 147 182 224 274 331
#     4   9  19  36  59  83 109 145 184 226 275 326
#
# _framework density 19.832291000000001
#
# number of rings (size 3 to 8) (size 9 to 14) (size 15 to 20)
#    0.000    2.000    0.000    3.000    0.000    7.429 
#    0.000    0.000    0.000    0.000    0.000    0.000 
#    0.000    0.000    0.000    0.000    0.000    0.000 
#
# Total GULP energy -347312.039590 kJ/mol
# GULP energy per Si atom -12404.001414 kJ/mol
# Density = 1.978715 g / cm^3
# Si number density = 19.832291 Si / 1000 Ang^3
#
#
#
# Elastic Constant Matrix: (Units=GPa)
#
#
# Indices 1 2 3 4 5 6 
#
# 1 76.2150 33.7599 47.3210 0.0000 0.3125 0.0000
# 2 33.7599 74.6132 42.6134 0.0000 -0.6082 0.0000
# 3 47.3210 42.6134 95.4539 0.0000 -6.9695 0.0000
# 4 0.0000 0.0000 0.0000 29.7096 0.0000 -3.4454
# 5 0.3125 -0.6082 -6.9695 0.0000 34.2571 0.0000
# 6 0.0000 0.0000 0.0000 -3.4454 0.0000 36.3484
#
#
#
# Elastic Compliance Matrix: (Units=1/GPa)
#
#
# Indices 1 2 3 4 5 6 
#
# 1 0.020169 -0.004498 -0.008131 0.000000 -0.001918 0.000000
# 2 -0.004498 0.019052 -0.006342 0.000000 -0.000911 0.000000
# 3 -0.008131 -0.006342 0.017597 0.000000 0.003542 0.000000
# 4 0.000000 0.000000 0.000000 0.034033 0.000000 0.003226
# 5 -0.001918 -0.000911 0.003542 0.000000 0.029913 0.000000
# 6 0.000000 0.000000 0.000000 0.003226 0.000000 0.027817
#
#
# Mechanical properties :
#
#
# Convention : Reuss Voigt Hill
#
# Bulk Modulus (GPa) = 52.97524 54.85230 53.91377
# Shear Modulus (GPa) = 25.93134 28.23554 27.08344
#
# Velocity S-wave (km/s) = 3.61990 3.77731 3.69944
# Velocity P-wave (km/s) = 6.65141 6.83683 6.74475
#
# Compressibility (1/GPa) = 0.01887674
#
# Stress axis : x y z
#
# Youngs Moduli (GPa) = 49.58003 52.48698 56.82733
#
# Poissons Ratio (x) = 0.23607 0.46206
# Poissons Ratio (y) = 0.22300 0.36041
# Poissons Ratio (z) = 0.40314 0.33289
#
# Static dielectric constant tensor:
#      x y z
#    x 3.500810 0.000000 0.016550 
#    y 0.000000 3.611720 0.000000 
#    z 0.016550 0.000000 3.920150 
# 
# 
# High freq. dielectric constant tensor:
#      x y z
#    x 1.768640 0.000000 -0.002840 
#    y 0.000000 1.777010 0.000000 
#    z -0.002840 0.000000 1.780710 
# 
# From -- ./inp_files/37936.got.cif
#   From: 2010.06.25/outbox.cif.g09.slc.cpg/sg11_19_cif.got.tgz:37936.got - 2010.06.27 23:14:04.
