data_PCOD8074903
_publ_section_title
;
Structure prediction by ZEFSAII (Michael W. Deem and Ramdas Pophale) SiO2 
 PCOD8074903
Probable space group: P 21/M
;
_chemical_formula_sum "Si O2"
_cell_formula_units_Z 32
_cell_length_a 32.074734
_cell_length_b 8.416671
_cell_length_c 12.692835
_cell_angle_alpha 90.000000
_cell_angle_beta 152.332792
_cell_angle_gamma 90.000000
_cell_volume 1591.086125
_symmetry_space_group_name_H-M "P 21/M"
_symmetry_group_IT_number 11
_symmetry_cell_setting 'monoclinic'
loop_
_space_group_symop_operation_xyz
x,y,z
-x,1/2+y,-z
-x,-y,-z
x,1/2-y,z
loop_
_atom_site_type_symbol
_atom_site_label
_atom_site_fract_x
_atom_site_fract_y
_atom_site_fract_z
Si Si1 0.720921 0.567608 0.967640
Si Si2 0.825309 0.933600 0.398099
Si Si3 0.436408 0.931462 0.271900
Si Si4 0.495672 0.068246 0.197599
Si Si5 0.691039 0.934022 0.660270
Si Si6 0.796849 0.065770 0.708462
Si Si7 0.307656 0.435932 0.721178
Si Si8 0.993531 0.437901 0.102495
O O1 0.685839 0.750000 0.895223
O O2 0.661482 0.442959 0.898336
O O3 0.722444 0.516351 0.848731
O O4 0.812021 0.549055 0.241036
O O5 0.828065 0.750000 0.436161
O O6 0.746624 0.008778 0.298390
O O7 0.922459 0.009429 0.643158
O O8 0.459145 0.750000 0.290488
O O9 0.500000 0.000000 0.500000
O O10 0.448942 0.054213 0.205921
O O11 0.522050 0.250000 0.231124
O O12 0.586323 0.964880 0.399080
O O13 0.411823 0.001495 0.938791
O O14 0.710250 0.750000 0.683604
O O15 0.753121 0.037235 0.723801
O O16 0.791068 0.250000 0.665839
O O17 0.744754 0.969456 0.502859
O O18 0.899711 0.005213 0.943806
O O19 0.318357 0.250000 0.762621
O O20 0.997034 0.250000 0.109510
O O21 0.000000 0.500000 0.000000
#
# Coordination Sequence:
#
# PCOD8074903 Si02
#       8
#     4   4   4   4   4   4   4   4
#     4  10  20  37  59  85 115 152 199 245 292 344
#     4   9  17  34  60  90 120 148 183 237 301 354
#     4  12  22  32  52  82 117 155 196 242 287 339
#     4  11  22  37  58  86 119 154 195 245 295 346
#     4  11  24  40  60  82 113 161 206 241 285 349
#     4  11  24  40  59  85 119 155 196 244 293 349
#     4  10  20  36  61  88 117 154 191 236 297 355
#     4  10  20  36  62  91 117 149 187 237 296 353
#
# _framework density 20.112048999999999
#
# number of rings (size 3 to 8) (size 9 to 14) (size 15 to 20)
#    0.000    1.500    3.750    2.250    0.000    2.500 
#    0.000    1.250    0.000    0.000    0.000    0.000 
#    0.000    0.000    0.000    0.000    0.000    0.000 
#
# Total GULP energy -396434.596403 kJ/mol
# GULP energy per Si atom -12388.581138 kJ/mol
# Density = 2.006627 g / cm^3
# Si number density = 20.112049 Si / 1000 Ang^3
#
#
#
# Elastic Constant Matrix: (Units=GPa)
#
#
# Indices 1 2 3 4 5 6 
#
# 1 103.1114 2.8720 57.5977 0.0000 8.0015 0.0000
# 2 2.8720 26.7281 9.5546 0.0000 3.7370 0.0000
# 3 57.5977 9.5546 163.2541 0.0000 8.4852 0.0000
# 4 0.0000 0.0000 0.0000 20.3773 0.0000 -1.3693
# 5 8.0015 3.7370 8.4852 0.0000 24.8087 0.0000
# 6 0.0000 0.0000 0.0000 -1.3693 0.0000 24.9597
#
#
#
# Elastic Compliance Matrix: (Units=1/GPa)
#
#
# Indices 1 2 3 4 5 6 
#
# 1 0.012239 0.000554 -0.004216 0.000000 -0.002589 0.000000
# 2 0.000554 0.038878 -0.002196 0.000000 -0.005284 0.000000
# 3 -0.004216 -0.002196 0.007792 0.000000 -0.000975 0.000000
# 4 0.000000 0.000000 0.000000 0.049256 0.000000 0.002702
# 5 -0.002589 -0.005284 -0.000975 0.000000 0.042273 0.000000
# 6 0.000000 0.000000 0.000000 0.002702 0.000000 0.040213
#
#
# Mechanical properties :
#
#
# Convention : Reuss Voigt Hill
#
# Bulk Modulus (GPa) = 21.18975 48.12692 34.65834
# Shear Modulus (GPa) = 22.92560 28.90044 25.91302
#
# Velocity S-wave (km/s) = 3.37989 3.79485 3.59337
# Velocity P-wave (km/s) = 5.07842 6.57134 5.87252
#
# Compressibility (1/GPa) = 0.04719262
#
# Stress axis : x y z
#
# Youngs Moduli (GPa) = 81.70849 25.72143 128.33717
#
# Poissons Ratio (x) = -0.01425 0.54104
# Poissons Ratio (y) = -0.04526 0.28185
# Poissons Ratio (z) = 0.34446 0.05649
#
# Static dielectric constant tensor:
#      x y z
#    x 3.531750 0.000000 0.073570 
#    y 0.000000 4.787340 0.000000 
#    z 0.073570 0.000000 4.089910 
# 
# 
# High freq. dielectric constant tensor:
#      x y z
#    x 1.764020 0.000000 -0.006010 
#    y 0.000000 1.764700 0.000000 
#    z -0.006010 0.000000 1.802730 
# 
# From -- ./inp_files/45252.got.cif
#   From: 2010.06.25/outbox.cif.g09.slc.cpg/sg11_23_cif.got.tgz:45252.got - 2010.06.27 23:14:04.
