data_PCOD8074407
_publ_section_title
;
Structure prediction by ZEFSAII (Michael W. Deem and Ramdas Pophale) SiO2 
 PCOD8074407
Probable space group: P 21/M
;
_chemical_formula_sum "Si O2"
_cell_formula_units_Z 28
_cell_length_a 11.898868
_cell_length_b 8.750978
_cell_length_c 15.554907
_cell_angle_alpha 90.000000
_cell_angle_beta 63.476778
_cell_angle_gamma 90.000000
_cell_volume 1449.215720
_symmetry_space_group_name_H-M "P 21/M"
_symmetry_group_IT_number 11
_symmetry_cell_setting 'monoclinic'
loop_
_space_group_symop_operation_xyz
x,y,z
-x,1/2+y,-z
-x,-y,-z
x,1/2-y,z
loop_
_atom_site_type_symbol
_atom_site_label
_atom_site_fract_x
_atom_site_fract_y
_atom_site_fract_z
Si Si1 0.204804 0.568886 0.171634
Si Si2 0.530075 0.069388 0.619486
Si Si3 0.113523 0.930114 0.909056
Si Si4 0.059314 0.928698 0.732353
Si Si5 0.561461 0.430306 0.801417
Si Si6 0.301800 0.071005 0.578812
Si Si7 0.303012 0.429890 0.963696
O O1 0.203819 0.750000 0.169532
O O2 0.309224 0.505968 0.202844
O O3 0.070673 0.509235 0.249119
O O4 0.237597 0.510612 0.065853
O O5 0.553936 0.250000 0.605030
O O6 0.537133 0.004618 0.714203
O O7 0.394202 0.027185 0.626205
O O8 0.638687 0.983463 0.530678
O O9 0.120585 0.750000 0.922175
O O10 0.096067 0.973116 0.816228
O O11 0.240042 0.011364 0.897440
O O12 0.000000 0.000000 0.000000
O O13 0.040293 0.750000 0.726796
O O14 0.169321 0.986292 0.633027
O O15 0.566988 0.250000 0.791088
O O16 0.449290 0.475519 0.905087
O O17 0.276547 0.250000 0.584030
O O18 0.282309 0.250000 0.980414
#
# Coordination Sequence:
#
# PCOD8074407 Si02
#       7
#     4   4   4   4   4   4   4
#     4  11  22  37  56  79 111 150 194 234 274 330
#     4   9  18  37  61  85 114 144 179 228 281 331
#     4  11  22  35  54  80 112 146 184 229 277 327
#     4  11  23  38  56  81 113 150 187 228 281 333
#     4   9  20  37  58  82 109 148 191 233 279 329
#     4  10  20  35  60  90 115 143 178 224 281 340
#     4  11  21  36  57  82 114 149 188 231 282 336
#
# _framework density 19.320795
#
# number of rings (size 3 to 8) (size 9 to 14) (size 15 to 20)
#    0.000    1.714    1.429    3.429    0.000    3.429 
#    0.000    5.714    0.000    0.000    0.000    0.000 
#    0.000    0.000    0.000    0.000    0.000    0.000 
#
# Total GULP energy -347277.648668 kJ/mol
# GULP energy per Si atom -12402.773167 kJ/mol
# Density = 1.927682 g / cm^3
# Si number density = 19.320795 Si / 1000 Ang^3
#
#
#
# Elastic Constant Matrix: (Units=GPa)
#
#
# Indices 1 2 3 4 5 6 
#
# 1 124.1199 27.9198 35.0769 0.0000 -19.4775 0.0000
# 2 27.9198 53.9415 15.7954 0.0000 -7.9860 0.0000
# 3 35.0769 15.7954 69.4134 0.0000 -15.6655 0.0000
# 4 0.0000 0.0000 0.0000 26.6477 0.0000 -3.4356
# 5 -19.4775 -7.9860 -15.6655 0.0000 29.6651 0.0000
# 6 0.0000 0.0000 0.0000 -3.4356 0.0000 25.7906
#
#
#
# Elastic Compliance Matrix: (Units=1/GPa)
#
#
# Indices 1 2 3 4 5 6 
#
# 1 0.010553 -0.003826 -0.003555 0.000000 0.004022 0.000000
# 2 -0.003826 0.021549 -0.002529 0.000000 0.001953 0.000000
# 3 -0.003555 -0.002529 0.018276 0.000000 0.006636 0.000000
# 4 0.000000 0.000000 0.000000 0.038182 0.000000 0.005086
# 5 0.004022 0.001953 0.006636 0.000000 0.040381 0.000000
# 6 0.000000 0.000000 0.000000 0.005086 0.000000 0.039451
#
#
# Mechanical properties :
#
#
# Convention : Reuss Voigt Hill
#
# Bulk Modulus (GPa) = 32.72445 45.00654 38.86549
# Shear Modulus (GPa) = 25.20191 27.66620 26.43405
#
# Velocity S-wave (km/s) = 3.61556 3.78820 3.70289
# Velocity P-wave (km/s) = 5.86548 6.51758 6.20011
#
# Compressibility (1/GPa) = 0.03055819
#
# Stress axis : x y z
#
# Youngs Moduli (GPa) = 94.75994 46.40648 54.71675
#
# Poissons Ratio (x) = 0.17755 0.19449
# Poissons Ratio (y) = 0.36254 0.13840
# Poissons Ratio (z) = 0.33682 0.11738
#
# Static dielectric constant tensor:
#      x y z
#    x 3.984760 0.000000 0.175030 
#    y 0.000000 3.468260 0.000000 
#    z 0.175030 0.000000 3.658340 
# 
# 
# High freq. dielectric constant tensor:
#      x y z
#    x 1.756840 0.000000 -0.009900 
#    y 0.000000 1.748160 0.000000 
#    z -0.009900 0.000000 1.748010 
# 
# From -- ./inp_files/49037.got.cif
#   From: 2010.06.25/outbox.cif.g09.slc.cpg/sg11_25_cif.got.tgz:49037.got - 2010.06.27 23:14:04.
