data_PCOD8074040
_publ_section_title
;
Structure prediction by ZEFSAII (Michael W. Deem and Ramdas Pophale) SiO2 
 PCOD8074040
Probable space group: P 21/M
;
_chemical_formula_sum "Si O2"
_cell_formula_units_Z 32
_cell_length_a 14.149393
_cell_length_b 18.604941
_cell_length_c 8.779166
_cell_angle_alpha 90.000000
_cell_angle_beta 43.928421
_cell_angle_gamma 90.000000
_cell_volume 1603.349132
_symmetry_space_group_name_H-M "P 21/M"
_symmetry_group_IT_number 11
_symmetry_cell_setting 'monoclinic'
loop_
_space_group_symop_operation_xyz
x,y,z
-x,1/2+y,-z
-x,-y,-z
x,1/2-y,z
loop_
_atom_site_type_symbol
_atom_site_label
_atom_site_fract_x
_atom_site_fract_y
_atom_site_fract_z
Si Si1 0.311095 0.328547 0.818458
Si Si2 0.132305 0.074182 0.854240
Si Si3 0.003678 0.517628 0.252659
Si Si4 0.784001 0.460575 0.742160
Si Si5 0.377742 0.535231 0.547903
Si Si6 0.406747 0.828678 0.682615
Si Si7 0.429599 0.422437 0.932341
Si Si8 0.600809 0.166451 0.954390
O O1 0.277295 0.250000 0.923638
O O2 0.191429 0.350222 0.841035
O O3 0.448197 0.327957 0.565006
O O4 0.321276 0.384486 0.945448
O O5 0.050600 0.083768 0.789767
O O6 0.252804 0.017832 0.681657
O O7 0.033524 0.047191 0.102570
O O8 0.884541 0.491546 0.500798
O O9 0.138431 0.541672 0.185799
O O10 0.737017 0.379387 0.756880
O O11 0.646683 0.508689 0.908866
O O12 0.500000 0.500000 0.500000
O O13 0.323114 0.607395 0.697955
O O14 0.433114 0.553191 0.314793
O O15 0.335904 0.750000 0.742795
O O16 0.431011 0.844472 0.831357
O O17 0.471892 0.364949 0.011808
O O18 0.624166 0.250000 0.883428
#
# Coordination Sequence:
#
# PCOD8074040 Si02
#       8
#     4   4   4   4   4   4   4   4
#     4  10  20  35  55  83 118 148 182 236 295 347
#     4  11  20  37  59  84 111 150 196 250 273 337
#     4  10  23  38  59  82 111 154 212 237 269 326
#     4  11  22  40  59  83 119 157 197 242 286 343
#     4  11  18  33  59  87 112 142 190 238 304 346
#     4   9  19  32  51  81 118 147 176 227 293 354
#     4  11  21  35  61  91 116 148 189 239 304 357
#     4  11  23  37  57  89 124 151 184 239 305 364
#
# _framework density 19.958224000000001
#
# number of rings (size 3 to 8) (size 9 to 14) (size 15 to 20)
#    0.000    1.500    3.750    3.000    1.750    0.500 
#    0.000    1.250    0.000    3.000    0.000    0.000 
#    0.000    0.000    0.000    0.000    0.000    0.000 
#
# Total GULP energy -396733.661581 kJ/mol
# GULP energy per Si atom -12397.926924 kJ/mol
# Density = 1.991280 g / cm^3
# Si number density = 19.958224 Si / 1000 Ang^3
#
#
#
# Elastic Constant Matrix: (Units=GPa)
#
#
# Indices 1 2 3 4 5 6 
#
# 1 81.7143 19.1469 20.7739 0.0000 4.1505 0.0000
# 2 19.1469 94.0685 26.0223 0.0000 1.6936 0.0000
# 3 20.7739 26.0223 62.7442 0.0000 8.5123 0.0000
# 4 0.0000 0.0000 0.0000 15.0388 0.0000 4.5827
# 5 4.1505 1.6936 8.5123 0.0000 23.4296 0.0000
# 6 0.0000 0.0000 0.0000 4.5827 0.0000 26.1042
#
#
#
# Elastic Compliance Matrix: (Units=1/GPa)
#
#
# Indices 1 2 3 4 5 6 
#
# 1 0.013625 -0.001744 -0.003658 0.000000 -0.000959 0.000000
# 2 -0.001744 0.012253 -0.004656 0.000000 0.001115 0.000000
# 3 -0.003658 -0.004656 0.019928 0.000000 -0.006256 0.000000
# 4 0.000000 0.000000 0.000000 0.070253 0.000000 -0.012333
# 5 -0.000959 0.001115 -0.006256 0.000000 0.045043 0.000000
# 6 0.000000 0.000000 0.000000 -0.012333 0.000000 0.040473
#
#
# Mechanical properties :
#
#
# Convention : Reuss Voigt Hill
#
# Bulk Modulus (GPa) = 38.92308 41.15702 40.04005
# Shear Modulus (GPa) = 21.71504 24.42010 23.06757
#
# Velocity S-wave (km/s) = 3.30210 3.50174 3.40338
# Velocity P-wave (km/s) = 5.83807 6.08407 5.96234
#
# Compressibility (1/GPa) = 0.02569170
#
# Stress axis : x y z
#
# Youngs Moduli (GPa) = 73.39440 81.60991 50.17986
#
# Poissons Ratio (x) = 0.14234 0.18354
# Poissons Ratio (y) = 0.12801 0.23362
# Poissons Ratio (z) = 0.26845 0.37995
#
# Static dielectric constant tensor:
#      x y z
#    x 3.968680 0.000000 0.115510 
#    y 0.000000 4.211310 0.000000 
#    z 0.115510 0.000000 3.624780 
# 
# 
# High freq. dielectric constant tensor:
#      x y z
#    x 1.783680 0.000000 0.017290 
#    y 0.000000 1.768300 0.000000 
#    z 0.017290 0.000000 1.771530 
# 
# From -- ./inp_files/23054.got.cif
#   From: 2010.06.25/outbox.cif.g09.slc.cpg/sg11_12_cif.got.tgz:23054.got - 2010.06.27 23:14:04.
