data_PCOD8074947
_publ_section_title
;
Structure prediction by ZEFSAII (Michael W. Deem and Ramdas Pophale) SiO2 
 PCOD8074947
Probable space group: P 21/M
;
_chemical_formula_sum "Si O2"
_cell_formula_units_Z 28
_cell_length_a 11.634694
_cell_length_b 14.137026
_cell_length_c 9.524144
_cell_angle_alpha 90.000000
_cell_angle_beta 119.368110
_cell_angle_gamma 90.000000
_cell_volume 1365.211197
_symmetry_space_group_name_H-M "P 21/M"
_symmetry_group_IT_number 11
_symmetry_cell_setting 'monoclinic'
loop_
_space_group_symop_operation_xyz
x,y,z
-x,1/2+y,-z
-x,-y,-z
x,1/2-y,z
loop_
_atom_site_type_symbol
_atom_site_label
_atom_site_fract_x
_atom_site_fract_y
_atom_site_fract_z
Si Si1 0.982052 0.360200 0.550201
Si Si2 0.541942 0.987343 0.363984
Si Si3 0.688370 0.357441 0.286957
Si Si4 0.790224 0.643438 0.528722
Si Si5 0.962819 0.858025 0.888560
Si Si6 0.377307 0.537892 0.010994
Si Si7 0.106567 0.040085 0.880197
O O1 0.990050 0.250000 0.598641
O O2 0.837209 0.388587 0.411481
O O3 0.083643 0.384813 0.488119
O O4 0.014370 0.428813 0.697786
O O5 0.665665 0.919641 0.420605
O O6 0.420776 0.942917 0.199189
O O7 0.500000 0.000000 0.500000
O O8 0.583752 0.086996 0.321177
O O9 0.663235 0.250000 0.311389
O O10 0.669204 0.371058 0.107202
O O11 0.746626 0.750000 0.469606
O O12 0.832942 0.630867 0.715443
O O13 0.018416 0.750000 0.911485
O O14 0.916645 0.880697 0.016796
O O15 0.074771 0.933019 0.911062
O O16 0.500000 0.500000 0.000000
O O17 0.261246 0.459479 0.935468
#
# Coordination Sequence:
#
# PCOD8074947 Si02
#       7
#     4   4   4   4   4   4   4
#     4  10  20  36  62  91 114 145 193 244 294 345
#     4  11  23  40  60  86 120 159 204 241 283 353
#     4  10  22  40  61  87 120 154 193 245 299 349
#     4  10  21  38  60  86 115 148 190 243 295 345
#     4  10  22  38  58  86 116 148 188 237 300 360
#     4  10  22  38  57  83 115 156 200 236 284 348
#     4  11  21  37  60  85 117 153 187 240 297 343
#
# _framework density 20.509647000000001
#
# number of rings (size 3 to 8) (size 9 to 14) (size 15 to 20)
#    0.000    1.714    0.000    4.714    0.000    5.714 
#    0.000    8.571    0.000    0.000    0.000    0.000 
#    0.000    0.000    0.000    0.000    0.000    0.000 
#
# Total GULP energy -347148.481657 kJ/mol
# GULP energy per Si atom -12398.160059 kJ/mol
# Density = 2.046297 g / cm^3
# Si number density = 20.509647 Si / 1000 Ang^3
#
#
#
# Elastic Constant Matrix: (Units=GPa)
#
#
# Indices 1 2 3 4 5 6 
#
# 1 97.1821 40.3322 53.1823 0.0000 4.4436 0.0000
# 2 40.3322 93.7155 57.6712 0.0000 -4.3413 0.0000
# 3 53.1823 57.6712 162.8730 0.0000 -1.6628 0.0000
# 4 0.0000 0.0000 0.0000 29.1190 0.0000 0.9770
# 5 4.4436 -4.3413 -1.6628 0.0000 29.8380 0.0000
# 6 0.0000 0.0000 0.0000 0.9770 0.0000 21.5712
#
#
#
# Elastic Compliance Matrix: (Units=1/GPa)
#
#
# Indices 1 2 3 4 5 6 
#
# 1 0.013839 -0.004205 -0.003059 0.000000 -0.002843 0.000000
# 2 -0.004205 0.015010 -0.003915 0.000000 0.002592 0.000000
# 3 -0.003059 -0.003915 0.008529 0.000000 0.000361 0.000000
# 4 0.000000 0.000000 0.000000 0.034394 0.000000 -0.001558
# 5 -0.002843 0.002592 0.000361 0.000000 0.034335 0.000000
# 6 0.000000 0.000000 0.000000 -0.001558 0.000000 0.046429
#
#
# Mechanical properties :
#
#
# Convention : Reuss Voigt Hill
#
# Bulk Modulus (GPa) = 66.58269 72.90467 69.74368
# Shear Modulus (GPa) = 27.79320 29.61132 28.70226
#
# Velocity S-wave (km/s) = 3.68520 3.80383 3.74498
# Velocity P-wave (km/s) = 7.11633 7.41052 7.26492
#
# Compressibility (1/GPa) = 0.01501892
#
# Stress axis : x y z
#
# Youngs Moduli (GPa) = 72.25868 66.62291 117.25326
#
# Poissons Ratio (x) = 0.28017 0.35866
# Poissons Ratio (y) = 0.30387 0.45907
# Poissons Ratio (z) = 0.22103 0.26084
#
# Static dielectric constant tensor:
#      x y z
#    x 3.644390 0.000000 0.020590 
#    y 0.000000 3.695500 0.000000 
#    z 0.020590 0.000000 4.251620 
# 
# 
# High freq. dielectric constant tensor:
#      x y z
#    x 1.797110 0.000000 0.000040 
#    y 0.000000 1.797720 0.000000 
#    z 0.000040 0.000000 1.817800 
# 
# From -- ./inp_files/18136.got.cif
#   From: 2010.06.25/outbox.cif.g09.slc.cpg/sg11_10_cif.got.tgz:18136.got - 2010.06.27 23:14:04.
