data_PCOD8074861
_publ_section_title
;
Structure prediction by ZEFSAII (Michael W. Deem and Ramdas Pophale) SiO2 
 PCOD8074861
Probable space group: P 21/M
;
_chemical_formula_sum "Si O2"
_cell_formula_units_Z 28
_cell_length_a 24.439782
_cell_length_b 9.008089
_cell_length_c 22.163309
_cell_angle_alpha 90.000000
_cell_angle_beta 162.947850
_cell_angle_gamma 90.000000
_cell_volume 1430.839013
_symmetry_space_group_name_H-M "P 21/M"
_symmetry_group_IT_number 11
_symmetry_cell_setting 'monoclinic'
loop_
_space_group_symop_operation_xyz
x,y,z
-x,1/2+y,-z
-x,-y,-z
x,1/2-y,z
loop_
_atom_site_type_symbol
_atom_site_label
_atom_site_fract_x
_atom_site_fract_y
_atom_site_fract_z
Si Si1 0.435570 0.586736 0.873494
Si Si2 0.803684 0.075314 0.809404
Si Si3 0.558963 0.922309 0.646967
Si Si4 0.980396 0.575816 0.290947
Si Si5 0.400053 0.421834 0.170972
Si Si6 0.368661 0.074554 0.685345
Si Si7 0.009306 0.590941 0.449571
O O1 0.531833 0.750000 0.972455
O O2 0.480892 0.496172 0.860441
O O3 0.217533 0.607722 0.646532
O O4 0.500000 0.500000 0.000000
O O5 0.838224 0.250000 0.851238
O O6 0.648207 0.036618 0.594917
O O7 0.722450 0.014987 0.786903
O O8 0.000000 0.000000 0.000000
O O9 0.602858 0.750000 0.681670
O O10 0.563459 0.963448 0.721660
O O11 0.035433 0.750000 0.350017
O O12 0.156052 0.479303 0.455827
O O13 0.908478 0.526653 0.283073
O O14 0.815769 0.544077 0.070631
O O15 0.448215 0.250000 0.207945
O O16 0.530887 0.527305 0.269905
O O17 0.372530 0.250000 0.697350
O O18 0.922558 0.750000 0.375160
O O19 0.000000 0.500000 0.500000
#
# Coordination Sequence:
#
# PCOD8074861 Si02
#       7
#     4   4   4   4   4   4   4
#     4  10  21  37  55  78 106 140 184 232 287 347
#     4  10  20  36  60  88 122 159 194 237 287 338
#     4   9  20  38  59  87 118 152 199 243 283 337
#     4   9  20  39  58  78 106 145 190 235 286 343
#     4  10  21  39  63  85 112 154 197 241 289 342
#     4  11  23  38  56  82 115 150 188 235 290 349
#     4   9  19  33  50  75 102 131 172 222 279 338
#
# _framework density 19.568937999999999
#
# number of rings (size 3 to 8) (size 9 to 14) (size 15 to 20)
#    0.000    2.286    0.000    3.000    2.000    5.714 
#    0.000    5.714    0.000    0.000    0.000    0.000 
#    0.000    0.000    0.000    0.000    0.000    0.000 
#
# Total GULP energy -347075.291336 kJ/mol
# GULP energy per Si atom -12395.546119 kJ/mol
# Density = 1.952440 g / cm^3
# Si number density = 19.568938 Si / 1000 Ang^3
#
#
#
# Elastic Constant Matrix: (Units=GPa)
#
#
# Indices 1 2 3 4 5 6 
#
# 1 141.9760 74.0293 67.4555 0.0000 -12.2960 0.0000
# 2 74.0293 127.0022 51.6098 0.0000 1.2007 0.0000
# 3 67.4555 51.6098 97.2366 0.0000 -5.5885 0.0000
# 4 0.0000 0.0000 0.0000 25.1834 0.0000 1.7291
# 5 -12.2960 1.2007 -5.5885 0.0000 36.3502 0.0000
# 6 0.0000 0.0000 0.0000 1.7291 0.0000 36.8568
#
#
#
# Elastic Compliance Matrix: (Units=1/GPa)
#
#
# Indices 1 2 3 4 5 6 
#
# 1 0.012868 -0.005089 -0.006019 0.000000 0.003595 0.000000
# 2 -0.005089 0.012100 -0.003041 0.000000 -0.002589 0.000000
# 3 -0.006019 -0.003041 0.016105 0.000000 0.000540 0.000000
# 4 0.000000 0.000000 0.000000 0.039837 0.000000 -0.001869
# 5 0.003595 -0.002589 0.000540 0.000000 0.028895 0.000000
# 6 0.000000 0.000000 0.000000 -0.001869 0.000000 0.027220
#
#
# Mechanical properties :
#
#
# Convention : Reuss Voigt Hill
#
# Bulk Modulus (GPa) = 78.27597 83.60043 80.93820
# Shear Modulus (GPa) = 29.48426 31.21943 30.35184
#
# Velocity S-wave (km/s) = 3.88582 3.99852 3.94257
# Velocity P-wave (km/s) = 7.76014 8.00820 7.88515
#
# Compressibility (1/GPa) = 0.01277531
#
# Stress axis : x y z
#
# Youngs Moduli (GPa) = 77.71147 82.64236 62.09200
#
# Poissons Ratio (x) = 0.42054 0.37376
# Poissons Ratio (y) = 0.39545 0.18882
# Poissons Ratio (z) = 0.46778 0.25132
#
# Static dielectric constant tensor:
#      x y z
#    x 0.638120 0.000000 3.542000 
#    y 0.000000 3.645830 0.000000 
#    z 3.542000 0.000000 -1.048590 
# 
# 
# High freq. dielectric constant tensor:
#      x y z
#    x 1.762530 0.000000 -0.004290 
#    y 0.000000 1.758680 0.000000 
#    z -0.004290 0.000000 1.766670 
# 
# From -- ./inp_files/66751.got.cif
#   From: 2010.06.25/outbox.cif.g09.slc.cpg/sg11_34_cif.got.tgz:66751.got - 2010.06.27 23:14:04.
