data_PCOD8074176
_publ_section_title
;
Structure prediction by ZEFSAII (Michael W. Deem and Ramdas Pophale) SiO2 
 PCOD8074176
Probable space group: P 21/M
;
_chemical_formula_sum "Si O2"
_cell_formula_units_Z 32
_cell_length_a 26.213740
_cell_length_b 13.973711
_cell_length_c 9.570063
_cell_angle_alpha 90.000000
_cell_angle_beta 150.880303
_cell_angle_gamma 90.000000
_cell_volume 1705.923448
_symmetry_space_group_name_H-M "P 21/M"
_symmetry_group_IT_number 11
_symmetry_cell_setting 'monoclinic'
loop_
_space_group_symop_operation_xyz
x,y,z
-x,1/2+y,-z
-x,-y,-z
x,1/2-y,z
loop_
_atom_site_type_symbol
_atom_site_label
_atom_site_fract_x
_atom_site_fract_y
_atom_site_fract_z
Si Si1 0.431817 0.008482 0.974071
Si Si2 0.843000 0.360094 0.489435
Si Si3 0.051328 0.140923 0.538602
Si Si4 0.536584 0.637676 0.705810
Si Si5 0.807322 0.520270 0.596584
Si Si6 0.395625 0.640996 0.118084
Si Si7 0.031141 0.452532 0.779125
Si Si8 0.227699 0.141897 0.747426
O O1 0.312867 0.032895 0.643742
O O2 0.485007 0.091275 0.194916
O O3 0.500000 0.000000 0.000000
O O4 0.430944 0.911542 0.061713
O O5 0.876443 0.250000 0.591437
O O6 0.839730 0.411146 0.634039
O O7 0.920662 0.413676 0.570267
O O8 0.727773 0.369646 0.145707
O O9 0.007188 0.250000 0.417131
O O10 0.065472 0.114711 0.733906
O O11 0.165774 0.133043 0.743818
O O12 0.974382 0.063996 0.280769
O O13 0.522231 0.750000 0.688974
O O14 0.456644 0.597996 0.397763
O O15 0.653987 0.606177 0.941285
O O16 0.829023 0.580080 0.507353
O O17 0.880566 0.559747 0.892990
O O18 0.428643 0.750000 0.172731
O O19 0.229705 0.250000 0.696100
#
# Coordination Sequence:
#
# PCOD8074176 Si02
#       8
#     4   4   4   4   4   4   4   4
#     4  10  21  36  54  83 113 144 177 224 278 327
#     4  10  20  35  57  82 110 144 187 230 269 320
#     4  10  22  38  55  80 112 143 179 226 276 321
#     4   9  18  35  58  82 106 140 184 225 269 323
#     4  10  21  38  55  81 109 144 187 221 271 326
#     4   9  19  36  57  80 108 145 186 225 268 324
#     4  11  22  38  56  80 112 147 180 228 272 324
#     4   9  18  34  57  81 109 140 179 226 270 323
#
# _framework density 18.758168000000001
#
# number of rings (size 3 to 8) (size 9 to 14) (size 15 to 20)
#    0.000    2.250    1.250    1.125    0.000    3.000 
#    4.500    0.000    0.000    0.000    0.000    0.000 
#    0.000    0.000    0.000    0.000    0.000    0.000 
#
# Total GULP energy -396772.809256 kJ/mol
# GULP energy per Si atom -12399.150289 kJ/mol
# Density = 1.871547 g / cm^3
# Si number density = 18.758168 Si / 1000 Ang^3
#
#
#
# Elastic Constant Matrix: (Units=GPa)
#
#
# Indices 1 2 3 4 5 6 
#
# 1 139.3621 42.0722 60.6317 0.0000 -1.6772 0.0000
# 2 42.0722 86.8735 39.8391 0.0000 -0.7377 0.0000
# 3 60.6317 39.8391 113.9962 0.0000 -14.8688 0.0000
# 4 0.0000 0.0000 0.0000 20.9569 0.0000 -0.7732
# 5 -1.6772 -0.7377 -14.8688 0.0000 17.9860 0.0000
# 6 0.0000 0.0000 0.0000 -0.7732 0.0000 22.7242
#
#
#
# Elastic Compliance Matrix: (Units=1/GPa)
#
#
# Indices 1 2 3 4 5 6 
#
# 1 0.010042 -0.002682 -0.004815 0.000000 -0.003154 0.000000
# 2 -0.002682 0.014661 -0.004093 0.000000 -0.003032 0.000000
# 3 -0.004815 -0.004093 0.014216 0.000000 0.011135 0.000000
# 4 0.000000 0.000000 0.000000 0.047777 0.000000 0.001626
# 5 -0.003154 -0.003032 0.011135 0.000000 0.064386 0.000000
# 6 0.000000 0.000000 0.000000 0.001626 0.000000 0.044061
#
#
# Mechanical properties :
#
#
# Convention : Reuss Voigt Hill
#
# Bulk Modulus (GPa) = 63.53522 69.47975 66.50748
# Shear Modulus (GPa) = 22.36440 25.51268 23.93854
#
# Velocity S-wave (km/s) = 3.45664 3.69193 3.57622
# Velocity P-wave (km/s) = 7.06225 7.43599 7.25153
#
# Compressibility (1/GPa) = 0.01573930
#
# Stress axis : x y z
#
# Youngs Moduli (GPa) = 99.57932 68.20843 70.34265
#
# Poissons Ratio (x) = 0.18293 0.33873
# Poissons Ratio (y) = 0.26706 0.28789
# Poissons Ratio (z) = 0.47951 0.27916
#
# Static dielectric constant tensor:
#      x y z
#    x 3.292820 0.000000 0.038330 
#    y 0.000000 3.745360 0.000000 
#    z 0.038330 0.000000 3.412890 
# 
# 
# High freq. dielectric constant tensor:
#      x y z
#    x 1.715530 0.000000 0.002670 
#    y 0.000000 1.745890 0.000000 
#    z 0.002670 0.000000 1.720660 
# 
# From -- ./inp_files/27799.got.cif
#   From: 2010.06.25/outbox.cif.g09.slc.cpg/sg11_14_cif.got.tgz:27799.got - 2010.06.27 23:14:04.
