data_PCOD8074965
_publ_section_title
;
Structure prediction by ZEFSAII (Michael W. Deem and Ramdas Pophale) SiO2 
 PCOD8074965
Probable space group: P 21/M
;
_chemical_formula_sum "Si O2"
_cell_formula_units_Z 28
_cell_length_a 13.117108
_cell_length_b 21.842203
_cell_length_c 7.546060
_cell_angle_alpha 90.000000
_cell_angle_beta 39.665275
_cell_angle_gamma 90.000000
_cell_volume 1380.004746
_symmetry_space_group_name_H-M "P 21/M"
_symmetry_group_IT_number 11
_symmetry_cell_setting 'monoclinic'
loop_
_space_group_symop_operation_xyz
x,y,z
-x,1/2+y,-z
-x,-y,-z
x,1/2-y,z
loop_
_atom_site_type_symbol
_atom_site_label
_atom_site_fract_x
_atom_site_fract_y
_atom_site_fract_z
Si Si1 0.784135 0.947230 0.272392
Si Si2 0.494774 0.876242 0.807258
Si Si3 0.816658 0.053827 0.738768
Si Si4 0.876376 0.421568 0.066722
Si Si5 0.155371 0.423176 0.200168
Si Si6 0.623681 0.179274 0.398376
Si Si7 0.634644 0.819113 0.956372
O O1 0.627695 0.926991 0.587003
O O2 0.806993 0.020281 0.269680
O O3 0.755631 0.930346 0.105600
O O4 0.938664 0.910305 0.134851
O O5 0.445633 0.838737 0.699744
O O6 0.556633 0.828393 0.868718
O O7 0.345155 0.911683 0.094249
O O8 0.963380 0.079731 0.424391
O O9 0.799893 0.980673 0.731949
O O10 0.864136 0.063607 0.877880
O O11 0.777880 0.360677 0.244646
O O12 0.212307 0.362292 0.223258
O O13 0.676276 0.250000 0.325279
O O14 0.491628 0.166255 0.722083
O O15 0.697303 0.750000 0.885726
#
# Coordination Sequence:
#
# PCOD8074965 Si02
#       7
#     4   4   4   4   4   4   4
#     4  10  20  36  63  89 122 154 196 248 305 345
#     4  11  22  39  63  89 115 156 200 252 296 347
#     4   9  21  36  61  90 122 152 196 247 305 345
#     4   9  20  37  59  88 124 156 196 246 295 357
#     4  10  20  39  58  89 125 157 193 246 295 362
#     4  10  22  41  60  86 122 159 198 244 291 353
#     4  11  24  40  60  87 121 159 202 244 290 356
#
# _framework density 20.289784999999998
#
# number of rings (size 3 to 8) (size 9 to 14) (size 15 to 20)
#    0.000    2.000    1.429    1.286    4.000    3.429 
#    0.000    8.571    0.000    0.000    0.000    0.000 
#    0.000    0.000    0.000    0.000    0.000    0.000 
#
# Total GULP energy -347286.329633 kJ/mol
# GULP energy per Si atom -12403.083201 kJ/mol
# Density = 2.024360 g / cm^3
# Si number density = 20.289785 Si / 1000 Ang^3
#
#
#
# Elastic Constant Matrix: (Units=GPa)
#
#
# Indices 1 2 3 4 5 6 
#
# 1 66.3800 41.6166 20.0033 0.0000 -15.8458 0.0000
# 2 41.6166 130.0200 57.6328 0.0000 -17.0619 0.0000
# 3 20.0033 57.6328 96.2018 0.0000 -10.7637 0.0000
# 4 0.0000 0.0000 0.0000 30.8482 0.0000 -4.7612
# 5 -15.8458 -17.0619 -10.7637 0.0000 25.9477 0.0000
# 6 0.0000 0.0000 0.0000 -4.7612 0.0000 32.1519
#
#
#
# Elastic Compliance Matrix: (Units=1/GPa)
#
#
# Indices 1 2 3 4 5 6 
#
# 1 0.020614 -0.005394 -0.000045 0.000000 0.009023 0.000000
# 2 -0.005394 0.012408 -0.006048 0.000000 0.002356 0.000000
# 3 -0.000045 -0.006048 0.014240 0.000000 0.001903 0.000000
# 4 0.000000 0.000000 0.000000 0.033175 0.000000 0.004913
# 5 0.009023 0.002356 0.001903 0.000000 0.046388 0.000000
# 6 0.000000 0.000000 0.000000 0.004913 0.000000 0.031830
#
#
# Mechanical properties :
#
#
# Convention : Reuss Voigt Hill
#
# Bulk Modulus (GPa) = 41.17347 59.01189 50.09268
# Shear Modulus (GPa) = 26.35391 29.34616 27.85003
#
# Velocity S-wave (km/s) = 3.60790 3.80722 3.70890
# Velocity P-wave (km/s) = 6.13944 6.96234 6.56380
#
# Compressibility (1/GPa) = 0.02428749
#
# Stress axis : x y z
#
# Youngs Moduli (GPa) = 48.51046 80.59564 70.22275
#
# Poissons Ratio (x) = 0.43473 0.00318
# Poissons Ratio (y) = 0.26167 0.42471
# Poissons Ratio (z) = 0.00220 0.48745
#
# Static dielectric constant tensor:
#      x y z
#    x 3.587500 0.000000 0.025320 
#    y 0.000000 3.629820 0.000000 
#    z 0.025320 0.000000 3.701620 
# 
# 
# High freq. dielectric constant tensor:
#      x y z
#    x 1.792440 0.000000 0.005680 
#    y 0.000000 1.781240 0.000000 
#    z 0.005680 0.000000 1.797020 
# 
# From -- ./inp_files/23165.got.cif
#   From: 2010.06.25/outbox.cif.g09.slc.cpg/sg11_12_cif.got.tgz:23165.got - 2010.06.27 23:14:04.
