data_PCOD8074155
_publ_section_title
;
Structure prediction by ZEFSAII (Michael W. Deem and Ramdas Pophale) SiO2 
 PCOD8074155
Probable space group: P 21/M
;
_chemical_formula_sum "Si O2"
_cell_formula_units_Z 32
_cell_length_a 12.069644
_cell_length_b 14.367424
_cell_length_c 9.502252
_cell_angle_alpha 90.000000
_cell_angle_beta 95.039149
_cell_angle_gamma 90.000000
_cell_volume 1641.413779
_symmetry_space_group_name_H-M "P 21/M"
_symmetry_group_IT_number 11
_symmetry_cell_setting 'monoclinic'
loop_
_space_group_symop_operation_xyz
x,y,z
-x,1/2+y,-z
-x,-y,-z
x,1/2-y,z
loop_
_atom_site_type_symbol
_atom_site_label
_atom_site_fract_x
_atom_site_fract_y
_atom_site_fract_z
Si Si1 0.784933 0.856306 0.935984
Si Si2 0.529412 0.143212 0.862785
Si Si3 0.421179 0.642918 0.812075
Si Si4 0.189394 0.644049 0.651365
Si Si5 0.726203 0.855828 0.233079
Si Si6 0.784984 0.969580 0.510912
Si Si7 0.617031 0.969571 0.735562
Si Si8 0.947838 0.644288 0.715845
O O1 0.742777 0.750000 0.911418
O O2 0.690597 0.922542 0.864162
O O3 0.901466 0.873348 0.868279
O O4 0.801375 0.876404 0.103326
O O5 0.562284 0.250000 0.836257
O O6 0.400543 0.123653 0.821316
O O7 0.602401 0.078732 0.768227
O O8 0.556417 0.114423 0.025197
O O9 0.451299 0.750000 0.788304
O O10 0.293139 0.621241 0.763617
O O11 0.497571 0.581209 0.717309
O O12 0.193644 0.750000 0.596223
O O13 0.189678 0.578312 0.513882
O O14 0.079352 0.625888 0.732227
O O15 0.740686 0.750000 0.286219
O O16 0.768162 0.922284 0.359143
O O17 0.673643 0.958146 0.590192
O O18 0.890216 0.924948 0.599736
O O19 0.920750 0.750000 0.665432
#
# Coordination Sequence:
#
# PCOD8074155 Si02
#       8
#     4   4   4   4   4   4   4   4
#     4   9  18  34  59  85 109 138 183 237 282 322
#     4  10  21  35  54  81 117 150 183 228 277 330
#     4  10  20  35  57  84 111 145 187 231 276 332
#     4  10  22  38  58  79 111 155 191 223 273 335
#     4  10  20  35  56  86 115 142 178 231 289 329
#     4  11  23  36  57  86 116 145 186 232 278 328
#     4  11  21  34  57  84 114 148 185 224 278 328
#     4   9  19  39  62  82 108 145 189 234 278 327
#
# _framework density 19.495387999999998
#
# number of rings (size 3 to 8) (size 9 to 14) (size 15 to 20)
#    0.000    2.000    1.250    2.250    1.750    4.000 
#    0.000    3.125    2.750    0.000    0.000    0.000 
#    0.000    0.000    0.000    0.000    0.000    0.000 
#
# Total GULP energy -396869.725810 kJ/mol
# GULP energy per Si atom -12402.178932 kJ/mol
# Density = 1.945102 g / cm^3
# Si number density = 19.495388 Si / 1000 Ang^3
#
#
#
# Elastic Constant Matrix: (Units=GPa)
#
#
# Indices 1 2 3 4 5 6 
#
# 1 127.6094 53.9770 53.9382 0.0000 -10.4743 0.0000
# 2 53.9770 93.5023 50.4724 0.0000 -12.2988 0.0000
# 3 53.9382 50.4724 107.2520 0.0000 -13.1626 0.0000
# 4 0.0000 0.0000 0.0000 27.5815 0.0000 -6.4793
# 5 -10.4743 -12.2988 -13.1626 0.0000 18.0463 0.0000
# 6 0.0000 0.0000 0.0000 -6.4793 0.0000 25.3746
#
#
#
# Elastic Compliance Matrix: (Units=1/GPa)
#
#
# Indices 1 2 3 4 5 6 
#
# 1 0.011281 -0.004541 -0.003419 0.000000 0.000960 0.000000
# 2 -0.004541 0.016646 -0.004922 0.000000 0.005119 0.000000
# 3 -0.003419 -0.004922 0.013953 0.000000 0.004838 0.000000
# 4 0.000000 0.000000 0.000000 0.038570 0.000000 0.009849
# 5 0.000960 0.005119 0.004838 0.000000 0.062988 0.000000
# 6 0.000000 0.000000 0.000000 0.009849 0.000000 0.041924
#
#
# Mechanical properties :
#
#
# Convention : Reuss Voigt Hill
#
# Bulk Modulus (GPa) = 62.04270 71.68208 66.86239
# Shear Modulus (GPa) = 23.09501 25.53225 24.31363
#
# Velocity S-wave (km/s) = 3.44559 3.62284 3.53533
# Velocity P-wave (km/s) = 6.90817 7.37215 7.14393
#
# Compressibility (1/GPa) = 0.01611793
#
# Stress axis : x y z
#
# Youngs Moduli (GPa) = 88.64629 60.07337 71.66822
#
# Poissons Ratio (x) = 0.27277 0.24501
# Poissons Ratio (y) = 0.40250 0.35275
# Poissons Ratio (z) = 0.30306 0.29568
#
# Static dielectric constant tensor:
#      x y z
#    x 3.543250 0.000000 -0.161010 
#    y 0.000000 3.783900 0.000000 
#    z -0.161010 0.000000 3.412100 
# 
# 
# High freq. dielectric constant tensor:
#      x y z
#    x 1.752380 0.000000 -0.009470 
#    y 0.000000 1.772760 0.000000 
#    z -0.009470 0.000000 1.743430 
# 
# From -- ./inp_files/18053.got.cif
#   From: 2010.06.25/outbox.cif.g09.slc.cpg/sg11_10_cif.got.tgz:18053.got - 2010.06.27 23:14:04.
