data_PCOD8074251
_publ_section_title
;
Structure prediction by ZEFSAII (Michael W. Deem and Ramdas Pophale) SiO2 
 PCOD8074251
Probable space group: P 21/M
;
_chemical_formula_sum "Si O2"
_cell_formula_units_Z 24
_cell_length_a 22.712760
_cell_length_b 8.569178
_cell_length_c 11.371315
_cell_angle_alpha 90.000000
_cell_angle_beta 31.383252
_cell_angle_gamma 90.000000
_cell_volume 1152.543900
_symmetry_space_group_name_H-M "P 21/M"
_symmetry_group_IT_number 11
_symmetry_cell_setting 'monoclinic'
loop_
_space_group_symop_operation_xyz
x,y,z
-x,1/2+y,-z
-x,-y,-z
x,1/2-y,z
loop_
_atom_site_type_symbol
_atom_site_label
_atom_site_fract_x
_atom_site_fract_y
_atom_site_fract_z
Si Si1 0.121062 0.930414 0.311905
Si Si2 0.874778 0.433868 0.226599
Si Si3 0.330667 0.069486 0.842402
Si Si4 0.543064 0.065983 0.158920
Si Si5 0.323966 0.931681 0.602586
Si Si6 0.756897 0.070167 0.657786
O O1 0.127376 0.750000 0.263389
O O2 0.152483 0.953154 0.393962
O O3 0.000000 0.000000 0.500000
O O4 0.201481 0.029232 0.090493
O O5 0.886438 0.250000 0.223429
O O6 0.797892 0.475541 0.244735
O O7 0.810390 0.508428 0.449982
O O8 0.000000 0.500000 0.000000
O O9 0.356597 0.250000 0.821498
O O10 0.412537 0.967186 0.784664
O O11 0.349678 0.031668 0.673915
O O12 0.526389 0.250000 0.173358
O O13 0.424363 0.977059 0.339867
O O14 0.635537 0.000150 0.906875
O O15 0.329113 0.750000 0.624101
O O16 0.735032 0.250000 0.667774
#
# Coordination Sequence:
#
# PCOD8074251 Si02
#       6
#     4   4   4   4   4   4
#     4  10  20  35  57  86 118 154 196 242 295 352
#     4  10  23  42  61  84 116 156 198 243 291 345
#     4  11  22  37  58  86 120 157 196 242 296 353
#     4  10  20  38  63  89 118 152 193 243 299 358
#     4  11  23  38  58  87 122 157 195 243 294 351
#     4   8  18  38  60  82 114 152 190 240 293 342
#
# _framework density 20.823502999999999
#
# number of rings (size 3 to 8) (size 9 to 14) (size 15 to 20)
#    0.000    2.000    0.000    4.500    2.333    2.000 
#    0.000    4.167    0.000    0.000    0.000    0.000 
#    0.000    0.000    0.000    0.000    0.000    0.000 
#
# Total GULP energy -297568.558719 kJ/mol
# GULP energy per Si atom -12398.689947 kJ/mol
# Density = 2.077611 g / cm^3
# Si number density = 20.823503 Si / 1000 Ang^3
#
#
#
# Elastic Constant Matrix: (Units=GPa)
#
#
# Indices 1 2 3 4 5 6 
#
# 1 54.5098 14.4731 53.6778 0.0000 -4.3769 0.0000
# 2 14.4731 50.3480 17.3069 0.0000 -2.7357 0.0000
# 3 53.6778 17.3069 135.4304 0.0000 -11.5206 0.0000
# 4 0.0000 0.0000 0.0000 37.1355 0.0000 -5.7255
# 5 -4.3769 -2.7357 -11.5206 0.0000 43.4901 0.0000
# 6 0.0000 0.0000 0.0000 -5.7255 0.0000 22.4566
#
#
#
# Elastic Compliance Matrix: (Units=1/GPa)
#
#
# Indices 1 2 3 4 5 6 
#
# 1 0.031224 -0.004946 -0.011768 0.000000 -0.000286 0.000000
# 2 -0.004946 0.021574 -0.000740 0.000000 0.000663 0.000000
# 3 -0.011768 -0.000740 0.012315 0.000000 0.002031 0.000000
# 4 0.000000 0.000000 0.000000 0.028030 0.000000 0.007147
# 5 -0.000286 0.000663 0.002031 0.000000 0.023545 0.000000
# 6 0.000000 0.000000 0.000000 0.007147 0.000000 0.046352
#
#
# Mechanical properties :
#
#
# Convention : Reuss Voigt Hill
#
# Bulk Modulus (GPa) = 33.10689 45.68929 39.39809
# Shear Modulus (GPa) = 24.03647 30.93849 27.48748
#
# Velocity S-wave (km/s) = 3.40118 3.85872 3.63715
# Velocity P-wave (km/s) = 5.59976 6.46853 6.04976
#
# Compressibility (1/GPa) = 0.03020519
#
# Stress axis : x y z
#
# Youngs Moduli (GPa) = 32.02684 46.35201 81.19890
#
# Poissons Ratio (x) = 0.22926 0.95553
# Poissons Ratio (y) = 0.15841 0.06010
# Poissons Ratio (z) = 0.37689 0.03431
#
# Static dielectric constant tensor:
#      x y z
#    x 3.682190 0.000000 0.123140 
#    y 0.000000 3.660570 0.000000 
#    z 0.123140 0.000000 4.400130 
# 
# 
# High freq. dielectric constant tensor:
#      x y z
#    x 1.805900 0.000000 -0.005600 
#    y 0.000000 1.797530 0.000000 
#    z -0.005600 0.000000 1.834210 
# 
# From -- ./inp_files/43876.got.cif
#   From: 2010.06.25/outbox.cif.g09.slc.cpg/sg11_22_cif.got.tgz:43876.got - 2010.06.27 23:14:04.
