data_PCOD8074872
_publ_section_title
;
Structure prediction by ZEFSAII (Michael W. Deem and Ramdas Pophale) SiO2 
 PCOD8074872
Probable space group: P 21/M
;
_chemical_formula_sum "Si O2"
_cell_formula_units_Z 28
_cell_length_a 23.312053
_cell_length_b 9.079364
_cell_length_c 20.564922
_cell_angle_alpha 90.000000
_cell_angle_beta 160.410222
_cell_angle_gamma 90.000000
_cell_volume 1459.402850
_symmetry_space_group_name_H-M "P 21/M"
_symmetry_group_IT_number 11
_symmetry_cell_setting 'monoclinic'
loop_
_space_group_symop_operation_xyz
x,y,z
-x,1/2+y,-z
-x,-y,-z
x,1/2-y,z
loop_
_atom_site_type_symbol
_atom_site_label
_atom_site_fract_x
_atom_site_fract_y
_atom_site_fract_z
Si Si1 0.416690 0.912865 0.851708
Si Si2 0.322177 0.079335 0.322473
Si Si3 0.162638 0.591189 0.682814
Si Si4 0.894622 0.922720 0.030847
Si Si5 0.588881 0.075518 0.938000
Si Si6 0.246375 0.076161 0.388519
Si Si7 0.407947 0.075092 0.192216
O O1 0.498951 0.750000 0.928731
O O2 0.227467 0.894119 0.677829
O O3 0.412894 0.005653 0.779465
O O4 0.500000 0.000000 0.000000
O O5 0.363493 0.250000 0.357594
O O6 0.245829 0.042626 0.311276
O O7 0.500000 0.000000 0.500000
O O8 0.179629 0.029044 0.118451
O O9 0.114651 0.750000 0.660052
O O10 0.000000 0.500000 0.500000
O O11 0.286203 0.522879 0.870052
O O12 0.937649 0.750000 0.079845
O O13 0.747492 0.965011 0.925554
O O14 0.071036 0.011219 0.231958
O O15 0.572057 0.250000 0.909694
O O16 0.646676 0.995418 0.934437
O O17 0.255842 0.250000 0.413875
O O18 0.412978 0.998038 0.595975
O O19 0.434134 0.250000 0.215323
#
# Coordination Sequence:
#
# PCOD8074872 Si02
#       7
#     4   4   4   4   4   4   4
#     4   9  17  32  54  80 107 141 182 227 277 333
#     4  10  20  36  60  89 119 155 199 250 306 358
#     4   9  19  34  55  84 115 145 182 231 282 335
#     4  10  22  40  61  87 120 159 203 250 302 360
#     4  10  21  38  58  83 114 150 192 238 289 349
#     4  11  23  38  61  91 120 156 200 250 306 361
#     4  11  23  41  63  85 118 163 203 247 300 361
#
# _framework density 19.185929999999999
#
# number of rings (size 3 to 8) (size 9 to 14) (size 15 to 20)
#    0.000    2.000    1.429    3.000    0.000    5.714 
#    2.571    0.000    0.000    0.000    0.000    0.000 
#    0.000    0.000    0.000    0.000    0.000    0.000 
#
# Total GULP energy -346898.795248 kJ/mol
# GULP energy per Si atom -12389.242687 kJ/mol
# Density = 1.914226 g / cm^3
# Si number density = 19.185930 Si / 1000 Ang^3
#
#
#
# Elastic Constant Matrix: (Units=GPa)
#
#
# Indices 1 2 3 4 5 6 
#
# 1 125.3148 57.8543 55.7617 0.0000 -0.3269 0.0000
# 2 57.8543 106.0007 49.5269 0.0000 13.5695 0.0000
# 3 55.7617 49.5269 99.5014 0.0000 19.2413 0.0000
# 4 0.0000 0.0000 0.0000 35.7269 0.0000 2.0720
# 5 -0.3269 13.5695 19.2413 0.0000 26.8562 0.0000
# 6 0.0000 0.0000 0.0000 2.0720 0.0000 35.2478
#
#
#
# Elastic Compliance Matrix: (Units=1/GPa)
#
#
# Indices 1 2 3 4 5 6 
#
# 1 0.013154 -0.005221 -0.006169 0.000000 0.007218 0.000000
# 2 -0.005221 0.014470 -0.003309 0.000000 -0.005004 0.000000
# 3 -0.006169 -0.003309 0.017233 0.000000 -0.010750 0.000000
# 4 0.000000 0.000000 0.000000 0.028086 0.000000 -0.001651
# 5 0.007218 -0.005004 -0.010750 0.000000 0.047553 0.000000
# 6 0.000000 0.000000 0.000000 -0.001651 0.000000 0.028468
#
#
# Mechanical properties :
#
#
# Convention : Reuss Voigt Hill
#
# Bulk Modulus (GPa) = 64.68377 73.01142 68.84760
# Shear Modulus (GPa) = 27.24581 30.74444 28.99513
#
# Velocity S-wave (km/s) = 3.77250 4.00740 3.89172
# Velocity P-wave (km/s) = 7.26382 7.71684 7.49375
#
# Compressibility (1/GPa) = 0.01545983
#
# Stress axis : x y z
#
# Youngs Moduli (GPa) = 76.02220 69.10764 58.02891
#
# Poissons Ratio (x) = 0.36082 0.35796
# Poissons Ratio (y) = 0.39693 0.19201
# Poissons Ratio (z) = 0.46895 0.22867
#
# Static dielectric constant tensor:
#      x y z
#    x 3.836320 0.000000 0.222970 
#    y 0.000000 4.121060 0.000000 
#    z 0.222970 0.000000 3.307460 
# 
# 
# High freq. dielectric constant tensor:
#      x y z
#    x 1.755240 0.000000 0.007240 
#    y 0.000000 1.758620 0.000000 
#    z 0.007240 0.000000 1.726000 
# 
# From -- ./inp_files/66748.got.cif
#   From: 2010.06.25/outbox.cif.g09.slc.cpg/sg11_34_cif.got.tgz:66748.got - 2010.06.27 23:14:04.
