data_PCOD8074538
_publ_section_title
;
Structure prediction by ZEFSAII (Michael W. Deem and Ramdas Pophale) SiO2 
 PCOD8074538
Probable space group: P 21/M
;
_chemical_formula_sum "Si O2"
_cell_formula_units_Z 32
_cell_length_a 26.124670
_cell_length_b 8.778404
_cell_length_c 20.220208
_cell_angle_alpha 90.000000
_cell_angle_beta 21.079338
_cell_angle_gamma 90.000000
_cell_volume 1667.802230
_symmetry_space_group_name_H-M "P 21/M"
_symmetry_group_IT_number 11
_symmetry_cell_setting 'monoclinic'
loop_
_space_group_symop_operation_xyz
x,y,z
-x,1/2+y,-z
-x,-y,-z
x,1/2-y,z
loop_
_atom_site_type_symbol
_atom_site_label
_atom_site_fract_x
_atom_site_fract_y
_atom_site_fract_z
Si Si1 0.347226 0.430427 0.698117
Si Si2 0.591919 0.070415 0.982917
Si Si3 0.392169 0.570609 0.891947
Si Si4 0.308164 0.572656 0.497307
Si Si5 0.310947 0.926987 0.272363
Si Si6 0.908157 0.073000 0.356004
Si Si7 0.789474 0.428887 0.011475
Si Si8 0.845448 0.070473 0.181544
O O1 0.500000 0.500000 0.500000
O O2 0.355720 0.250000 0.681488
O O3 0.300569 0.475617 0.827653
O O4 0.232300 0.494859 0.786223
O O5 0.589218 0.250000 0.988400
O O6 0.647374 0.006809 0.986850
O O7 0.431265 0.015478 0.167197
O O8 0.692089 0.016403 0.800775
O O9 0.404720 0.750000 0.879118
O O10 0.543383 0.512087 0.685265
O O11 0.268612 0.520806 0.990456
O O12 0.339539 0.750000 0.452636
O O13 0.202775 0.519811 0.566113
O O14 0.238802 0.530169 0.650603
O O15 0.351716 0.750000 0.227108
O O16 0.159866 0.956977 0.489503
O O17 0.949723 0.250000 0.296369
O O18 0.045345 0.968869 0.183513
O O19 0.768578 0.250000 0.050134
O O20 0.856496 0.250000 0.156568
O O21 0.000000 0.000000 0.000000
#
# Coordination Sequence:
#
# PCOD8074538 Si02
#       8
#     4   4   4   4   4   4   4   4
#     4  12  25  43  64  86 114 151 195 244 294 353
#     4   9  17  31  53  82 113 146 185 231 281 330
#     4  10  21  36  55  82 113 145 185 233 282 332
#     4  10  21  36  57  83 111 141 183 231 278 334
#     4   9  17  31  54  82 113 147 185 230 278 333
#     4  10  20  36  56  83 116 151 189 231 282 337
#     4  11  24  40  58  82 114 152 192 235 285 345
#     4  11  23  39  60  88 118 152 191 239 293 348
#
# _framework density 19.186928000000002
#
# number of rings (size 3 to 8) (size 9 to 14) (size 15 to 20)
#    0.000    1.750    1.250    3.375    0.000    6.000 
#    0.000    0.625    0.000    0.000    0.000    0.000 
#    0.000    0.000    0.000    0.000    0.000    0.000 
#
# Total GULP energy -396806.059944 kJ/mol
# GULP energy per Si atom -12400.189373 kJ/mol
# Density = 1.914326 g / cm^3
# Si number density = 19.186928 Si / 1000 Ang^3
#
#
#
# Elastic Constant Matrix: (Units=GPa)
#
#
# Indices 1 2 3 4 5 6 
#
# 1 90.8047 26.7803 14.3513 0.0000 8.9327 0.0000
# 2 26.7803 47.8612 15.5106 0.0000 4.8429 0.0000
# 3 14.3513 15.5106 54.3559 0.0000 3.2312 0.0000
# 4 0.0000 0.0000 0.0000 31.5039 0.0000 -4.1527
# 5 8.9327 4.8429 3.2312 0.0000 34.7711 0.0000
# 6 0.0000 0.0000 0.0000 -4.1527 0.0000 22.9376
#
#
#
# Elastic Compliance Matrix: (Units=1/GPa)
#
#
# Indices 1 2 3 4 5 6 
#
# 1 0.013494 -0.006833 -0.001472 0.000000 -0.002378 0.000000
# 2 -0.006833 0.026721 -0.005736 0.000000 -0.001433 0.000000
# 3 -0.001472 -0.005736 0.020466 0.000000 -0.000725 0.000000
# 4 0.000000 0.000000 0.000000 0.032518 0.000000 0.005887
# 5 -0.002378 -0.001433 -0.000725 0.000000 0.029638 0.000000
# 6 0.000000 0.000000 0.000000 0.005887 0.000000 0.044662
#
#
# Mechanical properties :
#
#
# Convention : Reuss Voigt Hill
#
# Bulk Modulus (GPa) = 30.67456 34.03401 32.35429
# Shear Modulus (GPa) = 24.21937 26.93449 25.57693
#
# Velocity S-wave (km/s) = 3.55672 3.75079 3.65504
# Velocity P-wave (km/s) = 5.73489 6.04438 5.89167
#
# Compressibility (1/GPa) = 0.03260030
#
# Stress axis : x y z
#
# Youngs Moduli (GPa) = 74.10471 37.42383 48.86256
#
# Poissons Ratio (x) = 0.25572 0.07191
# Poissons Ratio (y) = 0.50637 0.28025
# Poissons Ratio (z) = 0.10906 0.21465
#
# Static dielectric constant tensor:
#      x y z
#    x 3.965660 0.000000 0.224960 
#    y 0.000000 3.452180 0.000000 
#    z 0.224960 0.000000 3.450510 
# 
# 
# High freq. dielectric constant tensor:
#      x y z
#    x 1.761040 0.000000 0.015590 
#    y 0.000000 1.743600 0.000000 
#    z 0.015590 0.000000 1.743720 
# 
# From -- ./inp_files/66941.got.cif
#   From: 2010.06.25/outbox.cif.g09.slc.cpg/sg11_34_cif.got.tgz:66941.got - 2010.06.27 23:14:04.
