data_PCOD8074688
_publ_section_title
;
Structure prediction by ZEFSAII (Michael W. Deem and Ramdas Pophale) SiO2 
 PCOD8074688
Probable space group: P 21/M
;
_chemical_formula_sum "Si O2"
_cell_formula_units_Z 28
_cell_length_a 15.610861
_cell_length_b 8.785294
_cell_length_c 21.029623
_cell_angle_alpha 90.000000
_cell_angle_beta 28.597788
_cell_angle_gamma 90.000000
_cell_volume 1380.511188
_symmetry_space_group_name_H-M "P 21/M"
_symmetry_group_IT_number 11
_symmetry_cell_setting 'monoclinic'
loop_
_space_group_symop_operation_xyz
x,y,z
-x,1/2+y,-z
-x,-y,-z
x,1/2-y,z
loop_
_atom_site_type_symbol
_atom_site_label
_atom_site_fract_x
_atom_site_fract_y
_atom_site_fract_z
Si Si1 0.281911 0.925109 0.920479
Si Si2 0.429935 0.569313 0.353153
Si Si3 0.554179 0.421880 0.051201
Si Si4 0.547255 0.069633 0.401379
Si Si5 0.945079 0.070442 0.102668
Si Si6 0.930110 0.427876 0.480122
Si Si7 0.776025 0.423682 0.788826
O O1 0.256836 0.750000 0.916657
O O2 0.395067 0.943481 0.909766
O O3 0.385129 0.009620 0.796660
O O4 0.089834 0.003092 0.057908
O O5 0.432196 0.750000 0.357808
O O6 0.414141 0.497912 0.434163
O O7 0.265747 0.514888 0.414824
O O8 0.485841 0.250000 0.081952
O O9 0.397998 0.541299 0.140152
O O10 0.726780 0.455245 0.894433
O O11 0.523515 0.250000 0.419322
O O12 0.749315 0.019898 0.252773
O O13 0.500000 0.000000 0.500000
O O14 0.960789 0.250000 0.088968
O O15 0.000000 0.000000 0.000000
O O16 0.927801 0.250000 0.493279
O O17 0.000000 0.500000 0.500000
O O18 0.062267 0.467999 0.336273
O O19 0.832759 0.250000 0.739491
#
# Coordination Sequence:
#
# PCOD8074688 Si02
#       7
#     4   4   4   4   4   4   4
#     4  11  22  37  61  91 121 157 203 251 306 364
#     4  11  24  41  62  89 123 163 208 258 310 370
#     4   9  20  37  57  84 118 157 200 247 300 362
#     4  11  25  44  67  95 128 168 211 259 319 379
#     4  11  23  40  64  92 122 158 202 250 304 366
#     4  11  24  40  60  88 121 161 205 252 308 369
#     4  10  20  36  58  84 117 157 200 248 304 360
#
# _framework density 20.282340000000001
#
# number of rings (size 3 to 8) (size 9 to 14) (size 15 to 20)
#    0.000    1.429    1.429    3.429    0.000    9.143 
#    0.000    2.857    0.000    0.000    0.000    0.000 
#    0.000    0.000    0.000    0.000    0.000    0.000 
#
# Total GULP energy -347253.684959 kJ/mol
# GULP energy per Si atom -12401.917320 kJ/mol
# Density = 2.023618 g / cm^3
# Si number density = 20.282340 Si / 1000 Ang^3
#
#
#
# Elastic Constant Matrix: (Units=GPa)
#
#
# Indices 1 2 3 4 5 6 
#
# 1 112.2819 50.0935 46.9910 0.0000 4.0725 0.0000
# 2 50.0935 77.1068 43.7247 0.0000 1.4233 0.0000
# 3 46.9910 43.7247 109.6462 0.0000 2.0721 0.0000
# 4 0.0000 0.0000 0.0000 34.5752 0.0000 -0.8470
# 5 4.0725 1.4233 2.0721 0.0000 28.3638 0.0000
# 6 0.0000 0.0000 0.0000 -0.8470 0.0000 34.5249
#
#
#
# Elastic Compliance Matrix: (Units=1/GPa)
#
#
# Indices 1 2 3 4 5 6 
#
# 1 0.013267 -0.006958 -0.002886 0.000000 -0.001345 0.000000
# 2 -0.006958 0.020411 -0.005164 0.000000 0.000352 0.000000
# 3 -0.002886 -0.005164 0.012421 0.000000 -0.000234 0.000000
# 4 0.000000 0.000000 0.000000 0.028940 0.000000 0.000710
# 5 -0.001345 0.000352 -0.000234 0.000000 0.035449 0.000000
# 6 0.000000 0.000000 0.000000 0.000710 0.000000 0.028982
#
#
# Mechanical properties :
#
#
# Convention : Reuss Voigt Hill
#
# Bulk Modulus (GPa) = 62.17655 64.51701 63.34678
# Shear Modulus (GPa) = 28.59659 30.04119 29.31889
#
# Velocity S-wave (km/s) = 3.75897 3.85275 3.80615
# Velocity P-wave (km/s) = 7.04002 7.18819 7.11449
#
# Compressibility (1/GPa) = 0.01608323
#
# Stress axis : x y z
#
# Youngs Moduli (GPa) = 75.37650 48.99260 80.50983
#
# Poissons Ratio (x) = 0.34088 0.23233
# Poissons Ratio (y) = 0.52445 0.41578
# Poissons Ratio (z) = 0.21751 0.25302
#
# Static dielectric constant tensor:
#      x y z
#    x 3.822180 0.000000 -0.122140 
#    y 0.000000 3.812270 0.000000 
#    z -0.122140 0.000000 3.834110 
# 
# 
# High freq. dielectric constant tensor:
#      x y z
#    x 1.798480 0.000000 0.000390 
#    y 0.000000 1.801450 0.000000 
#    z 0.000390 0.000000 1.792720 
# 
# From -- ./inp_files/65345.got.cif
#   From: 2010.06.25/outbox.cif.g09.slc.cpg/sg11_33_cif.got.tgz:65345.got - 2010.06.27 23:14:04.
