data_PCOD8074306
_publ_section_title
;
Structure prediction by ZEFSAII (Michael W. Deem and Ramdas Pophale) SiO2 
 PCOD8074306
Probable space group: P 21/M
;
_chemical_formula_sum "Si O2"
_cell_formula_units_Z 28
_cell_length_a 9.426955
_cell_length_b 8.926580
_cell_length_c 26.661838
_cell_angle_alpha 90.000000
_cell_angle_beta 138.295846
_cell_angle_gamma 90.000000
_cell_volume 1492.636358
_symmetry_space_group_name_H-M "P 21/M"
_symmetry_group_IT_number 11
_symmetry_cell_setting 'monoclinic'
loop_
_space_group_symop_operation_xyz
x,y,z
-x,1/2+y,-z
-x,-y,-z
x,1/2-y,z
loop_
_atom_site_type_symbol
_atom_site_label
_atom_site_fract_x
_atom_site_fract_y
_atom_site_fract_z
Si Si1 0.356022 0.074604 0.920434
Si Si2 0.860728 0.080692 0.799558
Si Si3 0.925416 0.569855 0.427629
Si Si4 0.712835 0.412641 0.550575
Si Si5 0.343229 0.922905 0.814688
Si Si6 0.538667 0.426843 0.265486
Si Si7 0.066494 0.588138 0.288587
O O1 0.394650 0.250000 0.932176
O O2 0.109850 0.032566 0.867695
O O3 0.432370 0.014980 0.885878
O O4 0.500000 0.000000 0.000000
O O5 0.830289 0.250000 0.811937
O O6 0.789196 0.066190 0.722629
O O7 0.707056 0.969147 0.788899
O O8 0.909756 0.750000 0.427210
O O9 0.699445 0.509001 0.346844
O O10 0.000000 0.500000 0.500000
O O11 0.104730 0.513388 0.435539
O O12 0.500000 0.500000 0.500000
O O13 0.662648 0.250000 0.514142
O O14 0.781025 0.398501 0.625187
O O15 0.396605 0.750000 0.837525
O O16 0.430652 0.979012 0.784045
O O17 0.090375 0.949114 0.745581
O O18 0.574088 0.250000 0.280765
O O19 0.941464 0.750000 0.248976
#
# Coordination Sequence:
#
# PCOD8074306 Si02
#       7
#     4   4   4   4   4   4   4
#     4  10  21  39  64  92 121 152 189 232 282 340
#     4   9  20  36  58  86 115 150 189 233 284 338
#     4  11  24  41  59  81 113 154 196 243 298 350
#     4  10  22  37  55  79 108 144 189 239 292 345
#     4  10  20  35  58  86 114 149 189 232 280 333
#     4  11  23  38  58  86 118 153 196 241 285 342
#     4   9  18  36  56  78 106 143 191 237 285 340
#
# _framework density 18.758756000000002
#
# number of rings (size 3 to 8) (size 9 to 14) (size 15 to 20)
#    0.000    2.000    1.429    2.571    2.000    6.286 
#    0.000    0.714    0.000    0.000    0.000    0.000 
#    0.000    0.000    0.000    0.000    0.000    0.000 
#
# Total GULP energy -346940.977697 kJ/mol
# GULP energy per Si atom -12390.749203 kJ/mol
# Density = 1.871606 g / cm^3
# Si number density = 18.758756 Si / 1000 Ang^3
#
#
#
# Elastic Constant Matrix: (Units=GPa)
#
#
# Indices 1 2 3 4 5 6 
#
# 1 112.1872 46.2094 64.0353 0.0000 -6.8024 0.0000
# 2 46.2094 80.1942 51.9917 0.0000 -7.5687 0.0000
# 3 64.0353 51.9917 106.9515 0.0000 -16.7801 0.0000
# 4 0.0000 0.0000 0.0000 32.6849 0.0000 1.2614
# 5 -6.8024 -7.5687 -16.7801 0.0000 27.7982 0.0000
# 6 0.0000 0.0000 0.0000 1.2614 0.0000 31.1753
#
#
#
# Elastic Compliance Matrix: (Units=1/GPa)
#
#
# Indices 1 2 3 4 5 6 
#
# 1 0.014424 -0.003942 -0.006997 0.000000 -0.001767 0.000000
# 2 -0.003942 0.019290 -0.007008 0.000000 0.000057 0.000000
# 3 -0.006997 -0.007008 0.018092 0.000000 0.007301 0.000000
# 4 0.000000 0.000000 0.000000 0.030643 0.000000 -0.001240
# 5 -0.001767 0.000057 0.007301 0.000000 0.039964 0.000000
# 6 0.000000 0.000000 0.000000 -0.001240 0.000000 0.032127
#
#
# Mechanical properties :
#
#
# Convention : Reuss Voigt Hill
#
# Bulk Modulus (GPa) = 62.84858 69.31174 66.08016
# Shear Modulus (GPa) = 25.54436 27.47145 26.50790
#
# Velocity S-wave (km/s) = 3.69417 3.83098 3.76319
# Velocity P-wave (km/s) = 7.19529 7.52315 7.36104
#
# Compressibility (1/GPa) = 0.01591126
#
# Stress axis : x y z
#
# Youngs Moduli (GPa) = 69.32861 51.84007 55.27342
#
# Poissons Ratio (x) = 0.20434 0.38676
# Poissons Ratio (y) = 0.27327 0.38738
# Poissons Ratio (z) = 0.48511 0.36332
#
# Static dielectric constant tensor:
#      x y z
#    x 3.520080 0.000000 -0.158140 
#    y 0.000000 3.321820 0.000000 
#    z -0.158140 0.000000 3.281080 
# 
# 
# High freq. dielectric constant tensor:
#      x y z
#    x 1.731780 0.000000 -0.014420 
#    y 0.000000 1.732890 0.000000 
#    z -0.014420 0.000000 1.718500 
# 
# From -- ./inp_files/70899.got.cif
#   From: 2010.06.25/outbox.cif.g09.slc.cpg/sg11_36_cif.got.tgz:70899.got - 2010.06.27 23:14:04.
