data_PCOD8074928
_publ_section_title
;
Structure prediction by ZEFSAII (Michael W. Deem and Ramdas Pophale) SiO2 
 PCOD8074928
Probable space group: P 21/M
;
_chemical_formula_sum "Si O2"
_cell_formula_units_Z 32
_cell_length_a 15.457128
_cell_length_b 8.723384
_cell_length_c 11.074250
_cell_angle_alpha 90.000000
_cell_angle_beta 79.833991
_cell_angle_gamma 90.000000
_cell_volume 1469.791796
_symmetry_space_group_name_H-M "P 21/M"
_symmetry_group_IT_number 11
_symmetry_cell_setting 'monoclinic'
loop_
_space_group_symop_operation_xyz
x,y,z
-x,1/2+y,-z
-x,-y,-z
x,1/2-y,z
loop_
_atom_site_type_symbol
_atom_site_label
_atom_site_fract_x
_atom_site_fract_y
_atom_site_fract_z
Si Si1 0.958963 0.070140 0.128926
Si Si2 0.262466 0.425256 0.070180
Si Si3 0.224832 0.076085 0.818760
Si Si4 0.904252 0.571789 0.527655
Si Si5 0.553427 0.569221 0.874189
Si Si6 0.107428 0.571073 0.230500
Si Si7 0.444484 0.432965 0.402033
Si Si8 0.265985 0.071806 0.551425
O O1 0.977916 0.250000 0.128632
O O2 0.856019 0.040297 0.160991
O O3 0.008802 0.985763 0.225995
O O4 0.000000 0.000000 0.000000
O O5 0.236640 0.250000 0.105986
O O6 0.345074 0.477918 0.129506
O O7 0.178114 0.534051 0.109465
O O8 0.285421 0.444327 0.922226
O O9 0.187608 0.250000 0.820402
O O10 0.286187 0.040319 0.687894
O O11 0.918311 0.750000 0.507166
O O12 0.859163 0.527132 0.664807
O O13 0.831918 0.504395 0.451222
O O14 0.000000 0.500000 0.500000
O O15 0.541457 0.750000 0.886601
O O16 0.527772 0.514466 0.742621
O O17 0.500000 0.500000 0.000000
O O18 0.104363 0.750000 0.259396
O O19 0.500000 0.500000 0.500000
O O20 0.449832 0.250000 0.409291
O O21 0.345115 0.495206 0.450794
O O22 0.261020 0.250000 0.521335
#
# Coordination Sequence:
#
# PCOD8074928 Si02
#       8
#     4   4   4   4   4   4   4   4
#     4  12  23  37  56  84 122 164 207 258 316 374
#     4  10  21  38  62  90 121 160 207 257 319 382
#     4  10  20  36  61  91 121 160 209 259 313 378
#     4  11  22  39  62  89 124 165 209 261 319 381
#     4  10  23  42  66  98 131 167 210 263 324 394
#     4  12  24  38  59  86 120 161 209 259 312 374
#     4  10  22  42  67  96 130 168 215 263 319 386
#     4   9  20  39  64  90 122 164 209 257 313 382
#
# _framework density 21.771791
#
# number of rings (size 3 to 8) (size 9 to 14) (size 15 to 20)
#    0.000    1.500    1.250    4.125    1.750    4.000 
#    0.000    3.750    0.000    0.000    0.000    0.000 
#    0.000    0.000    0.000    0.000    0.000    0.000 
#
# Total GULP energy -396540.808493 kJ/mol
# GULP energy per Si atom -12391.900265 kJ/mol
# Density = 2.172224 g / cm^3
# Si number density = 21.771791 Si / 1000 Ang^3
#
#
#
# Elastic Constant Matrix: (Units=GPa)
#
#
# Indices 1 2 3 4 5 6 
#
# 1 105.4586 27.2346 51.3499 0.0000 6.1128 0.0000
# 2 27.2346 50.0373 22.4822 0.0000 4.8404 0.0000
# 3 51.3499 22.4822 151.0247 0.0000 9.3893 0.0000
# 4 0.0000 0.0000 0.0000 31.0480 0.0000 -1.2005
# 5 6.1128 4.8404 9.3893 0.0000 39.1410 0.0000
# 6 0.0000 0.0000 0.0000 -1.2005 0.0000 29.6590
#
#
#
# Elastic Compliance Matrix: (Units=1/GPa)
#
#
# Indices 1 2 3 4 5 6 
#
# 1 0.012544 -0.005227 -0.003457 0.000000 -0.000483 0.000000
# 2 -0.005227 0.023738 -0.001649 0.000000 -0.001724 0.000000
# 3 -0.003457 -0.001649 0.008117 0.000000 -0.001203 0.000000
# 4 0.000000 0.000000 0.000000 0.032259 0.000000 0.001306
# 5 -0.000483 -0.001724 -0.001203 0.000000 0.026126 0.000000
# 6 0.000000 0.000000 0.000000 0.001306 0.000000 0.033769
#
#
# Mechanical properties :
#
#
# Convention : Reuss Voigt Hill
#
# Bulk Modulus (GPa) = 42.13725 56.51711 49.32718
# Shear Modulus (GPa) = 30.27918 33.66652 31.97285
#
# Velocity S-wave (km/s) = 3.73333 3.93661 3.83632
# Velocity P-wave (km/s) = 6.16277 6.83212 6.50606
#
# Compressibility (1/GPa) = 0.02373197
#
# Stress axis : x y z
#
# Youngs Moduli (GPa) = 79.72253 42.12657 123.19710
#
# Poissons Ratio (x) = 0.22021 0.42586
# Poissons Ratio (y) = 0.41674 0.20318
# Poissons Ratio (z) = 0.27558 0.06948
#
# Static dielectric constant tensor:
#      x y z
#    x 4.055850 0.000000 0.208850 
#    y 0.000000 3.720530 0.000000 
#    z 0.208850 0.000000 4.384510 
# 
# 
# High freq. dielectric constant tensor:
#      x y z
#    x 1.848440 0.000000 0.006200 
#    y 0.000000 1.826810 0.000000 
#    z 0.006200 0.000000 1.878980 
# 
# From -- ./inp_files/38220.got.cif
#   From: 2010.06.25/outbox.cif.g09.slc.cpg/sg11_20_cif.got.tgz:38220.got - 2010.06.27 23:14:04.
