data_PCOD8074253
_publ_section_title
;
Structure prediction by ZEFSAII (Michael W. Deem and Ramdas Pophale) SiO2 
 PCOD8074253
Probable space group: P 21/M
;
_chemical_formula_sum "Si O2"
_cell_formula_units_Z 28
_cell_length_a 21.043069
_cell_length_b 8.815171
_cell_length_c 15.526271
_cell_angle_alpha 90.000000
_cell_angle_beta 152.901404
_cell_angle_gamma 90.000000
_cell_volume 1311.950295
_symmetry_space_group_name_H-M "P 21/M"
_symmetry_group_IT_number 11
_symmetry_cell_setting 'monoclinic'
loop_
_space_group_symop_operation_xyz
x,y,z
-x,1/2+y,-z
-x,-y,-z
x,1/2-y,z
loop_
_atom_site_type_symbol
_atom_site_label
_atom_site_fract_x
_atom_site_fract_y
_atom_site_fract_z
Si Si1 0.315938 0.916679 0.345475
Si Si2 0.875495 0.930340 0.581820
Si Si3 0.364703 0.076860 0.058093
Si Si4 0.359708 0.081500 0.236880
Si Si5 0.895410 0.571928 0.803646
Si Si6 0.948521 0.924029 0.351984
Si Si7 0.577916 0.432036 0.176021
O O1 0.247719 0.750000 0.270211
O O2 0.480485 0.906356 0.543864
O O3 0.270395 0.987176 0.198494
O O4 0.259722 0.019424 0.355791
O O5 0.859375 0.750000 0.555097
O O6 0.914022 0.979865 0.726408
O O7 0.733423 0.006085 0.375805
O O8 0.000128 0.987752 0.671032
O O9 0.407383 0.250000 0.128866
O O10 0.352912 0.995458 0.136853
O O11 0.486191 0.007283 0.145919
O O12 0.216631 0.064391 0.833919
O O13 0.292491 0.250000 0.151794
O O14 0.909418 0.750000 0.827483
O O15 0.000000 0.500000 0.000000
O O16 0.998552 0.750000 0.405807
O O17 0.000000 0.000000 0.500000
O O18 0.579629 0.250000 0.171126
O O19 0.500000 0.500000 0.000000
#
# Coordination Sequence:
#
# PCOD8074253 Si02
#       7
#     4   4   4   4   4   4   4
#     4  10  20  35  57  86 120 154 197 248 305 366
#     4  11  25  44  64  93 132 171 217 270 321 385
#     4   9  20  37  60  88 117 153 203 254 305 371
#     4   9  18  35  58  84 115 154 196 247 302 361
#     4  11  25  42  62  87 123 167 215 266 317 377
#     4  11  23  41  65  93 126 167 210 259 321 383
#     4  11  22  40  67  97 129 166 209 263 326 389
#
# _framework density 21.342272999999999
#
# number of rings (size 3 to 8) (size 9 to 14) (size 15 to 20)
#    0.000    1.714    0.000    3.857    2.000    5.143 
#    0.000    4.286    0.000    0.000    0.000    0.000 
#    0.000    0.000    0.000    0.000    0.000    0.000 
#
# Total GULP energy -347078.425316 kJ/mol
# GULP energy per Si atom -12395.658047 kJ/mol
# Density = 2.129370 g / cm^3
# Si number density = 21.342273 Si / 1000 Ang^3
#
#
#
# Elastic Constant Matrix: (Units=GPa)
#
#
# Indices 1 2 3 4 5 6 
#
# 1 122.1582 32.4910 13.6513 0.0000 -19.5394 0.0000
# 2 32.4910 83.0758 27.4815 0.0000 -11.6789 0.0000
# 3 13.6513 27.4815 57.5669 0.0000 -15.0961 0.0000
# 4 0.0000 0.0000 0.0000 28.3495 0.0000 -1.3053
# 5 -19.5394 -11.6789 -15.0961 0.0000 41.4391 0.0000
# 6 0.0000 0.0000 0.0000 -1.3053 0.0000 33.6027
#
#
#
# Elastic Compliance Matrix: (Units=1/GPa)
#
#
# Indices 1 2 3 4 5 6 
#
# 1 0.009636 -0.003341 0.000281 0.000000 0.003704 0.000000
# 2 -0.003341 0.015563 -0.006523 0.000000 0.000434 0.000000
# 3 0.000281 -0.006523 0.022081 0.000000 0.006338 0.000000
# 4 0.000000 0.000000 0.000000 0.035337 0.000000 0.001373
# 5 0.003704 0.000434 0.006338 0.000000 0.028310 0.000000
# 6 0.000000 0.000000 0.000000 0.001373 0.000000 0.029813
#
#
# Mechanical properties :
#
#
# Convention : Reuss Voigt Hill
#
# Bulk Modulus (GPa) = 35.57016 45.56094 40.56555
# Shear Modulus (GPa) = 29.53763 33.29007 31.41385
#
# Velocity S-wave (km/s) = 3.72425 3.95374 3.84071
# Velocity P-wave (km/s) = 5.93263 6.49899 6.22225
#
# Compressibility (1/GPa) = 0.02811345
#
# Stress axis : x y z
#
# Youngs Moduli (GPa) = 103.77998 64.25596 45.28882
#
# Poissons Ratio (x) = 0.21467 -0.01274
# Poissons Ratio (y) = 0.34671 0.29543
# Poissons Ratio (z) = -0.02919 0.41916
#
# Static dielectric constant tensor:
#      x y z
#    x 4.296410 0.000000 -0.095460 
#    y 0.000000 4.002260 0.000000 
#    z -0.095460 0.000000 3.779320 
# 
# 
# High freq. dielectric constant tensor:
#      x y z
#    x 1.857050 0.000000 -0.006260 
#    y 0.000000 1.827140 0.000000 
#    z -0.006260 0.000000 1.837360 
# 
# From -- ./inp_files/54629.got.cif
#   From: 2010.06.25/outbox.cif.g09.slc.cpg/sg11_28_cif.got.tgz:54629.got - 2010.06.27 23:14:04.
