data_PCOD8074838
_publ_section_title
;
Structure prediction by ZEFSAII (Michael W. Deem and Ramdas Pophale) SiO2 
 PCOD8074838
Probable space group: P 21/M
;
_chemical_formula_sum "Si O2"
_cell_formula_units_Z 28
_cell_length_a 20.828081
_cell_length_b 8.994053
_cell_length_c 15.492918
_cell_angle_alpha 90.000000
_cell_angle_beta 29.028595
_cell_angle_gamma 90.000000
_cell_volume 1408.315446
_symmetry_space_group_name_H-M "P 21/M"
_symmetry_group_IT_number 11
_symmetry_cell_setting 'monoclinic'
loop_
_space_group_symop_operation_xyz
x,y,z
-x,1/2+y,-z
-x,-y,-z
x,1/2-y,z
loop_
_atom_site_type_symbol
_atom_site_label
_atom_site_fract_x
_atom_site_fract_y
_atom_site_fract_z
Si Si1 0.893034 0.582873 0.570228
Si Si2 0.599809 0.926793 0.949694
Si Si3 0.525857 0.924931 0.561938
Si Si4 0.050706 0.420148 0.061139
Si Si5 0.791013 0.078347 0.265475
Si Si6 0.362745 0.578818 0.920158
Si Si7 0.925126 0.415786 0.797482
O O1 0.888710 0.750000 0.610547
O O2 0.745876 0.516104 0.750244
O O3 0.000000 0.500000 0.500000
O O4 0.941365 0.575298 0.414895
O O5 0.584206 0.750000 0.963625
O O6 0.500000 0.000000 0.000000
O O7 0.571532 0.981485 0.080886
O O8 0.529591 0.750000 0.541985
O O9 0.416351 0.969133 0.762338
O O10 0.500000 0.000000 0.500000
O O11 0.664301 0.980785 0.438373
O O12 0.090230 0.250000 0.996277
O O13 0.062906 0.455682 0.146715
O O14 0.900075 0.451085 0.210389
O O15 0.151739 0.527494 0.893622
O O16 0.749981 0.250000 0.306597
O O17 0.399716 0.750000 0.894562
O O18 0.204768 0.552621 0.107647
O O19 0.912763 0.250000 0.853305
#
# Coordination Sequence:
#
# PCOD8074838 Si02
#       7
#     4   4   4   4   4   4   4
#     4  10  21  38  62  89 116 152 197 245 298 354
#     4  11  24  41  63  92 125 164 207 253 310 371
#     4  11  23  38  60  89 120 158 203 248 299 362
#     4  10  21  36  57  85 114 150 197 246 297 356
#     4  10  21  38  57  80 116 156 196 244 300 354
#     4  10  22  40  61  86 119 159 201 249 305 362
#     4  10  20  36  60  87 117 151 192 246 305 358
#
# _framework density 19.881910000000001
#
# number of rings (size 3 to 8) (size 9 to 14) (size 15 to 20)
#    0.000    1.714    1.429    2.571    0.000    6.857 
#    0.000    4.286    0.000    0.000    0.000    0.000 
#    0.000    0.000    0.000    0.000    0.000    0.000 
#
# Total GULP energy -347249.120904 kJ/mol
# GULP energy per Si atom -12401.754318 kJ/mol
# Density = 1.983666 g / cm^3
# Si number density = 19.881910 Si / 1000 Ang^3
#
#
#
# Elastic Constant Matrix: (Units=GPa)
#
#
# Indices 1 2 3 4 5 6 
#
# 1 112.8939 51.0916 48.8946 0.0000 5.3919 0.0000
# 2 51.0916 78.8427 42.8531 0.0000 1.0792 0.0000
# 3 48.8946 42.8531 105.8914 0.0000 -6.8806 0.0000
# 4 0.0000 0.0000 0.0000 30.1076 0.0000 0.7443
# 5 5.3919 1.0792 -6.8806 0.0000 29.5500 0.0000
# 6 0.0000 0.0000 0.0000 0.7443 0.0000 39.4008
#
#
#
# Elastic Compliance Matrix: (Units=1/GPa)
#
#
# Indices 1 2 3 4 5 6 
#
# 1 0.013723 -0.006788 -0.003793 0.000000 -0.003139 0.000000
# 2 -0.006788 0.019754 -0.004901 0.000000 -0.000624 0.000000
# 3 -0.003793 -0.004901 0.013438 0.000000 0.004000 0.000000
# 4 0.000000 0.000000 0.000000 0.033230 0.000000 -0.000628
# 5 -0.003139 -0.000624 0.004000 0.000000 0.035368 0.000000
# 6 0.000000 0.000000 0.000000 -0.000628 0.000000 0.025392
#
#
# Mechanical properties :
#
#
# Convention : Reuss Voigt Hill
#
# Bulk Modulus (GPa) = 62.68949 64.81185 63.75067
# Shear Modulus (GPa) = 28.21894 30.13092 29.17493
#
# Velocity S-wave (km/s) = 3.77148 3.89716 3.83484
# Velocity P-wave (km/s) = 7.11089 7.27459 7.19321
#
# Compressibility (1/GPa) = 0.01595164
#
# Stress axis : x y z
#
# Youngs Moduli (GPa) = 72.87234 50.62196 74.41367
#
# Poissons Ratio (x) = 0.34361 0.28228
# Poissons Ratio (y) = 0.49464 0.36468
# Poissons Ratio (z) = 0.27643 0.24808
#
# Static dielectric constant tensor:
#      x y z
#    x 3.466070 0.000000 -0.069010 
#    y 0.000000 3.636660 0.000000 
#    z -0.069010 0.000000 3.897070 
# 
# 
# High freq. dielectric constant tensor:
#      x y z
#    x 1.771480 0.000000 -0.003250 
#    y 0.000000 1.778780 0.000000 
#    z -0.003250 0.000000 1.779670 
# 
# From -- ./inp_files/54490.got.cif
#   From: 2010.06.25/outbox.cif.g09.slc.cpg/sg11_28_cif.got.tgz:54490.got - 2010.06.27 23:14:04.
