data_PCOD8074578
_publ_section_title
;
Structure prediction by ZEFSAII (Michael W. Deem and Ramdas Pophale) SiO2 
 PCOD8074578
Probable space group: P 21/M
;
_chemical_formula_sum "Si O2"
_cell_formula_units_Z 32
_cell_length_a 25.762975
_cell_length_b 8.949014
_cell_length_c 14.828979
_cell_angle_alpha 90.000000
_cell_angle_beta 30.053725
_cell_angle_gamma 90.000000
_cell_volume 1712.210009
_symmetry_space_group_name_H-M "P 21/M"
_symmetry_group_IT_number 11
_symmetry_cell_setting 'monoclinic'
loop_
_space_group_symop_operation_xyz
x,y,z
-x,1/2+y,-z
-x,-y,-z
x,1/2-y,z
loop_
_atom_site_type_symbol
_atom_site_label
_atom_site_fract_x
_atom_site_fract_y
_atom_site_fract_z
Si Si1 0.703258 0.575947 0.355928
Si Si2 0.759800 0.924241 0.743066
Si Si3 0.389498 0.926059 0.168603
Si Si4 0.278438 0.073408 0.999498
Si Si5 0.934632 0.579435 0.341558
Si Si6 0.499528 0.572698 0.402810
Si Si7 0.245343 0.077931 0.519849
Si Si8 0.151471 0.426760 0.022772
O O1 0.677303 0.750000 0.380363
O O2 0.596585 0.484907 0.511533
O O3 0.759157 0.547123 0.367154
O O4 0.781926 0.514952 0.162112
O O5 0.728850 0.750000 0.783207
O O6 0.870659 0.952012 0.529511
O O7 0.672939 0.020149 0.824519
O O8 0.763252 0.981406 0.840901
O O9 0.401267 0.750000 0.148668
O O10 0.333313 0.974227 0.345083
O O11 0.500000 0.000000 0.000000
O O12 0.272921 0.250000 0.002015
O O13 0.396501 0.021563 0.805609
O O14 0.203324 0.005733 0.035416
O O15 0.971691 0.750000 0.282065
O O16 0.865393 0.539062 0.358194
O O17 0.033767 0.475694 0.191040
O O18 0.500000 0.500000 0.500000
O O19 0.493850 0.750000 0.422214
O O20 0.273209 0.250000 0.455781
O O21 0.153256 0.250000 0.021684
#
# Coordination Sequence:
#
# PCOD8074578 Si02
#       8
#     4   4   4   4   4   4   4   4
#     4  10  21  38  58  83 114 149 188 232 282 334
#     4   9  19  38  59  79 110 148 184 230 284 333
#     4  11  22  36  55  81 112 146 187 231 277 332
#     4   9  19  36  57  81 111 148 186 224 278 337
#     4   9  19  36  56  80 111 146 186 233 284 331
#     4  11  21  36  57  82 114 151 188 230 279 334
#     4   9  20  39  59  80 112 149 184 229 286 335
#     4  10  20  36  57  81 111 149 189 229 276 332
#
# _framework density 18.689295999999999
#
# number of rings (size 3 to 8) (size 9 to 14) (size 15 to 20)
#    0.000    2.250    1.250    2.250    1.750    4.000 
#    0.000    1.250    0.000    0.000    0.000    0.000 
#    0.000    0.000    0.000    0.000    0.000    0.000 
#
# Total GULP energy -396838.234869 kJ/mol
# GULP energy per Si atom -12401.194840 kJ/mol
# Density = 1.864676 g / cm^3
# Si number density = 18.689296 Si / 1000 Ang^3
#
#
#
# Elastic Constant Matrix: (Units=GPa)
#
#
# Indices 1 2 3 4 5 6 
#
# 1 144.2503 37.2184 79.7401 0.0000 12.9875 0.0000
# 2 37.2184 63.5048 37.3149 0.0000 -4.5247 0.0000
# 3 79.7401 37.3149 115.3687 0.0000 -10.9285 0.0000
# 4 0.0000 0.0000 0.0000 30.9354 0.0000 -6.8531
# 5 12.9875 -4.5247 -10.9285 0.0000 31.2019 0.0000
# 6 0.0000 0.0000 0.0000 -6.8531 0.0000 26.1289
#
#
#
# Elastic Compliance Matrix: (Units=1/GPa)
#
#
# Indices 1 2 3 4 5 6 
#
# 1 0.013831 -0.003256 -0.009409 0.000000 -0.009525 0.000000
# 2 -0.003256 0.020221 -0.004017 0.000000 0.002881 0.000000
# 3 -0.009409 -0.004017 0.017362 0.000000 0.009415 0.000000
# 4 0.000000 0.000000 0.000000 0.034319 0.000000 0.009001
# 5 -0.009525 0.002881 0.009415 0.000000 0.039729 0.000000
# 6 0.000000 0.000000 0.000000 0.009001 0.000000 0.040633
#
#
# Mechanical properties :
#
#
# Convention : Reuss Voigt Hill
#
# Bulk Modulus (GPa) = 55.40040 70.18565 62.79302
# Shear Modulus (GPa) = 24.33378 28.90993 26.62185
#
# Velocity S-wave (km/s) = 3.61226 3.93729 3.77828
# Velocity P-wave (km/s) = 6.86332 7.63578 7.25983
#
# Compressibility (1/GPa) = 0.01805041
#
# Stress axis : x y z
#
# Youngs Moduli (GPa) = 72.30012 49.45450 57.59673
#
# Poissons Ratio (x) = 0.16103 0.54192
# Poissons Ratio (y) = 0.23542 0.23135
# Poissons Ratio (z) = 0.68027 0.19864
#
# Static dielectric constant tensor:
#      x y z
#    x 3.574150 0.000000 0.091600 
#    y 0.000000 4.214830 0.000000 
#    z 0.091600 0.000000 3.561080 
# 
# 
# High freq. dielectric constant tensor:
#      x y z
#    x 1.735380 0.000000 0.002940 
#    y 0.000000 1.708270 0.000000 
#    z 0.002940 0.000000 1.727610 
# 
# From -- ./inp_files/51642.got.cif
#   From: 2010.06.25/outbox.cif.g09.slc.cpg/sg11_26_cif.got.tgz:51642.got - 2010.06.27 23:14:04.
