data_PCOD8074740
_publ_section_title
;
Structure prediction by ZEFSAII (Michael W. Deem and Ramdas Pophale) SiO2 
 PCOD8074740
Probable space group: P 21/M
;
_chemical_formula_sum "Si O2"
_cell_formula_units_Z 32
_cell_length_a 12.033548
_cell_length_b 8.717730
_cell_length_c 29.012463
_cell_angle_alpha 90.000000
_cell_angle_beta 30.849828
_cell_angle_gamma 90.000000
_cell_volume 1560.705575
_symmetry_space_group_name_H-M "P 21/M"
_symmetry_group_IT_number 11
_symmetry_cell_setting 'monoclinic'
loop_
_space_group_symop_operation_xyz
x,y,z
-x,1/2+y,-z
-x,-y,-z
x,1/2-y,z
loop_
_atom_site_type_symbol
_atom_site_label
_atom_site_fract_x
_atom_site_fract_y
_atom_site_fract_z
Si Si1 0.613287 0.428718 0.833215
Si Si2 0.588826 0.570786 0.421844
Si Si3 0.489765 0.076415 0.303487
Si Si4 0.037741 0.567458 0.221409
Si Si5 0.931645 0.929323 0.157826
Si Si6 0.870552 0.931231 0.003068
Si Si7 0.778339 0.427955 0.675677
Si Si8 0.750140 0.575187 0.521185
O O1 0.579315 0.250000 0.853767
O O2 0.747392 0.497233 0.829077
O O3 0.373911 0.501003 0.912168
O O4 0.759813 0.460369 0.736390
O O5 0.500000 0.500000 0.500000
O O6 0.609969 0.750000 0.421974
O O7 0.420992 0.535679 0.441396
O O8 0.822912 0.501906 0.323448
O O9 0.578659 0.250000 0.268595
O O10 0.288300 0.065001 0.410414
O O11 0.678097 0.964183 0.253815
O O12 0.408585 0.024424 0.282472
O O13 0.027883 0.750000 0.228109
O O14 0.047691 0.518219 0.164140
O O15 0.967261 0.750000 0.135365
O O16 0.018699 0.027910 0.084489
O O17 0.867618 0.750000 0.011246
O O18 0.000000 0.000000 0.000000
O O19 0.742300 0.250000 0.676567
O O20 0.011354 0.485478 0.575586
O O21 0.721138 0.750000 0.513531
#
# Coordination Sequence:
#
# PCOD8074740 Si02
#       8
#     4   4   4   4   4   4   4   4
#     4   9  19  37  60  85 114 150 195 243 294 353
#     4  11  21  35  57  84 116 159 205 252 298 356
#     4  11  22  36  56  85 122 156 197 254 303 353
#     4   9  19  37  60  85 115 154 200 243 294 360
#     4  11  22  39  63  88 117 158 202 246 299 365
#     4  11  23  40  64  93 122 155 195 246 303 361
#     4  10  20  36  59  84 116 159 202 245 300 364
#     4  10  21  36  55  83 118 156 199 249 300 356
#
# _framework density 20.503544999999999
#
# number of rings (size 3 to 8) (size 9 to 14) (size 15 to 20)
#    0.000    1.750    1.250    3.375    0.000    4.500 
#    0.000    0.625    0.000    6.750    0.000    0.000 
#    0.000    0.000    0.000    0.000    0.000    0.000 
#
# Total GULP energy -396809.333526 kJ/mol
# GULP energy per Si atom -12400.291673 kJ/mol
# Density = 2.045688 g / cm^3
# Si number density = 20.503545 Si / 1000 Ang^3
#
#
#
# Elastic Constant Matrix: (Units=GPa)
#
#
# Indices 1 2 3 4 5 6 
#
# 1 168.9433 29.2752 61.1851 0.0000 -9.9780 0.0000
# 2 29.2752 42.6862 19.4110 0.0000 0.2644 0.0000
# 3 61.1851 19.4110 114.0106 0.0000 -3.9818 0.0000
# 4 0.0000 0.0000 0.0000 24.5664 0.0000 -0.9146
# 5 -9.9780 0.2644 -3.9818 0.0000 35.8160 0.0000
# 6 0.0000 0.0000 0.0000 -0.9146 0.0000 26.5629
#
#
#
# Elastic Compliance Matrix: (Units=1/GPa)
#
#
# Indices 1 2 3 4 5 6 
#
# 1 0.007990 -0.003871 -0.003564 0.000000 0.001858 0.000000
# 2 -0.003871 0.027284 -0.002623 0.000000 -0.001571 0.000000
# 3 -0.003564 -0.002623 0.011140 0.000000 0.000265 0.000000
# 4 0.000000 0.000000 0.000000 0.040758 0.000000 0.001403
# 5 0.001858 -0.001571 0.000265 0.000000 0.028479 0.000000
# 6 0.000000 0.000000 0.000000 0.001403 0.000000 0.037695
#
#
# Mechanical properties :
#
#
# Convention : Reuss Voigt Hill
#
# Bulk Modulus (GPa) = 38.02522 60.59809 49.31165
# Shear Modulus (GPa) = 27.43812 31.77366 29.60589
#
# Velocity S-wave (km/s) = 3.66213 3.94085 3.80404
# Velocity P-wave (km/s) = 6.03883 7.09409 6.58763
#
# Compressibility (1/GPa) = 0.02629834
#
# Stress axis : x y z
#
# Youngs Moduli (GPa) = 125.14864 36.65172 89.76888
#
# Poissons Ratio (x) = 0.14187 0.31996
# Poissons Ratio (y) = 0.48442 0.23545
# Poissons Ratio (z) = 0.44606 0.09613
#
# Static dielectric constant tensor:
#      x y z
#    x 3.933070 0.000000 -0.088710 
#    y 0.000000 3.452990 0.000000 
#    z -0.088710 0.000000 3.866850 
# 
# 
# High freq. dielectric constant tensor:
#      x y z
#    x 1.813600 0.000000 0.002300 
#    y 0.000000 1.773010 0.000000 
#    z 0.002300 0.000000 1.807170 
# 
# From -- ./inp_files/38084.got.cif
#   From: 2010.06.25/outbox.cif.g09.slc.cpg/sg11_20_cif.got.tgz:38084.got - 2010.06.27 23:14:04.
