data_PCOD8074143
_publ_section_title
;
Structure prediction by ZEFSAII (Michael W. Deem and Ramdas Pophale) SiO2 
 PCOD8074143
Probable space group: P 21/M
;
_chemical_formula_sum "Si O2"
_cell_formula_units_Z 32
_cell_length_a 21.492179
_cell_length_b 8.992180
_cell_length_c 23.462122
_cell_angle_alpha 90.000000
_cell_angle_beta 20.406275
_cell_angle_gamma 90.000000
_cell_volume 1581.004697
_symmetry_space_group_name_H-M "P 21/M"
_symmetry_group_IT_number 11
_symmetry_cell_setting 'monoclinic'
loop_
_space_group_symop_operation_xyz
x,y,z
-x,1/2+y,-z
-x,-y,-z
x,1/2-y,z
loop_
_atom_site_type_symbol
_atom_site_label
_atom_site_fract_x
_atom_site_fract_y
_atom_site_fract_z
Si Si1 0.347416 0.576597 0.594626
Si Si2 0.647476 0.413933 0.841883
Si Si3 0.002747 0.571322 0.059553
Si Si4 0.717084 0.927884 0.101633
Si Si5 0.858181 0.923765 0.580541
Si Si6 0.656775 0.420154 0.532465
Si Si7 0.072202 0.586784 0.297972
Si Si8 0.945085 0.924952 0.797299
O O1 0.500000 0.500000 0.500000
O O2 0.326140 0.750000 0.629898
O O3 0.404156 0.559817 0.480362
O O4 0.162377 0.491393 0.762489
O O5 0.584078 0.250000 0.879834
O O6 0.675442 0.500097 0.758006
O O7 0.810051 0.410445 0.746370
O O8 0.500000 0.500000 0.000000
O O9 0.995205 0.750000 0.062717
O O10 0.183469 0.516304 0.933886
O O11 0.000000 0.500000 0.000000
O O12 0.735901 0.750000 0.094827
O O13 0.507149 0.977726 0.286561
O O14 0.808246 0.980377 0.963758
O O15 0.856706 0.750000 0.595306
O O16 0.882979 0.954611 0.491026
O O17 0.000000 0.000000 0.500000
O O18 0.687445 0.250000 0.521610
O O19 0.853432 0.496442 0.371993
O O20 0.067955 0.750000 0.272944
O O21 0.132190 0.471217 0.198158
O O22 0.956165 0.750000 0.792953
#
# Coordination Sequence:
#
# PCOD8074143 Si02
#       8
#     4   4   4   4   4   4   4   4
#     4  11  21  37  59  87 121 154 196 246 302 362
#     4  10  20  35  56  84 118 153 191 238 292 345
#     4  12  24  38  58  86 118 154 197 247 305 366
#     4  10  20  39  63  85 116 152 193 247 301 353
#     4   9  17  32  54  78 108 144 185 229 281 335
#     4   9  19  37  60  84 113 149 190 241 295 348
#     4   9  20  37  56  81 115 152 187 234 291 342
#     4  10  20  37  60  85 116 158 200 239 289 353
#
# _framework density 20.240295
#
# number of rings (size 3 to 8) (size 9 to 14) (size 15 to 20)
#    0.000    2.000    1.250    3.750    0.000    4.500 
#    2.250    1.250    0.000    0.000    0.000    0.000 
#    0.000    0.000    0.000    0.000    0.000    0.000 
#
# Total GULP energy -396420.970213 kJ/mol
# GULP energy per Si atom -12388.155319 kJ/mol
# Density = 2.019423 g / cm^3
# Si number density = 20.240295 Si / 1000 Ang^3
#
#
#
# Elastic Constant Matrix: (Units=GPa)
#
#
# Indices 1 2 3 4 5 6 
#
# 1 43.3295 20.1093 22.0445 0.0000 22.8732 0.0000
# 2 20.1093 98.7696 42.3451 0.0000 15.2545 0.0000
# 3 22.0445 42.3451 153.3513 0.0000 24.7000 0.0000
# 4 0.0000 0.0000 0.0000 28.9946 0.0000 3.6278
# 5 22.8732 15.2545 24.7000 0.0000 30.9719 0.0000
# 6 0.0000 0.0000 0.0000 3.6278 0.0000 30.3899
#
#
#
# Elastic Compliance Matrix: (Units=1/GPa)
#
#
# Indices 1 2 3 4 5 6 
#
# 1 0.039102 -0.003698 -0.000278 0.000000 -0.026835 0.000000
# 2 -0.003698 0.012192 -0.002648 0.000000 -0.001163 0.000000
# 3 -0.000278 -0.002648 0.008088 0.000000 -0.004941 0.000000
# 4 0.000000 0.000000 0.000000 0.035012 0.000000 -0.004180
# 5 -0.026835 -0.001163 -0.004941 0.000000 0.056618 0.000000
# 6 0.000000 0.000000 0.000000 -0.004180 0.000000 0.033405
#
#
# Mechanical properties :
#
#
# Convention : Reuss Voigt Hill
#
# Bulk Modulus (GPa) = 21.67504 51.60535 36.64019
# Shear Modulus (GPa) = 23.46953 32.13471 27.80212
#
# Velocity S-wave (km/s) = 3.40890 3.98887 3.71024
# Velocity P-wave (km/s) = 5.12116 6.83860 6.04122
#
# Compressibility (1/GPa) = 0.04613603
#
# Stress axis : x y z
#
# Youngs Moduli (GPa) = 25.57400 82.01999 123.64203
#
# Poissons Ratio (x) = 0.30327 0.03434
# Poissons Ratio (y) = 0.09456 0.32739
# Poissons Ratio (z) = 0.00710 0.21718
#
# Static dielectric constant tensor:
#      x y z
#    x 3.425040 0.000000 0.222090 
#    y 0.000000 3.602200 0.000000 
#    z 0.222090 0.000000 4.119480 
# 
# 
# High freq. dielectric constant tensor:
#      x y z
#    x 1.767570 0.000000 0.016660 
#    y 0.000000 1.778010 0.000000 
#    z 0.016660 0.000000 1.811490 
# 
# From -- ./inp_files/69954.got.cif
#   From: 2010.06.25/outbox.cif.g09.slc.cpg/sg11_35_cif.got.tgz:69954.got - 2010.06.27 23:14:04.
