data_PCOD8074417
_publ_section_title
;
Structure prediction by ZEFSAII (Michael W. Deem and Ramdas Pophale) SiO2 
 PCOD8074417
Probable space group: P 21/M
;
_chemical_formula_sum "Si O2"
_cell_formula_units_Z 28
_cell_length_a 8.301864
_cell_length_b 13.949768
_cell_length_c 11.268724
_cell_angle_alpha 90.000000
_cell_angle_beta 81.145785
_cell_angle_gamma 90.000000
_cell_volume 1289.468827
_symmetry_space_group_name_H-M "P 21/M"
_symmetry_group_IT_number 11
_symmetry_cell_setting 'monoclinic'
loop_
_space_group_symop_operation_xyz
x,y,z
-x,1/2+y,-z
-x,-y,-z
x,1/2-y,z
loop_
_atom_site_type_symbol
_atom_site_label
_atom_site_fract_x
_atom_site_fract_y
_atom_site_fract_z
Si Si1 0.931164 0.644970 0.289705
Si Si2 0.280547 0.639951 0.368859
Si Si3 0.615071 0.137579 0.074581
Si Si4 0.470530 0.549879 0.147273
Si Si5 0.187991 0.140050 0.949862
Si Si6 0.946433 0.361182 0.176405
Si Si7 0.128334 0.969043 0.582667
O O1 0.866441 0.750000 0.333296
O O2 0.934460 0.632175 0.147949
O O3 0.807985 0.567999 0.364438
O O4 0.113948 0.628996 0.315061
O O5 0.331805 0.750000 0.378988
O O6 0.422475 0.583808 0.283582
O O7 0.268045 0.593046 0.502060
O O8 0.563071 0.250000 0.086157
O O9 0.773950 0.118090 0.134605
O O10 0.468991 0.067277 0.139915
O O11 0.646295 0.104147 0.934585
O O12 0.655004 0.577200 0.093321
O O13 0.242121 0.250000 0.963324
O O14 0.090487 0.099898 0.075047
O O15 0.971349 0.250000 0.194724
O O16 0.959605 0.409909 0.302997
O O17 0.000000 0.000000 0.500000
#
# Coordination Sequence:
#
# PCOD8074417 Si02
#       7
#     4   4   4   4   4   4   4
#     4   9  19  36  57  83 116 152 192 239 291 350
#     4  10  20  37  59  83 116 157 198 236 286 357
#     4  10  22  39  58  84 118 154 195 243 299 360
#     4  11  22  36  59  88 119 154 191 240 300 354
#     4  10  20  35  60  92 119 145 186 244 303 353
#     4  10  21  39  62  87 117 153 195 245 299 352
#     4  10  21  36  58  85 112 150 201 242 277 332
#
# _framework density 21.714365000000001
#
# number of rings (size 3 to 8) (size 9 to 14) (size 15 to 20)
#    0.000    2.000    0.000    3.429    0.000    9.714 
#    0.000    3.571    0.000    4.286    0.000    0.000 
#    0.000    0.000    0.000    0.000    0.000    0.000 
#
# Total GULP energy -346999.994442 kJ/mol
# GULP energy per Si atom -12392.856944 kJ/mol
# Density = 2.166494 g / cm^3
# Si number density = 21.714365 Si / 1000 Ang^3
#
#
#
# Elastic Constant Matrix: (Units=GPa)
#
#
# Indices 1 2 3 4 5 6 
#
# 1 49.0555 26.9509 36.1870 0.0000 2.2566 0.0000
# 2 26.9509 151.3318 83.4386 0.0000 -18.9444 0.0000
# 3 36.1870 83.4386 177.5385 0.0000 -19.9055 0.0000
# 4 0.0000 0.0000 0.0000 39.8188 0.0000 2.4510
# 5 2.2566 -18.9444 -19.9055 0.0000 28.7580 0.0000
# 6 0.0000 0.0000 0.0000 2.4510 0.0000 23.6305
#
#
#
# Elastic Compliance Matrix: (Units=1/GPa)
#
#
# Indices 1 2 3 4 5 6 
#
# 1 0.025773 -0.002900 -0.004695 0.000000 -0.007183 0.000000
# 2 -0.002900 0.009530 -0.003424 0.000000 0.004135 0.000000
# 3 -0.004695 -0.003424 0.008659 0.000000 0.004107 0.000000
# 4 0.000000 0.000000 0.000000 0.025275 0.000000 -0.002622
# 5 -0.007183 0.004135 0.004107 0.000000 0.040903 0.000000
# 6 0.000000 0.000000 0.000000 -0.002622 0.000000 0.042590
#
#
# Mechanical properties :
#
#
# Convention : Reuss Voigt Hill
#
# Bulk Modulus (GPa) = 45.61524 74.56430 60.08977
# Shear Modulus (GPa) = 27.46086 33.86476 30.66281
#
# Velocity S-wave (km/s) = 3.56004 3.95341 3.76187
# Velocity P-wave (km/s) = 6.16044 7.43320 6.82655
#
# Compressibility (1/GPa) = 0.02192250
#
# Stress axis : x y z
#
# Youngs Moduli (GPa) = 38.80096 104.93050 115.48268
#
# Poissons Ratio (x) = 0.30432 0.54224
# Poissons Ratio (y) = 0.11253 0.39543
# Poissons Ratio (z) = 0.18219 0.35929
#
# Static dielectric constant tensor:
#      x y z
#    x 3.551820 0.000000 0.186590 
#    y 0.000000 4.519480 0.000000 
#    z 0.186590 0.000000 4.234210 
# 
# 
# High freq. dielectric constant tensor:
#      x y z
#    x 1.820800 0.000000 0.017150 
#    y 0.000000 1.877780 0.000000 
#    z 0.017150 0.000000 1.848100 
# 
# From -- ./inp_files/31666.got.cif
#   From: 2010.06.25/outbox.cif.g09.slc.cpg/sg11_16_cif.got.tgz:31666.got - 2010.06.27 23:14:04.
