data_PCOD8074102
_publ_section_title
;
Structure prediction by ZEFSAII (Michael W. Deem and Ramdas Pophale) SiO2 
 PCOD8074102
Probable space group: P 21/M
;
_chemical_formula_sum "Si O2"
_cell_formula_units_Z 32
_cell_length_a 14.696841
_cell_length_b 8.803632
_cell_length_c 14.974262
_cell_angle_alpha 90.000000
_cell_angle_beta 119.459492
_cell_angle_gamma 90.000000
_cell_volume 1686.947838
_symmetry_space_group_name_H-M "P 21/M"
_symmetry_group_IT_number 11
_symmetry_cell_setting 'monoclinic'
loop_
_space_group_symop_operation_xyz
x,y,z
-x,1/2+y,-z
-x,-y,-z
x,1/2-y,z
loop_
_atom_site_type_symbol
_atom_site_label
_atom_site_fract_x
_atom_site_fract_y
_atom_site_fract_z
Si Si1 0.002762 0.070016 0.272374
Si Si2 0.716842 0.422628 0.735189
Si Si3 0.400191 0.569978 0.999871
Si Si4 0.212706 0.929853 0.424390
Si Si5 0.777086 0.430166 0.219771
Si Si6 0.566565 0.571387 0.796775
Si Si7 0.047989 0.575968 0.108948
Si Si8 0.668445 0.430537 0.344312
O O1 0.009345 0.250000 0.276731
O O2 0.894626 0.009935 0.262926
O O3 0.098190 0.003305 0.375641
O O4 0.005106 0.014233 0.172485
O O5 0.674974 0.250000 0.718890
O O6 0.728856 0.477775 0.638577
O O7 0.635860 0.533397 0.744117
O O8 0.827366 0.435251 0.838175
O O9 0.411931 0.750000 0.004424
O O10 0.297037 0.515800 0.897029
O O11 0.500000 0.500000 0.000000
O O12 0.388050 0.512848 0.094928
O O13 0.196465 0.750000 0.418108
O O14 0.280933 0.991829 0.539684
O O15 0.776010 0.250000 0.223180
O O16 0.733571 0.496280 0.292141
O O17 0.567857 0.750000 0.815768
O O18 0.450031 0.511483 0.720720
O O19 0.011852 0.750000 0.099260
O O20 0.000000 0.500000 0.000000
O O21 0.670663 0.250000 0.345897
#
# Coordination Sequence:
#
# PCOD8074102 Si02
#       8
#     4   4   4   4   4   4   4   4
#     4  10  20  35  56  82 112 146 185 231 279 331
#     4   9  20  37  54  78 112 146 182 229 286 334
#     4  11  21  37  58  81 114 152 187 229 278 333
#     4   9  19  38  61  80 108 150 187 230 284 334
#     4   9  19  35  56  81 112 150 184 220 278 337
#     4  11  22  36  57  85 112 148 192 232 275 334
#     4  10  21  37  56  79 110 148 187 230 281 335
#     4   9  18  36  59  81 109 148 190 226 276 340
#
# _framework density 18.969169000000001
#
# number of rings (size 3 to 8) (size 9 to 14) (size 15 to 20)
#    0.000    2.250    1.250    2.250    1.750    3.500 
#    0.000    3.125    0.000    0.000    0.000    0.000 
#    0.000    0.000    0.000    0.000    0.000    0.000 
#
# Total GULP energy -396850.116538 kJ/mol
# GULP energy per Si atom -12401.566142 kJ/mol
# Density = 1.892599 g / cm^3
# Si number density = 18.969169 Si / 1000 Ang^3
#
#
#
# Elastic Constant Matrix: (Units=GPa)
#
#
# Indices 1 2 3 4 5 6 
#
# 1 143.1603 32.1861 66.3206 0.0000 -2.5368 0.0000
# 2 32.1861 49.7199 30.0366 0.0000 1.3021 0.0000
# 3 66.3206 30.0366 165.9822 0.0000 -2.8852 0.0000
# 4 0.0000 0.0000 0.0000 25.5943 0.0000 0.2023
# 5 -2.5368 1.3021 -2.8852 0.0000 16.8927 0.0000
# 6 0.0000 0.0000 0.0000 0.2023 0.0000 30.9195
#
#
#
# Elastic Compliance Matrix: (Units=1/GPa)
#
#
# Indices 1 2 3 4 5 6 
#
# 1 0.009331 -0.004304 -0.002928 0.000000 0.001233 0.000000
# 2 -0.004304 0.024668 -0.002797 0.000000 -0.003025 0.000000
# 3 -0.002928 -0.002797 0.007720 0.000000 0.001094 0.000000
# 4 0.000000 0.000000 0.000000 0.039073 0.000000 -0.000256
# 5 0.001233 -0.003025 0.001094 0.000000 0.059802 0.000000
# 6 0.000000 0.000000 0.000000 -0.000256 0.000000 0.032344
#
#
# Mechanical properties :
#
#
# Convention : Reuss Voigt Hill
#
# Bulk Modulus (GPa) = 46.16594 68.43877 57.30235
# Shear Modulus (GPa) = 24.97304 30.03591 27.50448
#
# Velocity S-wave (km/s) = 3.63231 3.98352 3.81196
# Velocity P-wave (km/s) = 6.47933 7.57068 7.04617
#
# Compressibility (1/GPa) = 0.02166099
#
# Stress axis : x y z
#
# Youngs Moduli (GPa) = 107.16827 40.53894 129.53607
#
# Poissons Ratio (x) = 0.17447 0.37930
# Poissons Ratio (y) = 0.46124 0.36229
# Poissons Ratio (z) = 0.31380 0.11338
#
# Static dielectric constant tensor:
#      x y z
#    x 3.584560 0.000000 0.001170 
#    y 0.000000 3.275470 0.000000 
#    z 0.001170 0.000000 3.706050 
# 
# 
# High freq. dielectric constant tensor:
#      x y z
#    x 1.742540 0.000000 -0.000440 
#    y 0.000000 1.718270 0.000000 
#    z -0.000440 0.000000 1.745470 
# 
# From -- ./inp_files/51779.got.cif
#   From: 2010.06.25/outbox.cif.g09.slc.cpg/sg11_26_cif.got.tgz:51779.got - 2010.06.27 23:14:04.
