data_PCOD8074599
_publ_section_title
;
Structure prediction by ZEFSAII (Michael W. Deem and Ramdas Pophale) SiO2 
 PCOD8074599
Probable space group: P 21/M
;
_chemical_formula_sum "Si O2"
_cell_formula_units_Z 32
_cell_length_a 16.977860
_cell_length_b 17.102389
_cell_length_c 5.093112
_cell_angle_alpha 90.000000
_cell_angle_beta 98.029875
_cell_angle_gamma 90.000000
_cell_volume 1464.346471
_symmetry_space_group_name_H-M "P 21/M"
_symmetry_group_IT_number 11
_symmetry_cell_setting 'monoclinic'
loop_
_space_group_symop_operation_xyz
x,y,z
-x,1/2+y,-z
-x,-y,-z
x,1/2-y,z
loop_
_atom_site_type_symbol
_atom_site_label
_atom_site_fract_x
_atom_site_fract_y
_atom_site_fract_z
Si Si1 0.819442 0.430952 0.460718
Si Si2 0.672756 0.338292 0.240591
Si Si3 0.496658 0.162577 0.251569
Si Si4 0.006677 0.593565 0.510035
Si Si5 0.792032 0.969400 0.937931
Si Si6 0.534407 0.931556 0.284773
Si Si7 0.083137 0.342174 0.030883
Si Si8 0.372192 0.518364 0.068578
O O1 0.746341 0.370078 0.447284
O O2 0.900162 0.383588 0.438258
O O3 0.832004 0.473792 0.743989
O O4 0.805108 0.496722 0.234242
O O5 0.690516 0.250000 0.152146
O O6 0.590644 0.340060 0.369362
O O7 0.663087 0.393999 0.980050
O O8 0.463769 0.250000 0.235125
O O9 0.444926 0.116155 0.444179
O O10 0.483805 0.128447 0.958137
O O11 0.000000 0.500000 0.500000
O O12 0.965355 0.629936 0.741721
O O13 0.967341 0.633026 0.242042
O O14 0.830500 0.883719 0.936571
O O15 0.696498 0.963531 0.840074
O O16 0.604701 0.988498 0.217417
O O17 0.452024 0.982788 0.288707
O O18 0.098368 0.250000 0.044304
#
# Coordination Sequence:
#
# PCOD8074599 Si02
#       8
#     4   4   4   4   4   4   4   4
#     4  11  22  37  65  87 118 156 203 239 291 372
#     4   9  20  37  57  87 120 151 190 244 307 360
#     4  10  20  36  57  82 118 155 189 241 303 352
#     4  12  22  42  67  93 122 166 209 245 307 369
#     4  11  21  40  61  88 116 161 202 242 297 360
#     4  10  20  36  58  88 116 150 204 243 289 352
#     4  12  25  41  63  93 126 161 206 260 305 353
#     4   9  21  36  61  86 117 158 199 246 290 359
#
# _framework density 21.852751999999999
#
# number of rings (size 3 to 8) (size 9 to 14) (size 15 to 20)
#    0.000    1.500    2.500    2.625    0.000    8.000 
#    0.000    6.250    0.000    0.750    0.000    0.000 
#    0.000    0.000    0.000    0.000    0.000    0.000 
#
# Total GULP energy -396772.275398 kJ/mol
# GULP energy per Si atom -12399.133606 kJ/mol
# Density = 2.180301 g / cm^3
# Si number density = 21.852752 Si / 1000 Ang^3
#
#
#
# Elastic Constant Matrix: (Units=GPa)
#
#
# Indices 1 2 3 4 5 6 
#
# 1 103.1831 46.7350 18.1260 0.0000 -5.1125 0.0000
# 2 46.7350 164.1830 32.9052 0.0000 -3.9523 0.0000
# 3 18.1260 32.9052 86.1697 0.0000 -11.6590 0.0000
# 4 0.0000 0.0000 0.0000 26.1098 0.0000 -0.3658
# 5 -5.1125 -3.9523 -11.6590 0.0000 29.8915 0.0000
# 6 0.0000 0.0000 0.0000 -0.3658 0.0000 35.1277
#
#
#
# Elastic Compliance Matrix: (Units=1/GPa)
#
#
# Indices 1 2 3 4 5 6 
#
# 1 0.011282 -0.002966 -0.001090 0.000000 0.001112 0.000000
# 2 -0.002966 0.007376 -0.002248 0.000000 -0.000409 0.000000
# 3 -0.001090 -0.002248 0.013331 0.000000 0.004716 0.000000
# 4 0.000000 0.000000 0.000000 0.038305 0.000000 0.000399
# 5 0.001112 -0.000409 0.004716 0.000000 0.035430 0.000000
# 6 0.000000 0.000000 0.000000 0.000399 0.000000 0.028472
#
#
# Mechanical properties :
#
#
# Convention : Reuss Voigt Hill
#
# Bulk Modulus (GPa) = 51.59940 61.00758 56.30349
# Shear Modulus (GPa) = 32.62366 35.27712 33.95039
#
# Velocity S-wave (km/s) = 3.86798 4.02221 3.94585
# Velocity P-wave (km/s) = 6.60393 7.03911 6.82499
#
# Compressibility (1/GPa) = 0.01938007
#
# Stress axis : x y z
#
# Youngs Moduli (GPa) = 88.64053 135.57946 75.01441
#
# Poissons Ratio (x) = 0.40214 0.08176
# Poissons Ratio (y) = 0.26292 0.16863
# Poissons Ratio (z) = 0.09662 0.30477
#
# Static dielectric constant tensor:
#      x y z
#    x 4.254560 0.000000 -0.063640 
#    y 0.000000 4.074320 0.000000 
#    z -0.063640 0.000000 3.805030 
# 
# 
# High freq. dielectric constant tensor:
#      x y z
#    x 1.856940 0.000000 -0.005350 
#    y 0.000000 1.853260 0.000000 
#    z -0.005350 0.000000 1.861940 
# 
# From -- ./inp_files/8097.got.cif
#   From: 2010.06.25/outbox.cif.g09.slc.cpg/sg11_5_cif.got.tgz:8097.got - 2010.06.27 23:14:04.
