data_PCOD8074747
_publ_section_title
;
Structure prediction by ZEFSAII (Michael W. Deem and Ramdas Pophale) SiO2 
 PCOD8074747
Probable space group: P 21/M
;
_chemical_formula_sum "Si O2"
_cell_formula_units_Z 24
_cell_length_a 18.859501
_cell_length_b 9.231601
_cell_length_c 14.973556
_cell_angle_alpha 90.000000
_cell_angle_beta 29.173659
_cell_angle_gamma 90.000000
_cell_volume 1270.777853
_symmetry_space_group_name_H-M "P 21/M"
_symmetry_group_IT_number 11
_symmetry_cell_setting 'monoclinic'
loop_
_space_group_symop_operation_xyz
x,y,z
-x,1/2+y,-z
-x,-y,-z
x,1/2-y,z
loop_
_atom_site_type_symbol
_atom_site_label
_atom_site_fract_x
_atom_site_fract_y
_atom_site_fract_z
Si Si1 0.091261 0.089647 0.966932
Si Si2 0.562645 0.919948 0.017030
Si Si3 0.972314 0.079084 0.279446
Si Si4 0.351433 0.578928 0.411198
Si Si5 0.401708 0.413991 0.540329
Si Si6 0.895696 0.921990 0.683054
O O1 0.023323 0.250000 0.042804
O O2 0.254160 0.091067 0.756911
O O3 0.071029 0.024050 0.088277
O O4 0.000000 0.000000 0.000000
O O5 0.550795 0.750000 0.011533
O O6 0.469618 0.962596 0.206520
O O7 0.728748 0.968257 0.851072
O O8 0.500000 0.000000 0.000000
O O9 0.972562 0.250000 0.288104
O O10 0.805983 0.025204 0.450848
O O11 0.050230 0.016296 0.281222
O O12 0.352491 0.750000 0.430752
O O13 0.390418 0.495190 0.458704
O O14 0.500000 0.500000 0.500000
O O15 0.458168 0.250000 0.461360
O O16 0.913483 0.750000 0.654838
O O17 0.000000 0.000000 0.500000
#
# Coordination Sequence:
#
# PCOD8074747 Si02
#       6
#     4   4   4   4   4   4
#     4  10  20  36  59  85 113 150 191 235 280 334
#     4  10  22  38  61  88 117 153 191 236 287 343
#     4   9  18  34  58  83 111 147 187 230 281 340
#     4  10  20  37  60  84 114 154 193 234 289 346
#     4  11  24  38  57  85 119 156 194 239 284 337
#     4  10  21  38  60  86 114 147 189 235 285 340
#
# _framework density 18.886071000000001
#
# number of rings (size 3 to 8) (size 9 to 14) (size 15 to 20)
#    0.000    2.000    1.667    1.500    2.333    3.333 
#    0.000    1.667    0.000    0.000    0.000    0.000 
#    0.000    0.000    0.000    0.000    0.000    0.000 
#
# Total GULP energy -297529.318502 kJ/mol
# GULP energy per Si atom -12397.054938 kJ/mol
# Density = 1.884309 g / cm^3
# Si number density = 18.886071 Si / 1000 Ang^3
#
#
#
# Elastic Constant Matrix: (Units=GPa)
#
#
# Indices 1 2 3 4 5 6 
#
# 1 208.1076 65.8512 87.4909 0.0000 6.4103 0.0000
# 2 65.8512 64.5975 46.8490 0.0000 0.4730 0.0000
# 3 87.4909 46.8490 138.0862 0.0000 15.9967 0.0000
# 4 0.0000 0.0000 0.0000 26.9827 0.0000 3.0061
# 5 6.4103 0.4730 15.9967 0.0000 37.8599 0.0000
# 6 0.0000 0.0000 0.0000 3.0061 0.0000 36.1938
#
#
#
# Elastic Compliance Matrix: (Units=1/GPa)
#
#
# Indices 1 2 3 4 5 6 
#
# 1 0.007948 -0.005901 -0.003035 0.000000 0.000010 0.000000
# 2 -0.005901 0.025206 -0.005144 0.000000 0.002858 0.000000
# 3 -0.003035 -0.005144 0.011401 0.000000 -0.004239 0.000000
# 4 0.000000 0.000000 0.000000 0.037407 0.000000 -0.003107
# 5 0.000010 0.002858 -0.004239 0.000000 0.028167 0.000000
# 6 0.000000 0.000000 0.000000 -0.003107 0.000000 0.027887
#
#
# Mechanical properties :
#
#
# Convention : Reuss Voigt Hill
#
# Bulk Modulus (GPa) = 60.99397 90.13039 75.56218
# Shear Modulus (GPa) = 29.13061 34.24731 31.68896
#
# Velocity S-wave (km/s) = 3.93165 4.26298 4.10066
# Velocity P-wave (km/s) = 7.27849 8.48867 7.90676
#
# Compressibility (1/GPa) = 0.01639506
#
# Stress axis : x y z
#
# Youngs Moduli (GPa) = 125.81465 39.67327 87.71217
#
# Poissons Ratio (x) = 0.23413 0.26620
# Poissons Ratio (y) = 0.74249 0.45115
# Poissons Ratio (z) = 0.38184 0.20406
#
# Static dielectric constant tensor:
#      x y z
#    x 3.681130 0.000000 0.011420 
#    y 0.000000 3.502140 0.000000 
#    z 0.011420 0.000000 3.634110 
# 
# 
# High freq. dielectric constant tensor:
#      x y z
#    x 1.749230 0.000000 0.004880 
#    y 0.000000 1.713150 0.000000 
#    z 0.004880 0.000000 1.749230 
# 
# From -- ./inp_files/28946.got.cif
#   From: 2010.06.25/outbox.cif.g09.slc.cpg/sg11_15_cif.got.tgz:28946.got - 2010.06.27 23:14:04.
