data_PCOD8074753
_publ_section_title
;
Structure prediction by ZEFSAII (Michael W. Deem and Ramdas Pophale) SiO2 
 PCOD8074753
Probable space group: P 21/M
;
_chemical_formula_sum "Si O2"
_cell_formula_units_Z 28
_cell_length_a 10.605558
_cell_length_b 22.369150
_cell_length_c 10.734265
_cell_angle_alpha 90.000000
_cell_angle_beta 33.953521
_cell_angle_gamma 90.000000
_cell_volume 1422.309787
_symmetry_space_group_name_H-M "P 21/M"
_symmetry_group_IT_number 11
_symmetry_cell_setting 'monoclinic'
loop_
_space_group_symop_operation_xyz
x,y,z
-x,1/2+y,-z
-x,-y,-z
x,1/2-y,z
loop_
_atom_site_type_symbol
_atom_site_label
_atom_site_fract_x
_atom_site_fract_y
_atom_site_fract_z
Si Si1 0.169325 0.879764 0.009038
Si Si2 0.480626 0.920967 0.372842
Si Si3 0.764948 0.025304 0.232487
Si Si4 0.652102 0.474017 0.763467
Si Si5 0.060690 0.418414 0.560809
Si Si6 0.733862 0.682057 0.285868
Si Si7 0.387595 0.317344 0.328135
O O1 0.309293 0.926690 0.811527
O O2 0.358615 0.837482 0.917775
O O3 0.028140 0.916994 0.225934
O O4 0.992167 0.841394 0.072246
O O5 0.233744 0.937469 0.635747
O O6 0.498537 0.936417 0.211652
O O7 0.573656 0.854497 0.321237
O O8 0.618277 0.965114 0.351355
O O9 0.000000 0.000000 0.000000
O O10 0.762715 0.528116 0.597660
O O11 0.844776 0.427999 0.649582
O O12 0.500000 0.500000 0.000000
O O13 0.194498 0.357160 0.418958
O O14 0.734196 0.750000 0.237275
O O15 0.632137 0.677898 0.507097
O O16 0.349418 0.250000 0.312188
#
# Coordination Sequence:
#
# PCOD8074753 Si02
#       7
#     4   4   4   4   4   4   4
#     4  11  19  36  60  87 117 152 188 242 299 353
#     4  11  22  35  56  87 120 151 190 239 301 355
#     4  11  20  32  55  90 118 147 185 241 300 357
#     4  11  23  40  59  84 117 159 197 246 299 348
#     4  10  22  38  58  85 115 149 202 243 287 348
#     4  10  21  36  54  86 122 153 192 233 287 366
#     4  10  20  36  59  85 116 152 192 242 293 347
#
# _framework density 19.686287
#
# number of rings (size 3 to 8) (size 9 to 14) (size 15 to 20)
#    0.000    1.429    2.857    3.857    4.000    1.714 
#    0.000    0.714    0.000    0.857    0.000    0.000 
#    0.000    0.000    0.000    0.000    0.000    0.000 
#
# Total GULP energy -346993.792159 kJ/mol
# GULP energy per Si atom -12392.635434 kJ/mol
# Density = 1.964148 g / cm^3
# Si number density = 19.686287 Si / 1000 Ang^3
#
#
#
# Elastic Constant Matrix: (Units=GPa)
#
#
# Indices 1 2 3 4 5 6 
#
# 1 79.9466 54.8385 27.6996 0.0000 0.5016 0.0000
# 2 54.8385 148.4201 43.5916 0.0000 -3.6940 0.0000
# 3 27.6996 43.5916 94.4728 0.0000 -0.4940 0.0000
# 4 0.0000 0.0000 0.0000 25.5695 0.0000 -4.9640
# 5 0.5016 -3.6940 -0.4940 0.0000 26.8746 0.0000
# 6 0.0000 0.0000 0.0000 -4.9640 0.0000 36.7048
#
#
#
# Elastic Compliance Matrix: (Units=1/GPa)
#
#
# Indices 1 2 3 4 5 6 
#
# 1 0.017265 -0.005690 -0.002443 0.000000 -0.001149 0.000000
# 2 -0.005690 0.009697 -0.002799 0.000000 0.001388 0.000000
# 3 -0.002443 -0.002799 0.012592 0.000000 -0.000108 0.000000
# 4 0.000000 0.000000 0.000000 0.040164 0.000000 0.005432
# 5 -0.001149 0.001388 -0.000108 0.000000 0.037420 0.000000
# 6 0.000000 0.000000 0.000000 0.005432 0.000000 0.027979
#
#
# Mechanical properties :
#
#
# Convention : Reuss Voigt Hill
#
# Bulk Modulus (GPa) = 56.52655 63.89990 60.21323
# Shear Modulus (GPa) = 28.92247 30.94376 29.93311
#
# Velocity S-wave (km/s) = 3.83713 3.96895 3.90360
# Velocity P-wave (km/s) = 6.95755 7.31662 7.13934
#
# Compressibility (1/GPa) = 0.01769080
#
# Stress axis : x y z
#
# Youngs Moduli (GPa) = 57.92042 103.12906 79.41592
#
# Poissons Ratio (x) = 0.58684 0.19398
# Poissons Ratio (y) = 0.32959 0.22225
# Poissons Ratio (z) = 0.14147 0.28861
#
# Static dielectric constant tensor:
#      x y z
#    x 3.279100 0.000000 -0.269200 
#    y 0.000000 3.737420 0.000000 
#    z -0.269200 0.000000 3.112540 
# 
# 
# High freq. dielectric constant tensor:
#      x y z
#    x 1.729110 0.000000 -0.011130 
#    y 0.000000 1.766600 0.000000 
#    z -0.011130 0.000000 1.782210 
# 
# From -- ./inp_files/36399.got.cif
#   From: 2010.06.25/outbox.cif.g09.slc.cpg/sg11_19_cif.got.tgz:36399.got - 2010.06.27 23:14:04.
