data_PCOD8074230
_publ_section_title
;
Structure prediction by ZEFSAII (Michael W. Deem and Ramdas Pophale) SiO2 
 PCOD8074230
Probable space group: P 21/M
;
_chemical_formula_sum "Si O2"
_cell_formula_units_Z 28
_cell_length_a 15.498721
_cell_length_b 9.013914
_cell_length_c 20.934798
_cell_angle_alpha 90.000000
_cell_angle_beta 151.281299
_cell_angle_gamma 90.000000
_cell_volume 1405.336303
_symmetry_space_group_name_H-M "P 21/M"
_symmetry_group_IT_number 11
_symmetry_cell_setting 'monoclinic'
loop_
_space_group_symop_operation_xyz
x,y,z
-x,1/2+y,-z
-x,-y,-z
x,1/2-y,z
loop_
_atom_site_type_symbol
_atom_site_label
_atom_site_fract_x
_atom_site_fract_y
_atom_site_fract_z
Si Si1 0.429199 0.917827 0.549913
Si Si2 0.051142 0.075231 0.599117
Si Si3 0.257683 0.916641 0.309278
Si Si4 0.274126 0.418751 0.563373
Si Si5 0.919184 0.921136 0.009687
Si Si6 0.441064 0.425046 0.896384
Si Si7 0.407752 0.919474 0.138019
O O1 0.439512 0.750000 0.582986
O O2 0.272388 0.933374 0.395221
O O3 0.620917 0.958943 0.644686
O O4 0.397770 0.034504 0.585034
O O5 0.051339 0.250000 0.589150
O O6 0.241508 0.019270 0.749345
O O7 0.000000 0.000000 0.500000
O O8 0.898107 0.025971 0.549537
O O9 0.319878 0.750000 0.329438
O O10 0.053106 0.943922 0.156128
O O11 0.209589 0.250000 0.513064
O O12 0.390943 0.435652 0.703543
O O13 0.892291 0.750000 0.974465
O O14 0.728270 0.983231 0.908649
O O15 0.000000 0.000000 0.000000
O O16 0.441887 0.250000 0.907218
O O17 0.576678 0.468709 0.926291
O O18 0.500000 0.500000 0.000000
O O19 0.342120 0.750000 0.100773
#
# Coordination Sequence:
#
# PCOD8074230 Si02
#       7
#     4   4   4   4   4   4   4
#     4  10  20  35  57  85 113 147 195 244 292 353
#     4  11  22  40  64  90 121 155 198 248 299 356
#     4   9  20  38  55  76 115 155 189 238 298 352
#     4  11  22  38  60  87 119 154 196 244 301 356
#     4  11  23  38  58  85 116 155 198 241 295 356
#     4  10  23  43  64  91 126 164 204 253 310 366
#     4  10  22  41  60  83 120 158 196 248 301 356
#
# _framework density 19.924057000000001
#
# number of rings (size 3 to 8) (size 9 to 14) (size 15 to 20)
#    0.000    1.714    1.429    2.571    0.000    9.143 
#    0.000    4.286    0.000    0.000    0.000    0.000 
#    0.000    0.000    0.000    0.000    0.000    0.000 
#
# Total GULP energy -347231.289299 kJ/mol
# GULP energy per Si atom -12401.117475 kJ/mol
# Density = 1.987871 g / cm^3
# Si number density = 19.924057 Si / 1000 Ang^3
#
#
#
# Elastic Constant Matrix: (Units=GPa)
#
#
# Indices 1 2 3 4 5 6 
#
# 1 106.7632 45.9073 37.2767 0.0000 -4.1571 0.0000
# 2 45.9073 94.0031 48.7985 0.0000 -0.9740 0.0000
# 3 37.2767 48.7985 100.3471 0.0000 -1.5245 0.0000
# 4 0.0000 0.0000 0.0000 31.3581 0.0000 1.1554
# 5 -4.1571 -0.9740 -1.5245 0.0000 30.5504 0.0000
# 6 0.0000 0.0000 0.0000 1.1554 0.0000 38.8099
#
#
#
# Elastic Compliance Matrix: (Units=1/GPa)
#
#
# Indices 1 2 3 4 5 6 
#
# 1 0.012265 -0.004844 -0.002179 0.000000 0.001406 0.000000
# 2 -0.004844 0.016144 -0.006058 0.000000 -0.000447 0.000000
# 3 -0.002179 -0.006058 0.013724 0.000000 0.000195 0.000000
# 4 0.000000 0.000000 0.000000 0.031925 0.000000 -0.000950
# 5 0.001406 -0.000447 0.000195 0.000000 0.032920 0.000000
# 6 0.000000 0.000000 0.000000 -0.000950 0.000000 0.025795
#
#
# Mechanical properties :
#
#
# Convention : Reuss Voigt Hill
#
# Bulk Modulus (GPa) = 62.61625 62.78648 62.70137
# Shear Modulus (GPa) = 30.44001 31.41906 30.92954
#
# Velocity S-wave (km/s) = 3.91295 3.97538 3.94429
# Velocity P-wave (km/s) = 7.20490 7.25623 7.23061
#
# Compressibility (1/GPa) = 0.01597030
#
# Stress axis : x y z
#
# Youngs Moduli (GPa) = 81.53293 61.94377 72.86555
#
# Poissons Ratio (x) = 0.30005 0.15879
# Poissons Ratio (y) = 0.39494 0.44142
# Poissons Ratio (z) = 0.17768 0.37526
#
# Static dielectric constant tensor:
#      x y z
#    x 3.640000 0.000000 -0.029180 
#    y 0.000000 3.677160 0.000000 
#    z -0.029180 0.000000 3.771490 
# 
# 
# High freq. dielectric constant tensor:
#      x y z
#    x 1.777890 0.000000 -0.004290 
#    y 0.000000 1.780760 0.000000 
#    z -0.004290 0.000000 1.777630 
# 
# From -- ./inp_files/54486.got.cif
#   From: 2010.06.25/outbox.cif.g09.slc.cpg/sg11_28_cif.got.tgz:54486.got - 2010.06.27 23:14:04.
