data_PCOD8074897
_publ_section_title
;
Structure prediction by ZEFSAII (Michael W. Deem and Ramdas Pophale) SiO2 
 PCOD8074897
Probable space group: P 21/M
;
_chemical_formula_sum "Si O2"
_cell_formula_units_Z 28
_cell_length_a 21.005811
_cell_length_b 14.478944
_cell_length_c 9.500489
_cell_angle_alpha 90.000000
_cell_angle_beta 30.157561
_cell_angle_gamma 90.000000
_cell_volume 1451.624642
_symmetry_space_group_name_H-M "P 21/M"
_symmetry_group_IT_number 11
_symmetry_cell_setting 'monoclinic'
loop_
_space_group_symop_operation_xyz
x,y,z
-x,1/2+y,-z
-x,-y,-z
x,1/2-y,z
loop_
_atom_site_type_symbol
_atom_site_label
_atom_site_fract_x
_atom_site_fract_y
_atom_site_fract_z
Si Si1 0.277394 0.352748 0.422744
Si Si2 0.580271 0.497844 0.702400
Si Si3 0.995341 0.109167 0.009236
Si Si4 0.169302 0.850018 0.431344
Si Si5 0.137233 0.952587 0.230745
Si Si6 0.776218 0.355914 0.217497
Si Si7 0.674531 0.515006 0.914540
O O1 0.335102 0.250000 0.324655
O O2 0.326550 0.414186 0.461273
O O3 0.313338 0.392185 0.200192
O O4 0.127166 0.346338 0.716644
O O5 0.659150 0.404404 0.522085
O O6 0.475770 0.506325 0.775915
O O7 0.500000 0.500000 0.000000
O O8 0.958873 0.142680 0.234323
O O9 0.894016 0.149578 0.095459
O O10 0.000000 0.000000 0.000000
O O11 0.233836 0.750000 0.327669
O O12 0.129448 0.862188 0.344303
O O13 0.267789 0.930106 0.289798
O O14 0.181999 0.920558 0.992528
O O15 0.000000 0.000000 0.500000
O O16 0.246493 0.020896 0.089455
O O17 0.739479 0.250000 0.244912
#
# Coordination Sequence:
#
# PCOD8074897 Si02
#       7
#     4   4   4   4   4   4   4
#     4  11  21  35  59  90 122 158 207 262 316 373
#     4  10  22  39  60  90 124 164 210 258 314 363
#     4  12  19  36  59  88 121 152 200 260 317 365
#     4  10  20  36  61  87 118 158 203 253 312 375
#     4  10  22  40  64  91 129 162 200 257 315 369
#     4  12  24  39  66  96 126 168 214 255 310 384
#     4   9  21  39  60  84 123 164 202 253 309 366
#
# _framework density 19.288734000000002
#
# number of rings (size 3 to 8) (size 9 to 14) (size 15 to 20)
#    0.857    0.571    2.857    4.286    0.000    3.429 
#    0.000    0.714    0.000    0.857    0.000    0.000 
#    0.000    0.000    0.000    0.000    0.000    0.000 
#
# Total GULP energy -346884.460399 kJ/mol
# GULP energy per Si atom -12388.730729 kJ/mol
# Density = 1.924483 g / cm^3
# Si number density = 19.288734 Si / 1000 Ang^3
#
#
#
# Elastic Constant Matrix: (Units=GPa)
#
#
# Indices 1 2 3 4 5 6 
#
# 1 81.2306 20.2477 44.1422 0.0000 -19.3937 0.0000
# 2 20.2477 134.7054 32.4693 0.0000 -9.3114 0.0000
# 3 44.1422 32.4693 99.3446 0.0000 -8.9908 0.0000
# 4 0.0000 0.0000 0.0000 11.0776 0.0000 6.8987
# 5 -19.3937 -9.3114 -8.9908 0.0000 42.2011 0.0000
# 6 0.0000 0.0000 0.0000 6.8987 0.0000 21.4934
#
#
#
# Elastic Compliance Matrix: (Units=1/GPa)
#
#
# Indices 1 2 3 4 5 6 
#
# 1 0.017924 -0.000502 -0.007204 0.000000 0.006592 0.000000
# 2 -0.000502 0.008137 -0.002340 0.000000 0.001066 0.000000
# 3 -0.007204 -0.002340 0.013954 0.000000 -0.000854 0.000000
# 4 0.000000 0.000000 0.000000 0.112824 0.000000 -0.036213
# 5 0.006592 0.001066 -0.000854 0.000000 0.026779 0.000000
# 6 0.000000 0.000000 0.000000 -0.036213 0.000000 0.058149
#
#
# Mechanical properties :
#
#
# Convention : Reuss Voigt Hill
#
# Bulk Modulus (GPa) = 50.19080 56.55544 53.37312
# Shear Modulus (GPa) = 18.90362 29.51584 24.20973
#
# Velocity S-wave (km/s) = 3.13395 3.91604 3.54661
# Velocity P-wave (km/s) = 6.25881 7.05912 6.67098
#
# Compressibility (1/GPa) = 0.01992397
#
# Stress axis : x y z
#
# Youngs Moduli (GPa) = 55.79075 122.89914 71.66285
#
# Poissons Ratio (x) = 0.06172 0.51623
# Poissons Ratio (y) = 0.02802 0.16767
# Poissons Ratio (z) = 0.40190 0.28755
#
# Static dielectric constant tensor:
#      x y z
#    x 3.656780 0.000000 -0.230210 
#    y 0.000000 3.624980 0.000000 
#    z -0.230210 0.000000 3.594810 
# 
# 
# High freq. dielectric constant tensor:
#      x y z
#    x 1.741010 0.000000 -0.012300 
#    y 0.000000 1.747500 0.000000 
#    z -0.012300 0.000000 1.746150 
# 
# From -- ./inp_files/26907.got.cif
#   From: 2010.06.25/outbox.cif.g09.slc.cpg/sg11_14_cif.got.tgz:26907.got - 2010.06.27 23:14:04.
