data_PCOD8074569
_publ_section_title
;
Structure prediction by ZEFSAII (Michael W. Deem and Ramdas Pophale) SiO2 
 PCOD8074569
Probable space group: P 21/M
;
_chemical_formula_sum "Si O2"
_cell_formula_units_Z 32
_cell_length_a 14.062007
_cell_length_b 8.835698
_cell_length_c 13.066451
_cell_angle_alpha 90.000000
_cell_angle_beta 85.349060
_cell_angle_gamma 90.000000
_cell_volume 1618.129983
_symmetry_space_group_name_H-M "P 21/M"
_symmetry_group_IT_number 11
_symmetry_cell_setting 'monoclinic'
loop_
_space_group_symop_operation_xyz
x,y,z
-x,1/2+y,-z
-x,-y,-z
x,1/2-y,z
loop_
_atom_site_type_symbol
_atom_site_label
_atom_site_fract_x
_atom_site_fract_y
_atom_site_fract_z
Si Si1 0.899062 0.068373 0.472761
Si Si2 0.825735 0.424699 0.259399
Si Si3 0.627810 0.072879 0.182262
Si Si4 0.567253 0.068072 0.773652
Si Si5 0.258347 0.582236 0.362957
Si Si6 0.666925 0.928104 0.959748
Si Si7 0.832560 0.083879 0.847515
Si Si8 0.967197 0.577273 0.104887
O O1 0.905620 0.250000 0.481900
O O2 0.870030 0.013473 0.361569
O O3 0.810996 0.000778 0.548977
O O4 0.000000 0.000000 0.500000
O O5 0.850062 0.250000 0.248878
O O6 0.712823 0.454646 0.256516
O O7 0.873041 0.504911 0.158889
O O8 0.612066 0.250000 0.162964
O O9 0.535608 0.999356 0.243968
O O10 0.644794 0.990805 0.073399
O O11 0.567259 0.250000 0.777423
O O12 0.638712 0.009026 0.676038
O O13 0.599692 0.008982 0.882203
O O14 0.277752 0.750000 0.404130
O O15 0.201315 0.584772 0.263857
O O16 0.647607 0.750000 0.959318
O O17 0.777520 0.962138 0.922609
O O18 0.815917 0.250000 0.899645
O O19 0.944498 0.050452 0.826384
O O20 0.943271 0.750000 0.085087
O O21 0.000000 0.500000 0.000000
#
# Coordination Sequence:
#
# PCOD8074569 Si02
#       8
#     4   4   4   4   4   4   4   4
#     4  10  20  38  62  87 112 143 181 225 277 332
#     4  10  23  39  56  80 113 149 187 229 278 333
#     4  11  22  37  53  74 109 150 186 227 275 326
#     4  10  20  36  57  81 108 143 184 227 273 327
#     4   8  16  33  57  79 103 135 174 217 268 323
#     4  11  21  33  53  82 111 144 184 227 271 324
#     4   9  18  33  51  75 106 142 178 219 271 326
#     4  11  22  35  54  78 110 148 186 225 271 327
#
# _framework density 19.775915000000001
#
# number of rings (size 3 to 8) (size 9 to 14) (size 15 to 20)
#    0.000    2.000    0.000    4.875    0.000    6.500 
#    0.000    5.000    0.000    0.000    0.000    0.000 
#    0.000    0.000    0.000    0.000    0.000    0.000 
#
# Total GULP energy -396579.912958 kJ/mol
# GULP energy per Si atom -12393.122280 kJ/mol
# Density = 1.973090 g / cm^3
# Si number density = 19.775915 Si / 1000 Ang^3
#
#
#
# Elastic Constant Matrix: (Units=GPa)
#
#
# Indices 1 2 3 4 5 6 
#
# 1 125.2266 54.1143 64.1187 0.0000 -9.9575 0.0000
# 2 54.1143 81.1779 36.2105 0.0000 -0.3170 0.0000
# 3 64.1187 36.2105 94.5987 0.0000 -17.1948 0.0000
# 4 0.0000 0.0000 0.0000 19.4367 0.0000 -1.6359
# 5 -9.9575 -0.3170 -17.1948 0.0000 28.3800 0.0000
# 6 0.0000 0.0000 0.0000 -1.6359 0.0000 34.2986
#
#
#
# Elastic Compliance Matrix: (Units=1/GPa)
#
#
# Indices 1 2 3 4 5 6 
#
# 1 0.014549 -0.006449 -0.007280 0.000000 0.000622 0.000000
# 2 -0.006449 0.018065 -0.003279 0.000000 -0.004048 0.000000
# 3 -0.007280 -0.003279 0.018305 0.000000 0.008500 0.000000
# 4 0.000000 0.000000 0.000000 0.051656 0.000000 0.002464
# 5 0.000622 -0.004048 0.008500 0.000000 0.040559 0.000000
# 6 0.000000 0.000000 0.000000 0.002464 0.000000 0.029273
#
#
# Mechanical properties :
#
#
# Convention : Reuss Voigt Hill
#
# Bulk Modulus (GPa) = 59.16146 67.76558 63.46352
# Shear Modulus (GPa) = 23.57835 26.19371 24.88603
#
# Velocity S-wave (km/s) = 3.45668 3.64335 3.55124
# Velocity P-wave (km/s) = 6.77587 7.21386 6.99829
#
# Compressibility (1/GPa) = 0.01690290
#
# Stress axis : x y z
#
# Youngs Moduli (GPa) = 68.73223 55.35671 54.62846
#
# Poissons Ratio (x) = 0.35700 0.39768
# Poissons Ratio (y) = 0.44326 0.17915
# Poissons Ratio (z) = 0.50035 0.18154
#
# Static dielectric constant tensor:
#      x y z
#    x 4.705360 0.000000 -0.080520 
#    y 0.000000 3.616020 0.000000 
#    z -0.080520 0.000000 3.605400 
# 
# 
# High freq. dielectric constant tensor:
#      x y z
#    x 1.787530 0.000000 -0.007140 
#    y 0.000000 1.756330 0.000000 
#    z -0.007140 0.000000 1.755920 
# 
# From -- ./inp_files/38200.got.cif
#   From: 2010.06.25/outbox.cif.g09.slc.cpg/sg11_20_cif.got.tgz:38200.got - 2010.06.27 23:14:04.
