data_PCOD8074961
_publ_section_title
;
Structure prediction by ZEFSAII (Michael W. Deem and Ramdas Pophale) SiO2 
 PCOD8074961
Probable space group: P 21/M
;
_chemical_formula_sum "Si O2"
_cell_formula_units_Z 32
_cell_length_a 11.746160
_cell_length_b 8.608092
_cell_length_c 27.580297
_cell_angle_alpha 90.000000
_cell_angle_beta 146.728208
_cell_angle_gamma 90.000000
_cell_volume 1529.912072
_symmetry_space_group_name_H-M "P 21/M"
_symmetry_group_IT_number 11
_symmetry_cell_setting 'monoclinic'
loop_
_space_group_symop_operation_xyz
x,y,z
-x,1/2+y,-z
-x,-y,-z
x,1/2-y,z
loop_
_atom_site_type_symbol
_atom_site_label
_atom_site_fract_x
_atom_site_fract_y
_atom_site_fract_z
Si Si1 0.288454 0.572529 0.146987
Si Si2 0.312750 0.427695 0.647610
Si Si3 0.145798 0.568989 0.759608
Si Si4 0.587732 0.430159 0.418427
Si Si5 0.851794 0.070485 0.733596
Si Si6 0.584946 0.070788 0.913567
Si Si7 0.984012 0.568592 0.597492
Si Si8 0.988566 0.072754 0.113338
O O1 0.213269 0.750000 0.125683
O O2 0.514792 0.549475 0.250207
O O3 0.303420 0.520855 0.096546
O O4 0.124070 0.460937 0.114000
O O5 0.294724 0.250000 0.623596
O O6 0.372937 0.532368 0.623634
O O7 0.095026 0.479950 0.592830
O O8 0.100133 0.750000 0.751600
O O9 0.021672 0.469609 0.754301
O O10 0.388469 0.537214 0.853675
O O11 0.074720 0.513242 0.681178
O O12 0.625577 0.250000 0.441412
O O13 0.741439 0.526323 0.508100
O O14 0.353748 0.471588 0.349624
O O15 0.791305 0.250000 0.709392
O O16 0.945144 0.039186 0.819837
O O17 0.512942 0.250000 0.884288
O O18 0.747009 0.045409 0.014923
O O19 0.020252 0.750000 0.603332
O O20 0.026803 0.250000 0.143023
#
# Coordination Sequence:
#
# PCOD8074961 Si02
#       8
#     4   4   4   4   4   4   4   4
#     4  10  20  36  62  93 129 168 206 249 308 371
#     4  11  21  37  64  95 130 167 206 252 308 371
#     4  11  25  44  67  93 122 161 210 262 309 366
#     4  12  25  42  66  94 127 164 208 257 308 370
#     4  12  26  45  67  89 122 165 209 260 313 369
#     4  10  22  41  64  94 129 167 207 254 309 369
#     4  11  24  42  65  95 129 164 206 254 311 372
#     4  11  23  39  64  95 129 165 208 257 309 368
#
# _framework density 20.916235
#
# number of rings (size 3 to 8) (size 9 to 14) (size 15 to 20)
#    0.000    1.000    2.500    4.500    0.000    4.500 
#    0.000    0.000    0.000    0.000    0.000    0.000 
#    0.000    0.000    0.000    0.000    0.000    0.000 
#
# Total GULP energy -397062.675234 kJ/mol
# GULP energy per Si atom -12408.208601 kJ/mol
# Density = 2.086863 g / cm^3
# Si number density = 20.916235 Si / 1000 Ang^3
#
#
#
# Elastic Constant Matrix: (Units=GPa)
#
#
# Indices 1 2 3 4 5 6 
#
# 1 86.8891 20.4925 22.1011 0.0000 16.5966 0.0000
# 2 20.4925 65.7251 21.1415 0.0000 1.6903 0.0000
# 3 22.1011 21.1415 92.3460 0.0000 10.7405 0.0000
# 4 0.0000 0.0000 0.0000 32.9585 0.0000 2.5240
# 5 16.5966 1.6903 10.7405 0.0000 12.3309 0.0000
# 6 0.0000 0.0000 0.0000 2.5240 0.0000 35.1134
#
#
#
# Elastic Compliance Matrix: (Units=1/GPa)
#
#
# Indices 1 2 3 4 5 6 
#
# 1 0.016829 -0.004538 -0.000475 0.000000 -0.021615 0.000000
# 2 -0.004538 0.017663 -0.003768 0.000000 0.006969 0.000000
# 3 -0.000475 -0.003768 0.012986 0.000000 -0.010156 0.000000
# 4 0.000000 0.000000 0.000000 0.030509 0.000000 -0.002193
# 5 -0.021615 0.006969 -0.010156 0.000000 0.118080 0.000000
# 6 0.000000 0.000000 0.000000 -0.002193 0.000000 0.028637
#
#
# Mechanical properties :
#
#
# Convention : Reuss Voigt Hill
#
# Bulk Modulus (GPa) = 33.42765 41.38115 37.40440
# Shear Modulus (GPa) = 19.82255 28.16222 23.99239
#
# Velocity S-wave (km/s) = 3.08183 3.67335 3.39052
# Velocity P-wave (km/s) = 5.35537 6.14968 5.76622
#
# Compressibility (1/GPa) = 0.02991536
#
# Stress axis : x y z
#
# Youngs Moduli (GPa) = 59.42247 56.61623 77.00420
#
# Poissons Ratio (x) = 0.25695 0.03655
# Poissons Ratio (y) = 0.26969 0.29016
# Poissons Ratio (z) = 0.02820 0.21333
#
# Static dielectric constant tensor:
#      x y z
#    x 3.654590 0.000000 -0.025640 
#    y 0.000000 3.731370 0.000000 
#    z -0.025640 0.000000 3.887040 
# 
# 
# High freq. dielectric constant tensor:
#      x y z
#    x 1.812230 0.000000 0.001180 
#    y 0.000000 1.822310 0.000000 
#    z 0.001180 0.000000 1.833240 
# 
# From -- ./inp_files/73194.got.cif
#   From: 2010.06.25/outbox.cif.g09.slc.cpg/sg11_37_cif.got.tgz:73194.got - 2010.06.27 23:14:04.
