data_PCOD8074063
_publ_section_title
;
Structure prediction by ZEFSAII (Michael W. Deem and Ramdas Pophale) SiO2 
 PCOD8074063
Probable space group: P 21/M
;
_chemical_formula_sum "Si O2"
_cell_formula_units_Z 32
_cell_length_a 19.333867
_cell_length_b 8.987613
_cell_length_c 11.306526
_cell_angle_alpha 90.000000
_cell_angle_beta 58.484119
_cell_angle_gamma 90.000000
_cell_volume 1674.882224
_symmetry_space_group_name_H-M "P 21/M"
_symmetry_group_IT_number 11
_symmetry_cell_setting 'monoclinic'
loop_
_space_group_symop_operation_xyz
x,y,z
-x,1/2+y,-z
-x,-y,-z
x,1/2-y,z
loop_
_atom_site_type_symbol
_atom_site_label
_atom_site_fract_x
_atom_site_fract_y
_atom_site_fract_z
Si Si1 0.108298 0.077245 0.820974
Si Si2 0.669410 0.582797 0.106131
Si Si3 0.416750 0.419015 0.055312
Si Si4 0.041678 0.424047 0.129170
Si Si5 0.181290 0.426508 0.173587
Si Si6 0.735125 0.073605 0.694651
Si Si7 0.412898 0.074600 0.588502
Si Si8 0.269576 0.077515 0.546684
O O1 0.090500 0.250000 0.826893
O O2 0.200917 0.040365 0.705560
O O3 0.091242 0.019525 0.969265
O O4 0.046177 0.000004 0.784756
O O5 0.692785 0.750000 0.122506
O O6 0.633674 0.504728 0.255485
O O7 0.600008 0.578541 0.069070
O O8 0.751397 0.510109 0.979554
O O9 0.420192 0.250000 0.099897
O O10 0.349673 0.506815 0.188141
O O11 0.500000 0.500000 0.000000
O O12 0.027675 0.250000 0.133907
O O13 0.092880 0.464418 0.200800
O O14 0.195284 0.250000 0.180033
O O15 0.192067 0.508664 0.289325
O O16 0.733777 0.250000 0.706327
O O17 0.749069 0.026515 0.547544
O O18 0.426495 0.250000 0.593022
O O19 0.357662 0.040333 0.523208
O O20 0.500000 0.000000 0.500000
O O21 0.265178 0.250000 0.512183
#
# Coordination Sequence:
#
# PCOD8074063 Si02
#       8
#     4   4   4   4   4   4   4   4
#     4   9  18  33  55  84 114 146 181 218 269 329
#     4   8  16  32  53  75 101 133 171 214 262 316
#     4  10  20  35  56  80 106 138 178 224 273 323
#     4   9  17  31  56  87 115 141 177 224 275 328
#     4   9  17  34  58  80 105 141 181 223 272 326
#     4  11  23  37  54  78 107 143 186 231 277 323
#     4  10  21  36  54  78 105 137 176 219 268 321
#     4  10  21  38  57  76 107 149 186 220 267 331
#
# _framework density 19.105822
#
# number of rings (size 3 to 8) (size 9 to 14) (size 15 to 20)
#    0.000    2.500    0.000    3.000    1.750    4.500 
#    0.000    3.125    0.000    4.500    0.000    0.000 
#    0.000    0.000    0.000    0.000    0.000    0.000 
#
# Total GULP energy -396732.795925 kJ/mol
# GULP energy per Si atom -12397.899873 kJ/mol
# Density = 1.906234 g / cm^3
# Si number density = 19.105822 Si / 1000 Ang^3
#
#
#
# Elastic Constant Matrix: (Units=GPa)
#
#
# Indices 1 2 3 4 5 6 
#
# 1 124.5174 47.9357 29.4464 0.0000 -7.8782 0.0000
# 2 47.9357 76.1874 25.1927 0.0000 1.1237 0.0000
# 3 29.4464 25.1927 58.4218 0.0000 6.5291 0.0000
# 4 0.0000 0.0000 0.0000 23.9435 0.0000 -3.5752
# 5 -7.8782 1.1237 6.5291 0.0000 26.6010 0.0000
# 6 0.0000 0.0000 0.0000 -3.5752 0.0000 31.8361
#
#
#
# Elastic Compliance Matrix: (Units=1/GPa)
#
#
# Indices 1 2 3 4 5 6 
#
# 1 0.011548 -0.006111 -0.003698 0.000000 0.004586 0.000000
# 2 -0.006111 0.018568 -0.004768 0.000000 -0.001424 0.000000
# 3 -0.003698 -0.004768 0.021733 0.000000 -0.006228 0.000000
# 4 0.000000 0.000000 0.000000 0.042477 0.000000 0.004770
# 5 0.004586 -0.001424 -0.006228 0.000000 0.040540 0.000000
# 6 0.000000 0.000000 0.000000 0.004770 0.000000 0.031947
#
#
# Mechanical properties :
#
#
# Convention : Reuss Voigt Hill
#
# Bulk Modulus (GPa) = 44.06101 51.58624 47.82362
# Shear Modulus (GPa) = 24.56635 26.91289 25.73962
#
# Velocity S-wave (km/s) = 3.58970 3.75723 3.67442
# Velocity P-wave (km/s) = 6.34767 6.77357 6.56408
#
# Compressibility (1/GPa) = 0.02269580
#
# Stress axis : x y z
#
# Youngs Moduli (GPa) = 86.59398 53.85669 46.01333
#
# Poissons Ratio (x) = 0.32910 0.17016
# Poissons Ratio (y) = 0.52915 0.21938
# Poissons Ratio (z) = 0.32023 0.25677
#
# Static dielectric constant tensor:
#      x y z
#    x 3.585850 0.000000 0.084200 
#    y 0.000000 3.300690 0.000000 
#    z 0.084200 0.000000 3.496740 
# 
# 
# High freq. dielectric constant tensor:
#      x y z
#    x 1.752710 0.000000 0.002470 
#    y 0.000000 1.719390 0.000000 
#    z 0.002470 0.000000 1.730750 
# 
# From -- ./inp_files/42753.got.cif
#   From: 2010.06.25/outbox.cif.g09.slc.cpg/sg11_22_cif.got.tgz:42753.got - 2010.06.27 23:14:04.
