data_PCOD8074394
_publ_section_title
;
Structure prediction by ZEFSAII (Michael W. Deem and Ramdas Pophale) SiO2 
 PCOD8074394
Probable space group: P 21/M
;
_chemical_formula_sum "Si O2"
_cell_formula_units_Z 24
_cell_length_a 11.321777
_cell_length_b 8.729938
_cell_length_c 21.659098
_cell_angle_alpha 90.000000
_cell_angle_beta 31.503414
_cell_angle_gamma 90.000000
_cell_volume 1118.647998
_symmetry_space_group_name_H-M "P 21/M"
_symmetry_group_IT_number 11
_symmetry_cell_setting 'monoclinic'
loop_
_space_group_symop_operation_xyz
x,y,z
-x,1/2+y,-z
-x,-y,-z
x,1/2-y,z
loop_
_atom_site_type_symbol
_atom_site_label
_atom_site_fract_x
_atom_site_fract_y
_atom_site_fract_z
Si Si1 0.462830 0.428869 0.721218
Si Si2 0.444438 0.069443 0.958550
Si Si3 0.973389 0.571070 0.162994
Si Si4 0.870586 0.926525 0.467329
Si Si5 0.665637 0.930734 0.744557
Si Si6 0.260220 0.076209 0.611365
O O1 0.505543 0.250000 0.712989
O O2 0.215405 0.460956 0.804322
O O3 0.647985 0.491371 0.591117
O O4 0.474732 0.517349 0.780948
O O5 0.469667 0.250000 0.951179
O O6 0.624284 0.007227 0.829104
O O7 0.500000 0.000000 0.000000
O O8 0.195821 0.022847 0.046010
O O9 0.036556 0.750000 0.138628
O O10 0.888172 0.505821 0.267055
O O11 0.871186 0.750000 0.489060
O O12 0.876305 0.940298 0.390879
O O13 0.096034 0.011580 0.390451
O O14 0.666071 0.750000 0.752025
O O15 0.310262 0.250000 0.607166
O O16 0.500000 0.000000 0.500000
#
# Coordination Sequence:
#
# PCOD8074394 Si02
#       6
#     4   4   4   4   4   4
#     4  11  23  41  65  94 131 172 215 265 320 381
#     4  12  26  46  71  97 127 165 211 262 318 381
#     4  10  22  41  65  95 131 171 214 264 317 375
#     4  11  22  38  63  95 132 171 215 268 322 379
#     4  12  26  44  66  92 126 170 218 267 320 380
#     4  10  20  35  59  91 126 162 203 255 310 368
#
# _framework density 21.454470000000001
#
# number of rings (size 3 to 8) (size 9 to 14) (size 15 to 20)
#    0.000    1.000    1.667    5.500    0.000    4.667 
#    0.000    0.000    0.000    0.000    0.000    0.000 
#    0.000    0.000    0.000    0.000    0.000    0.000 
#
# Total GULP energy -297751.305355 kJ/mol
# GULP energy per Si atom -12406.304390 kJ/mol
# Density = 2.140564 g / cm^3
# Si number density = 21.454470 Si / 1000 Ang^3
#
#
#
# Elastic Constant Matrix: (Units=GPa)
#
#
# Indices 1 2 3 4 5 6 
#
# 1 89.4522 40.0421 22.0549 0.0000 -3.9050 0.0000
# 2 40.0421 139.6670 45.3363 0.0000 -10.7562 0.0000
# 3 22.0549 45.3363 94.4279 0.0000 -9.4768 0.0000
# 4 0.0000 0.0000 0.0000 38.7198 0.0000 -0.5833
# 5 -3.9050 -10.7562 -9.4768 0.0000 37.2267 0.0000
# 6 0.0000 0.0000 0.0000 -0.5833 0.0000 36.1360
#
#
#
# Elastic Compliance Matrix: (Units=1/GPa)
#
#
# Indices 1 2 3 4 5 6 
#
# 1 0.012997 -0.003244 -0.001473 0.000000 0.000051 0.000000
# 2 -0.003244 0.009369 -0.003595 0.000000 0.001452 0.000000
# 3 -0.001473 -0.003595 0.012869 0.000000 0.002083 0.000000
# 4 0.000000 0.000000 0.000000 0.025833 0.000000 0.000417
# 5 0.000051 0.001452 0.002083 0.000000 0.027817 0.000000
# 6 0.000000 0.000000 0.000000 0.000417 0.000000 0.027680
#
#
# Mechanical properties :
#
#
# Convention : Reuss Voigt Hill
#
# Bulk Modulus (GPa) = 53.73149 59.82375 56.77762
# Shear Modulus (GPa) = 35.87021 36.82408 36.34714
#
# Velocity S-wave (km/s) = 4.09335 4.14742 4.12047
# Velocity P-wave (km/s) = 6.88763 7.13298 7.01138
#
# Compressibility (1/GPa) = 0.01861106
#
# Stress axis : x y z
#
# Youngs Moduli (GPa) = 76.94263 106.73998 77.70627
#
# Poissons Ratio (x) = 0.34627 0.11445
# Poissons Ratio (y) = 0.24961 0.27932
# Poissons Ratio (z) = 0.11333 0.38369
#
# Static dielectric constant tensor:
#      x y z
#    x 4.320710 0.000000 0.171070 
#    y 0.000000 3.795190 0.000000 
#    z 0.171070 0.000000 3.924380 
# 
# 
# High freq. dielectric constant tensor:
#      x y z
#    x 1.857030 0.000000 0.000070 
#    y 0.000000 1.842930 0.000000 
#    z 0.000070 0.000000 1.845040 
# 
# From -- ./inp_files/43901.got.cif
#   From: 2010.06.25/outbox.cif.g09.slc.cpg/sg11_22_cif.got.tgz:43901.got - 2010.06.27 23:14:04.
