data_PCOD8074023
_publ_section_title
;
Structure prediction by ZEFSAII (Michael W. Deem and Ramdas Pophale) SiO2 
 PCOD8074023
Probable space group: P 21/M
;
_chemical_formula_sum "Si O2"
_cell_formula_units_Z 32
_cell_length_a 24.313909
_cell_length_b 9.096063
_cell_length_c 24.339229
_cell_angle_alpha 90.000000
_cell_angle_beta 18.089994
_cell_angle_gamma 90.000000
_cell_volume 1671.441784
_symmetry_space_group_name_H-M "P 21/M"
_symmetry_group_IT_number 11
_symmetry_cell_setting 'monoclinic'
loop_
_space_group_symop_operation_xyz
x,y,z
-x,1/2+y,-z
-x,-y,-z
x,1/2-y,z
loop_
_atom_site_type_symbol
_atom_site_label
_atom_site_fract_x
_atom_site_fract_y
_atom_site_fract_z
Si Si1 0.136683 0.075673 0.120166
Si Si2 0.104343 0.916401 0.447345
Si Si3 0.529359 0.080769 0.145402
Si Si4 0.448827 0.417364 0.103418
Si Si5 0.332269 0.921166 0.724204
Si Si6 0.272324 0.421414 0.671624
Si Si7 0.071947 0.577615 0.068012
Si Si8 0.840767 0.418702 0.486110
O O1 0.157888 0.250000 0.101540
O O2 0.970514 0.024490 0.315131
O O3 0.098176 0.021120 0.096022
O O4 0.319605 0.006333 0.966611
O O5 0.124955 0.750000 0.406939
O O6 0.036132 0.925978 0.574927
O O7 0.287012 0.996232 0.281319
O O8 0.000000 0.000000 0.500000
O O9 0.528544 0.250000 0.165520
O O10 0.578895 0.074619 0.032611
O O11 0.336628 0.016218 0.344126
O O12 0.403739 0.250000 0.129993
O O13 0.500000 0.500000 0.000000
O O14 0.312191 0.750000 0.731529
O O15 0.538696 0.966965 0.534401
O O16 0.242121 0.000696 0.758394
O O17 0.229417 0.965444 0.876924
O O18 0.263487 0.250000 0.692339
O O19 0.117258 0.467958 0.777553
O O20 0.077866 0.750000 0.077525
O O21 0.780911 0.250000 0.533812
#
# Coordination Sequence:
#
# PCOD8074023 Si02
#       8
#     4   4   4   4   4   4   4   4
#     4  11  24  40  60  85 114 154 198 241 292 347
#     4  10  20  35  55  82 111 143 181 227 284 346
#     4  10  22  40  61  85 112 147 190 237 288 345
#     4  10  21  36  55  83 112 143 180 225 283 345
#     4   9  18  33  54  81 113 147 184 228 282 337
#     4   9  18  33  54  80 111 147 185 229 283 334
#     4  10  21  36  53  79 113 148 190 237 282 334
#     4   9  21  41  60  81 112 150 189 235 290 343
#
# _framework density 19.145147999999999
#
# number of rings (size 3 to 8) (size 9 to 14) (size 15 to 20)
#    0.000    2.250    0.000    1.875    1.750    5.000 
#    0.000    1.250    0.000    0.000    0.000    0.000 
#    0.000    0.000    0.000    0.000    0.000    0.000 
#
# Total GULP energy -396585.634410 kJ/mol
# GULP energy per Si atom -12393.301075 kJ/mol
# Density = 1.910157 g / cm^3
# Si number density = 19.145148 Si / 1000 Ang^3
#
#
#
# Elastic Constant Matrix: (Units=GPa)
#
#
# Indices 1 2 3 4 5 6 
#
# 1 141.6371 65.4312 74.5649 0.0000 2.8394 0.0000
# 2 65.4312 105.6817 51.9711 0.0000 0.6678 0.0000
# 3 74.5649 51.9711 111.7966 0.0000 3.9443 0.0000
# 4 0.0000 0.0000 0.0000 24.8312 0.0000 -1.0181
# 5 2.8394 0.6678 3.9443 0.0000 29.0746 0.0000
# 6 0.0000 0.0000 0.0000 -1.0181 0.0000 37.3165
#
#
#
# Elastic Compliance Matrix: (Units=1/GPa)
#
#
# Indices 1 2 3 4 5 6 
#
# 1 0.012457 -0.004705 -0.006111 0.000000 -0.000279 0.000000
# 2 -0.004705 0.014051 -0.003415 0.000000 0.000600 0.000000
# 3 -0.006111 -0.003415 0.014654 0.000000 -0.001313 0.000000
# 4 0.000000 0.000000 0.000000 0.040317 0.000000 0.001100
# 5 -0.000279 0.000600 -0.001313 0.000000 0.034586 0.000000
# 6 0.000000 0.000000 0.000000 0.001100 0.000000 0.026828
#
#
# Mechanical properties :
#
#
# Convention : Reuss Voigt Hill
#
# Bulk Modulus (GPa) = 78.74066 82.56107 80.65087
# Shear Modulus (GPa) = 28.47560 29.38767 28.93164
#
# Velocity S-wave (km/s) = 3.86081 3.92215 3.89160
# Velocity P-wave (km/s) = 7.81614 7.98301 7.90001
#
# Compressibility (1/GPa) = 0.01269992
#
# Stress axis : x y z
#
# Youngs Moduli (GPa) = 80.27760 71.16842 68.23875
#
# Poissons Ratio (x) = 0.33488 0.41701
# Poissons Ratio (y) = 0.37774 0.23302
# Poissons Ratio (z) = 0.49058 0.24303
#
# Static dielectric constant tensor:
#      x y z
#    x 3.781550 0.000000 0.164810 
#    y 0.000000 3.552020 0.000000 
#    z 0.164810 0.000000 3.478000 
# 
# 
# High freq. dielectric constant tensor:
#      x y z
#    x 1.748530 0.000000 0.002290 
#    y 0.000000 1.750440 0.000000 
#    z 0.002290 0.000000 1.741310 
# 
# From -- ./inp_files/69968.got.cif
#   From: 2010.06.25/outbox.cif.g09.slc.cpg/sg11_35_cif.got.tgz:69968.got - 2010.06.27 23:14:04.
