data_PCOD8074954
_publ_section_title
;
Structure prediction by ZEFSAII (Michael W. Deem and Ramdas Pophale) SiO2 
 PCOD8074954
Probable space group: P 21/M
;
_chemical_formula_sum "Si O2"
_cell_formula_units_Z 32
_cell_length_a 7.165266
_cell_length_b 21.003749
_cell_length_c 10.787124
_cell_angle_alpha 90.000000
_cell_angle_beta 70.559683
_cell_angle_gamma 90.000000
_cell_volume 1530.880511
_symmetry_space_group_name_H-M "P 21/M"
_symmetry_group_IT_number 11
_symmetry_cell_setting 'monoclinic'
loop_
_space_group_symop_operation_xyz
x,y,z
-x,1/2+y,-z
-x,-y,-z
x,1/2-y,z
loop_
_atom_site_type_symbol
_atom_site_label
_atom_site_fract_x
_atom_site_fract_y
_atom_site_fract_z
Si Si1 0.461847 0.889067 0.656219
Si Si2 0.079250 0.319270 0.008643
Si Si3 0.643391 0.178013 0.086320
Si Si4 0.653657 0.819777 0.284418
Si Si5 0.724953 0.109331 0.572016
Si Si6 0.653523 0.581313 0.970613
Si Si7 0.855069 0.826337 0.482940
Si Si8 0.429364 0.990451 0.221078
O O1 0.348477 0.838887 0.769158
O O2 0.346062 0.897925 0.553664
O O3 0.684040 0.860592 0.600387
O O4 0.458092 0.957835 0.720978
O O5 0.080670 0.250000 0.077703
O O6 0.249834 0.319123 0.869679
O O7 0.139860 0.379168 0.080649
O O8 0.868693 0.328867 0.989476
O O9 0.564302 0.250000 0.083780
O O10 0.518068 0.128722 0.035505
O O11 0.600969 0.750000 0.345145
O O12 0.443576 0.852989 0.317843
O O13 0.807228 0.847207 0.352103
O O14 0.934310 0.144242 0.526753
O O15 0.727486 0.043732 0.651221
O O16 0.596382 0.555160 0.120530
O O17 0.687251 0.523494 0.867220
O O18 0.860223 0.750000 0.504394
#
# Coordination Sequence:
#
# PCOD8074954 Si02
#       8
#     4   4   4   4   4   4   4   4
#     4  10  23  42  59  85 124 162 200 246 292 348
#     4  10  20  36  62  92 118 153 195 243 308 364
#     4  10  22  39  63  92 121 154 196 246 301 361
#     4   9  19  35  56  88 123 147 187 249 304 356
#     4  11  21  39  64  86 116 161 201 243 295 352
#     4  10  21  41  60  87 124 159 196 248 301 349
#     4  10  22  38  61  91 119 153 197 247 304 358
#     4  10  22  40  61  85 121 159 206 248 287 352
#
# _framework density 20.903005
#
# number of rings (size 3 to 8) (size 9 to 14) (size 15 to 20)
#    0.000    2.000    1.250    1.500    1.750    4.000 
#    0.000   14.375    0.000    0.000    0.000    0.000 
#    0.000    0.000    0.000    0.000    0.000    0.000 
#
# Total GULP energy -396534.432427 kJ/mol
# GULP energy per Si atom -12391.701013 kJ/mol
# Density = 2.085543 g / cm^3
# Si number density = 20.903005 Si / 1000 Ang^3
#
#
#
# Elastic Constant Matrix: (Units=GPa)
#
#
# Indices 1 2 3 4 5 6 
#
# 1 107.1510 47.5250 22.4069 0.0000 -5.1052 0.0000
# 2 47.5250 117.2067 27.9861 0.0000 -3.4737 0.0000
# 3 22.4069 27.9861 61.2562 0.0000 -0.1531 0.0000
# 4 0.0000 0.0000 0.0000 29.1520 0.0000 6.5721
# 5 -5.1052 -3.4737 -0.1531 0.0000 19.6105 0.0000
# 6 0.0000 0.0000 0.0000 6.5721 0.0000 22.1006
#
#
#
# Elastic Compliance Matrix: (Units=1/GPa)
#
#
# Indices 1 2 3 4 5 6 
#
# 1 0.011781 -0.004131 -0.002416 0.000000 0.002316 0.000000
# 2 -0.004131 0.011080 -0.003549 0.000000 0.000859 0.000000
# 3 -0.002416 -0.003549 0.018827 0.000000 -0.001111 0.000000
# 4 0.000000 0.000000 0.000000 0.036768 0.000000 -0.010934
# 5 0.002316 0.000859 -0.001111 0.000000 0.051740 0.000000
# 6 0.000000 0.000000 0.000000 -0.010934 0.000000 0.048499
#
#
# Mechanical properties :
#
#
# Convention : Reuss Voigt Hill
#
# Bulk Modulus (GPa) = 46.52102 53.49443 50.00772
# Shear Modulus (GPa) = 24.26580 26.68568 25.47574
#
# Velocity S-wave (km/s) = 3.41086 3.57689 3.49486
# Velocity P-wave (km/s) = 6.14947 6.53500 6.34516
#
# Compressibility (1/GPa) = 0.02149566
#
# Stress axis : x y z
#
# Youngs Moduli (GPa) = 84.88578 90.25347 53.11474
#
# Poissons Ratio (x) = 0.37286 0.12832
# Poissons Ratio (y) = 0.35069 0.18849
# Poissons Ratio (z) = 0.20508 0.32029
#
# Static dielectric constant tensor:
#      x y z
#    x 3.578160 0.000000 0.033250 
#    y 0.000000 4.229810 0.000000 
#    z 0.033250 0.000000 3.942390 
# 
# 
# High freq. dielectric constant tensor:
#      x y z
#    x 1.802770 0.000000 0.004550 
#    y 0.000000 1.833840 0.000000 
#    z 0.004550 0.000000 1.818360 
# 
# From -- ./inp_files/30237.got.cif
#   From: 2010.06.25/outbox.cif.g09.slc.cpg/sg11_16_cif.got.tgz:30237.got - 2010.06.27 23:14:04.
