data_PCOD8074500
_publ_section_title
;
Structure prediction by ZEFSAII (Michael W. Deem and Ramdas Pophale) SiO2 
 PCOD8074500
Probable space group: P 21/M
;
_chemical_formula_sum "Si O2"
_cell_formula_units_Z 28
_cell_length_a 30.690516
_cell_length_b 9.217768
_cell_length_c 7.784752
_cell_angle_alpha 90.000000
_cell_angle_beta 40.450800
_cell_angle_gamma 90.000000
_cell_volume 1428.835188
_symmetry_space_group_name_H-M "P 21/M"
_symmetry_group_IT_number 11
_symmetry_cell_setting 'monoclinic'
loop_
_space_group_symop_operation_xyz
x,y,z
-x,1/2+y,-z
-x,-y,-z
x,1/2-y,z
loop_
_atom_site_type_symbol
_atom_site_label
_atom_site_fract_x
_atom_site_fract_y
_atom_site_fract_z
Si Si1 0.306855 0.585485 0.375665
Si Si2 0.070854 0.576845 0.287440
Si Si3 0.564327 0.586415 0.602237
Si Si4 0.162808 0.578447 0.320887
Si Si5 0.162809 0.921553 0.702266
Si Si6 0.306853 0.585485 0.783208
Si Si7 0.564325 0.913585 0.011807
O O1 0.317934 0.750000 0.277834
O O2 0.237775 0.517717 0.509469
O O3 0.302670 0.581378 0.591990
O O4 0.368230 0.489599 0.120936
O O5 0.061723 0.750000 0.314831
O O6 0.110529 0.519922 0.336774
O O7 0.000000 0.500000 0.500000
O O8 0.110532 0.519922 0.000049
O O9 0.561655 0.750000 0.539463
O O10 0.631771 0.510401 0.330316
O O11 0.563784 0.584797 0.808648
O O12 0.500001 0.500000 0.723402
O O13 0.167078 0.750000 0.287444
O O14 0.138304 0.532363 0.585090
O O15 0.237774 0.517717 0.063881
O O16 0.167079 0.750000 0.710086
O O17 0.317932 0.750000 0.814566
O O18 0.561653 0.750000 0.090612
#
# Coordination Sequence:
#
# PCOD8074500 Si02
#       7
#     4   4   4   4   4   4   4
#     4   9  15  26  46  69  93 125 166 210 253 298
#     4  10  20  36  56  80 107 136 169 206 249 300
#     4   9  16  25  39  64  97 132 169 210 255 301
#     4   9  17  31  53  78 103 134 172 210 250 301
#     4   9  17  31  53  78 103 134 172 210 250 301
#     4   9  15  26  46  69  93 125 166 210 253 298
#     4   9  16  25  39  64  97 132 169 210 255 301
#
# _framework density 19.596381999999998
#
# number of rings (size 3 to 8) (size 9 to 14) (size 15 to 20)
#    0.000    2.857    1.429    0.857    0.000    4.000 
#    0.000    1.429    0.000    3.429    0.000    0.000 
#    0.000    0.000    0.000    0.000    0.000    0.000 
#
# Total GULP energy -347120.504495 kJ/mol
# GULP energy per Si atom -12397.160875 kJ/mol
# Density = 1.955178 g / cm^3
# Si number density = 19.596382 Si / 1000 Ang^3
#
#
#
# Elastic Constant Matrix: (Units=GPa)
#
#
# Indices 1 2 3 4 5 6 
#
# 1 95.6470 37.7676 96.4786 0.0000 -14.6698 0.0000
# 2 37.7676 85.4129 51.9181 0.0000 -18.5754 0.0000
# 3 96.4786 51.9181 134.3422 0.0000 -36.1349 0.0000
# 4 0.0000 0.0000 0.0000 26.0396 0.0000 -15.2766
# 5 -14.6698 -18.5754 -36.1349 0.0000 33.3444 0.0000
# 6 0.0000 0.0000 0.0000 -15.2766 0.0000 14.4013
#
#
#
# Elastic Compliance Matrix: (Units=1/GPa)
#
#
# Indices 1 2 3 4 5 6 
#
# 1 0.047934 -0.001996 -0.039914 0.000000 -0.023278 0.000000
# 2 -0.001996 0.015599 -0.003520 0.000000 0.003997 0.000000
# 3 -0.039914 -0.003520 0.045472 0.000000 0.029757 0.000000
# 4 0.000000 0.000000 0.000000 0.101684 0.000000 0.107864
# 5 -0.023278 0.003997 0.029757 0.000000 0.054223 0.000000
# 6 0.000000 0.000000 0.000000 0.107864 0.000000 0.183858
#
#
# Mechanical properties :
#
#
# Convention : Reuss Voigt Hill
#
# Bulk Modulus (GPa) = 55.10828 76.41452 65.76140
# Shear Modulus (GPa) = 9.16292 23.37291 16.26791
#
# Velocity S-wave (km/s) = 2.16471 3.45732 2.88436
# Velocity P-wave (km/s) = 5.86777 7.41729 6.68756
#
# Compressibility (1/GPa) = 0.01814609
#
# Stress axis : x y z
#
# Youngs Moduli (GPa) = 20.86211 64.10529 21.99152
#
# Poissons Ratio (x) = 0.12796 0.87776
# Poissons Ratio (y) = 0.04164 0.07741
# Poissons Ratio (z) = 0.83268 0.22564
#
# Static dielectric constant tensor:
#      x y z
#    x 3.500990 0.000000 -0.122840 
#    y 0.000000 3.332450 0.000000 
#    z -0.122840 0.000000 3.594560 
# 
# 
# High freq. dielectric constant tensor:
#      x y z
#    x 1.754710 0.000000 -0.010390 
#    y 0.000000 1.722950 0.000000 
#    z -0.010390 0.000000 1.762620 
# 
# From -- ./inp_files/29035.got.cif
#   From: 2010.06.25/outbox.cif.g09.slc.cpg/sg11_15_cif.got.tgz:29035.got - 2010.06.27 23:14:04.
