data_PCOD8074074
_publ_section_title
;
Structure prediction by ZEFSAII (Michael W. Deem and Ramdas Pophale) SiO2 
 PCOD8074074
Probable space group: P 21/M
;
_chemical_formula_sum "Si O2"
_cell_formula_units_Z 32
_cell_length_a 28.871253
_cell_length_b 9.237531
_cell_length_c 11.896853
_cell_angle_alpha 90.000000
_cell_angle_beta 148.449340
_cell_angle_gamma 90.000000
_cell_volume 1660.216562
_symmetry_space_group_name_H-M "P 21/M"
_symmetry_group_IT_number 11
_symmetry_cell_setting 'monoclinic'
loop_
_space_group_symop_operation_xyz
x,y,z
-x,1/2+y,-z
-x,-y,-z
x,1/2-y,z
loop_
_atom_site_type_symbol
_atom_site_label
_atom_site_fract_x
_atom_site_fract_y
_atom_site_fract_z
Si Si1 0.537325 0.582835 0.882977
Si Si2 0.023188 0.582396 0.876816
Si Si3 0.356928 0.414797 0.513106
Si Si4 0.298482 0.415595 0.636444
Si Si5 0.926465 0.077951 0.273137
Si Si6 0.745435 0.920730 0.917367
Si Si7 0.126684 0.918751 0.313558
Si Si8 0.580312 0.916773 0.721832
O O1 0.513374 0.750000 0.846326
O O2 0.447089 0.499718 0.712942
O O3 0.582859 0.548745 0.858422
O O4 0.606742 0.532222 0.120956
O O5 0.995734 0.750000 0.824923
O O6 0.059682 0.540086 0.829750
O O7 0.936940 0.488385 0.724979
O O8 0.096202 0.546839 0.122934
O O9 0.383959 0.250000 0.545926
O O10 0.297833 0.432497 0.501330
O O11 0.297844 0.473172 0.288960
O O12 0.280559 0.250000 0.635968
O O13 0.223031 0.515241 0.532599
O O14 0.929195 0.250000 0.299411
O O15 0.000000 0.000000 0.500000
O O16 0.832824 0.014181 0.119246
O O17 0.769015 0.750000 0.965374
O O18 0.675684 0.961972 0.870303
O O19 0.130199 0.750000 0.345160
O O20 0.562451 0.750000 0.658125
O O21 0.500000 0.000000 0.500000
#
# Coordination Sequence:
#
# PCOD8074074 Si02
#       8
#     4   4   4   4   4   4   4   4
#     4  10  21  35  53  78 109 147 187 230 282 336
#     4   9  20  39  60  82 113 149 184 230 289 342
#     4  10  20  35  56  80 110 148 189 232 278 332
#     4  10  21  35  51  78 116 152 184 223 282 342
#     4  11  24  41  61  86 117 153 192 237 290 346
#     4  10  21  37  58  84 112 147 191 237 287 341
#     4  10  20  35  59  88 112 143 189 235 279 337
#     4  10  20  36  57  80 109 145 187 235 282 331
#
# _framework density 19.274594
#
# number of rings (size 3 to 8) (size 9 to 14) (size 15 to 20)
#    0.000    2.000    1.250    1.875    0.000    4.500 
#    0.000    2.500    0.000    0.000    0.000    0.000 
#    0.000    0.000    0.000    0.000    0.000    0.000 
#
# Total GULP energy -396892.284918 kJ/mol
# GULP energy per Si atom -12402.883904 kJ/mol
# Density = 1.923072 g / cm^3
# Si number density = 19.274594 Si / 1000 Ang^3
#
#
#
# Elastic Constant Matrix: (Units=GPa)
#
#
# Indices 1 2 3 4 5 6 
#
# 1 72.5394 35.1077 19.4564 0.0000 14.5586 0.0000
# 2 35.1077 69.1244 39.5272 0.0000 18.2252 0.0000
# 3 19.4564 39.5272 85.1259 0.0000 22.4300 0.0000
# 4 0.0000 0.0000 0.0000 37.5240 0.0000 7.8258
# 5 14.5586 18.2252 22.4300 0.0000 34.3456 0.0000
# 6 0.0000 0.0000 0.0000 7.8258 0.0000 29.9022
#
#
#
# Elastic Compliance Matrix: (Units=1/GPa)
#
#
# Indices 1 2 3 4 5 6 
#
# 1 0.018649 -0.009006 0.000898 0.000000 -0.003712 0.000000
# 2 -0.009006 0.024915 -0.008494 0.000000 -0.003856 0.000000
# 3 0.000898 -0.008494 0.017392 0.000000 -0.007231 0.000000
# 4 0.000000 0.000000 0.000000 0.028188 0.000000 -0.007377
# 5 -0.003712 -0.003856 -0.007231 0.000000 0.037458 0.000000
# 6 0.000000 0.000000 0.000000 -0.007377 0.000000 0.035373
#
#
# Mechanical properties :
#
#
# Convention : Reuss Voigt Hill
#
# Bulk Modulus (GPa) = 36.03684 46.10803 41.07243
# Shear Modulus (GPa) = 24.45829 29.20093 26.82961
#
# Velocity S-wave (km/s) = 3.56608 3.89652 3.73496
# Velocity P-wave (km/s) = 5.97437 6.64962 6.32101
#
# Compressibility (1/GPa) = 0.02774938
#
# Stress axis : x y z
#
# Youngs Moduli (GPa) = 53.62323 40.13681 57.49843
#
# Poissons Ratio (x) = 0.36147 -0.05161
# Poissons Ratio (y) = 0.48293 0.48842
# Poissons Ratio (z) = -0.04814 0.34094
#
# Static dielectric constant tensor:
#      x y z
#    x 3.619110 0.000000 -0.121380 
#    y 0.000000 3.473890 0.000000 
#    z -0.121380 0.000000 3.445220 
# 
# 
# High freq. dielectric constant tensor:
#      x y z
#    x 1.757930 0.000000 0.000810 
#    y 0.000000 1.745840 0.000000 
#    z 0.000810 0.000000 1.750640 
# 
# From -- ./inp_files/38244.got.cif
#   From: 2010.06.25/outbox.cif.g09.slc.cpg/sg11_20_cif.got.tgz:38244.got - 2010.06.27 23:14:04.
