data_PCOD8074460
_publ_section_title
;
Structure prediction by ZEFSAII (Michael W. Deem and Ramdas Pophale) SiO2 
 PCOD8074460
Probable space group: P 21/M
;
_chemical_formula_sum "Si O2"
_cell_formula_units_Z 28
_cell_length_a 12.781477
_cell_length_b 8.505730
_cell_length_c 16.358939
_cell_angle_alpha 90.000000
_cell_angle_beta 124.595142
_cell_angle_gamma 90.000000
_cell_volume 1464.013088
_symmetry_space_group_name_H-M "P 21/M"
_symmetry_group_IT_number 11
_symmetry_cell_setting 'monoclinic'
loop_
_space_group_symop_operation_xyz
x,y,z
-x,1/2+y,-z
-x,-y,-z
x,1/2-y,z
loop_
_atom_site_type_symbol
_atom_site_label
_atom_site_fract_x
_atom_site_fract_y
_atom_site_fract_z
Si Si1 0.053393 0.933276 0.723146
Si Si2 0.739824 0.064996 0.305290
Si Si3 0.194694 0.064727 0.095258
Si Si4 0.166911 0.565120 0.479545
Si Si5 0.524371 0.563886 0.750100
Si Si6 0.001048 0.065867 0.875574
Si Si7 0.575821 0.934655 0.458087
O O1 0.056854 0.750000 0.746058
O O2 0.187994 0.993827 0.744399
O O3 0.948221 0.966251 0.608284
O O4 0.025525 0.027280 0.792698
O O5 0.754034 0.250000 0.316238
O O6 0.808646 0.000540 0.417679
O O7 0.590299 0.017646 0.238205
O O8 0.189516 0.250000 0.094291
O O9 0.341066 0.009238 0.152383
O O10 0.132098 0.005475 0.152121
O O11 0.116433 0.997996 0.982687
O O12 0.136425 0.750000 0.461953
O O13 0.292180 0.528820 0.482840
O O14 0.521129 0.750000 0.729904
O O15 0.506138 0.469861 0.658677
O O16 0.991378 0.250000 0.881671
O O17 0.601727 0.750000 0.477866
O O18 0.500000 0.000000 0.500000
#
# Coordination Sequence:
#
# PCOD8074460 Si02
#       7
#     4   4   4   4   4   4   4
#     4  11  21  34  54  80 110 144 182 221 270 325
#     4   8  17  34  55  79 107 141 179 222 268 321
#     4   9  19  37  60  80 104 139 179 224 276 327
#     4  10  20  36  55  77 106 143 184 225 268 312
#     4   9  18  36  59  79 103 138 180 224 273 320
#     4  10  21  36  54  80 110 140 178 225 272 322
#     4  11  22  35  51  77 111 144 178 218 263 320
#
# _framework density 19.125513999999999
#
# number of rings (size 3 to 8) (size 9 to 14) (size 15 to 20)
#    0.000    2.286    0.000    3.857    2.000    1.143 
#    0.000    7.143    0.000    0.000    0.000    0.000 
#    0.000    0.000    0.000    0.000    0.000    0.000 
#
# Total GULP energy -347129.783684 kJ/mol
# GULP energy per Si atom -12397.492274 kJ/mol
# Density = 1.908198 g / cm^3
# Si number density = 19.125514 Si / 1000 Ang^3
#
#
#
# Elastic Constant Matrix: (Units=GPa)
#
#
# Indices 1 2 3 4 5 6 
#
# 1 135.0968 -3.2186 59.5960 0.0000 9.0223 0.0000
# 2 -3.2186 17.3461 5.7595 0.0000 7.5618 0.0000
# 3 59.5960 5.7595 68.2788 0.0000 12.6792 0.0000
# 4 0.0000 0.0000 0.0000 23.7796 0.0000 2.3112
# 5 9.0223 7.5618 12.6792 0.0000 29.3944 0.0000
# 6 0.0000 0.0000 0.0000 2.3112 0.0000 19.2849
#
#
#
# Elastic Compliance Matrix: (Units=1/GPa)
#
#
# Indices 1 2 3 4 5 6 
#
# 1 0.012659 0.006416 -0.011482 0.000000 -0.000583 0.000000
# 2 0.006416 0.068604 -0.008418 0.000000 -0.015987 0.000000
# 3 -0.011482 -0.008418 0.026439 0.000000 -0.005715 0.000000
# 4 0.000000 0.000000 0.000000 0.042548 0.000000 -0.005099
# 5 -0.000583 -0.015987 -0.005715 0.000000 0.040777 0.000000
# 6 0.000000 0.000000 0.000000 -0.005099 0.000000 0.052465
#
#
# Mechanical properties :
#
#
# Convention : Reuss Voigt Hill
#
# Bulk Modulus (GPa) = 12.38643 38.33286 25.35964
# Shear Modulus (GPa) = 16.81389 25.06411 20.93900
#
# Velocity S-wave (km/s) = 2.96824 3.62402 3.31240
# Velocity P-wave (km/s) = 4.27056 6.13169 5.28372
#
# Compressibility (1/GPa) = 0.08073352
#
# Stress axis : x y z
#
# Youngs Moduli (GPa) = 78.99472 14.57631 37.82281
#
# Poissons Ratio (x) = -0.09352 0.43429
# Poissons Ratio (y) = -0.50680 0.31839
# Poissons Ratio (z) = 0.90703 0.12270
#
# Static dielectric constant tensor:
#      x y z
#    x 3.833330 0.000000 0.123680 
#    y 0.000000 3.357070 0.000000 
#    z 0.123680 0.000000 3.516310 
# 
# 
# High freq. dielectric constant tensor:
#      x y z
#    x 1.757910 0.000000 0.005140 
#    y 0.000000 1.733500 0.000000 
#    z 0.005140 0.000000 1.724840 
# 
# From -- ./inp_files/37458.got.cif
#   From: 2010.06.25/outbox.cif.g09.slc.cpg/sg11_19_cif.got.tgz:37458.got - 2010.06.27 23:14:04.
