data_PCOD8074543
_publ_section_title
;
Structure prediction by ZEFSAII (Michael W. Deem and Ramdas Pophale) SiO2 
 PCOD8074543
Probable space group: P 21/M
;
_chemical_formula_sum "Si O2"
_cell_formula_units_Z 32
_cell_length_a 14.662408
_cell_length_b 8.838826
_cell_length_c 14.757012
_cell_angle_alpha 90.000000
_cell_angle_beta 119.402851
_cell_angle_gamma 90.000000
_cell_volume 1666.137692
_symmetry_space_group_name_H-M "P 21/M"
_symmetry_group_IT_number 11
_symmetry_cell_setting 'monoclinic'
loop_
_space_group_symop_operation_xyz
x,y,z
-x,1/2+y,-z
-x,-y,-z
x,1/2-y,z
loop_
_atom_site_type_symbol
_atom_site_label
_atom_site_fract_x
_atom_site_fract_y
_atom_site_fract_z
Si Si1 0.227563 0.576638 0.721649
Si Si2 0.177357 0.423739 0.353101
Si Si3 0.277063 0.423526 0.209360
Si Si4 0.487752 0.928051 0.269411
Si Si5 0.092444 0.427429 0.987961
Si Si6 0.061575 0.929023 0.780559
Si Si7 0.695077 0.429061 0.429293
Si Si8 0.540927 0.075483 0.109749
O O1 0.197960 0.750000 0.694069
O O2 0.133934 0.503371 0.734735
O O3 0.241178 0.506307 0.627407
O O4 0.334523 0.555596 0.828997
O O5 0.195582 0.250000 0.390335
O O6 0.210407 0.453905 0.266736
O O7 0.243879 0.530985 0.450358
O O8 0.056577 0.470100 0.303216
O O9 0.314619 0.250000 0.222656
O O10 0.377555 0.531077 0.261321
O O11 0.203502 0.464777 0.088665
O O12 0.502204 0.750000 0.272750
O O13 0.580233 0.997279 0.375769
O O14 0.487918 0.994308 0.168744
O O15 0.071426 0.250000 0.975224
O O16 0.097062 0.492007 0.889712
O O17 0.000000 0.500000 0.000000
O O18 0.076313 0.750000 0.801315
O O19 0.679557 0.250000 0.412765
O O20 0.507669 0.250000 0.096619
O O21 0.500000 0.000000 0.000000
#
# Coordination Sequence:
#
# PCOD8074543 Si02
#       8
#     4   4   4   4   4   4   4   4
#     4   8  18  36  58  82 114 152 190 232 288 342
#     4  10  21  38  60  85 115 153 194 239 293 349
#     4  10  22  40  58  84 120 156 193 239 294 348
#     4  11  23  39  60  86 113 152 198 242 296 351
#     4  11  22  38  59  85 118 157 194 238 291 343
#     4  10  20  38  60  86 118 155 194 238 287 343
#     4  10  21  40  62  85 116 153 191 244 296 345
#     4  10  20  36  56  84 119 155 195 241 290 345
#
# _framework density 19.206097
#
# number of rings (size 3 to 8) (size 9 to 14) (size 15 to 20)
#    0.000    2.000    1.250    3.000    1.750    3.000 
#    0.000    3.125    0.000    0.000    0.000    0.000 
#    0.000    0.000    0.000    0.000    0.000    0.000 
#
# Total GULP energy -396864.202723 kJ/mol
# GULP energy per Si atom -12402.006335 kJ/mol
# Density = 1.916238 g / cm^3
# Si number density = 19.206097 Si / 1000 Ang^3
#
#
#
# Elastic Constant Matrix: (Units=GPa)
#
#
# Indices 1 2 3 4 5 6 
#
# 1 104.5226 37.4947 17.5196 0.0000 15.1625 0.0000
# 2 37.4947 92.7438 42.7779 0.0000 9.2007 0.0000
# 3 17.5196 42.7779 98.4476 0.0000 13.2942 0.0000
# 4 0.0000 0.0000 0.0000 35.6723 0.0000 0.8319
# 5 15.1625 9.2007 13.2942 0.0000 17.2239 0.0000
# 6 0.0000 0.0000 0.0000 0.8319 0.0000 24.8116
#
#
#
# Elastic Compliance Matrix: (Units=1/GPa)
#
#
# Indices 1 2 3 4 5 6 
#
# 1 0.012372 -0.004558 0.001028 0.000000 -0.009250 0.000000
# 2 -0.004558 0.015304 -0.005891 0.000000 0.000384 0.000000
# 3 0.001028 -0.005891 0.013655 0.000000 -0.008298 0.000000
# 4 0.000000 0.000000 0.000000 0.028055 0.000000 -0.000941
# 5 -0.009250 0.000384 -0.008298 0.000000 0.072401 0.000000
# 6 0.000000 0.000000 0.000000 -0.000941 0.000000 0.040335
#
#
# Mechanical properties :
#
#
# Convention : Reuss Voigt Hill
#
# Bulk Modulus (GPa) = 44.46587 54.58870 49.52729
# Shear Modulus (GPa) = 23.98530 28.73634 26.36082
#
# Velocity S-wave (km/s) = 3.53772 3.87228 3.70878
# Velocity P-wave (km/s) = 6.31582 6.96255 6.64705
#
# Compressibility (1/GPa) = 0.02248916
#
# Stress axis : x y z
#
# Youngs Moduli (GPa) = 80.82768 65.34146 73.23356
#
# Poissons Ratio (x) = 0.29785 -0.07529
# Poissons Ratio (y) = 0.36844 0.43140
# Poissons Ratio (z) = -0.08310 0.38491
#
# Static dielectric constant tensor:
#      x y z
#    x 3.723210 0.000000 -0.079330 
#    y 0.000000 3.451200 0.000000 
#    z -0.079330 0.000000 3.506970 
# 
# 
# High freq. dielectric constant tensor:
#      x y z
#    x 1.755900 0.000000 -0.000470 
#    y 0.000000 1.737380 0.000000 
#    z -0.000470 0.000000 1.750250 
# 
# From -- ./inp_files/51738.got.cif
#   From: 2010.06.25/outbox.cif.g09.slc.cpg/sg11_26_cif.got.tgz:51738.got - 2010.06.27 23:14:04.
