data_PCOD8074574
_publ_section_title
;
Structure prediction by ZEFSAII (Michael W. Deem and Ramdas Pophale) SiO2 
 PCOD8074574
Probable space group: P 21/M
;
_chemical_formula_sum "Si O2"
_cell_formula_units_Z 28
_cell_length_a 25.479093
_cell_length_b 8.742348
_cell_length_c 9.123194
_cell_angle_alpha 90.000000
_cell_angle_beta 135.624441
_cell_angle_gamma 90.000000
_cell_volume 1421.211856
_symmetry_space_group_name_H-M "P 21/M"
_symmetry_group_IT_number 11
_symmetry_cell_setting 'monoclinic'
loop_
_space_group_symop_operation_xyz
x,y,z
-x,1/2+y,-z
-x,-y,-z
x,1/2-y,z
loop_
_atom_site_type_symbol
_atom_site_label
_atom_site_fract_x
_atom_site_fract_y
_atom_site_fract_z
Si Si1 0.723233 0.068235 0.598740
Si Si2 0.855039 0.431041 0.381037
Si Si3 0.580018 0.927647 0.812561
Si Si4 0.864903 0.431064 0.069363
Si Si5 0.992305 0.568591 0.824951
Si Si6 0.412462 0.930239 0.476278
Si Si7 0.279353 0.071490 0.723046
O O1 0.724813 0.250000 0.576263
O O2 0.646107 0.010613 0.519340
O O3 0.732157 0.983306 0.464058
O O4 0.791505 0.011998 0.836845
O O5 0.866602 0.250000 0.414576
O O6 0.863748 0.493303 0.232878
O O7 0.914878 0.514555 0.601794
O O8 0.773023 0.475330 0.273426
O O9 0.576458 0.750000 0.767610
O O10 0.496321 0.987290 0.686273
O O11 0.611212 0.009541 0.730196
O O12 0.634917 0.962139 0.057652
O O13 0.865245 0.250000 0.073378
O O14 0.939197 0.493672 0.137516
O O15 0.993791 0.750000 0.839172
O O16 0.000000 0.500000 0.000000
O O17 0.407017 0.750000 0.458527
O O18 0.259569 0.250000 0.696380
#
# Coordination Sequence:
#
# PCOD8074574 Si02
#       7
#     4   4   4   4   4   4   4
#     4  10  20  36  57  81 109 144 187 231 274 325
#     4  11  22  39  61  83 108 143 187 232 278 327
#     4   9  19  35  54  79 112 146 183 230 279 328
#     4   9  20  37  58  82 109 142 183 229 272 320
#     4  11  22  38  59  86 118 150 184 224 273 327
#     4   9  18  34  57  82 108 143 187 230 274 328
#     4  11  23  37  53  79 114 148 183 227 279 332
#
# _framework density 19.701495999999999
#
# number of rings (size 3 to 8) (size 9 to 14) (size 15 to 20)
#    0.000    2.000    0.000    3.429    0.000    4.571 
#    0.000    4.286    0.000    0.000    0.000    0.000 
#    0.000    0.000    0.000    0.000    0.000    0.000 
#
# Total GULP energy -347273.021458 kJ/mol
# GULP energy per Si atom -12402.607909 kJ/mol
# Density = 1.965665 g / cm^3
# Si number density = 19.701496 Si / 1000 Ang^3
#
#
#
# Elastic Constant Matrix: (Units=GPa)
#
#
# Indices 1 2 3 4 5 6 
#
# 1 113.2172 27.4178 46.1648 0.0000 -5.4764 0.0000
# 2 27.4178 40.5921 26.7067 0.0000 -2.7549 0.0000
# 3 46.1648 26.7067 136.5929 0.0000 -9.3137 0.0000
# 4 0.0000 0.0000 0.0000 26.1797 0.0000 -4.6829
# 5 -5.4764 -2.7549 -9.3137 0.0000 36.4734 0.0000
# 6 0.0000 0.0000 0.0000 -4.6829 0.0000 27.5351
#
#
#
# Elastic Compliance Matrix: (Units=1/GPa)
#
#
# Indices 1 2 3 4 5 6 
#
# 1 0.011369 -0.005896 -0.002650 0.000000 0.000585 0.000000
# 2 -0.005896 0.031350 -0.004107 0.000000 0.000434 0.000000
# 3 -0.002650 -0.004107 0.009130 0.000000 0.001623 0.000000
# 4 0.000000 0.000000 0.000000 0.039396 0.000000 0.006700
# 5 0.000585 0.000434 0.001623 0.000000 0.027952 0.000000
# 6 0.000000 0.000000 0.000000 0.006700 0.000000 0.037457
#
#
# Mechanical properties :
#
#
# Convention : Reuss Voigt Hill
#
# Bulk Modulus (GPa) = 37.67498 54.55343 46.11421
# Shear Modulus (GPa) = 26.20434 30.71183 28.45809
#
# Velocity S-wave (km/s) = 3.65097 3.95252 3.80473
# Velocity P-wave (km/s) = 6.07760 6.96994 6.53900
#
# Compressibility (1/GPa) = 0.02654281
#
# Stress axis : x y z
#
# Youngs Moduli (GPa) = 87.95669 31.89837 109.52545
#
# Poissons Ratio (x) = 0.18808 0.29022
# Poissons Ratio (y) = 0.51861 0.44983
# Poissons Ratio (z) = 0.23307 0.13101
#
# Static dielectric constant tensor:
#      x y z
#    x 3.870660 0.000000 0.112280 
#    y 0.000000 3.414460 0.000000 
#    z 0.112280 0.000000 3.627300 
# 
# 
# High freq. dielectric constant tensor:
#      x y z
#    x 1.779010 0.000000 0.005350 
#    y 0.000000 1.752330 0.000000 
#    z 0.005350 0.000000 1.779960 
# 
# From -- ./inp_files/28422.got.cif
#   From: 2010.06.25/outbox.cif.g09.slc.cpg/sg11_15_cif.got.tgz:28422.got - 2010.06.27 23:14:04.
