data_PCOD8074028
_publ_section_title
;
Structure prediction by ZEFSAII (Michael W. Deem and Ramdas Pophale) SiO2 
 PCOD8074028
Probable space group: P 21/M
;
_chemical_formula_sum "Si O2"
_cell_formula_units_Z 24
_cell_length_a 9.158522
_cell_length_b 17.544028
_cell_length_c 11.969908
_cell_angle_alpha 90.000000
_cell_angle_beta 39.784615
_cell_angle_gamma 90.000000
_cell_volume 1230.721875
_symmetry_space_group_name_H-M "P 21/M"
_symmetry_group_IT_number 11
_symmetry_cell_setting 'monoclinic'
loop_
_space_group_symop_operation_xyz
x,y,z
-x,1/2+y,-z
-x,-y,-z
x,1/2-y,z
loop_
_atom_site_type_symbol
_atom_site_label
_atom_site_fract_x
_atom_site_fract_y
_atom_site_fract_z
Si Si1 0.548916 0.084366 0.841533
Si Si2 0.249787 0.661117 0.859247
Si Si3 0.947191 0.578777 0.473048
Si Si4 0.272106 0.160540 0.809248
Si Si5 0.437032 0.096418 0.150931
Si Si6 0.413762 0.420381 0.504430
O O1 0.430489 0.118157 0.803759
O O2 0.808310 0.117069 0.695393
O O3 0.536406 0.993364 0.840003
O O4 0.420766 0.112861 0.028827
O O5 0.280312 0.750000 0.818172
O O6 0.347534 0.640185 0.923839
O O7 0.379829 0.615404 0.686720
O O8 0.986693 0.636459 0.013122
O O9 0.792530 0.627128 0.651871
O O10 0.810172 0.566483 0.438981
O O11 0.000000 0.500000 0.500000
O O12 0.307612 0.250000 0.800498
O O13 0.345420 0.136540 0.642801
O O14 0.500000 0.500000 0.500000
#
# Coordination Sequence:
#
# PCOD8074028 Si02
#       6
#     4   4   4   4   4   4
#     4  10  20  35  55  82 113 146 188 237 281 334
#     4  10  22  39  57  81 115 152 190 232 282 343
#     4   9  18  34  55  83 111 139 183 237 286 332
#     4  11  24  39  56  84 121 156 190 232 288 349
#     4   9  19  35  57  80 107 145 190 235 279 331
#     4  11  22  38  64  88 112 150 194 242 290 338
#
# _framework density 19.500751999999999
#
# number of rings (size 3 to 8) (size 9 to 14) (size 15 to 20)
#    0.000    2.000    0.000    4.500    0.000    8.667 
#    0.000    4.167    0.000    0.000    0.000    0.000 
#    0.000    0.000    0.000    0.000    0.000    0.000 
#
# Total GULP energy -297575.137189 kJ/mol
# GULP energy per Si atom -12398.964050 kJ/mol
# Density = 1.945637 g / cm^3
# Si number density = 19.500752 Si / 1000 Ang^3
#
#
#
# Elastic Constant Matrix: (Units=GPa)
#
#
# Indices 1 2 3 4 5 6 
#
# 1 113.3670 1.5270 44.0340 0.0000 4.4258 0.0000
# 2 1.5270 28.6015 12.7942 0.0000 1.5825 0.0000
# 3 44.0340 12.7942 97.9080 0.0000 5.2370 0.0000
# 4 0.0000 0.0000 0.0000 25.9866 0.0000 2.8178
# 5 4.4258 1.5825 5.2370 0.0000 39.7197 0.0000
# 6 0.0000 0.0000 0.0000 2.8178 0.0000 14.1536
#
#
#
# Elastic Compliance Matrix: (Units=1/GPa)
#
#
# Indices 1 2 3 4 5 6 
#
# 1 0.010779 0.001712 -0.005039 0.000000 -0.000605 0.000000
# 2 0.001712 0.037434 -0.005611 0.000000 -0.000942 0.000000
# 3 -0.005039 -0.005611 0.013265 0.000000 -0.000964 0.000000
# 4 0.000000 0.000000 0.000000 0.039330 0.000000 -0.007830
# 5 -0.000605 -0.000942 -0.000964 0.000000 0.025408 0.000000
# 6 0.000000 0.000000 0.000000 -0.007830 0.000000 0.072212
#
#
# Mechanical properties :
#
#
# Convention : Reuss Voigt Hill
#
# Bulk Modulus (GPa) = 22.93527 39.62076 31.27802
# Shear Modulus (GPa) = 21.66010 28.07340 24.86675
#
# Velocity S-wave (km/s) = 3.33638 3.79833 3.57482
# Velocity P-wave (km/s) = 5.16030 6.29270 5.75442
#
# Compressibility (1/GPa) = 0.04360096
#
# Stress axis : x y z
#
# Youngs Moduli (GPa) = 92.77513 26.71365 75.38736
#
# Poissons Ratio (x) = -0.04574 0.37988
# Poissons Ratio (y) = -0.15884 0.42303
# Poissons Ratio (z) = 0.46750 0.14990
#
# Static dielectric constant tensor:
#      x y z
#    x 3.650630 0.000000 -0.141360 
#    y 0.000000 3.168480 0.000000 
#    z -0.141360 0.000000 4.226770 
# 
# 
# High freq. dielectric constant tensor:
#      x y z
#    x 1.768610 0.000000 0.002030 
#    y 0.000000 1.736180 0.000000 
#    z 0.002030 0.000000 1.781160 
# 
# From -- ./inp_files/32600.got.cif
#   From: 2010.06.25/outbox.cif.g09.slc.cpg/sg11_17_cif.got.tgz:32600.got - 2010.06.27 23:14:04.
