data_PCOD8074419
_publ_section_title
;
Structure prediction by ZEFSAII (Michael W. Deem and Ramdas Pophale) SiO2 
 PCOD8074419
Probable space group: P 21/M
;
_chemical_formula_sum "Si O2"
_cell_formula_units_Z 20
_cell_length_a 15.556361
_cell_length_b 8.949655
_cell_length_c 10.207196
_cell_angle_alpha 90.000000
_cell_angle_beta 139.032881
_cell_angle_gamma 90.000000
_cell_volume 931.701514
_symmetry_space_group_name_H-M "P 21/M"
_symmetry_group_IT_number 11
_symmetry_cell_setting 'monoclinic'
loop_
_space_group_symop_operation_xyz
x,y,z
-x,1/2+y,-z
-x,-y,-z
x,1/2-y,z
loop_
_atom_site_type_symbol
_atom_site_label
_atom_site_fract_x
_atom_site_fract_y
_atom_site_fract_z
Si Si1 0.801065 0.421957 0.699464
Si Si2 0.537130 0.575772 0.405703
Si Si3 0.921381 0.583047 0.071874
Si Si4 0.131782 0.080184 0.692817
Si Si5 0.397838 0.574456 0.979487
O O1 0.758302 0.250000 0.648543
O O2 0.677045 0.518925 0.513199
O O3 0.922948 0.455785 0.742596
O O4 0.844489 0.463828 0.896479
O O5 0.500000 0.500000 0.500000
O O6 0.546421 0.750000 0.444358
O O7 0.432851 0.539331 0.171494
O O8 0.906496 0.750000 0.994025
O O9 0.857526 0.576652 0.139207
O O10 0.132188 0.250000 0.640393
O O11 0.256346 0.992310 0.780159
O O12 0.000000 0.000000 0.500000
O O13 0.395928 0.750000 0.950025
O O14 0.500000 0.500000 0.000000
#
# Coordination Sequence:
#
# PCOD8074419 Si02
#       5
#     4   4   4   4   4
#     4  10  20  35  60  92 124 162 205 257 313 373
#     4  11  24  41  64  94 127 167 213 263 322 386
#     4   9  20  38  59  88 125 164 207 256 313 372
#     4  11  24  42  65  93 126 169 216 264 317 380
#     4  11  26  46  67  96 132 173 220 271 327 389
#
# _framework density 21.466104000000001
#
# number of rings (size 3 to 8) (size 9 to 14) (size 15 to 20)
#    0.000    1.600    0.000    3.600    2.800    8.800 
#    0.000    0.000    0.000    0.000    0.000    0.000 
#    0.000    0.000    0.000    0.000    0.000    0.000 
#
# Total GULP energy -248059.074544 kJ/mol
# GULP energy per Si atom -12402.953727 kJ/mol
# Density = 2.141725 g / cm^3
# Si number density = 21.466104 Si / 1000 Ang^3
#
#
#
# Elastic Constant Matrix: (Units=GPa)
#
#
# Indices 1 2 3 4 5 6 
#
# 1 92.2349 53.5047 33.8248 0.0000 18.3669 0.0000
# 2 53.5047 137.5124 67.3669 0.0000 9.7982 0.0000
# 3 33.8248 67.3669 111.8633 0.0000 30.8783 0.0000
# 4 0.0000 0.0000 0.0000 40.6989 0.0000 6.1335
# 5 18.3669 9.7982 30.8783 0.0000 35.4919 0.0000
# 6 0.0000 0.0000 0.0000 6.1335 0.0000 35.7653
#
#
#
# Elastic Compliance Matrix: (Units=1/GPa)
#
#
# Indices 1 2 3 4 5 6 
#
# 1 0.015350 -0.005887 0.000853 0.000000 -0.007060 0.000000
# 2 -0.005887 0.012888 -0.007686 0.000000 0.006176 0.000000
# 3 0.000853 -0.007686 0.016907 0.000000 -0.013028 0.000000
# 4 0.000000 0.000000 0.000000 0.025223 0.000000 -0.004325
# 5 -0.007060 0.006176 -0.013028 0.000000 0.041459 0.000000
# 6 0.000000 0.000000 0.000000 -0.004325 0.000000 0.028702
#
#
# Mechanical properties :
#
#
# Convention : Reuss Voigt Hill
#
# Bulk Modulus (GPa) = 50.75114 72.33372 61.54243
# Shear Modulus (GPa) = 28.97917 34.85216 31.91566
#
# Velocity S-wave (km/s) = 3.67822 4.03375 3.86008
# Velocity P-wave (km/s) = 6.46009 7.44747 6.97128
#
# Compressibility (1/GPa) = 0.01970399
#
# Stress axis : x y z
#
# Youngs Moduli (GPa) = 65.14533 77.59071 59.14837
#
# Poissons Ratio (x) = 0.45681 -0.05045
# Poissons Ratio (y) = 0.38354 0.45462
# Poissons Ratio (z) = -0.05556 0.59637
#
# Static dielectric constant tensor:
#      x y z
#    x 3.865220 0.000000 0.147010 
#    y 0.000000 4.169030 0.000000 
#    z 0.147010 0.000000 3.873720 
# 
# 
# High freq. dielectric constant tensor:
#      x y z
#    x 1.846250 0.000000 0.013940 
#    y 0.000000 1.852660 0.000000 
#    z 0.013940 0.000000 1.842880 
# 
# From -- ./inp_files/41011.got.cif
#   From: 2010.06.25/outbox.cif.g09.slc.cpg/sg11_21_cif.got.tgz:41011.got - 2010.06.27 23:14:04.
