data_PCOD8074977
_publ_section_title
;
Structure prediction by ZEFSAII (Michael W. Deem and Ramdas Pophale) SiO2 
 PCOD8074977
Probable space group: P 21/M
;
_chemical_formula_sum "Si O2"
_cell_formula_units_Z 28
_cell_length_a 20.435545
_cell_length_b 14.112050
_cell_length_c 9.699656
_cell_angle_alpha 90.000000
_cell_angle_beta 147.996193
_cell_angle_gamma 90.000000
_cell_volume 1482.478992
_symmetry_space_group_name_H-M "P 21/M"
_symmetry_group_IT_number 11
_symmetry_cell_setting 'monoclinic'
loop_
_space_group_symop_operation_xyz
x,y,z
-x,1/2+y,-z
-x,-y,-z
x,1/2-y,z
loop_
_atom_site_type_symbol
_atom_site_label
_atom_site_fract_x
_atom_site_fract_y
_atom_site_fract_z
Si Si1 0.441069 0.648174 0.793850
Si Si2 0.723274 0.480105 0.344289
Si Si3 0.931278 0.359211 0.847515
Si Si4 0.771760 0.352968 0.804592
Si Si5 0.214369 0.138898 0.338254
Si Si6 0.598412 0.540524 0.871505
Si Si7 0.654172 0.540704 0.672570
O O1 0.471490 0.750000 0.916572
O O2 0.406341 0.571866 0.848002
O O3 0.318116 0.655906 0.484923
O O4 0.553849 0.622238 0.895490
O O5 0.846751 0.421690 0.595252
O O6 0.721916 0.579811 0.425160
O O7 0.711203 0.491766 0.157000
O O8 0.912519 0.250000 0.772223
O O9 0.901139 0.375246 0.957368
O O10 0.071575 0.390864 0.075736
O O11 0.776364 0.250000 0.891671
O O12 0.725309 0.439005 0.816774
O O13 0.232974 0.250000 0.400875
O O14 0.273273 0.112031 0.296236
O O15 0.649380 0.583282 0.818682
O O16 0.484140 0.470602 0.633508
#
# Coordination Sequence:
#
# PCOD8074977 Si02
#       7
#     4   4   4   4   4   4   4
#     4   9  17  31  54  77 104 141 176 215 265 314
#     4  11  19  35  56  84 106 137 182 232 263 311
#     4   9  18  34  59  83 105 136 178 227 278 318
#     4   8  14  29  54  78  98 134 182 218 258 312
#     4  11  22  35  56  83 107 138 182 228 273 321
#     4  10  21  35  53  78 115 146 178 214 267 321
#     4  10  20  37  53  76 115 148 177 213 266 332
#
# _framework density 18.887283
#
# number of rings (size 3 to 8) (size 9 to 14) (size 15 to 20)
#    0.000    2.286    4.286    2.143    0.000    1.143 
#    0.000    5.000    0.000    0.000    0.000    0.000 
#    0.000    0.000    0.000    0.000    0.000    0.000 
#
# Total GULP energy -346916.541041 kJ/mol
# GULP energy per Si atom -12389.876466 kJ/mol
# Density = 1.884429 g / cm^3
# Si number density = 18.887283 Si / 1000 Ang^3
#
#
#
# Elastic Constant Matrix: (Units=GPa)
#
#
# Indices 1 2 3 4 5 6 
#
# 1 90.8104 18.3821 52.3290 0.0000 -3.1488 0.0000
# 2 18.3821 81.9810 37.4342 0.0000 -3.5898 0.0000
# 3 52.3290 37.4342 67.0886 0.0000 -9.2127 0.0000
# 4 0.0000 0.0000 0.0000 8.6380 0.0000 5.1605
# 5 -3.1488 -3.5898 -9.2127 0.0000 24.3445 0.0000
# 6 0.0000 0.0000 0.0000 5.1605 0.0000 23.8321
#
#
#
# Elastic Compliance Matrix: (Units=1/GPa)
#
#
# Indices 1 2 3 4 5 6 
#
# 1 0.021154 0.003846 -0.019190 0.000000 -0.003959 0.000000
# 2 0.003846 0.017096 -0.012789 0.000000 -0.001821 0.000000
# 3 -0.019190 -0.012789 0.038406 0.000000 0.010166 0.000000
# 4 0.000000 0.000000 0.000000 0.132969 0.000000 -0.028792
# 5 -0.003959 -0.001821 0.010166 0.000000 0.044143 0.000000
# 6 0.000000 0.000000 0.000000 -0.028792 0.000000 0.048195
#
#
# Mechanical properties :
#
#
# Convention : Reuss Voigt Hill
#
# Bulk Modulus (GPa) = 49.04426 50.68564 49.86495
# Shear Modulus (GPa) = 13.69772 20.14524 16.92148
#
# Velocity S-wave (km/s) = 2.69594 3.26943 2.99644
# Velocity P-wave (km/s) = 5.97612 6.41454 6.19921
#
# Compressibility (1/GPa) = 0.02038975
#
# Stress axis : x y z
#
# Youngs Moduli (GPa) = 47.27184 58.49489 26.03785
#
# Poissons Ratio (x) = -0.22496 0.49966
# Poissons Ratio (y) = -0.18180 0.33299
# Poissons Ratio (z) = 0.90714 0.74808
#
# Static dielectric constant tensor:
#      x y z
#    x 3.443630 0.000000 0.231670 
#    y 0.000000 3.768880 0.000000 
#    z 0.231670 0.000000 3.289380 
# 
# 
# High freq. dielectric constant tensor:
#      x y z
#    x 1.719360 0.000000 0.020020 
#    y 0.000000 1.734840 0.000000 
#    z 0.020020 0.000000 1.707460 
# 
# From -- ./inp_files/24970.got.cif
#   From: 2010.06.25/outbox.cif.g09.slc.cpg/sg11_13_cif.got.tgz:24970.got - 2010.06.27 23:14:04.
