data_PCOD8074766
_publ_section_title
;
Structure prediction by ZEFSAII (Michael W. Deem and Ramdas Pophale) SiO2 
 PCOD8074766
Probable space group: P 21/M
;
_chemical_formula_sum "Si O2"
_cell_formula_units_Z 32
_cell_length_a 15.270554
_cell_length_b 8.808909
_cell_length_c 12.066010
_cell_angle_alpha 90.000000
_cell_angle_beta 87.486923
_cell_angle_gamma 90.000000
_cell_volume 1621.521493
_symmetry_space_group_name_H-M "P 21/M"
_symmetry_group_IT_number 11
_symmetry_cell_setting 'monoclinic'
loop_
_space_group_symop_operation_xyz
x,y,z
-x,1/2+y,-z
-x,-y,-z
x,1/2-y,z
loop_
_atom_site_type_symbol
_atom_site_label
_atom_site_fract_x
_atom_site_fract_y
_atom_site_fract_z
Si Si1 0.071428 0.430082 0.914759
Si Si2 0.039638 0.426721 0.664024
Si Si3 0.132042 0.574002 0.458547
Si Si4 0.258656 0.571050 0.922484
Si Si5 0.452987 0.428235 0.296177
Si Si6 0.351805 0.928628 0.689938
Si Si7 0.588131 0.928978 0.947657
Si Si8 0.306945 0.429272 0.466571
O O1 0.069941 0.250000 0.926405
O O2 0.165623 0.492237 0.945900
O O3 0.049894 0.480778 0.790037
O O4 0.000000 0.500000 0.000000
O O5 0.062404 0.250000 0.649059
O O6 0.941100 0.461780 0.629390
O O7 0.105455 0.519545 0.582852
O O8 0.153488 0.750000 0.465743
O O9 0.218509 0.486906 0.412745
O O10 0.249183 0.750000 0.940767
O O11 0.294344 0.530243 0.799404
O O12 0.326177 0.506227 0.007659
O O13 0.462654 0.250000 0.309453
O O14 0.550536 0.497557 0.299511
O O15 0.408820 0.467449 0.182138
O O16 0.390937 0.495800 0.395962
O O17 0.353777 0.750000 0.667823
O O18 0.306244 0.011829 0.591218
O O19 0.588071 0.750000 0.971804
O O20 0.500000 0.000000 0.000000
O O21 0.308114 0.250000 0.463589
#
# Coordination Sequence:
#
# PCOD8074766 Si02
#       8
#     4   4   4   4   4   4   4   4
#     4  11  24  42  62  88 122 157 196 247 299 355
#     4   9  20  39  62  86 113 146 192 243 289 344
#     4  10  20  36  59  86 115 149 187 235 292 350
#     4  11  23  40  63  90 119 157 200 246 298 354
#     4   9  20  38  57  81 116 154 191 239 294 344
#     4  10  20  38  60  82 115 154 194 241 292 346
#     4  11  21  39  63  88 118 154 199 249 298 351
#     4  11  22  35  54  83 118 153 192 236 285 347
#
# _framework density 19.734552999999998
#
# number of rings (size 3 to 8) (size 9 to 14) (size 15 to 20)
#    0.000    1.750    1.250    3.000    0.000    5.500 
#    0.000    5.625    0.000    0.000    0.000    0.000 
#    0.000    0.000    0.000    0.000    0.000    0.000 
#
# Total GULP energy -396902.002358 kJ/mol
# GULP energy per Si atom -12403.187574 kJ/mol
# Density = 1.968964 g / cm^3
# Si number density = 19.734553 Si / 1000 Ang^3
#
#
#
# Elastic Constant Matrix: (Units=GPa)
#
#
# Indices 1 2 3 4 5 6 
#
# 1 152.6849 36.9167 42.7969 0.0000 -2.2622 0.0000
# 2 36.9167 51.6613 23.2500 0.0000 -2.7360 0.0000
# 3 42.7969 23.2500 70.8555 0.0000 6.6382 0.0000
# 4 0.0000 0.0000 0.0000 25.0840 0.0000 1.6859
# 5 -2.2622 -2.7360 6.6382 0.0000 30.1201 0.0000
# 6 0.0000 0.0000 0.0000 1.6859 0.0000 37.3335
#
#
#
# Elastic Compliance Matrix: (Units=1/GPa)
#
#
# Indices 1 2 3 4 5 6 
#
# 1 0.008735 -0.004413 -0.003933 0.000000 0.001122 0.000000
# 2 -0.004413 0.025370 -0.005968 0.000000 0.003288 0.000000
# 3 -0.003933 -0.005968 0.018916 0.000000 -0.005006 0.000000
# 4 0.000000 0.000000 0.000000 0.039987 0.000000 -0.001806
# 5 0.001122 0.003288 -0.005006 0.000000 0.034687 0.000000
# 6 0.000000 0.000000 0.000000 -0.001806 0.000000 0.026867
#
#
# Mechanical properties :
#
#
# Convention : Reuss Voigt Hill
#
# Bulk Modulus (GPa) = 40.99305 53.45878 47.22591
# Shear Modulus (GPa) = 26.13399 29.99005 28.06202
#
# Velocity S-wave (km/s) = 3.64301 3.90253 3.77500
# Velocity P-wave (km/s) = 6.20586 6.88869 6.55617
#
# Compressibility (1/GPa) = 0.02439438
#
# Stress axis : x y z
#
# Youngs Moduli (GPa) = 114.47542 39.41675 52.86468
#
# Poissons Ratio (x) = 0.17393 0.20794
# Poissons Ratio (y) = 0.50514 0.31547
# Poissons Ratio (z) = 0.45028 0.23522
#
# Static dielectric constant tensor:
#      x y z
#    x 3.783410 0.000000 -0.048760 
#    y 0.000000 3.509260 0.000000 
#    z -0.048760 0.000000 3.635630 
# 
# 
# High freq. dielectric constant tensor:
#      x y z
#    x 1.786030 0.000000 0.004810 
#    y 0.000000 1.763460 0.000000 
#    z 0.004810 0.000000 1.769760 
# 
# From -- ./inp_files/38093.got.cif
#   From: 2010.06.25/outbox.cif.g09.slc.cpg/sg11_20_cif.got.tgz:38093.got - 2010.06.27 23:14:04.
