data_PCOD8074034
_publ_section_title
;
Structure prediction by ZEFSAII (Michael W. Deem and Ramdas Pophale) SiO2 
 PCOD8074034
Probable space group: P 21/M
;
_chemical_formula_sum "Si O2"
_cell_formula_units_Z 32
_cell_length_a 19.325039
_cell_length_b 12.608604
_cell_length_c 19.146725
_cell_angle_alpha 90.000000
_cell_angle_beta 21.063204
_cell_angle_gamma 90.000000
_cell_volume 1676.706442
_symmetry_space_group_name_H-M "P 21/M"
_symmetry_group_IT_number 11
_symmetry_cell_setting 'monoclinic'
loop_
_space_group_symop_operation_xyz
x,y,z
-x,1/2+y,-z
-x,-y,-z
x,1/2-y,z
loop_
_atom_site_type_symbol
_atom_site_label
_atom_site_fract_x
_atom_site_fract_y
_atom_site_fract_z
Si Si1 0.402252 0.128542 0.938559
Si Si2 0.484976 0.873657 0.441244
Si Si3 0.813023 0.969571 0.219252
Si Si4 0.140938 0.129732 0.311889
Si Si5 0.237241 0.505060 0.345729
Si Si6 0.034722 0.872192 0.134253
Si Si7 0.771056 0.872920 0.511559
Si Si8 0.414929 0.001850 0.790188
O O1 0.466512 0.250000 0.868357
O O2 0.568677 0.064366 0.819516
O O3 0.350860 0.080637 0.912015
O O4 0.215626 0.117701 0.162691
O O5 0.442805 0.750000 0.470767
O O6 0.681528 0.889166 0.299000
O O7 0.305529 0.923672 0.652090
O O8 0.500641 0.928309 0.351482
O O9 0.871266 0.910061 0.234922
O O10 0.000000 0.000000 0.000000
O O11 0.151005 0.250000 0.327986
O O12 0.269533 0.063164 0.245287
O O13 0.921633 0.093322 0.519611
O O14 0.170589 0.429016 0.471450
O O15 0.083805 0.750000 0.073862
O O16 0.951424 0.889106 0.290185
O O17 0.228889 0.938079 0.939576
O O18 0.731032 0.750000 0.563708
O O19 0.576033 0.920241 0.663602
#
# Coordination Sequence:
#
# PCOD8074034 Si02
#       8
#     4   4   4   4   4   4   4   4
#     4  10  21  36  56  81 113 151 187 230 283 336
#     4  11  24  41  63  89 119 154 194 239 291 347
#     4  11  23  44  61  87 120 150 194 242 288 349
#     4  10  20  35  55  83 112 145 187 232 283 334
#     4  10  20  35  57  80 112 148 187 235 279 337
#     4  11  22  38  61  86 115 154 194 239 292 343
#     4  10  21  37  57  83 114 152 192 237 287 339
#     4  11  21  39  59  84 119 149 194 237 284 342
#
# _framework density 19.085034
#
# number of rings (size 3 to 8) (size 9 to 14) (size 15 to 20)
#    0.000    1.500    2.500    3.000    0.000    1.000 
#    0.000    0.000    0.000   12.000    0.000    0.000 
#    0.000    0.000    0.000    0.000    0.000    0.000 
#
# Total GULP energy -396957.580766 kJ/mol
# GULP energy per Si atom -12404.924399 kJ/mol
# Density = 1.904160 g / cm^3
# Si number density = 19.085034 Si / 1000 Ang^3
#
#
#
# Elastic Constant Matrix: (Units=GPa)
#
#
# Indices 1 2 3 4 5 6 
#
# 1 74.0740 25.2746 17.4330 0.0000 -0.4217 0.0000
# 2 25.2746 117.6849 38.8496 0.0000 6.9102 0.0000
# 3 17.4330 38.8496 80.5448 0.0000 5.0782 0.0000
# 4 0.0000 0.0000 0.0000 23.2846 0.0000 6.4716
# 5 -0.4217 6.9102 5.0782 0.0000 27.8923 0.0000
# 6 0.0000 0.0000 0.0000 6.4716 0.0000 22.5614
#
#
#
# Elastic Compliance Matrix: (Units=1/GPa)
#
#
# Indices 1 2 3 4 5 6 
#
# 1 0.014873 -0.002591 -0.002047 0.000000 0.001240 0.000000
# 2 -0.002591 0.010632 -0.004450 0.000000 -0.001863 0.000000
# 3 -0.002047 -0.004450 0.015111 0.000000 -0.001680 0.000000
# 4 0.000000 0.000000 0.000000 0.046667 0.000000 -0.013386
# 5 0.001240 -0.001863 -0.001680 0.000000 0.036638 0.000000
# 6 0.000000 0.000000 0.000000 -0.013386 0.000000 0.048163
#
#
# Mechanical properties :
#
#
# Convention : Reuss Voigt Hill
#
# Bulk Modulus (GPa) = 44.56533 48.37979 46.47256
# Shear Modulus (GPa) = 25.28552 27.46410 26.37481
#
# Velocity S-wave (km/s) = 3.64385 3.79758 3.72151
# Velocity P-wave (km/s) = 6.41133 6.68083 6.54747
#
# Compressibility (1/GPa) = 0.02243897
#
# Stress axis : x y z
#
# Youngs Moduli (GPa) = 67.23579 94.05439 66.17746
#
# Poissons Ratio (x) = 0.24370 0.13550
# Poissons Ratio (y) = 0.17421 0.29449
# Poissons Ratio (z) = 0.13766 0.41854
#
# Static dielectric constant tensor:
#      x y z
#    x 3.637350 0.000000 0.094320 
#    y 0.000000 3.535540 0.000000 
#    z 0.094320 0.000000 3.375460 
# 
# 
# High freq. dielectric constant tensor:
#      x y z
#    x 1.754090 0.000000 0.006020 
#    y 0.000000 1.750490 0.000000 
#    z 0.006020 0.000000 1.743420 
# 
# From -- ./inp_files/66545.got.cif
#   From: 2010.06.25/outbox.cif.g09.slc.cpg/sg11_34_cif.got.tgz:66545.got - 2010.06.27 23:14:04.
