data_PCOD8074638
_publ_section_title
;
Structure prediction by ZEFSAII (Michael W. Deem and Ramdas Pophale) SiO2 
 PCOD8074638
Probable space group: P 21/M
;
_chemical_formula_sum "Si O2"
_cell_formula_units_Z 28
_cell_length_a 22.923614
_cell_length_b 13.402705
_cell_length_c 18.684183
_cell_angle_alpha 90.000000
_cell_angle_beta 164.405506
_cell_angle_gamma 90.000000
_cell_volume 1543.202670
_symmetry_space_group_name_H-M "P 21/M"
_symmetry_group_IT_number 11
_symmetry_cell_setting 'monoclinic'
loop_
_space_group_symop_operation_xyz
x,y,z
-x,1/2+y,-z
-x,-y,-z
x,1/2-y,z
loop_
_atom_site_type_symbol
_atom_site_label
_atom_site_fract_x
_atom_site_fract_y
_atom_site_fract_z
Si Si1 0.603822 0.634917 0.184310
Si Si2 0.927291 0.364186 0.613995
Si Si3 0.778590 0.545720 0.933674
Si Si4 0.170470 0.526934 0.641308
Si Si5 0.066960 0.133771 0.026957
Si Si6 0.313545 0.015190 0.431035
Si Si7 0.784283 0.961897 0.529007
O O1 0.596572 0.750000 0.152841
O O2 0.743510 0.576405 0.290349
O O3 0.712581 0.626339 0.391435
O O4 0.363236 0.590105 0.904489
O O5 0.850738 0.250000 0.523514
O O6 0.948103 0.405151 0.558222
O O7 0.747323 0.430872 0.444426
O O8 0.159463 0.376956 0.928911
O O9 0.786989 0.601175 0.867642
O O10 0.542356 0.501228 0.663875
O O11 0.957542 0.455500 0.146468
O O12 0.000000 0.500000 0.500000
O O13 0.025553 0.250000 0.977037
O O14 0.190812 0.104745 0.245924
O O15 0.829353 0.084676 0.742751
O O16 0.353923 0.044649 0.561496
#
# Coordination Sequence:
#
# PCOD8074638 Si02
#       7
#     4   4   4   4   4   4   4
#     4  10  21  38  59  83 114 153 188 230 281 330
#     4   9  18  35  55  80 111 140 177 229 273 321
#     4   9  19  35  55  78 112 143 175 227 277 318
#     4  10  22  38  59  82 117 148 189 237 279 331
#     4  10  21  36  54  82 109 140 184 226 270 329
#     4  10  20  36  58  76 112 147 177 226 278 326
#     4   8  20  34  55  80 114 143 180 228 266 329
#
# _framework density 18.144083999999999
#
# number of rings (size 3 to 8) (size 9 to 14) (size 15 to 20)
#    0.857    1.714    0.000    1.286    2.000    2.857 
#    0.000    0.714    0.000    0.000    0.000    0.000 
#    0.000    0.000    0.000    0.000    0.000    0.000 
#
# Total GULP energy -347066.143917 kJ/mol
# GULP energy per Si atom -12395.219426 kJ/mol
# Density = 1.810279 g / cm^3
# Si number density = 18.144084 Si / 1000 Ang^3
#
#
#
# Elastic Constant Matrix: (Units=GPa)
#
#
# Indices 1 2 3 4 5 6 
#
# 1 114.3275 31.1792 40.6870 0.0000 -6.9609 0.0000
# 2 31.1792 81.1492 33.7827 0.0000 -2.2115 0.0000
# 3 40.6870 33.7827 63.8286 0.0000 7.2514 0.0000
# 4 0.0000 0.0000 0.0000 13.5787 0.0000 -2.1528
# 5 -6.9609 -2.2115 7.2514 0.0000 31.7673 0.0000
# 6 0.0000 0.0000 0.0000 -2.1528 0.0000 16.3052
#
#
#
# Elastic Compliance Matrix: (Units=1/GPa)
#
#
# Indices 1 2 3 4 5 6 
#
# 1 0.012022 -0.001429 -0.007387 0.000000 0.004221 0.000000
# 2 -0.001429 0.016277 -0.008004 0.000000 0.002647 0.000000
# 3 -0.007387 -0.008004 0.025521 0.000000 -0.008001 0.000000
# 4 0.000000 0.000000 0.000000 0.075219 0.000000 0.009932
# 5 0.004221 0.002647 -0.008001 0.000000 0.034415 0.000000
# 6 0.000000 0.000000 0.000000 0.009932 0.000000 0.062642
#
#
# Mechanical properties :
#
#
# Convention : Reuss Voigt Hill
#
# Bulk Modulus (GPa) = 49.55541 52.28925 50.92233
# Shear Modulus (GPa) = 18.76439 22.57399 20.66919
#
# Velocity S-wave (km/s) = 3.21937 3.53108 3.37882
# Velocity P-wave (km/s) = 6.41799 6.74583 6.58395
#
# Compressibility (1/GPa) = 0.02017943
#
# Stress axis : x y z
#
# Youngs Moduli (GPa) = 83.17866 61.43827 39.18331
#
# Poissons Ratio (x) = 0.08780 0.28943
# Poissons Ratio (y) = 0.11887 0.31364
# Poissons Ratio (z) = 0.61441 0.49178
#
# Static dielectric constant tensor:
#      x y z
#    x 3.390160 0.000000 -0.237250 
#    y 0.000000 3.074820 0.000000 
#    z -0.237250 0.000000 3.233650 
# 
# 
# High freq. dielectric constant tensor:
#      x y z
#    x 1.712040 0.000000 -0.018800 
#    y 0.000000 1.680720 0.000000 
#    z -0.018800 0.000000 1.692400 
# 
# From -- ./inp_files/61516.got.cif
#   From: 2010.06.25/outbox.cif.g09.slc.cpg/sg11_31_cif.got.tgz:61516.got - 2010.06.27 23:14:04.
