data_PCOD8074052
_publ_section_title
;
Structure prediction by ZEFSAII (Michael W. Deem and Ramdas Pophale) SiO2 
 PCOD8074052
Probable space group: P 21/M
;
_chemical_formula_sum "Si O2"
_cell_formula_units_Z 20
_cell_length_a 22.453234
_cell_length_b 8.908228
_cell_length_c 7.265848
_cell_angle_alpha 90.000000
_cell_angle_beta 48.499994
_cell_angle_gamma 90.000000
_cell_volume 1088.460409
_symmetry_space_group_name_H-M "P 21/M"
_symmetry_group_IT_number 11
_symmetry_cell_setting 'monoclinic'
loop_
_space_group_symop_operation_xyz
x,y,z
-x,1/2+y,-z
-x,-y,-z
x,1/2-y,z
loop_
_atom_site_type_symbol
_atom_site_label
_atom_site_fract_x
_atom_site_fract_y
_atom_site_fract_z
Si Si1 0.922319 0.072832 0.374912
Si Si2 0.617682 0.073024 0.248513
Si Si3 0.204702 0.927765 0.077235
Si Si4 0.916934 0.426697 0.969832
Si Si5 0.507328 0.926746 0.185547
O O1 0.931068 0.250000 0.375998
O O2 0.848300 0.012548 0.644822
O O3 0.904834 0.020675 0.203316
O O4 0.004494 0.001380 0.277813
O O5 0.616086 0.250000 0.212408
O O6 0.570077 0.034520 0.532876
O O7 0.582951 0.991995 0.139443
O O8 0.706367 0.007101 0.095007
O O9 0.210974 0.750000 0.070908
O O10 0.161392 0.980397 0.978801
O O11 0.928710 0.250000 0.927837
O O12 0.518059 0.750000 0.137767
O O13 0.500000 0.000000 0.000000
#
# Coordination Sequence:
#
# PCOD8074052 Si02
#       5
#     4   4   4   4   4
#     4   9  17  29  46  67  92 124 161 198 235 279
#     4   9  19  35  54  77 102 129 167 210 249 295
#     4   9  17  30  49  71  93 121 159 200 240 284
#     4   9  17  29  45  66  93 124 159 196 235 282
#     4  10  20  35  56  78 102 133 165 201 249 302
#
# _framework density 18.374578
#
# number of rings (size 3 to 8) (size 9 to 14) (size 15 to 20)
#    0.000    2.800    0.000    1.200    0.000    2.400 
#    0.000    8.000    0.000    4.800    0.000    0.000 
#    0.000    0.000    0.000    0.000    0.000    0.000 
#
# Total GULP energy -247947.354709 kJ/mol
# GULP energy per Si atom -12397.367735 kJ/mol
# Density = 1.833276 g / cm^3
# Si number density = 18.374578 Si / 1000 Ang^3
#
#
#
# Elastic Constant Matrix: (Units=GPa)
#
#
# Indices 1 2 3 4 5 6 
#
# 1 165.1061 38.3285 77.0705 0.0000 -13.0737 0.0000
# 2 38.3285 38.0062 23.1613 0.0000 0.7407 0.0000
# 3 77.0705 23.1613 74.1010 0.0000 -14.3526 0.0000
# 4 0.0000 0.0000 0.0000 22.9928 0.0000 -1.0901
# 5 -13.0737 0.7407 -14.3526 0.0000 39.0417 0.0000
# 6 0.0000 0.0000 0.0000 -1.0901 0.0000 26.6314
#
#
#
# Elastic Compliance Matrix: (Units=1/GPa)
#
#
# Indices 1 2 3 4 5 6 
#
# 1 0.012764 -0.005942 -0.011378 0.000000 0.000204 0.000000
# 2 -0.005942 0.036084 -0.006048 0.000000 -0.004897 0.000000
# 3 -0.011378 -0.006048 0.028536 0.000000 0.006795 0.000000
# 4 0.000000 0.000000 0.000000 0.043576 0.000000 0.001784
# 5 0.000204 -0.004897 0.006795 0.000000 0.028273 0.000000
# 6 0.000000 0.000000 0.000000 0.001784 0.000000 0.037623
#
#
# Mechanical properties :
#
#
# Convention : Reuss Voigt Hill
#
# Bulk Modulus (GPa) = 32.62791 61.59268 47.11029
# Shear Modulus (GPa) = 20.50802 26.97671 23.74236
#
# Velocity S-wave (km/s) = 3.34445 3.83581 3.59852
# Velocity P-wave (km/s) = 5.71921 7.29460 6.55441
#
# Compressibility (1/GPa) = 0.03064861
#
# Stress axis : x y z
#
# Youngs Moduli (GPa) = 78.34816 27.71279 35.04365
#
# Poissons Ratio (x) = 0.16466 0.39874
# Poissons Ratio (y) = 0.46552 0.21193
# Poissons Ratio (z) = 0.89148 0.16759
#
# Static dielectric constant tensor:
#      x y z
#    x 3.627720 0.000000 -0.086210 
#    y 0.000000 3.135230 0.000000 
#    z -0.086210 0.000000 3.620440 
# 
# 
# High freq. dielectric constant tensor:
#      x y z
#    x 1.721920 0.000000 0.003070 
#    y 0.000000 1.686620 0.000000 
#    z 0.003070 0.000000 1.714250 
# 
# From -- ./inp_files/27229.got.cif
#   From: 2010.06.25/outbox.cif.g09.slc.cpg/sg11_14_cif.got.tgz:27229.got - 2010.06.27 23:14:04.
