data_PCOD8074843
_publ_section_title
;
Structure prediction by ZEFSAII (Michael W. Deem and Ramdas Pophale) SiO2 
 PCOD8074843
Probable space group: P 21/M
;
_chemical_formula_sum "Si O2"
_cell_formula_units_Z 28
_cell_length_a 20.860674
_cell_length_b 9.035731
_cell_length_c 19.338995
_cell_angle_alpha 90.000000
_cell_angle_beta 22.014972
_cell_angle_gamma 90.000000
_cell_volume 1366.412194
_symmetry_space_group_name_H-M "P 21/M"
_symmetry_group_IT_number 11
_symmetry_cell_setting 'monoclinic'
loop_
_space_group_symop_operation_xyz
x,y,z
-x,1/2+y,-z
-x,-y,-z
x,1/2-y,z
loop_
_atom_site_type_symbol
_atom_site_label
_atom_site_fract_x
_atom_site_fract_y
_atom_site_fract_z
Si Si1 0.806157 0.414143 0.493738
Si Si2 0.692594 0.577610 0.154995
Si Si3 0.000057 0.926374 0.074226
Si Si4 0.692693 0.077609 0.459723
Si Si5 0.698075 0.078614 0.869690
Si Si6 0.806098 0.585862 0.894013
Si Si7 0.698069 0.578609 0.734166
O O1 0.751178 0.250000 0.574001
O O2 0.694234 0.462700 0.539756
O O3 0.789526 0.526213 0.573455
O O4 0.000030 0.414713 0.273470
O O5 0.741836 0.750000 0.116210
O O6 0.499942 0.546038 0.375035
O O7 0.827201 0.475887 0.060098
O O8 0.694194 0.537246 0.071827
O O9 0.000052 0.750000 0.067897
O O10 0.827331 0.975861 0.285401
O O11 0.000000 0.000000 0.000000
O O12 0.741949 0.250000 0.400009
O O13 0.733201 0.250000 0.825209
O O14 0.789486 0.026202 0.847536
O O15 0.776421 0.999986 0.723580
O O16 0.499999 0.038290 0.075055
O O17 0.751104 0.750000 0.923730
O O18 0.733174 0.750000 0.708428
#
# Coordination Sequence:
#
# PCOD8074843 Si02
#       7
#     4   4   4   4   4   4   4
#     4  10  20  36  60  87 118 156 200 249 303 365
#     4  10  21  41  69  97 128 167 211 258 310 371
#     4  12  26  44  68  96 133 170 207 256 306 368
#     4  10  21  41  69  97 128 167 211 258 310 371
#     4  10  21  36  54  78 111 152 201 255 309 366
#     4  10  20  36  60  87 118 156 200 249 303 365
#     4  10  21  36  54  78 111 152 201 255 309 366
#
# _framework density 20.491622
#
# number of rings (size 3 to 8) (size 9 to 14) (size 15 to 20)
#    0.000    1.714    1.429    3.000    0.000    6.286 
#    0.000    0.000    0.000    0.000    0.000    0.000 
#    0.000    0.000    0.000    0.000    0.000    0.000 
#
# Total GULP energy -347246.059504 kJ/mol
# GULP energy per Si atom -12401.644982 kJ/mol
# Density = 2.044498 g / cm^3
# Si number density = 20.491622 Si / 1000 Ang^3
#
#
#
# Elastic Constant Matrix: (Units=GPa)
#
#
# Indices 1 2 3 4 5 6 
#
# 1 106.5344 58.4051 54.0461 0.0000 9.2204 0.0000
# 2 58.4051 102.9699 54.6316 0.0000 2.2508 0.0000
# 3 54.0461 54.6316 97.3575 0.0000 -3.7648 0.0000
# 4 0.0000 0.0000 0.0000 30.4448 0.0000 4.0729
# 5 9.2204 2.2508 -3.7648 0.0000 26.5153 0.0000
# 6 0.0000 0.0000 0.0000 4.0729 0.0000 37.1476
#
#
#
# Elastic Compliance Matrix: (Units=1/GPa)
#
#
# Indices 1 2 3 4 5 6 
#
# 1 0.016106 -0.005896 -0.005862 0.000000 -0.005933 0.000000
# 2 -0.005896 0.016126 -0.005782 0.000000 -0.000140 0.000000
# 3 -0.005862 -0.005782 0.016961 0.000000 0.004937 0.000000
# 4 0.000000 0.000000 0.000000 0.033335 0.000000 -0.003655
# 5 -0.005933 -0.000140 0.004937 0.000000 0.040490 0.000000
# 6 0.000000 0.000000 0.000000 -0.003655 0.000000 0.027320
#
#
# Mechanical properties :
#
#
# Convention : Reuss Voigt Hill
#
# Bulk Modulus (GPa) = 70.84946 71.22526 71.03736
# Shear Modulus (GPa) = 26.29883 28.14014 27.21949
#
# Velocity S-wave (km/s) = 3.58634 3.70976 3.64857
# Velocity P-wave (km/s) = 7.19715 7.29270 7.24508
#
# Compressibility (1/GPa) = 0.01411443
#
# Stress axis : x y z
#
# Youngs Moduli (GPa) = 62.08811 62.01097 58.95898
#
# Poissons Ratio (x) = 0.36559 0.34562
# Poissons Ratio (y) = 0.36605 0.34088
# Poissons Ratio (z) = 0.36397 0.35853
#
# Static dielectric constant tensor:
#      x y z
#    x 3.702040 0.000000 -0.081410 
#    y 0.000000 3.762600 0.000000 
#    z -0.081410 0.000000 3.834900 
# 
# 
# High freq. dielectric constant tensor:
#      x y z
#    x 1.802330 0.000000 -0.001950 
#    y 0.000000 1.793210 0.000000 
#    z -0.001950 0.000000 1.805460 
# 
# From -- ./inp_files/66691.got.cif
#   From: 2010.06.25/outbox.cif.g09.slc.cpg/sg11_34_cif.got.tgz:66691.got - 2010.06.27 23:14:04.
