data_PCOD8074681
_publ_section_title
;
Structure prediction by ZEFSAII (Michael W. Deem and Ramdas Pophale) SiO2 
 PCOD8074681
Probable space group: P 21/M
;
_chemical_formula_sum "Si O2"
_cell_formula_units_Z 28
_cell_length_a 23.046052
_cell_length_b 8.921259
_cell_length_c 20.064980
_cell_angle_alpha 90.000000
_cell_angle_beta 160.241242
_cell_angle_gamma 90.000000
_cell_volume 1394.620185
_symmetry_space_group_name_H-M "P 21/M"
_symmetry_group_IT_number 11
_symmetry_cell_setting 'monoclinic'
loop_
_space_group_symop_operation_xyz
x,y,z
-x,1/2+y,-z
-x,-y,-z
x,1/2-y,z
loop_
_atom_site_type_symbol
_atom_site_label
_atom_site_fract_x
_atom_site_fract_y
_atom_site_fract_z
Si Si1 0.042113 0.080526 0.253595
Si Si2 0.650750 0.426324 0.854039
Si Si3 0.058963 0.923819 0.996564
Si Si4 0.230136 0.576436 0.569104
Si Si5 0.603403 0.575563 0.939556
Si Si6 0.034847 0.072649 0.608020
Si Si7 0.596536 0.926555 0.665381
O O1 0.066251 0.250000 0.303709
O O2 0.179919 0.983415 0.442027
O O3 0.850218 0.026887 0.064738
O O4 0.078073 0.068610 0.212428
O O5 0.625672 0.250000 0.817704
O O6 0.578377 0.478915 0.846253
O O7 0.539461 0.507465 0.675503
O O8 0.113458 0.750000 0.067841
O O9 0.208464 0.028015 0.132095
O O10 0.000000 0.000000 0.000000
O O11 0.190098 0.750000 0.524312
O O12 0.433345 0.545203 0.801080
O O13 0.109187 0.507467 0.496453
O O14 0.616992 0.750000 0.934616
O O15 0.774311 0.523556 0.162860
O O16 0.020959 0.250000 0.585734
O O17 0.000000 0.000000 0.500000
O O18 0.567995 0.750000 0.633180
O O19 0.500000 0.000000 0.500000
#
# Coordination Sequence:
#
# PCOD8074681 Si02
#       7
#     4   4   4   4   4   4   4
#     4   9  19  35  56  81 112 149 193 243 294 352
#     4  10  20  36  58  84 114 151 196 245 300 362
#     4  10  21  37  55  81 115 155 201 249 303 363
#     4  10  21  37  60  88 116 152 198 241 290 354
#     4  10  21  38  60  88 119 154 199 244 292 354
#     4  10  22  40  61  87 121 158 195 243 297 355
#     4  11  22  37  57  81 113 155 200 251 306 361
#
# _framework density 20.077151000000001
#
# number of rings (size 3 to 8) (size 9 to 14) (size 15 to 20)
#    0.000    2.000    1.429    3.000    0.000    6.286 
#    0.000    2.857    0.000    0.000    0.000    0.000 
#    0.000    0.000    0.000    0.000    0.000    0.000 
#
# Total GULP energy -347067.510833 kJ/mol
# GULP energy per Si atom -12395.268244 kJ/mol
# Density = 2.003145 g / cm^3
# Si number density = 20.077151 Si / 1000 Ang^3
#
#
#
# Elastic Constant Matrix: (Units=GPa)
#
#
# Indices 1 2 3 4 5 6 
#
# 1 135.0968 44.7758 69.9940 0.0000 -12.9146 0.0000
# 2 44.7758 81.9609 44.9968 0.0000 -8.8754 0.0000
# 3 69.9940 44.9968 115.0458 0.0000 -7.5340 0.0000
# 4 0.0000 0.0000 0.0000 28.7210 0.0000 -7.7765
# 5 -12.9146 -8.8754 -7.5340 0.0000 33.4876 0.0000
# 6 0.0000 0.0000 0.0000 -7.7765 0.0000 35.3145
#
#
#
# Elastic Compliance Matrix: (Units=1/GPa)
#
#
# Indices 1 2 3 4 5 6 
#
# 1 0.011572 -0.002907 -0.005746 0.000000 0.002400 0.000000
# 2 -0.002907 0.016529 -0.004550 0.000000 0.002236 0.000000
# 3 -0.005746 -0.004550 0.013949 0.000000 -0.000284 0.000000
# 4 0.000000 0.000000 0.000000 0.037025 0.000000 0.008153
# 5 0.002400 0.002236 -0.000284 0.000000 0.031316 0.000000
# 6 0.000000 0.000000 0.000000 0.008153 0.000000 0.030112
#
#
# Mechanical properties :
#
#
# Convention : Reuss Voigt Hill
#
# Bulk Modulus (GPa) = 63.92258 72.40406 68.16332
# Shear Modulus (GPa) = 29.04856 30.99373 30.02115
#
# Velocity S-wave (km/s) = 3.80787 3.93330 3.87109
# Velocity P-wave (km/s) = 7.15827 7.53452 7.34880
#
# Compressibility (1/GPa) = 0.01564392
#
# Stress axis : x y z
#
# Youngs Moduli (GPa) = 86.41340 60.49915 71.68927
#
# Poissons Ratio (x) = 0.17590 0.41195
# Poissons Ratio (y) = 0.25124 0.32616
# Poissons Ratio (z) = 0.49656 0.27525
#
# Static dielectric constant tensor:
#      x y z
#    x 4.195210 0.000000 -0.307280 
#    y 0.000000 3.220200 0.000000 
#    z -0.307280 0.000000 3.868220 
# 
# 
# High freq. dielectric constant tensor:
#      x y z
#    x 1.785080 0.000000 -0.005310 
#    y 0.000000 1.780300 0.000000 
#    z -0.005310 0.000000 1.776390 
# 
# From -- ./inp_files/66763.got.cif
#   From: 2010.06.25/outbox.cif.g09.slc.cpg/sg11_34_cif.got.tgz:66763.got - 2010.06.27 23:14:04.
