data_PCOD8074256
_publ_section_title
;
Structure prediction by ZEFSAII (Michael W. Deem and Ramdas Pophale) SiO2 
 PCOD8074256
Probable space group: P 21/M
;
_chemical_formula_sum "Si O2"
_cell_formula_units_Z 28
_cell_length_a 15.294742
_cell_length_b 8.932648
_cell_length_c 20.757759
_cell_angle_alpha 90.000000
_cell_angle_beta 28.427741
_cell_angle_gamma 90.000000
_cell_volume 1350.067431
_symmetry_space_group_name_H-M "P 21/M"
_symmetry_group_IT_number 11
_symmetry_cell_setting 'monoclinic'
loop_
_space_group_symop_operation_xyz
x,y,z
-x,1/2+y,-z
-x,-y,-z
x,1/2-y,z
loop_
_atom_site_type_symbol
_atom_site_label
_atom_site_fract_x
_atom_site_fract_y
_atom_site_fract_z
Si Si1 0.216044 0.084551 0.903886
Si Si2 0.849975 0.574154 0.553465
Si Si3 0.118202 0.417912 0.830823
Si Si4 0.074894 0.928277 0.631030
Si Si5 0.494561 0.918645 0.178034
Si Si6 0.336676 0.075217 0.065767
Si Si7 0.313347 0.923779 0.597501
O O1 0.127408 0.250000 0.973197
O O2 0.259243 0.066911 0.799666
O O3 0.404148 0.071177 0.819676
O O4 0.084087 0.951713 0.011812
O O5 0.880244 0.750000 0.528113
O O6 0.664381 0.540192 0.712837
O O7 0.000000 0.500000 0.500000
O O8 0.855802 0.502700 0.479175
O O9 0.124668 0.250000 0.797821
O O10 0.161388 0.539916 0.749213
O O11 0.073830 0.750000 0.624565
O O12 0.867295 0.984467 0.783183
O O13 0.224253 0.979027 0.587986
O O14 0.415799 0.750000 0.218935
O O15 0.630076 0.959937 0.031309
O O16 0.346762 0.250000 0.073803
O O17 0.500000 0.000000 0.000000
O O18 0.354686 0.750000 0.567213
O O19 0.500000 0.000000 0.500000
#
# Coordination Sequence:
#
# PCOD8074256 Si02
#       7
#     4   4   4   4   4   4   4
#     4   9  19  36  59  85 116 157 200 249 308 365
#     4  12  26  43  64  93 127 165 210 259 316 378
#     4  10  20  35  57  87 121 157 202 252 305 361
#     4  10  23  44  67  91 126 171 213 258 317 381
#     4  10  21  39  63  89 120 159 206 254 311 373
#     4  10  21  38  63  92 120 156 203 254 313 378
#     4  11  24  41  62  87 123 167 213 261 314 376
#
# _framework density 20.739705000000001
#
# number of rings (size 3 to 8) (size 9 to 14) (size 15 to 20)
#    0.000    1.714    0.000    3.857    2.000    8.000 
#    0.000    1.429    0.000    0.000    0.000    0.000 
#    0.000    0.000    0.000    0.000    0.000    0.000 
#
# Total GULP energy -347115.305173 kJ/mol
# GULP energy per Si atom -12396.975185 kJ/mol
# Density = 2.069250 g / cm^3
# Si number density = 20.739705 Si / 1000 Ang^3
#
#
#
# Elastic Constant Matrix: (Units=GPa)
#
#
# Indices 1 2 3 4 5 6 
#
# 1 127.5043 46.1148 26.0440 0.0000 -2.6263 0.0000
# 2 46.1148 54.7269 26.0141 0.0000 -3.3199 0.0000
# 3 26.0440 26.0141 76.4996 0.0000 1.4560 0.0000
# 4 0.0000 0.0000 0.0000 36.1249 0.0000 -0.5267
# 5 -2.6263 -3.3199 1.4560 0.0000 34.8555 0.0000
# 6 0.0000 0.0000 0.0000 -0.5267 0.0000 31.3971
#
#
#
# Elastic Compliance Matrix: (Units=1/GPa)
#
#
# Indices 1 2 3 4 5 6 
#
# 1 0.011315 -0.009188 -0.000728 0.000000 0.000008 0.000000
# 2 -0.009188 0.029456 -0.006935 0.000000 0.002403 0.000000
# 3 -0.000728 -0.006935 0.015704 0.000000 -0.001371 0.000000
# 4 0.000000 0.000000 0.000000 0.027689 0.000000 0.000464
# 5 0.000008 0.002403 -0.001371 0.000000 0.028977 0.000000
# 6 0.000000 0.000000 0.000000 0.000464 0.000000 0.031858
#
#
# Mechanical properties :
#
#
# Convention : Reuss Voigt Hill
#
# Bulk Modulus (GPa) = 43.90819 50.56407 47.23613
# Shear Modulus (GPa) = 26.83987 31.17937 29.00962
#
# Velocity S-wave (km/s) = 3.60130 3.88153 3.74404
# Velocity P-wave (km/s) = 6.20561 6.67245 6.44326
#
# Compressibility (1/GPa) = 0.02277480
#
# Stress axis : x y z
#
# Youngs Moduli (GPa) = 88.38114 33.94838 63.67789
#
# Poissons Ratio (x) = 0.31191 0.04635
# Poissons Ratio (y) = 0.81201 0.44159
# Poissons Ratio (z) = 0.06433 0.23542
#
# Static dielectric constant tensor:
#      x y z
#    x 4.010050 0.000000 0.133640 
#    y 0.000000 4.037780 0.000000 
#    z 0.133640 0.000000 3.575780 
# 
# 
# High freq. dielectric constant tensor:
#      x y z
#    x 1.828710 0.000000 0.003730 
#    y 0.000000 1.803840 0.000000 
#    z 0.003730 0.000000 1.808160 
# 
# From -- ./inp_files/65388.got.cif
#   From: 2010.06.25/outbox.cif.g09.slc.cpg/sg11_33_cif.got.tgz:65388.got - 2010.06.27 23:14:04.
