data_PCOD8074438
_publ_section_title
;
Structure prediction by ZEFSAII (Michael W. Deem and Ramdas Pophale) SiO2 
 PCOD8074438
Probable space group: P 21/M
;
_chemical_formula_sum "Si O2"
_cell_formula_units_Z 32
_cell_length_a 12.521036
_cell_length_b 9.586327
_cell_length_c 30.309495
_cell_angle_alpha 90.000000
_cell_angle_beta 152.820976
_cell_angle_gamma 90.000000
_cell_volume 1661.770116
_symmetry_space_group_name_H-M "P 21/M"
_symmetry_group_IT_number 11
_symmetry_cell_setting 'monoclinic'
loop_
_space_group_symop_operation_xyz
x,y,z
-x,1/2+y,-z
-x,-y,-z
x,1/2-y,z
loop_
_atom_site_type_symbol
_atom_site_label
_atom_site_fract_x
_atom_site_fract_y
_atom_site_fract_z
Si Si1 0.345910 0.590799 0.886948
Si Si2 0.205316 0.912927 0.931603
Si Si3 0.773298 0.414151 0.803255
Si Si4 0.648797 0.596958 0.524521
Si Si5 0.573258 0.902900 0.401702
Si Si6 0.174982 0.910453 0.727937
Si Si7 0.567707 0.594988 0.244215
Si Si8 0.967177 0.404016 0.529161
O O1 0.444422 0.750000 0.923814
O O2 0.183264 0.567185 0.870436
O O3 0.194071 0.563595 0.787406
O O4 0.553969 0.479870 0.963458
O O5 0.199553 0.750000 0.942436
O O6 0.002704 0.992537 0.883579
O O7 0.835876 0.250000 0.826200
O O8 0.620718 0.452479 0.704017
O O9 0.641443 0.456582 0.800285
O O10 0.500000 0.500000 0.500000
O O11 0.671229 0.750000 0.554900
O O12 0.493304 0.612281 0.422829
O O13 0.916579 0.540509 0.617416
O O14 0.670867 0.750000 0.421250
O O15 0.762665 0.022061 0.480387
O O16 0.217289 0.750000 0.730952
O O17 0.381852 0.993989 0.778485
O O18 0.508480 0.750000 0.204400
O O19 0.796682 0.602376 0.357565
O O20 0.885895 0.250000 0.485245
O O21 0.000000 0.500000 0.500000
#
# Coordination Sequence:
#
# PCOD8074438 Si02
#       8
#     4   4   4   4   4   4   4   4
#     4   9  20  40  63  86 113 145 179 228 291 340
#     4  10  21  38  62  90 113 138 183 235 281 340
#     4  10  21  37  56  81 117 152 185 231 286 332
#     4  10  22  36  53  79 115 154 191 232 277 332
#     4  10  20  36  53  76 110 151 193 230 275 328
#     4  10  21  38  60  83 113 152 191 232 279 334
#     4  10  21  36  54  80 114 152 191 233 278 332
#     4  11  20  32  51  75 106 146 190 233 272 319
#
# _framework density 19.256575999999999
#
# number of rings (size 3 to 8) (size 9 to 14) (size 15 to 20)
#    0.000    2.000    2.500    0.750    1.750    3.500 
#    0.000    0.625    0.000    0.000    0.000    0.000 
#    0.000    0.000    0.000    0.000    0.000    0.000 
#
# Total GULP energy -396513.487881 kJ/mol
# GULP energy per Si atom -12391.046496 kJ/mol
# Density = 1.921275 g / cm^3
# Si number density = 19.256576 Si / 1000 Ang^3
#
#
#
# Elastic Constant Matrix: (Units=GPa)
#
#
# Indices 1 2 3 4 5 6 
#
# 1 96.7013 48.4974 24.8548 0.0000 11.5847 0.0000
# 2 48.4974 96.9496 21.7541 0.0000 15.9287 0.0000
# 3 24.8548 21.7541 41.9357 0.0000 4.7053 0.0000
# 4 0.0000 0.0000 0.0000 26.2181 0.0000 3.3034
# 5 11.5847 15.9287 4.7053 0.0000 35.2269 0.0000
# 6 0.0000 0.0000 0.0000 3.3034 0.0000 34.7646
#
#
#
# Elastic Compliance Matrix: (Units=1/GPa)
#
#
# Indices 1 2 3 4 5 6 
#
# 1 0.014957 -0.005986 -0.005595 0.000000 -0.001465 0.000000
# 2 -0.005986 0.014830 -0.003669 0.000000 -0.004247 0.000000
# 3 -0.005595 -0.003669 0.029109 0.000000 -0.000389 0.000000
# 4 0.000000 0.000000 0.000000 0.038604 0.000000 -0.003668
# 5 -0.001465 -0.004247 -0.000389 0.000000 0.030842 0.000000
# 6 0.000000 0.000000 0.000000 -0.003668 0.000000 0.029113
#
#
# Mechanical properties :
#
#
# Convention : Reuss Voigt Hill
#
# Bulk Modulus (GPa) = 35.21589 47.31101 41.26345
# Shear Modulus (GPa) = 25.32680 28.60727 26.96703
#
# Velocity S-wave (km/s) = 3.63054 3.85851 3.74626
# Velocity P-wave (km/s) = 5.99182 6.66880 6.33935
#
# Compressibility (1/GPa) = 0.02839628
#
# Stress axis : x y z
#
# Youngs Moduli (GPa) = 66.85996 67.43124 34.35348
#
# Poissons Ratio (x) = 0.40362 0.19222
# Poissons Ratio (y) = 0.40020 0.12604
# Poissons Ratio (z) = 0.37410 0.24739
#
# Static dielectric constant tensor:
#      x y z
#    x 3.400480 0.000000 -0.199480 
#    y 0.000000 3.603500 0.000000 
#    z -0.199480 0.000000 3.207000 
# 
# 
# High freq. dielectric constant tensor:
#      x y z
#    x 1.750050 0.000000 -0.006570 
#    y 0.000000 1.755910 0.000000 
#    z -0.006570 0.000000 1.723380 
# 
# From -- ./inp_files/73211.got.cif
#   From: 2010.06.25/outbox.cif.g09.slc.cpg/sg11_37_cif.got.tgz:73211.got - 2010.06.27 23:14:04.
