data_PCOD8074517
_publ_section_title
;
Structure prediction by ZEFSAII (Michael W. Deem and Ramdas Pophale) SiO2 
 PCOD8074517
Probable space group: P 21/M
;
_chemical_formula_sum "Si O2"
_cell_formula_units_Z 24
_cell_length_a 23.314449
_cell_length_b 8.759357
_cell_length_c 11.767750
_cell_angle_alpha 90.000000
_cell_angle_beta 146.606430
_cell_angle_gamma 90.000000
_cell_volume 1322.692894
_symmetry_space_group_name_H-M "P 21/M"
_symmetry_group_IT_number 11
_symmetry_cell_setting 'monoclinic'
loop_
_space_group_symop_operation_xyz
x,y,z
-x,1/2+y,-z
-x,-y,-z
x,1/2-y,z
loop_
_atom_site_type_symbol
_atom_site_label
_atom_site_fract_x
_atom_site_fract_y
_atom_site_fract_z
Si Si1 0.439270 0.921075 0.249227
Si Si2 0.886858 0.570144 0.305181
Si Si3 0.743704 0.426946 0.894084
Si Si4 0.636138 0.075262 0.493821
Si Si5 0.270923 0.922464 0.783245
Si Si6 0.610886 0.929074 0.215662
O O1 0.481809 0.750000 0.343010
O O2 0.364352 0.978644 0.225925
O O3 0.532416 0.041038 0.394415
O O4 0.377993 0.922293 0.029416
O O5 0.894042 0.750000 0.325982
O O6 0.819178 0.508922 0.297979
O O7 0.000000 0.500000 0.500000
O O8 0.837843 0.524582 0.101917
O O9 0.763892 0.250000 0.958796
O O10 0.733553 0.451699 0.741332
O O11 0.633178 0.250000 0.447211
O O12 0.643864 0.964438 0.399426
O O13 0.233286 0.750000 0.696493
O O14 0.295028 0.007011 0.705180
O O15 0.601453 0.750000 0.182739
O O16 0.500000 0.000000 0.000000
#
# Coordination Sequence:
#
# PCOD8074517 Si02
#       6
#     4   4   4   4   4   4
#     4   9  17  30  49  73 106 144 181 224 267 318
#     4  11  22  38  62  87 110 140 178 227 281 331
#     4   9  20  36  52  76 109 143 182 226 274 327
#     4  11  21  32  50  75 109 150 186 224 269 320
#     4  10  20  36  56  81 111 143 184 232 274 322
#     4  12  23  35  52  76 110 153 194 228 266 320
#
# _framework density 18.144803
#
# number of rings (size 3 to 8) (size 9 to 14) (size 15 to 20)
#    0.000    1.667    1.667    5.500    0.000    4.000 
#    0.000    0.000    0.000    1.000    0.000    0.000 
#    0.000    0.000    0.000    0.000    0.000    0.000 
#
# Total GULP energy -297619.760080 kJ/mol
# GULP energy per Si atom -12400.823337 kJ/mol
# Density = 1.810350 g / cm^3
# Si number density = 18.144803 Si / 1000 Ang^3
#
#
#
# Elastic Constant Matrix: (Units=GPa)
#
#
# Indices 1 2 3 4 5 6 
#
# 1 76.3147 45.8387 58.3202 0.0000 -9.7535 0.0000
# 2 45.8387 136.1310 51.3644 0.0000 1.5164 0.0000
# 3 58.3202 51.3644 87.6076 0.0000 -1.4252 0.0000
# 4 0.0000 0.0000 0.0000 27.8877 0.0000 -0.2777
# 5 -9.7535 1.5164 -1.4252 0.0000 26.8045 0.0000
# 6 0.0000 0.0000 0.0000 -0.2777 0.0000 32.5218
#
#
#
# Elastic Compliance Matrix: (Units=1/GPa)
#
#
# Indices 1 2 3 4 5 6 
#
# 1 0.030176 -0.003542 -0.017845 0.000000 0.010232 0.000000
# 2 -0.003542 0.009867 -0.003460 0.000000 -0.002031 0.000000
# 3 -0.017845 -0.003460 0.025242 0.000000 -0.004956 0.000000
# 4 0.000000 0.000000 0.000000 0.035861 0.000000 0.000306
# 5 0.010232 -0.002031 -0.004956 0.000000 0.040882 0.000000
# 6 0.000000 0.000000 0.000000 0.000306 0.000000 0.030751
#
#
# Mechanical properties :
#
#
# Convention : Reuss Voigt Hill
#
# Bulk Modulus (GPa) = 64.14070 67.89997 66.02034
# Shear Modulus (GPa) = 21.96163 27.07814 24.51989
#
# Velocity S-wave (km/s) = 3.48279 3.86727 3.68005
# Velocity P-wave (km/s) = 7.18326 7.57914 7.38385
#
# Compressibility (1/GPa) = 0.01559072
#
# Stress axis : x y z
#
# Youngs Moduli (GPa) = 33.13887 101.35157 39.61635
#
# Poissons Ratio (x) = 0.35896 0.70696
# Poissons Ratio (y) = 0.11737 0.13708
# Poissons Ratio (z) = 0.59137 0.35069
#
# Static dielectric constant tensor:
#      x y z
#    x 3.333490 0.000000 -0.196690 
#    y 0.000000 3.414050 0.000000 
#    z -0.196690 0.000000 3.205010 
# 
# 
# High freq. dielectric constant tensor:
#      x y z
#    x 1.692390 0.000000 -0.020780 
#    y 0.000000 1.714090 0.000000 
#    z -0.020780 0.000000 1.679350 
# 
# From -- ./inp_files/37239.got.cif
#   From: 2010.06.25/outbox.cif.g09.slc.cpg/sg11_19_cif.got.tgz:37239.got - 2010.06.27 23:14:04.
