data_PCOD8074769
_publ_section_title
;
Structure prediction by ZEFSAII (Michael W. Deem and Ramdas Pophale) SiO2 
 PCOD8074769
Probable space group: P 21/M
;
_chemical_formula_sum "Si O2"
_cell_formula_units_Z 28
_cell_length_a 9.741113
_cell_length_b 8.892922
_cell_length_c 27.136158
_cell_angle_alpha 90.000000
_cell_angle_beta 141.609332
_cell_angle_gamma 90.000000
_cell_volume 1459.846189
_symmetry_space_group_name_H-M "P 21/M"
_symmetry_group_IT_number 11
_symmetry_cell_setting 'monoclinic'
loop_
_space_group_symop_operation_xyz
x,y,z
-x,1/2+y,-z
-x,-y,-z
x,1/2-y,z
loop_
_atom_site_type_symbol
_atom_site_label
_atom_site_fract_x
_atom_site_fract_y
_atom_site_fract_z
Si Si1 0.690051 0.424471 0.522957
Si Si2 0.964028 0.072488 0.849646
Si Si3 0.764593 0.425240 0.434986
Si Si4 0.822621 0.071988 0.187215
Si Si5 0.499185 0.928928 0.734282
Si Si6 0.399409 0.421958 0.017737
Si Si7 0.860028 0.571608 0.300478
O O1 0.500000 0.500000 0.500000
O O2 0.671670 0.250000 0.528341
O O3 0.648924 0.464440 0.454251
O O4 0.932610 0.479474 0.607782
O O5 0.937229 0.250000 0.831848
O O6 0.136756 0.041662 0.944040
O O7 0.738872 0.001608 0.805432
O O8 0.044784 0.991564 0.822460
O O9 0.806558 0.250000 0.441099
O O10 0.609259 0.484436 0.347522
O O11 0.000000 0.500000 0.500000
O O12 0.870367 0.250000 0.205158
O O13 0.909694 0.986063 0.259561
O O14 0.555575 0.036721 0.108428
O O15 0.517918 0.750000 0.742764
O O16 0.356162 0.989452 0.739490
O O17 0.435105 0.250000 0.016327
O O18 0.500000 0.500000 0.000000
O O19 0.823510 0.750000 0.290654
#
# Coordination Sequence:
#
# PCOD8074769 Si02
#       7
#     4   4   4   4   4   4   4
#     4  10  23  40  58  83 113 146 185 230 278 332
#     4  10  20  36  59  87 116 148 188 232 278 334
#     4  10  21  39  60  82 109 146 188 229 276 331
#     4  10  20  36  59  86 116 149 187 233 281 334
#     4  11  23  38  58  85 114 150 191 234 283 335
#     4   8  16  32  55  82 112 146 184 227 277 330
#     4  11  23  40  58  82 115 151 189 233 285 337
#
# _framework density 19.180104
#
# number of rings (size 3 to 8) (size 9 to 14) (size 15 to 20)
#    0.000    2.000    1.429    1.714    2.000    3.429 
#    0.000    0.714    0.000    0.000    0.000    0.000 
#    0.000    0.000    0.000    0.000    0.000    0.000 
#
# Total GULP energy -347033.001524 kJ/mol
# GULP energy per Si atom -12394.035769 kJ/mol
# Density = 1.913645 g / cm^3
# Si number density = 19.180104 Si / 1000 Ang^3
#
#
#
# Elastic Constant Matrix: (Units=GPa)
#
#
# Indices 1 2 3 4 5 6 
#
# 1 76.7217 21.2378 17.0866 0.0000 16.8172 0.0000
# 2 21.2378 54.6059 28.1735 0.0000 7.5381 0.0000
# 3 17.0866 28.1735 59.9573 0.0000 17.0802 0.0000
# 4 0.0000 0.0000 0.0000 29.6028 0.0000 3.9426
# 5 16.8172 7.5381 17.0802 0.0000 34.3126 0.0000
# 6 0.0000 0.0000 0.0000 3.9426 0.0000 36.5738
#
#
#
# Elastic Compliance Matrix: (Units=1/GPa)
#
#
# Indices 1 2 3 4 5 6 
#
# 1 0.015960 -0.005173 -0.000248 0.000000 -0.006562 0.000000
# 2 -0.005173 0.025855 -0.011395 0.000000 0.002528 0.000000
# 3 -0.000248 -0.011395 0.024885 0.000000 -0.009762 0.000000
# 4 0.000000 0.000000 0.000000 0.034273 0.000000 -0.003695
# 5 -0.006562 0.002528 -0.009762 0.000000 0.036664 0.000000
# 6 0.000000 0.000000 0.000000 -0.003695 0.000000 0.027740
#
#
# Mechanical properties :
#
#
# Convention : Reuss Voigt Hill
#
# Bulk Modulus (GPa) = 30.24143 36.03118 33.13630
# Shear Modulus (GPa) = 23.80588 28.41697 26.11142
#
# Velocity S-wave (km/s) = 3.52685 3.85331 3.69369
# Velocity P-wave (km/s) = 5.69089 6.21481 5.95861
#
# Compressibility (1/GPa) = 0.03306722
#
# Stress axis : x y z
#
# Youngs Moduli (GPa) = 62.65716 38.67666 40.18543
#
# Poissons Ratio (x) = 0.20009 0.00996
# Poissons Ratio (y) = 0.32416 0.45791
# Poissons Ratio (z) = 0.01553 0.44072
#
# Static dielectric constant tensor:
#      x y z
#    x 3.285260 0.000000 -0.313160 
#    y 0.000000 3.470220 0.000000 
#    z -0.313160 0.000000 3.056110 
# 
# 
# High freq. dielectric constant tensor:
#      x y z
#    x 1.728940 0.000000 0.004760 
#    y 0.000000 1.753190 0.000000 
#    z 0.004760 0.000000 1.761290 
# 
# From -- ./inp_files/28235.got.cif
#   From: 2010.06.25/outbox.cif.g09.slc.cpg/sg11_15_cif.got.tgz:28235.got - 2010.06.27 23:14:04.
