data_PCOD8074729
_publ_section_title
;
Structure prediction by ZEFSAII (Michael W. Deem and Ramdas Pophale) SiO2 
 PCOD8074729
Probable space group: P 21/M
;
_chemical_formula_sum "Si O2"
_cell_formula_units_Z 28
_cell_length_a 14.459460
_cell_length_b 9.454238
_cell_length_c 19.601710
_cell_angle_alpha 90.000000
_cell_angle_beta 31.625335
_cell_angle_gamma 90.000000
_cell_volume 1405.090074
_symmetry_space_group_name_H-M "P 21/M"
_symmetry_group_IT_number 11
_symmetry_cell_setting 'monoclinic'
loop_
_space_group_symop_operation_xyz
x,y,z
-x,1/2+y,-z
-x,-y,-z
x,1/2-y,z
loop_
_atom_site_type_symbol
_atom_site_label
_atom_site_fract_x
_atom_site_fract_y
_atom_site_fract_z
Si Si1 0.151571 0.102225 0.960969
Si Si2 0.522409 0.084627 0.232185
Si Si3 0.825193 0.961039 0.204357
Si Si4 0.439074 0.921556 0.414255
Si Si5 0.236559 0.585154 0.154727
Si Si6 0.575440 0.587948 0.857895
Si Si7 0.862557 0.594596 0.331770
O O1 0.236885 0.250000 0.933750
O O2 0.128493 0.123619 0.893753
O O3 0.275728 0.969511 0.901257
O O4 0.958090 0.094496 0.117399
O O5 0.526317 0.250000 0.250818
O O6 0.420797 0.063094 0.225214
O O7 0.417540 0.987374 0.352212
O O8 0.615511 0.991930 0.335393
O O9 0.870159 0.880774 0.245814
O O10 0.448057 0.750000 0.407265
O O11 0.277920 0.974063 0.561376
O O12 0.241135 0.750000 0.168115
O O13 0.270474 0.504094 0.204458
O O14 0.049320 0.538930 0.241928
O O15 0.384597 0.541678 0.006641
O O16 0.613317 0.750000 0.852342
O O17 0.817214 0.750000 0.391827
#
# Coordination Sequence:
#
# PCOD8074729 Si02
#       7
#     4   4   4   4   4   4   4
#     4  10  21  35  55  86 117 145 182 227 273 323
#     4  10  20  36  59  83 110 146 184 224 276 330
#     4  10  21  35  55  80 112 147 182 224 272 322
#     4  11  24  39  55  79 110 145 189 233 273 321
#     4   9  19  34  55  85 113 139 175 220 271 325
#     4   9  18  35  59  85 112 141 173 216 273 331
#     4  11  22  38  58  78 108 149 189 227 271 324
#
# _framework density 19.927548999999999
#
# number of rings (size 3 to 8) (size 9 to 14) (size 15 to 20)
#    0.000    2.000    0.000    4.286    0.000   10.286 
#    0.000    3.571    0.000    0.000    0.000    0.000 
#    0.000    0.000    0.000    0.000    0.000    0.000 
#
# Total GULP energy -346931.470897 kJ/mol
# GULP energy per Si atom -12390.409675 kJ/mol
# Density = 1.988219 g / cm^3
# Si number density = 19.927549 Si / 1000 Ang^3
#
#
#
# Elastic Constant Matrix: (Units=GPa)
#
#
# Indices 1 2 3 4 5 6 
#
# 1 121.3181 39.1720 46.6411 0.0000 -5.0111 0.0000
# 2 39.1720 84.9016 39.8014 0.0000 2.8612 0.0000
# 3 46.6411 39.8014 95.7658 0.0000 -10.2924 0.0000
# 4 0.0000 0.0000 0.0000 17.0171 0.0000 -11.6181
# 5 -5.0111 2.8612 -10.2924 0.0000 22.1498 0.0000
# 6 0.0000 0.0000 0.0000 -11.6181 0.0000 -61.3328
#
#
#
# Elastic Compliance Matrix: (Units=1/GPa)
#
#
# Indices 1 2 3 4 5 6 
#
# 1 0.010792 -0.003238 -0.003792 0.000000 0.001098 0.000000
# 2 -0.003238 0.016138 -0.005718 0.000000 -0.005474 0.000000
# 3 -0.003792 -0.005718 0.015423 0.000000 0.007047 0.000000
# 4 0.000000 0.000000 0.000000 0.052035 0.000000 -0.009857
# 5 0.001098 -0.005474 0.007047 0.000000 0.049377 0.000000
# 6 0.000000 0.000000 0.000000 -0.009857 0.000000 -0.014437
#
#
# Mechanical properties :
#
#
# Convention : Reuss Voigt Hill
#
# Bulk Modulus (GPa) = 59.32915 61.46827 60.39871
# Shear Modulus (GPa) = 31.16389 7.32489 19.24439
#
# Velocity S-wave (km/s) = 3.95886 1.91931 3.11097
# Velocity P-wave (km/s) = 7.12277 5.98536 6.57869
#
# Compressibility (1/GPa) = 0.01685512
#
# Stress axis : x y z
#
# Youngs Moduli (GPa) = 92.66463 61.96717 64.83866
#
# Poissons Ratio (x) = 0.20067 0.24587
# Poissons Ratio (y) = 0.30008 0.37076
# Poissons Ratio (z) = 0.35138 0.35434
#
# Static dielectric constant tensor:
#      x y z
#    x 3.619750 0.000000 0.024230 
#    y 0.000000 3.632320 0.000000 
#    z 0.024230 0.000000 3.520270 
# 
# 
# High freq. dielectric constant tensor:
#      x y z
#    x 1.773150 0.000000 0.002820 
#    y 0.000000 1.775510 0.000000 
#    z 0.002820 0.000000 1.762270 
# 
# From -- ./inp_files/65368.got.cif
#   From: 2010.06.25/outbox.cif.g09.slc.cpg/sg11_33_cif.got.tgz:65368.got - 2010.06.27 23:14:04.
