data_PCOD8074268
_publ_section_title
;
Structure prediction by ZEFSAII (Michael W. Deem and Ramdas Pophale) SiO2 
 PCOD8074268
Probable space group: P 21/M
;
_chemical_formula_sum "Si O2"
_cell_formula_units_Z 28
_cell_length_a 16.108592
_cell_length_b 9.106450
_cell_length_c 12.231135
_cell_angle_alpha 90.000000
_cell_angle_beta 123.641036
_cell_angle_gamma 90.000000
_cell_volume 1493.724713
_symmetry_space_group_name_H-M "P 21/M"
_symmetry_group_IT_number 11
_symmetry_cell_setting 'monoclinic'
loop_
_space_group_symop_operation_xyz
x,y,z
-x,1/2+y,-z
-x,-y,-z
x,1/2-y,z
loop_
_atom_site_type_symbol
_atom_site_label
_atom_site_fract_x
_atom_site_fract_y
_atom_site_fract_z
Si Si1 0.288562 0.419602 0.471445
Si Si2 0.072538 0.580518 0.694523
Si Si3 0.484923 0.584867 0.659362
Si Si4 0.293976 0.080632 0.230499
Si Si5 0.124661 0.921634 0.488817
Si Si6 0.246562 0.922085 0.986234
Si Si7 0.440258 0.083023 0.048326
O O1 0.284395 0.250000 0.501511
O O2 0.402212 0.471998 0.558954
O O3 0.248885 0.442595 0.318417
O O4 0.222854 0.509769 0.508183
O O5 0.040323 0.750000 0.670748
O O6 0.125134 0.540230 0.617955
O O7 0.145875 0.543704 0.847169
O O8 0.973525 0.485812 0.640475
O O9 0.457327 0.750000 0.601167
O O10 0.589837 0.534012 0.683957
O O11 0.491793 0.578485 0.794935
O O12 0.286527 0.250000 0.186788
O O13 0.232894 0.981727 0.099848
O O14 0.127593 0.750000 0.468831
O O15 0.270208 0.750000 0.005979
O O16 0.335431 0.003998 0.990127
O O17 0.419128 0.250000 0.996618
O O18 0.500000 0.000000 0.000000
#
# Coordination Sequence:
#
# PCOD8074268 Si02
#       7
#     4   4   4   4   4   4   4
#     4  11  22  35  55  82 112 144 185 229 273 324
#     4   9  20  39  59  81 110 140 176 225 277 327
#     4   9  19  35  53  75 108 147 185 226 271 315
#     4   9  20  38  55  78 112 148 184 228 271 319
#     4  10  21  37  58  83 110 141 178 223 276 329
#     4  10  20  35  58  82 107 143 182 223 277 330
#     4  10  21  35  51  77 113 147 184 226 266 319
#
# _framework density 18.745087000000002
#
# number of rings (size 3 to 8) (size 9 to 14) (size 15 to 20)
#    0.000    2.286    0.000    3.000    2.000    5.714 
#    0.000    0.714    0.000    0.000    0.000    0.000 
#    0.000    0.000    0.000    0.000    0.000    0.000 
#
# Total GULP energy -347276.650874 kJ/mol
# GULP energy per Si atom -12402.737531 kJ/mol
# Density = 1.870242 g / cm^3
# Si number density = 18.745087 Si / 1000 Ang^3
#
#
#
# Elastic Constant Matrix: (Units=GPa)
#
#
# Indices 1 2 3 4 5 6 
#
# 1 50.7765 29.3209 28.0272 0.0000 -3.5775 0.0000
# 2 29.3209 96.8242 48.9624 0.0000 7.9833 0.0000
# 3 28.0272 48.9624 87.3268 0.0000 9.9883 0.0000
# 4 0.0000 0.0000 0.0000 34.1622 0.0000 1.5374
# 5 -3.5775 7.9833 9.9883 0.0000 21.2024 0.0000
# 6 0.0000 0.0000 0.0000 1.5374 0.0000 33.4021
#
#
#
# Elastic Compliance Matrix: (Units=1/GPa)
#
#
# Indices 1 2 3 4 5 6 
#
# 1 0.027411 -0.005718 -0.006729 0.000000 0.009948 0.000000
# 2 -0.005718 0.015667 -0.006515 0.000000 -0.003795 0.000000
# 3 -0.006729 -0.006515 0.018088 0.000000 -0.007203 0.000000
# 4 0.000000 0.000000 0.000000 0.029333 0.000000 -0.001350
# 5 0.009948 -0.003795 -0.007203 0.000000 0.053665 0.000000
# 6 0.000000 0.000000 0.000000 -0.001350 0.000000 0.030000
#
#
# Mechanical properties :
#
#
# Convention : Reuss Voigt Hill
#
# Bulk Modulus (GPa) = 43.02712 49.72760 46.37736
# Shear Modulus (GPa) = 22.74416 26.32782 24.53599
#
# Velocity S-wave (km/s) = 3.48708 3.75176 3.62184
# Velocity P-wave (km/s) = 6.26232 6.73450 6.50270
#
# Compressibility (1/GPa) = 0.02324115
#
# Stress axis : x y z
#
# Youngs Moduli (GPa) = 36.48104 63.82858 55.28628
#
# Poissons Ratio (x) = 0.36499 0.37204
# Poissons Ratio (y) = 0.20861 0.36018
# Poissons Ratio (z) = 0.24550 0.41583
#
# Static dielectric constant tensor:
#      x y z
#    x 3.328420 0.000000 -0.144330 
#    y 0.000000 3.538290 0.000000 
#    z -0.144330 0.000000 3.464780 
# 
# 
# High freq. dielectric constant tensor:
#      x y z
#    x 1.716620 0.000000 -0.009210 
#    y 0.000000 1.738100 0.000000 
#    z -0.009210 0.000000 1.726030 
# 
# From -- ./inp_files/37808.got.cif
#   From: 2010.06.25/outbox.cif.g09.slc.cpg/sg11_19_cif.got.tgz:37808.got - 2010.06.27 23:14:04.
