data_PCOD8074289
_publ_section_title
;
Structure prediction by ZEFSAII (Michael W. Deem and Ramdas Pophale) SiO2 
 PCOD8074289
Probable space group: P 21/M
;
_chemical_formula_sum "Si O2"
_cell_formula_units_Z 24
_cell_length_a 15.065882
_cell_length_b 13.501466
_cell_length_c 8.748913
_cell_angle_alpha 90.000000
_cell_angle_beta 140.847582
_cell_angle_gamma 90.000000
_cell_volume 1123.632277
_symmetry_space_group_name_H-M "P 21/M"
_symmetry_group_IT_number 11
_symmetry_cell_setting 'monoclinic'
loop_
_space_group_symop_operation_xyz
x,y,z
-x,1/2+y,-z
-x,-y,-z
x,1/2-y,z
loop_
_atom_site_type_symbol
_atom_site_label
_atom_site_fract_x
_atom_site_fract_y
_atom_site_fract_z
Si Si1 0.530082 0.639932 0.333990
Si Si2 0.780582 0.989992 0.687526
Si Si3 0.007769 0.471681 0.760936
Si Si4 0.902891 0.868717 0.417478
Si Si5 0.442906 0.642762 0.550923
Si Si6 0.605119 0.528150 0.004312
O O1 0.510766 0.750000 0.239715
O O2 0.682531 0.597479 0.486263
O O3 0.537982 0.640122 0.527201
O O4 0.398298 0.571919 0.103712
O O5 0.858737 0.040195 0.648077
O O6 0.684414 0.069389 0.641469
O O7 0.879756 0.953213 0.955760
O O8 0.009624 0.582191 0.684832
O O9 0.033376 0.387695 0.666583
O O10 0.884745 0.750000 0.419665
O O11 0.760790 0.934234 0.252631
O O12 0.376564 0.750000 0.488390
O O13 0.539910 0.618995 0.824367
O O14 0.500000 0.500000 0.000000
#
# Coordination Sequence:
#
# PCOD8074289 Si02
#       6
#     4   4   4   4   4   4
#     4  10  21  38  63  90 115 151 195 241 295 348
#     4  10  20  38  60  83 117 149 192 248 288 333
#     4  10  23  39  58  86 114 154 201 238 278 339
#     4  11  23  41  61  83 119 161 195 231 287 351
#     4  10  20  35  58  85 113 148 190 240 295 343
#     4  11  22  37  59  88 118 147 187 240 291 345
#
# _framework density 21.359302
#
# number of rings (size 3 to 8) (size 9 to 14) (size 15 to 20)
#    0.000    1.667    0.000    6.500    0.000    6.667 
#    0.000    8.333    0.000    0.000    0.000    0.000 
#    0.000    0.000    0.000    0.000    0.000    0.000 
#
# Total GULP energy -297339.407740 kJ/mol
# GULP energy per Si atom -12389.141989 kJ/mol
# Density = 2.131069 g / cm^3
# Si number density = 21.359302 Si / 1000 Ang^3
#
#
#
# Elastic Constant Matrix: (Units=GPa)
#
#
# Indices 1 2 3 4 5 6 
#
# 1 91.1103 13.5009 9.2194 0.0000 2.8752 0.0000
# 2 13.5009 143.0815 26.6044 0.0000 10.5259 0.0000
# 3 9.2194 26.6044 44.2812 0.0000 -0.2051 0.0000
# 4 0.0000 0.0000 0.0000 14.6197 0.0000 -5.5858
# 5 2.8752 10.5259 -0.2051 0.0000 32.7750 0.0000
# 6 0.0000 0.0000 0.0000 -5.5858 0.0000 6.0227
#
#
#
# Elastic Compliance Matrix: (Units=1/GPa)
#
#
# Indices 1 2 3 4 5 6 
#
# 1 0.011295 -0.000641 -0.001970 0.000000 -0.000797 0.000000
# 2 -0.000641 0.008125 -0.004760 0.000000 -0.002583 0.000000
# 3 -0.001970 -0.004760 0.025862 0.000000 0.001863 0.000000
# 4 0.000000 0.000000 0.000000 0.105943 0.000000 0.098257
# 5 -0.000797 -0.002583 0.001863 0.000000 0.031422 0.000000
# 6 0.000000 0.000000 0.000000 0.098257 0.000000 0.257167
#
#
# Mechanical properties :
#
#
# Convention : Reuss Voigt Hill
#
# Bulk Modulus (GPa) = 32.74466 41.90249 37.32357
# Shear Modulus (GPa) = 10.75883 25.96005 18.35944
#
# Velocity S-wave (km/s) = 2.24678 3.49004 2.93499
# Velocity P-wave (km/s) = 4.70046 5.99174 5.38495
#
# Compressibility (1/GPa) = 0.03053933
#
# Stress axis : x y z
#
# Youngs Moduli (GPa) = 88.53316 123.08408 38.66745
#
# Poissons Ratio (x) = 0.07887 0.07619
# Poissons Ratio (y) = 0.05673 0.18405
# Poissons Ratio (z) = 0.17444 0.58586
#
# Static dielectric constant tensor:
#      x y z
#    x 4.146290 0.000000 -0.050910 
#    y 0.000000 4.002630 0.000000 
#    z -0.050910 0.000000 3.950890 
# 
# 
# High freq. dielectric constant tensor:
#      x y z
#    x 1.851060 0.000000 -0.011870 
#    y 0.000000 1.824200 0.000000 
#    z -0.011870 0.000000 1.835600 
# 
# From -- ./inp_files/22309.got.cif
#   From: 2010.06.25/outbox.cif.g09.slc.cpg/sg11_12_cif.got.tgz:22309.got - 2010.06.27 23:14:04.
