data_PCOD8074258
_publ_section_title
;
Structure prediction by ZEFSAII (Michael W. Deem and Ramdas Pophale) SiO2 
 PCOD8074258
Probable space group: P 21/M
;
_chemical_formula_sum "Si O2"
_cell_formula_units_Z 32
_cell_length_a 23.855233
_cell_length_b 8.839109
_cell_length_c 15.027286
_cell_angle_alpha 90.000000
_cell_angle_beta 150.719891
_cell_angle_gamma 90.000000
_cell_volume 1549.716711
_symmetry_space_group_name_H-M "P 21/M"
_symmetry_group_IT_number 11
_symmetry_cell_setting 'monoclinic'
loop_
_space_group_symop_operation_xyz
x,y,z
-x,1/2+y,-z
-x,-y,-z
x,1/2-y,z
loop_
_atom_site_type_symbol
_atom_site_label
_atom_site_fract_x
_atom_site_fract_y
_atom_site_fract_z
Si Si1 0.012244 0.071358 0.741174
Si Si2 0.639927 0.930785 0.010412
Si Si3 0.695312 0.586690 0.595589
Si Si4 0.232658 0.570291 0.980321
Si Si5 0.617683 0.422537 0.648572
Si Si6 0.247847 0.571199 0.668107
Si Si7 0.606033 0.927480 0.285084
Si Si8 0.051261 0.086952 0.990153
O O1 0.035965 0.250000 0.768896
O O2 0.882508 0.029960 0.536563
O O3 0.033920 0.005761 0.870926
O O4 0.101279 0.989390 0.797367
O O5 0.629047 0.750000 0.993064
O O6 0.689419 0.990552 0.985897
O O7 0.728401 0.983319 0.208125
O O8 0.516945 0.004128 0.860672
O O9 0.630504 0.750000 0.518010
O O10 0.643343 0.451470 0.580746
O O11 0.691370 0.543717 0.486313
O O12 0.819140 0.610379 0.805727
O O13 0.233229 0.750000 0.965285
O O14 0.285181 0.519668 0.148511
O O15 0.500000 0.500000 0.500000
O O16 0.599194 0.250000 0.641335
O O17 0.264598 0.750000 0.704009
O O18 0.338268 0.514338 0.720188
O O19 0.593214 0.750000 0.243946
O O20 0.989111 0.250000 0.897311
O O21 0.000000 0.000000 0.000000
#
# Coordination Sequence:
#
# PCOD8074258 Si02
#       8
#     4   4   4   4   4   4   4   4
#     4  10  22  41  65  92 127 169 212 259 313 375
#     4  12  26  44  67  92 122 166 213 266 326 383
#     4  10  21  37  59  87 123 162 199 242 297 358
#     4  11  24  42  64  93 128 166 212 265 317 376
#     4  11  23  37  58  88 122 162 204 250 302 361
#     4  11  24  43  67  95 126 164 211 266 322 380
#     4  11  23  41  65  96 131 166 209 263 319 379
#     4  10  20  35  57  87 123 161 202 245 294 357
#
# _framework density 20.648934000000001
#
# number of rings (size 3 to 8) (size 9 to 14) (size 15 to 20)
#    0.000    1.250    1.250    4.500    0.000    8.000 
#    0.000    0.000    0.000    0.000    0.000    0.000 
#    0.000    0.000    0.000    0.000    0.000    0.000 
#
# Total GULP energy -396686.546550 kJ/mol
# GULP energy per Si atom -12396.454580 kJ/mol
# Density = 2.060194 g / cm^3
# Si number density = 20.648934 Si / 1000 Ang^3
#
#
#
# Elastic Constant Matrix: (Units=GPa)
#
#
# Indices 1 2 3 4 5 6 
#
# 1 86.4844 39.7780 7.9443 0.0000 7.8904 0.0000
# 2 39.7780 88.0797 28.3388 0.0000 4.1729 0.0000
# 3 7.9443 28.3388 77.3218 0.0000 -0.5181 0.0000
# 4 0.0000 0.0000 0.0000 -0.1495 0.0000 -48.8556
# 5 7.8904 4.1729 -0.5181 0.0000 40.4165 0.0000
# 6 0.0000 0.0000 0.0000 -48.8556 0.0000 -35.1333
#
#
#
# Elastic Compliance Matrix: (Units=1/GPa)
#
#
# Indices 1 2 3 4 5 6 
#
# 1 0.014855 -0.006927 0.000998 0.000000 -0.002172 0.000000
# 2 -0.006927 0.016180 -0.005221 0.000000 -0.000385 0.000000
# 3 0.000998 -0.005221 0.014747 0.000000 0.000533 0.000000
# 4 0.000000 0.000000 0.000000 0.014752 0.000000 -0.020514
# 5 -0.002172 -0.000385 0.000533 0.000000 0.025213 0.000000
# 6 0.000000 0.000000 0.000000 -0.020514 0.000000 0.000063
#
#
# Mechanical properties :
#
#
# Convention : Reuss Voigt Hill
#
# Bulk Modulus (GPa) = 42.58456 44.88978 43.73717
# Shear Modulus (GPa) = 43.12665 12.74837 27.93751
#
# Velocity S-wave (km/s) = 4.57504 2.48742 3.68227
# Velocity P-wave (km/s) = 6.96964 5.48055 6.26946
#
# Compressibility (1/GPa) = 0.02348269
#
# Stress axis : x y z
#
# Youngs Moduli (GPa) = 67.31584 61.80586 67.80829
#
# Poissons Ratio (x) = 0.42813 -0.06767
# Poissons Ratio (y) = 0.46630 0.35401
# Poissons Ratio (z) = -0.06718 0.32268
#
# Static dielectric constant tensor:
#      x y z
#    x 3.579040 0.000000 -0.072340 
#    y 0.000000 2.186270 0.000000 
#    z -0.072340 0.000000 3.857020 
# 
# 
# High freq. dielectric constant tensor:
#      x y z
#    x 1.813690 0.000000 -0.002940 
#    y 0.000000 1.812050 0.000000 
#    z -0.002940 0.000000 1.817690 
# 
# From -- ./inp_files/55775.got.cif
#   From: 2010.06.25/outbox.cif.g09.slc.cpg/sg11_28_cif.got.tgz:55775.got - 2010.06.27 23:14:04.
