data_PCOD8074978
_publ_section_title
;
Structure prediction by ZEFSAII (Michael W. Deem and Ramdas Pophale) SiO2 
 PCOD8074978
Probable space group: P 21/M
;
_chemical_formula_sum "Si O2"
_cell_formula_units_Z 28
_cell_length_a 25.715849
_cell_length_b 9.108136
_cell_length_c 19.956094
_cell_angle_alpha 90.000000
_cell_angle_beta 20.753556
_cell_angle_gamma 90.000000
_cell_volume 1656.293199
_symmetry_space_group_name_H-M "P 21/M"
_symmetry_group_IT_number 11
_symmetry_cell_setting 'monoclinic'
loop_
_space_group_symop_operation_xyz
x,y,z
-x,1/2+y,-z
-x,-y,-z
x,1/2-y,z
loop_
_atom_site_type_symbol
_atom_site_label
_atom_site_fract_x
_atom_site_fract_y
_atom_site_fract_z
Si Si1 0.011931 0.420295 0.680586
Si Si2 0.016914 0.415833 0.410844
Si Si3 0.855934 0.918990 0.339240
Si Si4 0.058597 0.421797 0.994772
Si Si5 0.740267 0.916027 0.979688
Si Si6 0.447558 0.422516 0.360901
Si Si7 0.606308 0.579229 0.422558
O O1 0.985834 0.250000 0.696257
O O2 0.127741 0.442491 0.600838
O O3 0.074562 0.500564 0.538023
O O4 0.853561 0.493292 0.891014
O O5 0.957084 0.250000 0.490637
O O6 0.188655 0.415387 0.180974
O O7 0.000000 0.500000 0.500000
O O8 0.885008 0.750000 0.283688
O O9 0.693552 0.966547 0.513065
O O10 0.976045 0.019532 0.159212
O O11 0.030903 0.250000 0.019815
O O12 0.229276 0.458420 0.797534
O O13 0.000000 0.500000 0.000000
O O14 0.724658 0.750000 0.026120
O O15 0.583355 0.992167 0.165453
O O16 0.478524 0.250000 0.319774
O O17 0.421366 0.475747 0.468418
O O18 0.500000 0.500000 0.500000
O O19 0.573287 0.750000 0.457780
#
# Coordination Sequence:
#
# PCOD8074978 Si02
#       7
#     4   4   4   4   4   4   4
#     4   9  18  33  55  81 107 140 174 214 265 312
#     4   9  18  32  54  83 114 140 174 217 256 309
#     4  10  21  37  56  78 106 140 181 223 266 322
#     4  11  22  38  56  76 102 137 179 226 273 322
#     4   9  20  34  51  79 109 135 172 215 255 308
#     4  10  20  37  54  72 103 140 176 217 266 317
#     4  10  23  38  52  73 102 134 176 224 270 319
#
# _framework density 16.905218999999999
#
# number of rings (size 3 to 8) (size 9 to 14) (size 15 to 20)
#    0.857    1.429    1.429    1.286    2.000    3.429 
#    0.000    0.000    0.000    0.857    0.000    0.000 
#    0.000    0.000    0.000    0.000    0.000    0.000 
#
# Total GULP energy -347069.977539 kJ/mol
# GULP energy per Si atom -12395.356341 kJ/mol
# Density = 1.686674 g / cm^3
# Si number density = 16.905219 Si / 1000 Ang^3
#
#
#
# Elastic Constant Matrix: (Units=GPa)
#
#
# Indices 1 2 3 4 5 6 
#
# 1 135.4635 63.3942 53.6040 0.0000 -8.9718 0.0000
# 2 63.3942 99.8131 44.7789 0.0000 -7.0375 0.0000
# 3 53.6040 44.7789 73.7234 0.0000 -11.8056 0.0000
# 4 0.0000 0.0000 0.0000 31.4129 0.0000 1.8230
# 5 -8.9718 -7.0375 -11.8056 0.0000 24.6477 0.0000
# 6 0.0000 0.0000 0.0000 1.8230 0.0000 27.6948
#
#
#
# Elastic Compliance Matrix: (Units=1/GPa)
#
#
# Indices 1 2 3 4 5 6 
#
# 1 0.011993 -0.005093 -0.005589 0.000000 0.000234 0.000000
# 2 -0.005093 0.015934 -0.006004 0.000000 -0.000180 0.000000
# 3 -0.005589 -0.006004 0.022392 0.000000 0.006976 0.000000
# 4 0.000000 0.000000 0.000000 0.031956 0.000000 -0.002103
# 5 0.000234 -0.000180 0.006976 0.000000 0.043947 0.000000
# 6 0.000000 0.000000 0.000000 -0.002103 0.000000 0.036246
#
#
# Mechanical properties :
#
#
# Convention : Reuss Voigt Hill
#
# Bulk Modulus (GPa) = 59.00779 70.28380 64.64580
# Shear Modulus (GPa) = 24.81528 26.56595 25.69062
#
# Velocity S-wave (km/s) = 3.83548 3.96847 3.90254
# Velocity P-wave (km/s) = 7.38887 7.91605 7.65700
#
# Compressibility (1/GPa) = 0.01694691
#
# Stress axis : x y z
#
# Youngs Moduli (GPa) = 83.38529 62.75758 44.65929
#
# Poissons Ratio (x) = 0.31962 0.24959
# Poissons Ratio (y) = 0.42468 0.26814
# Poissons Ratio (z) = 0.46602 0.37680
#
# Static dielectric constant tensor:
#      x y z
#    x 3.148160 0.000000 0.124600 
#    y 0.000000 3.207180 0.000000 
#    z 0.124600 0.000000 3.201800 
# 
# 
# High freq. dielectric constant tensor:
#      x y z
#    x 1.644880 0.000000 -0.001630 
#    y 0.000000 1.664460 0.000000 
#    z -0.001630 0.000000 1.632690 
# 
# From -- ./inp_files/66871.got.cif
#   From: 2010.06.25/outbox.cif.g09.slc.cpg/sg11_34_cif.got.tgz:66871.got - 2010.06.27 23:14:04.
