data_PCOD8074842
_publ_section_title
;
Structure prediction by ZEFSAII (Michael W. Deem and Ramdas Pophale) SiO2 
 PCOD8074842
Probable space group: P 21/M
;
_chemical_formula_sum "Si O2"
_cell_formula_units_Z 32
_cell_length_a 27.725227
_cell_length_b 9.134581
_cell_length_c 12.496822
_cell_angle_alpha 90.000000
_cell_angle_beta 149.245952
_cell_angle_gamma 90.000000
_cell_volume 1618.396072
_symmetry_space_group_name_H-M "P 21/M"
_symmetry_group_IT_number 11
_symmetry_cell_setting 'monoclinic'
loop_
_space_group_symop_operation_xyz
x,y,z
-x,1/2+y,-z
-x,-y,-z
x,1/2-y,z
loop_
_atom_site_type_symbol
_atom_site_label
_atom_site_fract_x
_atom_site_fract_y
_atom_site_fract_z
Si Si1 0.463253 0.077428 0.825308
Si Si2 0.833745 0.082132 0.437502
Si Si3 0.227775 0.083778 0.080820
Si Si4 0.902139 0.078146 0.331224
Si Si5 0.629459 0.082294 0.985582
Si Si6 0.907067 0.576018 0.778834
Si Si7 0.256404 0.076779 0.372729
Si Si8 0.408215 0.085639 0.292612
O O1 0.461275 0.250000 0.842616
O O2 0.359866 0.014359 0.599109
O O3 0.534828 0.037072 0.866653
O O4 0.500000 0.000000 0.000000
O O5 0.861327 0.250000 0.515443
O O6 0.863873 0.038396 0.375453
O O7 0.721176 0.058174 0.235113
O O8 0.888393 0.976555 0.622663
O O9 0.187559 0.250000 0.996246
O O10 0.222333 0.021905 0.191356
O O11 0.337069 0.082066 0.256282
O O12 0.169560 0.977033 0.894845
O O13 0.915037 0.250000 0.341539
O O14 0.000000 0.000000 0.500000
O O15 0.624771 0.250000 0.938097
O O16 0.642050 0.983551 0.905706
O O17 0.920241 0.750000 0.805800
O O18 0.819200 0.524281 0.683991
O O19 0.000000 0.500000 0.000000
O O20 0.264180 0.250000 0.383765
O O21 0.437746 0.250000 0.320399
O O22 0.500000 0.000000 0.500000
#
# Coordination Sequence:
#
# PCOD8074842 Si02
#       8
#     4   4   4   4   4   4   4   4
#     4  10  20  36  60  87 118 156 199 244 295 356
#     4  10  22  41  63  88 123 159 194 245 304 359
#     4  10  21  40  63  88 120 160 204 247 302 365
#     4  11  24  41  63  91 123 159 200 250 305 363
#     4  10  20  37  60  86 119 156 195 243 300 358
#     4  11  24  41  63  88 118 155 202 253 302 361
#     4   9  20  39  60  85 119 158 194 241 302 355
#     4  11  22  35  57  87 121 160 202 246 293 356
#
# _framework density 19.772663000000001
#
# number of rings (size 3 to 8) (size 9 to 14) (size 15 to 20)
#    0.000    1.750    1.250    2.625    1.750    4.500 
#    0.000    1.875    0.000    0.000    0.000    0.000 
#    0.000    0.000    0.000    0.000    0.000    0.000 
#
# Total GULP energy -396909.347658 kJ/mol
# GULP energy per Si atom -12403.417114 kJ/mol
# Density = 1.972766 g / cm^3
# Si number density = 19.772663 Si / 1000 Ang^3
#
#
#
# Elastic Constant Matrix: (Units=GPa)
#
#
# Indices 1 2 3 4 5 6 
#
# 1 109.1766 45.6554 66.5666 0.0000 -0.5517 0.0000
# 2 45.6554 78.9916 53.3109 0.0000 -4.3136 0.0000
# 3 66.5666 53.3109 142.7663 0.0000 -2.2638 0.0000
# 4 0.0000 0.0000 0.0000 39.6503 0.0000 -2.4557
# 5 -0.5517 -4.3136 -2.2638 0.0000 41.8272 0.0000
# 6 0.0000 0.0000 0.0000 -2.4557 0.0000 28.6563
#
#
#
# Elastic Compliance Matrix: (Units=1/GPa)
#
#
# Indices 1 2 3 4 5 6 
#
# 1 0.014135 -0.005010 -0.004729 0.000000 -0.000586 0.000000
# 2 -0.005010 0.018784 -0.004652 0.000000 0.001619 0.000000
# 3 -0.004729 -0.004652 0.010947 0.000000 0.000050 0.000000
# 4 0.000000 0.000000 0.000000 0.025355 0.000000 0.002173
# 5 -0.000586 0.001619 0.000050 0.000000 0.024070 0.000000
# 6 0.000000 0.000000 0.000000 0.002173 0.000000 0.035083
#
#
# Mechanical properties :
#
#
# Convention : Reuss Voigt Hill
#
# Bulk Modulus (GPa) = 66.29978 73.55560 69.92769
# Shear Modulus (GPa) = 30.82911 33.05352 31.94131
#
# Velocity S-wave (km/s) = 3.95293 4.09305 4.02360
# Velocity P-wave (km/s) = 7.37821 7.72132 7.55172
#
# Compressibility (1/GPa) = 0.01508301
#
# Stress axis : x y z
#
# Youngs Moduli (GPa) = 70.74627 53.23805 91.34512
#
# Poissons Ratio (x) = 0.26673 0.43198
# Poissons Ratio (y) = 0.35445 0.42497
# Poissons Ratio (z) = 0.33456 0.24768
#
# Static dielectric constant tensor:
#      x y z
#    x 3.679140 0.000000 0.103580 
#    y 0.000000 3.513630 0.000000 
#    z 0.103580 0.000000 3.689280 
# 
# 
# High freq. dielectric constant tensor:
#      x y z
#    x 1.780040 0.000000 0.002970 
#    y 0.000000 1.758080 0.000000 
#    z 0.002970 0.000000 1.782720 
# 
# From -- ./inp_files/45266.got.cif
#   From: 2010.06.25/outbox.cif.g09.slc.cpg/sg11_23_cif.got.tgz:45266.got - 2010.06.27 23:14:04.
