data_PCOD8074093
_publ_section_title
;
Structure prediction by ZEFSAII (Michael W. Deem and Ramdas Pophale) SiO2 
 PCOD8074093
Probable space group: P 21/M
;
_chemical_formula_sum "Si O2"
_cell_formula_units_Z 32
_cell_length_a 25.013069
_cell_length_b 15.181719
_cell_length_c 9.156969
_cell_angle_alpha 90.000000
_cell_angle_beta 151.431352
_cell_angle_gamma 90.000000
_cell_volume 1662.874833
_symmetry_space_group_name_H-M "P 21/M"
_symmetry_group_IT_number 11
_symmetry_cell_setting 'monoclinic'
loop_
_space_group_symop_operation_xyz
x,y,z
-x,1/2+y,-z
-x,-y,-z
x,1/2-y,z
loop_
_atom_site_type_symbol
_atom_site_label
_atom_site_fract_x
_atom_site_fract_y
_atom_site_fract_z
Si Si1 0.875921 0.349568 0.664540
Si Si2 0.710887 0.850562 0.570629
Si Si3 0.129269 0.351030 0.310900
Si Si4 0.235440 0.011289 0.753501
Si Si5 0.282166 0.509251 0.204171
Si Si6 0.523479 0.496863 0.724619
Si Si7 0.245331 0.649455 0.333841
Si Si8 0.462472 0.849720 0.022517
O O1 0.845682 0.250000 0.542399
O O2 0.801936 0.415777 0.392915
O O3 0.851152 0.360691 0.777179
O O4 0.006377 0.369172 0.952598
O O5 0.737923 0.750000 0.684053
O O6 0.782724 0.877433 0.602671
O O7 0.741400 0.915574 0.775865
O O8 0.579252 0.859773 0.214833
O O9 0.143026 0.250000 0.393827
O O10 0.148925 0.413003 0.498612
O O11 0.240965 0.003105 0.940739
O O12 0.354200 0.040684 0.964085
O O13 0.413290 0.540027 0.533162
O O14 0.214134 0.587058 0.121977
O O15 0.500000 0.500000 0.500000
O O16 0.532036 0.398262 0.808841
O O17 0.255481 0.750000 0.303075
O O18 0.362453 0.613832 0.682239
O O19 0.434841 0.750000 0.997981
#
# Coordination Sequence:
#
# PCOD8074093 Si02
#       8
#     4   4   4   4   4   4   4   4
#     4  10  21  39  61  81 106 143 188 233 272 316
#     4   9  19  35  56  80 109 143 184 226 271 322
#     4  10  22  39  59  82 106 141 190 234 268 318
#     4  11  21  36  57  81 112 148 184 220 275 332
#     4  10  22  35  53  83 118 149 173 222 280 329
#     4   9  19  33  50  81 115 144 177 213 273 330
#     4  10  20  35  56  82 109 142 187 230 270 320
#     4   9  17  31  55  80 104 143 186 224 270 321
#
# _framework density 19.243781999999999
#
# number of rings (size 3 to 8) (size 9 to 14) (size 15 to 20)
#    0.000    2.250    1.250    1.125    1.750    2.000 
#    0.000    6.250    0.000    4.500    0.000    0.000 
#    0.000    0.000    0.000    0.000    0.000    0.000 
#
# Total GULP energy -396571.521275 kJ/mol
# GULP energy per Si atom -12392.860040 kJ/mol
# Density = 1.919998 g / cm^3
# Si number density = 19.243782 Si / 1000 Ang^3
#
#
#
# Elastic Constant Matrix: (Units=GPa)
#
#
# Indices 1 2 3 4 5 6 
#
# 1 94.9329 42.1618 37.8479 0.0000 -4.4267 0.0000
# 2 42.1618 79.9934 31.6547 0.0000 -14.7188 0.0000
# 3 37.8479 31.6547 70.0585 0.0000 0.7011 0.0000
# 4 0.0000 0.0000 0.0000 19.2033 0.0000 0.4943
# 5 -4.4267 -14.7188 0.7011 0.0000 29.0679 0.0000
# 6 0.0000 0.0000 0.0000 0.4943 0.0000 25.9620
#
#
#
# Elastic Compliance Matrix: (Units=1/GPa)
#
#
# Indices 1 2 3 4 5 6 
#
# 1 0.015410 -0.006007 -0.005605 0.000000 -0.000560 0.000000
# 2 -0.006007 0.019609 -0.005706 0.000000 0.009152 0.000000
# 3 -0.005605 -0.005706 0.019923 0.000000 -0.004224 0.000000
# 4 0.000000 0.000000 0.000000 0.052100 0.000000 -0.000992
# 5 -0.000560 0.009152 -0.004224 0.000000 0.039053 0.000000
# 6 0.000000 0.000000 0.000000 -0.000992 0.000000 0.038537
#
#
# Mechanical properties :
#
#
# Convention : Reuss Voigt Hill
#
# Bulk Modulus (GPa) = 49.25045 52.03483 50.64264
# Shear Modulus (GPa) = 22.12017 23.73466 22.92742
#
# Velocity S-wave (km/s) = 3.39406 3.51574 3.45544
# Velocity P-wave (km/s) = 6.40375 6.60145 6.50335
#
# Compressibility (1/GPa) = 0.02030438
#
# Stress axis : x y z
#
# Youngs Moduli (GPa) = 64.89180 50.99615 50.19420
#
# Poissons Ratio (x) = 0.30634 0.28136
# Poissons Ratio (y) = 0.38981 0.28643
# Poissons Ratio (z) = 0.36374 0.29101
#
# Static dielectric constant tensor:
#      x y z
#    x 3.637040 0.000000 0.365700 
#    y 0.000000 3.495660 0.000000 
#    z 0.365700 0.000000 3.496280 
# 
# 
# High freq. dielectric constant tensor:
#      x y z
#    x 1.748210 0.000000 0.018680 
#    y 0.000000 1.748060 0.000000 
#    z 0.018680 0.000000 1.734180 
# 
# From -- ./inp_files/27769.got.cif
#   From: 2010.06.25/outbox.cif.g09.slc.cpg/sg11_14_cif.got.tgz:27769.got - 2010.06.27 23:14:04.
