data_PCOD8074084
_publ_section_title
;
Structure prediction by ZEFSAII (Michael W. Deem and Ramdas Pophale) SiO2 
 PCOD8074084
Probable space group: P 21/M
;
_chemical_formula_sum "Si O2"
_cell_formula_units_Z 28
_cell_length_a 21.269687
_cell_length_b 9.012155
_cell_length_c 16.392162
_cell_angle_alpha 90.000000
_cell_angle_beta 27.340827
_cell_angle_gamma 90.000000
_cell_volume 1443.131862
_symmetry_space_group_name_H-M "P 21/M"
_symmetry_group_IT_number 11
_symmetry_cell_setting 'monoclinic'
loop_
_space_group_symop_operation_xyz
x,y,z
-x,1/2+y,-z
-x,-y,-z
x,1/2-y,z
loop_
_atom_site_type_symbol
_atom_site_label
_atom_site_fract_x
_atom_site_fract_y
_atom_site_fract_z
Si Si1 0.909925 0.574232 0.673657
Si Si2 0.778093 0.076592 0.439038
Si Si3 0.675997 0.419209 0.865451
Si Si4 0.674171 0.924940 0.226148
Si Si5 0.633783 0.423083 0.438964
Si Si6 0.643510 0.580540 0.741927
Si Si7 0.931363 0.924295 0.831205
O O1 0.919490 0.750000 0.654318
O O2 0.754534 0.519191 0.840875
O O3 0.954986 0.517537 0.711619
O O4 0.000000 0.500000 0.500000
O O5 0.753404 0.250000 0.485799
O O6 0.727023 0.032930 0.408221
O O7 0.937776 0.033730 0.264339
O O8 0.689478 0.980181 0.602530
O O9 0.728171 0.250000 0.807728
O O10 0.710050 0.481577 0.736245
O O11 0.518700 0.433140 0.068399
O O12 0.690299 0.750000 0.215461
O O13 0.525003 0.968701 0.362112
O O14 0.695022 0.990770 0.291818
O O15 0.793314 0.992061 0.030569
O O16 0.643021 0.250000 0.408912
O O17 0.691040 0.750000 0.698796
O O18 0.910815 0.750000 0.849694
#
# Coordination Sequence:
#
# PCOD8074084 Si02
#       7
#     4   4   4   4   4   4   4
#     4  11  22  36  57  81 112 151 194 235 283 338
#     4  10  20  35  56  81 111 146 183 228 278 333
#     4  10  21  37  55  78 109 146 188 235 285 335
#     4   9  18  36  57  78 108 144 183 225 275 334
#     4   9  19  34  56  83 109 141 182 228 278 332
#     4  10  21  36  55  81 111 143 186 235 284 337
#     4   9  20  36  55  80 110 147 186 227 276 334
#
# _framework density 19.402246000000002
#
# number of rings (size 3 to 8) (size 9 to 14) (size 15 to 20)
#    0.000    2.286    0.000    2.143    2.000    4.000 
#    0.000    2.857    0.000    0.000    0.000    0.000 
#    0.000    0.000    0.000    0.000    0.000    0.000 
#
# Total GULP energy -347214.242223 kJ/mol
# GULP energy per Si atom -12400.508651 kJ/mol
# Density = 1.935809 g / cm^3
# Si number density = 19.402246 Si / 1000 Ang^3
#
#
#
# Elastic Constant Matrix: (Units=GPa)
#
#
# Indices 1 2 3 4 5 6 
#
# 1 152.9230 35.2767 73.2416 0.0000 -0.4678 0.0000
# 2 35.2767 56.7092 43.8290 0.0000 -0.0423 0.0000
# 3 73.2416 43.8290 119.8753 0.0000 20.5296 0.0000
# 4 0.0000 0.0000 0.0000 28.9135 0.0000 3.5741
# 5 -0.4678 -0.0423 20.5296 0.0000 20.0473 0.0000
# 6 0.0000 0.0000 0.0000 3.5741 0.0000 29.9749
#
#
#
# Elastic Compliance Matrix: (Units=1/GPa)
#
#
# Indices 1 2 3 4 5 6 
#
# 1 0.010229 -0.000702 -0.007317 0.000000 0.007730 0.000000
# 2 -0.000702 0.026903 -0.011416 0.000000 0.011731 0.000000
# 3 -0.007317 -0.011416 0.020640 0.000000 -0.021331 0.000000
# 4 0.000000 0.000000 0.000000 0.035103 0.000000 -0.004186
# 5 0.007730 0.011731 -0.021331 0.000000 0.071932 0.000000
# 6 0.000000 0.000000 0.000000 -0.004186 0.000000 0.033860
#
#
# Mechanical properties :
#
#
# Convention : Reuss Voigt Hill
#
# Bulk Modulus (GPa) = 52.90817 70.46690 61.68753
# Shear Modulus (GPa) = 20.50537 27.59783 24.05160
#
# Velocity S-wave (km/s) = 3.25446 3.77557 3.52466
# Velocity P-wave (km/s) = 6.43819 7.44341 6.95897
#
# Compressibility (1/GPa) = 0.01890067
#
# Stress axis : x y z
#
# Youngs Moduli (GPa) = 97.75785 37.17088 48.45030
#
# Poissons Ratio (x) = 0.02611 0.35451
# Poissons Ratio (y) = 0.06867 0.55312
# Poissons Ratio (z) = 0.71530 0.42435
#
# Static dielectric constant tensor:
#      x y z
#    x 3.742850 0.000000 -0.093850 
#    y 0.000000 3.464470 0.000000 
#    z -0.093850 0.000000 3.629380 
# 
# 
# High freq. dielectric constant tensor:
#      x y z
#    x 1.761990 0.000000 -0.006030 
#    y 0.000000 1.741040 0.000000 
#    z -0.006030 0.000000 1.757540 
# 
# From -- ./inp_files/54500.got.cif
#   From: 2010.06.25/outbox.cif.g09.slc.cpg/sg11_28_cif.got.tgz:54500.got - 2010.06.27 23:14:04.
