data_PCOD8074242
_publ_section_title
;
Structure prediction by ZEFSAII (Michael W. Deem and Ramdas Pophale) SiO2 
 PCOD8074242
Probable space group: P 21/M
;
_chemical_formula_sum "Si O2"
_cell_formula_units_Z 32
_cell_length_a 15.906654
_cell_length_b 8.640023
_cell_length_c 23.614622
_cell_angle_alpha 90.000000
_cell_angle_beta 29.257866
_cell_angle_gamma 90.000000
_cell_volume 1586.183843
_symmetry_space_group_name_H-M "P 21/M"
_symmetry_group_IT_number 11
_symmetry_cell_setting 'monoclinic'
loop_
_space_group_symop_operation_xyz
x,y,z
-x,1/2+y,-z
-x,-y,-z
x,1/2-y,z
loop_
_atom_site_type_symbol
_atom_site_label
_atom_site_fract_x
_atom_site_fract_y
_atom_site_fract_z
Si Si1 0.747643 0.425108 0.606223
Si Si2 0.043865 0.066808 0.798562
Si Si3 0.311507 0.932155 0.041415
Si Si4 0.487040 0.434118 0.350533
Si Si5 0.643425 0.073497 0.859615
Si Si6 0.868773 0.933784 0.124268
Si Si7 0.354188 0.933956 0.545809
Si Si8 0.134435 0.079279 0.350962
O O1 0.684455 0.250000 0.657557
O O2 0.612074 0.511695 0.646761
O O3 0.773304 0.528379 0.646026
O O4 0.930734 0.417104 0.468811
O O5 0.064325 0.250000 0.778066
O O6 0.070623 0.020136 0.848129
O O7 0.853765 0.003350 0.894618
O O8 0.172867 0.985115 0.678881
O O9 0.298850 0.750000 0.047483
O O10 0.321826 0.000056 0.099171
O O11 0.493518 0.990956 0.909703
O O12 0.489106 0.250000 0.354308
O O13 0.680450 0.494339 0.228762
O O14 0.387796 0.502712 0.463140
O O15 0.594504 0.250000 0.894584
O O16 0.819779 0.046889 0.723088
O O17 0.859549 0.750000 0.122254
O O18 0.000000 0.000000 0.000000
O O19 0.364830 0.750000 0.537505
O O20 0.500000 0.000000 0.500000
O O21 0.205207 0.250000 0.294566
#
# Coordination Sequence:
#
# PCOD8074242 Si02
#       8
#     4   4   4   4   4   4   4   4
#     4  10  22  40  61  89 121 156 203 253 301 360
#     4  10  22  41  64  91 121 161 208 259 313 369
#     4   9  20  38  58  84 117 155 202 251 303 360
#     4  12  25  42  65  93 127 166 209 255 312 371
#     4  10  20  35  57  85 118 158 200 249 302 358
#     4  11  24  43  66  90 125 164 210 261 311 370
#     4  12  24  40  64  94 128 164 204 256 313 371
#     4  10  21  38  60  86 120 160 200 248 304 362
#
# _framework density 20.174206999999999
#
# number of rings (size 3 to 8) (size 9 to 14) (size 15 to 20)
#    0.000    1.500    1.250    3.750    1.750    4.000 
#    0.000    3.750    0.000    0.000    0.000    0.000 
#    0.000    0.000    0.000    0.000    0.000    0.000 
#
# Total GULP energy -396648.890735 kJ/mol
# GULP energy per Si atom -12395.277835 kJ/mol
# Density = 2.012829 g / cm^3
# Si number density = 20.174207 Si / 1000 Ang^3
#
#
#
# Elastic Constant Matrix: (Units=GPa)
#
#
# Indices 1 2 3 4 5 6 
#
# 1 80.0480 22.3611 76.8191 0.0000 -66.9315 0.0000
# 2 22.3611 82.1976 65.6486 0.0000 -40.0339 0.0000
# 3 76.8191 65.6486 79.5093 0.0000 36.4320 0.0000
# 4 0.0000 0.0000 0.0000 38.3384 0.0000 0.6115
# 5 -66.9315 -40.0339 36.4320 0.0000 -29.2077 0.0000
# 6 0.0000 0.0000 0.0000 0.6115 0.0000 35.7400
#
#
#
# Elastic Compliance Matrix: (Units=1/GPa)
#
#
# Indices 1 2 3 4 5 6 
#
# 1 0.007392 -0.006289 0.001185 0.000000 -0.006841 0.000000
# 2 -0.006289 0.012753 -0.001939 0.000000 -0.005487 0.000000
# 3 0.001185 -0.001939 0.008310 0.000000 0.010307 0.000000
# 4 0.000000 0.000000 0.000000 0.026091 0.000000 -0.000446
# 5 -0.006841 -0.005487 0.010307 0.000000 0.001816 0.000000
# 6 0.000000 0.000000 0.000000 -0.000446 0.000000 0.027987
#
#
# Mechanical properties :
#
#
# Convention : Reuss Voigt Hill
#
# Bulk Modulus (GPa) = 69.59459 63.49028 66.54244
# Shear Modulus (GPa) = 48.43749 14.10255 31.27002
#
# Velocity S-wave (km/s) = 4.90528 2.64680 3.94127
# Velocity P-wave (km/s) = 8.16419 6.39375 7.33260
#
# Compressibility (1/GPa) = 0.01436893
#
# Stress axis : x y z
#
# Youngs Moduli (GPa) = 135.27825 78.41140 120.33475
#
# Poissons Ratio (x) = 0.49316 -0.14264
# Poissons Ratio (y) = 0.85081 0.23337
# Poissons Ratio (z) = -0.16035 0.15206
#
# Static dielectric constant tensor:
#      x y z
#    x 3.856410 0.000000 0.295140 
#    y 0.000000 3.793060 0.000000 
#    z 0.295140 0.000000 13.033970 
# 
# 
# High freq. dielectric constant tensor:
#      x y z
#    x 1.791790 0.000000 -0.004920 
#    y 0.000000 1.795860 0.000000 
#    z -0.004920 0.000000 1.795030 
# 
# From -- ./inp_files/68960.got.cif
#   From: 2010.06.25/outbox.cif.g09.slc.cpg/sg11_35_cif.got.tgz:68960.got - 2010.06.27 23:14:04.
