data_PCOD8074083
_publ_section_title
;
Structure prediction by ZEFSAII (Michael W. Deem and Ramdas Pophale) SiO2 
 PCOD8074083
Probable space group: P 21/M
;
_chemical_formula_sum "Si O2"
_cell_formula_units_Z 32
_cell_length_a 8.649563
_cell_length_b 14.955586
_cell_length_c 14.567039
_cell_angle_alpha 90.000000
_cell_angle_beta 119.528249
_cell_angle_gamma 90.000000
_cell_volume 1639.624671
_symmetry_space_group_name_H-M "P 21/M"
_symmetry_group_IT_number 11
_symmetry_cell_setting 'monoclinic'
loop_
_space_group_symop_operation_xyz
x,y,z
-x,1/2+y,-z
-x,-y,-z
x,1/2-y,z
loop_
_atom_site_type_symbol
_atom_site_label
_atom_site_fract_x
_atom_site_fract_y
_atom_site_fract_z
Si Si1 0.422787 0.153434 0.635496
Si Si2 0.038165 0.506088 0.117009
Si Si3 0.812550 0.850297 0.727723
Si Si4 0.537694 0.400843 0.483415
Si Si5 0.799407 0.473807 0.426029
Si Si6 0.280822 0.849627 0.134116
Si Si7 0.677654 0.442872 0.049374
Si Si8 0.180234 0.851679 0.740179
O O1 0.320840 0.250000 0.603898
O O2 0.550786 0.154021 0.582280
O O3 0.531578 0.149839 0.761001
O O4 0.294106 0.069710 0.598277
O O5 0.160407 0.421944 0.183169
O O6 0.146240 0.597528 0.162453
O O7 0.849179 0.507923 0.114352
O O8 0.000000 0.500000 0.000000
O O9 0.821822 0.750000 0.772192
O O10 0.622469 0.863169 0.625165
O O11 0.970993 0.863135 0.700730
O O12 0.500000 0.500000 0.500000
O O13 0.722678 0.404774 0.480541
O O14 0.768282 0.423562 0.321433
O O15 0.000000 0.500000 0.500000
O O16 0.205482 0.750000 0.099070
O O17 0.305430 0.892990 0.042036
O O18 0.690527 0.370699 0.134979
O O19 0.500000 0.500000 0.000000
O O20 0.218146 0.750000 0.718750
#
# Coordination Sequence:
#
# PCOD8074083 Si02
#       8
#     4   4   4   4   4   4   4   4
#     4  10  21  38  59  81 110 150 193 235 281 336
#     4   9  19  34  55  81 109 144 186 233 282 333
#     4  10  20  36  59  84 112 148 192 240 288 337
#     4  10  20  35  56  81 111 145 186 230 279 334
#     4  11  23  37  56  84 117 151 185 231 287 346
#     4  10  20  37  59  81 109 148 193 236 281 337
#     4  10  20  36  58  84 117 152 185 231 288 346
#     4  10  21  37  58  84 115 152 192 236 288 343
#
# _framework density 19.516660999999999
#
# number of rings (size 3 to 8) (size 9 to 14) (size 15 to 20)
#    0.000    2.000    0.000    4.500    0.000    7.500 
#    0.000    1.250    0.000    6.750    0.000    0.000 
#    0.000    0.000    0.000    0.000    0.000    0.000 
#
# Total GULP energy -396512.016412 kJ/mol
# GULP energy per Si atom -12391.000513 kJ/mol
# Density = 1.947224 g / cm^3
# Si number density = 19.516661 Si / 1000 Ang^3
#
#
#
# Elastic Constant Matrix: (Units=GPa)
#
#
# Indices 1 2 3 4 5 6 
#
# 1 98.8606 61.2396 40.9723 0.0000 5.0169 0.0000
# 2 61.2396 156.3233 43.3975 0.0000 -3.6623 0.0000
# 3 40.9723 43.3975 99.9686 0.0000 -9.2760 0.0000
# 4 0.0000 0.0000 0.0000 28.9604 0.0000 0.4085
# 5 5.0169 -3.6623 -9.2760 0.0000 29.4583 0.0000
# 6 0.0000 0.0000 0.0000 0.4085 0.0000 27.4759
#
#
#
# Elastic Compliance Matrix: (Units=1/GPa)
#
#
# Indices 1 2 3 4 5 6 
#
# 1 0.015224 -0.004799 -0.004586 0.000000 -0.004633 0.000000
# 2 -0.004799 0.008787 -0.001720 0.000000 0.001368 0.000000
# 3 -0.004586 -0.001720 0.013064 0.000000 0.004681 0.000000
# 4 0.000000 0.000000 0.000000 0.034537 0.000000 -0.000513
# 5 -0.004633 0.001368 0.004681 0.000000 0.036379 0.000000
# 6 0.000000 0.000000 0.000000 -0.000513 0.000000 0.036403
#
#
# Mechanical properties :
#
#
# Convention : Reuss Voigt Hill
#
# Bulk Modulus (GPa) = 67.28143 71.81902 69.55022
# Shear Modulus (GPa) = 29.14418 31.14847 30.14632
#
# Velocity S-wave (km/s) = 3.86851 3.99932 3.93446
# Velocity P-wave (km/s) = 7.38258 7.62921 7.50691
#
# Compressibility (1/GPa) = 0.01486294
#
# Stress axis : x y z
#
# Youngs Moduli (GPa) = 65.68534 113.80638 76.54649
#
# Poissons Ratio (x) = 0.54621 0.35105
# Poissons Ratio (y) = 0.31525 0.13170
# Poissons Ratio (z) = 0.30124 0.19580
#
# Static dielectric constant tensor:
#      x y z
#    x 4.122170 0.000000 -0.207780 
#    y 0.000000 3.986340 0.000000 
#    z -0.207780 0.000000 3.691190 
# 
# 
# High freq. dielectric constant tensor:
#      x y z
#    x 1.743460 0.000000 -0.001800 
#    y 0.000000 1.768620 0.000000 
#    z -0.001800 0.000000 1.768070 
# 
# From -- ./inp_files/47631.got.cif
#   From: 2010.06.25/outbox.cif.g09.slc.cpg/sg11_24_cif.got.tgz:47631.got - 2010.06.27 23:14:04.
