data_PCOD8074513
_publ_section_title
;
Structure prediction by ZEFSAII (Michael W. Deem and Ramdas Pophale) SiO2 
 PCOD8074513
Probable space group: P 21/M
;
_chemical_formula_sum "Si O2"
_cell_formula_units_Z 24
_cell_length_a 14.908279
_cell_length_b 17.049601
_cell_length_c 8.860118
_cell_angle_alpha 90.000000
_cell_angle_beta 146.930168
_cell_angle_gamma 90.000000
_cell_volume 1228.864486
_symmetry_space_group_name_H-M "P 21/M"
_symmetry_group_IT_number 11
_symmetry_cell_setting 'monoclinic'
loop_
_space_group_symop_operation_xyz
x,y,z
-x,1/2+y,-z
-x,-y,-z
x,1/2-y,z
loop_
_atom_site_type_symbol
_atom_site_label
_atom_site_fract_x
_atom_site_fract_y
_atom_site_fract_z
Si Si1 0.949713 0.425406 0.839195
Si Si2 0.893387 0.079716 0.321543
Si Si3 0.640048 0.435888 0.210455
Si Si4 0.507830 0.841157 0.742108
Si Si5 0.856831 0.659188 0.135150
Si Si6 0.204509 0.659098 0.119185
O O1 0.798279 0.460208 0.530113
O O2 0.907233 0.353571 0.890618
O O3 0.095668 0.393548 0.941024
O O4 0.000000 0.500000 0.000000
O O5 0.713526 0.082213 0.148241
O O6 0.002760 0.151017 0.539799
O O7 0.855284 0.098481 0.093500
O O8 0.000000 0.000000 0.500000
O O9 0.556095 0.364389 0.181769
O O10 0.500000 0.500000 0.000000
O O11 0.530231 0.750000 0.784886
O O12 0.388462 0.863448 0.434060
O O13 0.686600 0.877458 0.957885
O O14 0.841136 0.750000 0.066229
O O15 0.192608 0.750000 0.050422
#
# Coordination Sequence:
#
# PCOD8074513 Si02
#       6
#     4   4   4   4   4   4
#     4  10  21  36  56  80 109 143 180 223 270 324
#     4  11  22  36  56  83 112 144 185 228 273 327
#     4  10  21  36  55  78 108 144 180 222 271 325
#     4   9  20  37  57  80 109 143 183 226 275 328
#     4  10  20  37  58  80 108 144 181 224 274 329
#     4  10  20  36  56  81 109 142 181 225 273 325
#
# _framework density 19.530224
#
# number of rings (size 3 to 8) (size 9 to 14) (size 15 to 20)
#    0.000    2.000    0.000    4.000    0.000    6.000 
#    0.000    4.167    0.000    5.000    0.000    0.000 
#    0.000    0.000    0.000    0.000    0.000    0.000 
#
# Total GULP energy -297386.683472 kJ/mol
# GULP energy per Si atom -12391.111811 kJ/mol
# Density = 1.948577 g / cm^3
# Si number density = 19.530224 Si / 1000 Ang^3
#
#
#
# Elastic Constant Matrix: (Units=GPa)
#
#
# Indices 1 2 3 4 5 6 
#
# 1 139.0336 28.8397 54.1655 0.0000 15.2853 0.0000
# 2 28.8397 61.9459 25.5571 0.0000 1.9853 0.0000
# 3 54.1655 25.5571 61.6952 0.0000 11.2884 0.0000
# 4 0.0000 0.0000 0.0000 36.3886 0.0000 -4.3519
# 5 15.2853 1.9853 11.2884 0.0000 40.2179 0.0000
# 6 0.0000 0.0000 0.0000 -4.3519 0.0000 32.0132
#
#
#
# Elastic Compliance Matrix: (Units=1/GPa)
#
#
# Indices 1 2 3 4 5 6 
#
# 1 0.011133 -0.001475 -0.008857 0.000000 -0.001672 0.000000
# 2 -0.001475 0.019739 -0.007174 0.000000 0.001600 0.000000
# 3 -0.008857 -0.007174 0.027699 0.000000 -0.004054 0.000000
# 4 0.000000 0.000000 0.000000 0.027935 0.000000 0.003798
# 5 -0.001672 0.001600 -0.004054 0.000000 0.026559 0.000000
# 6 0.000000 0.000000 0.000000 0.003798 0.000000 0.031753
#
#
# Mechanical properties :
#
#
# Convention : Reuss Voigt Hill
#
# Bulk Modulus (GPa) = 42.45044 53.31106 47.88075
# Shear Modulus (GPa) = 26.64063 31.99810 29.31936
#
# Velocity S-wave (km/s) = 3.69734 4.05209 3.87877
# Velocity P-wave (km/s) = 6.32535 7.01773 6.68052
#
# Compressibility (1/GPa) = 0.02355688
#
# Stress axis : x y z
#
# Youngs Moduli (GPa) = 89.82308 50.66226 36.10303
#
# Poissons Ratio (x) = 0.07474 0.31977
# Poissons Ratio (y) = 0.13252 0.25901
# Poissons Ratio (z) = 0.79557 0.36346
#
# Static dielectric constant tensor:
#      x y z
#    x 4.061560 0.000000 0.241000 
#    y 0.000000 3.655390 0.000000 
#    z 0.241000 0.000000 3.817530 
# 
# 
# High freq. dielectric constant tensor:
#      x y z
#    x 1.773260 0.000000 0.007060 
#    y 0.000000 1.753650 0.000000 
#    z 0.007060 0.000000 1.760070 
# 
# From -- ./inp_files/22827.got.cif
#   From: 2010.06.25/outbox.cif.g09.slc.cpg/sg11_12_cif.got.tgz:22827.got - 2010.06.27 23:14:04.
