data_PCOD8074557
_publ_section_title
;
Structure prediction by ZEFSAII (Michael W. Deem and Ramdas Pophale) SiO2 
 PCOD8074557
Probable space group: P 21/M
;
_chemical_formula_sum "Si O2"
_cell_formula_units_Z 28
_cell_length_a 17.895994
_cell_length_b 9.032396
_cell_length_c 9.398151
_cell_angle_alpha 90.000000
_cell_angle_beta 90.510167
_cell_angle_gamma 90.000000
_cell_volume 1519.091723
_symmetry_space_group_name_H-M "P 21/M"
_symmetry_group_IT_number 11
_symmetry_cell_setting 'monoclinic'
loop_
_space_group_symop_operation_xyz
x,y,z
-x,1/2+y,-z
-x,-y,-z
x,1/2-y,z
loop_
_atom_site_type_symbol
_atom_site_label
_atom_site_fract_x
_atom_site_fract_y
_atom_site_fract_z
Si Si1 0.510434 0.426106 0.848102
Si Si2 0.211553 0.578782 0.347831
Si Si3 0.362705 0.075218 0.327736
Si Si4 0.068177 0.576962 0.172507
Si Si5 0.371541 0.076921 0.653028
Si Si6 0.919284 0.423811 0.153231
Si Si7 0.221562 0.920442 0.677352
O O1 0.515691 0.250000 0.864394
O O2 0.585361 0.487702 0.779808
O O3 0.442122 0.474639 0.745958
O O4 0.500000 0.500000 0.000000
O O5 0.229243 0.750000 0.311414
O O6 0.278655 0.476539 0.293157
O O7 0.136609 0.523122 0.270323
O O8 0.199081 0.555447 0.514177
O O9 0.370384 0.250000 0.302501
O O10 0.384524 0.029088 0.489375
O O11 0.054297 0.750000 0.188735
O O12 0.992993 0.496371 0.222985
O O13 0.087563 0.532540 0.011604
O O14 0.358263 0.250000 0.662369
O O15 0.298202 0.002105 0.717682
O O16 0.925899 0.250000 0.178244
O O17 0.845641 0.486894 0.229554
O O18 0.234731 0.750000 0.714866
#
# Coordination Sequence:
#
# PCOD8074557 Si02
#       7
#     4   4   4   4   4   4   4
#     4  11  23  38  55  79 109 139 173 214 258 304
#     4   9  18  33  51  73 101 132 167 207 252 302
#     4  10  20  36  57  80 105 136 173 212 258 310
#     4   9  18  32  49  69  96 131 168 205 250 303
#     4   9  20  37  56  78 105 136 172 213 257 308
#     4   9  18  32  48  69  97 129 166 206 250 301
#     4   9  18  32  51  74 100 131 167 207 252 303
#
# _framework density 18.432067
#
# number of rings (size 3 to 8) (size 9 to 14) (size 15 to 20)
#    0.000    2.571    0.000    1.286    0.000    4.571 
#    0.000    1.429    0.000    0.000    0.000    0.000 
#    0.000    0.000    0.000    0.000    0.000    0.000 
#
# Total GULP energy -347271.252278 kJ/mol
# GULP energy per Si atom -12402.544724 kJ/mol
# Density = 1.839011 g / cm^3
# Si number density = 18.432067 Si / 1000 Ang^3
#
#
#
# Elastic Constant Matrix: (Units=GPa)
#
#
# Indices 1 2 3 4 5 6 
#
# 1 93.8747 29.6832 32.3114 0.0000 -23.5440 0.0000
# 2 29.6832 43.2276 22.6966 0.0000 -8.7056 0.0000
# 3 32.3114 22.6966 52.3560 0.0000 -16.7610 0.0000
# 4 0.0000 0.0000 0.0000 24.9432 0.0000 -0.9822
# 5 -23.5440 -8.7056 -16.7610 0.0000 34.9708 0.0000
# 6 0.0000 0.0000 0.0000 -0.9822 0.0000 37.0263
#
#
#
# Elastic Compliance Matrix: (Units=1/GPa)
#
#
# Indices 1 2 3 4 5 6 
#
# 1 0.016323 -0.007365 -0.004665 0.000000 0.006920 0.000000
# 2 -0.007365 0.033337 -0.010439 0.000000 -0.001663 0.000000
# 3 -0.004665 -0.010439 0.029138 0.000000 0.008226 0.000000
# 4 0.000000 0.000000 0.000000 0.040133 0.000000 0.001065
# 5 0.006920 -0.001663 0.008226 0.000000 0.036782 0.000000
# 6 0.000000 0.000000 0.000000 0.001065 0.000000 0.027036
#
#
# Mechanical properties :
#
#
# Convention : Reuss Voigt Hill
#
# Bulk Modulus (GPa) = 29.53439 39.87118 34.70279
# Shear Modulus (GPa) = 20.92285 26.37256 23.64770
#
# Velocity S-wave (km/s) = 3.37283 3.78669 3.58574
# Velocity P-wave (km/s) = 5.58803 6.38726 6.00097
#
# Compressibility (1/GPa) = 0.03385883
#
# Stress axis : x y z
#
# Youngs Moduli (GPa) = 61.26450 29.99692 34.31976
#
# Poissons Ratio (x) = 0.22093 0.16012
# Poissons Ratio (y) = 0.45123 0.35825
# Poissons Ratio (z) = 0.28582 0.31312
#
# Static dielectric constant tensor:
#      x y z
#    x 3.555220 0.000000 0.021430 
#    y 0.000000 3.320590 0.000000 
#    z 0.021430 0.000000 3.432250 
# 
# 
# High freq. dielectric constant tensor:
#      x y z
#    x 1.725640 0.000000 -0.001390 
#    y 0.000000 1.709670 0.000000 
#    z -0.001390 0.000000 1.709260 
# 
# From -- ./inp_files/24104.got.cif
#   From: 2010.06.25/outbox.cif.g09.slc.cpg/sg11_13_cif.got.tgz:24104.got - 2010.06.27 23:14:04.
