data_PCOD8074335
_publ_section_title
;
Structure prediction by ZEFSAII (Michael W. Deem and Ramdas Pophale) SiO2 
 PCOD8074335
Probable space group: P 21/M
;
_chemical_formula_sum "Si O2"
_cell_formula_units_Z 28
_cell_length_a 13.954728
_cell_length_b 8.486753
_cell_length_c 17.505338
_cell_angle_alpha 90.000000
_cell_angle_beta 136.691461
_cell_angle_gamma 90.000000
_cell_volume 1422.038045
_symmetry_space_group_name_H-M "P 21/M"
_symmetry_group_IT_number 11
_symmetry_cell_setting 'monoclinic'
loop_
_space_group_symop_operation_xyz
x,y,z
-x,1/2+y,-z
-x,-y,-z
x,1/2-y,z
loop_
_atom_site_type_symbol
_atom_site_label
_atom_site_fract_x
_atom_site_fract_y
_atom_site_fract_z
Si Si1 0.168766 0.435000 0.224374
Si Si2 0.617250 0.567644 0.357217
Si Si3 0.147185 0.565948 0.612537
Si Si4 0.855731 0.432688 0.074886
Si Si5 0.680359 0.566712 0.840649
Si Si6 0.903182 0.932479 0.259605
Si Si7 0.222257 0.566959 0.413458
O O1 0.190874 0.250000 0.248637
O O2 0.239200 0.495964 0.187623
O O3 0.245302 0.522863 0.338528
O O4 0.005570 0.481428 0.126550
O O5 0.577002 0.750000 0.327434
O O6 0.733091 0.525766 0.362363
O O7 0.483120 0.461858 0.262592
O O8 0.671212 0.532319 0.473670
O O9 0.157377 0.750000 0.599313
O O10 0.165974 0.535517 0.713574
O O11 0.000000 0.500000 0.500000
O O12 0.852693 0.250000 0.093922
O O13 0.826519 0.528043 0.135759
O O14 0.735274 0.472119 0.945360
O O15 0.710838 0.750000 0.871054
O O16 0.883294 0.750000 0.267661
O O17 0.065798 0.978447 0.347773
O O18 0.252746 0.750000 0.443868
#
# Coordination Sequence:
#
# PCOD8074335 Si02
#       7
#     4   4   4   4   4   4   4
#     4   9  20  37  60  87 117 154 198 245 292 347
#     4  12  25  40  59  84 119 158 196 242 295 353
#     4  12  23  38  62  91 120 153 192 238 290 349
#     4  10  20  37  61  89 119 153 198 245 291 346
#     4  11  23  40  59  83 118 159 200 244 294 350
#     4  10  20  36  60  90 120 152 193 242 292 342
#     4  10  20  35  58  87 119 152 193 243 293 349
#
# _framework density 19.690048999999998
#
# number of rings (size 3 to 8) (size 9 to 14) (size 15 to 20)
#    0.000    1.429    1.429    4.714    0.000    3.429 
#    0.000    0.714    0.000    0.000    0.000    0.000 
#    0.000    0.000    0.000    0.000    0.000    0.000 
#
# Total GULP energy -347391.671652 kJ/mol
# GULP energy per Si atom -12406.845416 kJ/mol
# Density = 1.964523 g / cm^3
# Si number density = 19.690049 Si / 1000 Ang^3
#
#
#
# Elastic Constant Matrix: (Units=GPa)
#
#
# Indices 1 2 3 4 5 6 
#
# 1 60.8215 10.0691 42.0772 0.0000 -15.4387 0.0000
# 2 10.0691 58.2031 10.9436 0.0000 -5.8586 0.0000
# 3 42.0772 10.9436 113.8975 0.0000 -12.0250 0.0000
# 4 0.0000 0.0000 0.0000 34.2264 0.0000 -3.4933
# 5 -15.4387 -5.8586 -12.0250 0.0000 27.6707 0.0000
# 6 0.0000 0.0000 0.0000 -3.4933 0.0000 29.7185
#
#
#
# Elastic Compliance Matrix: (Units=1/GPa)
#
#
# Indices 1 2 3 4 5 6 
#
# 1 0.024751 -0.001788 -0.007917 0.000000 0.009990 0.000000
# 2 -0.001788 0.017887 -0.000800 0.000000 0.002442 0.000000
# 3 -0.007917 -0.000800 0.011841 0.000000 0.000559 0.000000
# 4 0.000000 0.000000 0.000000 0.029572 0.000000 0.003476
# 5 0.009990 0.002442 0.000559 0.000000 0.042473 0.000000
# 6 0.000000 0.000000 0.000000 0.003476 0.000000 0.034058
#
#
# Mechanical properties :
#
#
# Convention : Reuss Voigt Hill
#
# Bulk Modulus (GPa) = 29.87961 39.90022 34.88991
# Shear Modulus (GPa) = 25.94075 29.64527 27.79301
#
# Velocity S-wave (km/s) = 3.63361 3.88441 3.76110
# Velocity P-wave (km/s) = 5.72819 6.35817 6.05138
#
# Compressibility (1/GPa) = 0.03346764
#
# Stress axis : x y z
#
# Youngs Moduli (GPa) = 40.40311 55.90732 84.45554
#
# Poissons Ratio (x) = 0.09994 0.66864
# Poissons Ratio (y) = 0.07222 0.06760
# Poissons Ratio (z) = 0.31988 0.04475
#
# Static dielectric constant tensor:
#      x y z
#    x 3.592900 0.000000 0.321910 
#    y 0.000000 3.599910 0.000000 
#    z 0.321910 0.000000 -0.449840 
# 
# 
# High freq. dielectric constant tensor:
#      x y z
#    x 1.761780 0.000000 -0.017990 
#    y 0.000000 1.775790 0.000000 
#    z -0.017990 0.000000 1.764760 
# 
# From -- ./inp_files/60139.got.cif
#   From: 2010.06.25/outbox.cif.g09.slc.cpg/sg11_31_cif.got.tgz:60139.got - 2010.06.27 23:14:04.
