data_PCOD8074931
_publ_section_title
;
Structure prediction by ZEFSAII (Michael W. Deem and Ramdas Pophale) SiO2 
 PCOD8074931
Probable space group: P 21/M
;
_chemical_formula_sum "Si O2"
_cell_formula_units_Z 28
_cell_length_a 21.577632
_cell_length_b 9.029010
_cell_length_c 23.865161
_cell_angle_alpha 90.000000
_cell_angle_beta 17.915918
_cell_angle_gamma 90.000000
_cell_volume 1430.290437
_symmetry_space_group_name_H-M "P 21/M"
_symmetry_group_IT_number 11
_symmetry_cell_setting 'monoclinic'
loop_
_space_group_symop_operation_xyz
x,y,z
-x,1/2+y,-z
-x,-y,-z
x,1/2-y,z
loop_
_atom_site_type_symbol
_atom_site_label
_atom_site_fract_x
_atom_site_fract_y
_atom_site_fract_z
Si Si1 0.704886 0.925404 0.991951
Si Si2 0.364127 0.415540 0.072644
Si Si3 0.387612 0.077833 0.524163
Si Si4 0.205165 0.425189 0.799776
Si Si5 0.116543 0.079582 0.651964
Si Si6 0.341849 0.421926 0.343466
Si Si7 0.945990 0.082924 0.490370
O O1 0.689787 0.750000 0.008433
O O2 0.635120 0.984088 0.990375
O O3 0.927807 0.972257 0.816603
O O4 0.560460 0.003300 0.161320
O O5 0.450233 0.250000 0.997440
O O6 0.132996 0.418369 0.288317
O O7 0.500000 0.500000 0.000000
O O8 0.447609 0.250000 0.474851
O O9 0.244585 0.036980 0.700216
O O10 0.263090 0.036969 0.576314
O O11 0.595319 0.985980 0.340826
O O12 0.185759 0.250000 0.826546
O O13 0.000000 0.500000 0.000000
O O14 0.046399 0.250000 0.716364
O O15 0.228799 0.047059 0.497893
O O16 0.363126 0.250000 0.311834
O O17 0.235417 0.498308 0.382525
O O18 0.876900 0.250000 0.563692
O O19 0.000000 0.000000 0.500000
#
# Coordination Sequence:
#
# PCOD8074931 Si02
#       7
#     4   4   4   4   4   4   4
#     4  11  23  40  60  84 116 154 194 243 299 356
#     4  10  22  37  55  79 109 144 185 236 291 350
#     4   9  20  39  61  87 120 161 204 247 292 345
#     4  10  20  36  61  91 125 161 200 246 295 346
#     4  10  22  41  63  86 118 159 203 247 294 353
#     4  11  23  39  60  86 114 151 195 243 297 354
#     4  11  22  38  57  82 113 147 191 241 297 356
#
# _framework density 19.576443000000001
#
# number of rings (size 3 to 8) (size 9 to 14) (size 15 to 20)
#    0.000    1.714    1.429    2.571    0.000    7.429 
#    0.000    5.714    0.000    0.000    0.000    0.000 
#    0.000    0.000    0.000    0.000    0.000    0.000 
#
# Total GULP energy -347208.156539 kJ/mol
# GULP energy per Si atom -12400.291305 kJ/mol
# Density = 1.953189 g / cm^3
# Si number density = 19.576443 Si / 1000 Ang^3
#
#
#
# Elastic Constant Matrix: (Units=GPa)
#
#
# Indices 1 2 3 4 5 6 
#
# 1 102.1807 51.8695 43.9454 0.0000 -19.2826 0.0000
# 2 51.8695 108.3836 76.1007 0.0000 -8.5867 0.0000
# 3 43.9454 76.1007 137.4968 0.0000 -8.4184 0.0000
# 4 0.0000 0.0000 0.0000 40.8165 0.0000 -4.6996
# 5 -19.2826 -8.5867 -8.4184 0.0000 20.1488 0.0000
# 6 0.0000 0.0000 0.0000 -4.6996 0.0000 29.0268
#
#
#
# Elastic Compliance Matrix: (Units=1/GPa)
#
#
# Indices 1 2 3 4 5 6 
#
# 1 0.015349 -0.005680 -0.001038 0.000000 0.011836 0.000000
# 2 -0.005680 0.017374 -0.007882 0.000000 -0.001324 0.000000
# 3 -0.001038 -0.007882 0.012008 0.000000 0.000665 0.000000
# 4 0.000000 0.000000 0.000000 0.024965 0.000000 0.004042
# 5 0.011836 -0.001324 0.000665 0.000000 0.060671 0.000000
# 6 0.000000 0.000000 0.000000 0.004042 0.000000 0.035105
#
#
# Mechanical properties :
#
#
# Convention : Reuss Voigt Hill
#
# Bulk Modulus (GPa) = 64.37988 76.87693 70.62840
# Shear Modulus (GPa) = 25.01903 29.74146 27.38025
#
# Velocity S-wave (km/s) = 3.57882 3.90198 3.74389
# Velocity P-wave (km/s) = 7.07354 7.72373 7.40577
#
# Compressibility (1/GPa) = 0.01553280
#
# Stress axis : x y z
#
# Youngs Moduli (GPa) = 65.14887 57.55818 83.28064
#
# Poissons Ratio (x) = 0.32690 0.08642
# Poissons Ratio (y) = 0.37001 0.65640
# Poissons Ratio (z) = 0.06761 0.45366
#
# Static dielectric constant tensor:
#      x y z
#    x 3.544180 0.000000 0.124850 
#    y 0.000000 3.861910 0.000000 
#    z 0.124850 0.000000 3.657190 
# 
# 
# High freq. dielectric constant tensor:
#      x y z
#    x 1.758720 0.000000 0.002670 
#    y 0.000000 1.767600 0.000000 
#    z 0.002670 0.000000 1.776920 
# 
# From -- ./inp_files/69762.got.cif
#   From: 2010.06.25/outbox.cif.g09.slc.cpg/sg11_35_cif.got.tgz:69762.got - 2010.06.27 23:14:04.
