data_PCOD8074204
_publ_section_title
;
Structure prediction by ZEFSAII (Michael W. Deem and Ramdas Pophale) SiO2 
 PCOD8074204
Probable space group: P 21/M
;
_chemical_formula_sum "Si O2"
_cell_formula_units_Z 28
_cell_length_a 26.237872
_cell_length_b 8.970535
_cell_length_c 8.722754
_cell_angle_alpha 90.000000
_cell_angle_beta 41.430455
_cell_angle_gamma 90.000000
_cell_volume 1358.528005
_symmetry_space_group_name_H-M "P 21/M"
_symmetry_group_IT_number 11
_symmetry_cell_setting 'monoclinic'
loop_
_space_group_symop_operation_xyz
x,y,z
-x,1/2+y,-z
-x,-y,-z
x,1/2-y,z
loop_
_atom_site_type_symbol
_atom_site_label
_atom_site_fract_x
_atom_site_fract_y
_atom_site_fract_z
Si Si1 0.238701 0.924937 0.672397
Si Si2 0.515644 0.922461 0.305439
Si Si3 0.050493 0.422339 0.600336
Si Si4 0.813569 0.076731 0.550652
Si Si5 0.100099 0.422772 0.142882
Si Si6 0.319422 0.081083 0.982668
Si Si7 0.376405 0.076348 0.510857
O O1 0.243538 0.750000 0.691548
O O2 0.213102 0.963773 0.559015
O O3 0.321923 0.998142 0.509839
O O4 0.179207 0.995898 0.925762
O O5 0.491954 0.750000 0.369241
O O6 0.607273 0.939024 0.067787
O O7 0.500000 0.000000 0.500000
O O8 0.461998 0.004376 0.300618
O O9 0.035057 0.250000 0.669381
O O10 0.107955 0.487547 0.597054
O O11 0.087185 0.448443 0.351444
O O12 0.969369 0.506667 0.797908
O O13 0.830637 0.250000 0.534305
O O14 0.747512 0.030720 0.818902
O O15 0.106693 0.250000 0.085566
O O16 0.287778 0.250000 0.065181
O O17 0.343565 0.045610 0.754469
O O18 0.382509 0.250000 0.459374
#
# Coordination Sequence:
#
# PCOD8074204 Si02
#       7
#     4   4   4   4   4   4   4
#     4  11  24  39  54  78 112 148 185 224 269 322
#     4   9  17  31  53  82 112 141 178 226 275 324
#     4  10  21  38  61  86 111 140 177 222 271 322
#     4  11  24  38  54  79 111 147 186 224 267 322
#     4  10  21  38  61  87 111 139 179 223 269 323
#     4   9  19  35  56  82 110 140 179 225 272 323
#     4  10  20  35  57  84 110 141 183 228 275 326
#
# _framework density 20.610544000000001
#
# number of rings (size 3 to 8) (size 9 to 14) (size 15 to 20)
#    0.000    2.000    0.000    4.286    0.000   11.429 
#    0.000    0.714    0.000    0.000    0.000    0.000 
#    0.000    0.000    0.000    0.000    0.000    0.000 
#
# Total GULP energy -347271.332577 kJ/mol
# GULP energy per Si atom -12402.547592 kJ/mol
# Density = 2.056363 g / cm^3
# Si number density = 20.610544 Si / 1000 Ang^3
#
#
#
# Elastic Constant Matrix: (Units=GPa)
#
#
# Indices 1 2 3 4 5 6 
#
# 1 133.2815 64.1035 6.6001 0.0000 -25.6578 0.0000
# 2 64.1035 114.7632 9.1177 0.0000 -5.6628 0.0000
# 3 6.6001 9.1177 13.7594 0.0000 -6.5413 0.0000
# 4 0.0000 0.0000 0.0000 30.5036 0.0000 -9.0131
# 5 -25.6578 -5.6628 -6.5413 0.0000 25.0529 0.0000
# 6 0.0000 0.0000 0.0000 -9.0131 0.0000 41.5483
#
#
#
# Elastic Compliance Matrix: (Units=1/GPa)
#
#
# Indices 1 2 3 4 5 6 
#
# 1 0.013219 -0.007102 0.004611 0.000000 0.013137 0.000000
# 2 -0.007102 0.013020 -0.008312 0.000000 -0.006501 0.000000
# 3 0.004611 -0.008312 0.088284 0.000000 0.025894 0.000000
# 4 0.000000 0.000000 0.000000 0.035028 0.000000 0.007599
# 5 0.013137 -0.006501 0.025894 0.000000 0.058661 0.000000
# 6 0.000000 0.000000 0.000000 0.007599 0.000000 0.025717
#
#
# Mechanical properties :
#
#
# Convention : Reuss Voigt Hill
#
# Bulk Modulus (GPa) = 10.76224 46.82740 28.79482
# Shear Modulus (GPa) = 17.45148 31.55316 24.50232
#
# Velocity S-wave (km/s) = 2.91301 3.91695 3.45167
# Velocity P-wave (km/s) = 4.06783 6.57465 5.46687
#
# Compressibility (1/GPa) = 0.09291743
#
# Stress axis : x y z
#
# Youngs Moduli (GPa) = 75.64611 76.80380 11.32708
#
# Poissons Ratio (x) = 0.54547 -0.05222
# Poissons Ratio (y) = 0.53724 0.09415
# Poissons Ratio (z) = -0.34877 0.63836
#
# Static dielectric constant tensor:
#      x y z
#    x 3.952330 0.000000 -0.326320 
#    y 0.000000 3.836850 0.000000 
#    z -0.326320 0.000000 3.501530 
# 
# 
# High freq. dielectric constant tensor:
#      x y z
#    x 1.817130 0.000000 -0.023460 
#    y 0.000000 1.818190 0.000000 
#    z -0.023460 0.000000 1.781330 
# 
# From -- ./inp_files/28412.got.cif
#   From: 2010.06.25/outbox.cif.g09.slc.cpg/sg11_15_cif.got.tgz:28412.got - 2010.06.27 23:14:04.
