data_PCOD8074265
_publ_section_title
;
Structure prediction by ZEFSAII (Michael W. Deem and Ramdas Pophale) SiO2 
 PCOD8074265
Probable space group: P 21/M
;
_chemical_formula_sum "Si O2"
_cell_formula_units_Z 28
_cell_length_a 5.538004
_cell_length_b 27.171986
_cell_length_c 9.792969
_cell_angle_alpha 90.000000
_cell_angle_beta 107.037239
_cell_angle_gamma 90.000000
_cell_volume 1408.960911
_symmetry_space_group_name_H-M "P 21/M"
_symmetry_group_IT_number 11
_symmetry_cell_setting 'monoclinic'
loop_
_space_group_symop_operation_xyz
x,y,z
-x,1/2+y,-z
-x,-y,-z
x,1/2-y,z
loop_
_atom_site_type_symbol
_atom_site_label
_atom_site_fract_x
_atom_site_fract_y
_atom_site_fract_z
Si Si1 0.806259 0.695349 0.520210
Si Si2 0.850636 0.436037 0.367602
Si Si3 0.611931 0.378495 0.580245
Si Si4 0.350066 0.468804 0.581614
Si Si5 0.266460 0.307155 0.070322
Si Si6 0.838242 0.155855 0.206802
Si Si7 0.995205 0.695099 0.252587
O O1 0.724001 0.750000 0.552900
O O2 0.591871 0.656865 0.526575
O O3 0.069439 0.681232 0.636869
O O4 0.833651 0.692691 0.362713
O O5 0.734062 0.406745 0.475067
O O6 0.736732 0.491157 0.319161
O O7 0.828045 0.403379 0.226993
O O8 0.135975 0.443583 0.456148
O O9 0.502691 0.421359 0.664239
O O10 0.789741 0.346127 0.706463
O O11 0.500000 0.500000 0.500000
O O12 0.264299 0.250000 0.109296
O O13 0.553598 0.326466 0.130348
O O14 0.050126 0.332883 0.126939
O O15 0.192762 0.316666 0.901779
O O16 0.115304 0.750000 0.255234
#
# Coordination Sequence:
#
# PCOD8074265 Si02
#       7
#     4   4   4   4   4   4   4
#     4  11  22  35  60  92 122 159 209 266 308 361
#     4  10  20  35  57  95 121 154 206 263 322 370
#     4  11  18  36  60  90 122 158 207 263 315 367
#     4   9  19  33  58  90 124 155 196 265 322 381
#     4  11  26  43  60  88 130 178 211 248 314 386
#     4  12  23  41  64  90 129 163 210 262 314 370
#     4  10  23  39  58  86 124 169 213 254 306 378
#
# _framework density 19.872800999999999
#
# number of rings (size 3 to 8) (size 9 to 14) (size 15 to 20)
#    0.000    1.429    2.857    2.571    4.000    0.000 
#    0.000    0.000    0.000    1.714    0.000    0.000 
#    0.000    0.000    0.000    0.000    0.000    0.000 
#
# Total GULP energy -346872.606092 kJ/mol
# GULP energy per Si atom -12388.307360 kJ/mol
# Density = 1.982757 g / cm^3
# Si number density = 19.872801 Si / 1000 Ang^3
#
#
#
# Elastic Constant Matrix: (Units=GPa)
#
#
# Indices 1 2 3 4 5 6 
#
# 1 125.8932 59.2573 43.0565 0.0000 20.5904 0.0000
# 2 59.2573 139.7934 32.9070 0.0000 27.2360 0.0000
# 3 43.0565 32.9070 91.9484 0.0000 12.7565 0.0000
# 4 0.0000 0.0000 0.0000 9.1968 0.0000 18.1599
# 5 20.5904 27.2360 12.7565 0.0000 25.5383 0.0000
# 6 0.0000 0.0000 0.0000 18.1599 0.0000 38.7444
#
#
#
# Elastic Compliance Matrix: (Units=1/GPa)
#
#
# Indices 1 2 3 4 5 6 
#
# 1 0.011320 -0.003182 -0.003617 0.000000 -0.003927 0.000000
# 2 -0.003182 0.010294 -0.001103 0.000000 -0.007861 0.000000
# 3 -0.003617 -0.001103 0.013320 0.000000 -0.002560 0.000000
# 4 0.000000 0.000000 0.000000 1.459689 0.000000 -0.684170
# 5 -0.003927 -0.007861 -0.002560 0.000000 0.051985 0.000000
# 6 0.000000 0.000000 0.000000 -0.684170 0.000000 0.346487
#
#
# Mechanical properties :
#
#
# Convention : Reuss Voigt Hill
#
# Bulk Modulus (GPa) = 52.27893 69.78627 61.03260
# Shear Modulus (GPa) = 2.61059 29.52351 16.06705
#
# Velocity S-wave (km/s) = 1.14739 3.85856 2.84649
# Velocity P-wave (km/s) = 5.30276 7.41917 6.44838
#
# Compressibility (1/GPa) = 0.01912816
#
# Stress axis : x y z
#
# Youngs Moduli (GPa) = 88.33582 97.14809 75.07738
#
# Poissons Ratio (x) = 0.30913 0.27159
# Poissons Ratio (y) = 0.28109 0.08283
# Poissons Ratio (z) = 0.31955 0.10718
#
# Static dielectric constant tensor:
#      x y z
#    x 3.779630 0.000000 0.050290 
#    y 0.000000 5.260310 0.000000 
#    z 0.050290 0.000000 3.316630 
# 
# 
# High freq. dielectric constant tensor:
#      x y z
#    x 1.788850 0.000000 0.008120 
#    y 0.000000 1.800250 0.000000 
#    z 0.008120 0.000000 1.730770 
# 
# From -- ./inp_files/10749.got.cif
#   From: 2010.06.25/outbox.cif.g09.slc.cpg/sg11_6_cif.got.tgz:10749.got - 2010.06.27 23:14:04.
