data_PCOD8074963
_publ_section_title
;
Structure prediction by ZEFSAII (Michael W. Deem and Ramdas Pophale) SiO2 
 PCOD8074963
Probable space group: P 21/M
;
_chemical_formula_sum "Si O2"
_cell_formula_units_Z 24
_cell_length_a 22.826247
_cell_length_b 8.876813
_cell_length_c 11.361461
_cell_angle_alpha 90.000000
_cell_angle_beta 30.555102
_cell_angle_gamma 90.000000
_cell_volume 1170.315393
_symmetry_space_group_name_H-M "P 21/M"
_symmetry_group_IT_number 11
_symmetry_cell_setting 'monoclinic'
loop_
_space_group_symop_operation_xyz
x,y,z
-x,1/2+y,-z
-x,-y,-z
x,1/2-y,z
loop_
_atom_site_type_symbol
_atom_site_label
_atom_site_fract_x
_atom_site_fract_y
_atom_site_fract_z
Si Si1 0.557875 0.576035 0.133146
Si Si2 0.126686 0.428171 0.776733
Si Si3 0.113040 0.922621 0.345948
Si Si4 0.691683 0.076512 0.382953
Si Si5 0.339932 0.573242 0.827886
Si Si6 0.757468 0.073451 0.646782
O O1 0.594829 0.750000 0.061703
O O2 0.421767 0.556191 0.338013
O O3 0.571501 0.519620 0.244532
O O4 0.633375 0.481938 0.909320
O O5 0.111719 0.250000 0.798352
O O6 0.200728 0.475011 0.762972
O O7 0.202586 0.484430 0.536439
O O8 0.000000 0.500000 0.000000
O O9 0.089739 0.750000 0.368298
O O10 0.144489 0.959094 0.426309
O O11 0.214183 0.977810 0.086956
O O12 0.000000 0.000000 0.500000
O O13 0.732965 0.250000 0.311588
O O14 0.651768 0.026973 0.322011
O O15 0.361803 0.750000 0.812304
O O16 0.746466 0.250000 0.636401
#
# Coordination Sequence:
#
# PCOD8074963 Si02
#       6
#     4   4   4   4   4   4
#     4  10  20  36  62  95 126 159 201 252 307 359
#     4  12  27  45  65  89 119 159 205 252 305 361
#     4   9  19  33  54  84 115 152 197 244 297 351
#     4  10  22  40  62  90 125 164 207 251 300 360
#     4   9  19  36  57  86 124 163 200 246 303 360
#     4  10  22  42  63  86 120 160 203 251 303 359
#
# _framework density 20.507293000000001
#
# number of rings (size 3 to 8) (size 9 to 14) (size 15 to 20)
#    0.000    2.000    0.000    4.000    2.333    6.000 
#    0.000    0.000    0.000    0.000    0.000    0.000 
#    0.000    0.000    0.000    0.000    0.000    0.000 
#
# Total GULP energy -297558.153284 kJ/mol
# GULP energy per Si atom -12398.256387 kJ/mol
# Density = 2.046062 g / cm^3
# Si number density = 20.507293 Si / 1000 Ang^3
#
#
#
# Elastic Constant Matrix: (Units=GPa)
#
#
# Indices 1 2 3 4 5 6 
#
# 1 58.5113 43.4980 52.6473 0.0000 -8.3734 0.0000
# 2 43.4980 108.2905 45.7225 0.0000 -8.0233 0.0000
# 3 52.6473 45.7225 90.3915 0.0000 -6.7023 0.0000
# 4 0.0000 0.0000 0.0000 33.1943 0.0000 -0.8450
# 5 -8.3734 -8.0233 -6.7023 0.0000 38.6375 0.0000
# 6 0.0000 0.0000 0.0000 -0.8450 0.0000 38.4410
#
#
#
# Elastic Compliance Matrix: (Units=1/GPa)
#
#
# Indices 1 2 3 4 5 6 
#
# 1 0.041367 -0.007982 -0.019769 0.000000 0.003878 0.000000
# 2 -0.007982 0.013361 -0.002058 0.000000 0.000688 0.000000
# 3 -0.019769 -0.002058 0.023572 0.000000 -0.000623 0.000000
# 4 0.000000 0.000000 0.000000 0.030143 0.000000 0.000663
# 5 0.003878 0.000688 -0.000623 0.000000 0.026757 0.000000
# 6 0.000000 0.000000 0.000000 0.000663 0.000000 0.026028
#
#
# Mechanical properties :
#
#
# Convention : Reuss Voigt Hill
#
# Bulk Modulus (GPa) = 53.52783 60.10319 56.81551
# Shear Modulus (GPa) = 22.01942 29.74292 25.88117
#
# Velocity S-wave (km/s) = 3.28035 3.81249 3.55638
# Velocity P-wave (km/s) = 6.36444 6.98226 6.68049
#
# Compressibility (1/GPa) = 0.01868187
#
# Stress axis : x y z
#
# Youngs Moduli (GPa) = 24.17376 74.84688 42.42373
#
# Poissons Ratio (x) = 0.59745 0.83865
# Poissons Ratio (y) = 0.19296 0.08731
# Poissons Ratio (z) = 0.47788 0.15404
#
# Static dielectric constant tensor:
#      x y z
#    x 3.664350 0.000000 0.027870 
#    y 0.000000 3.648330 0.000000 
#    z 0.027870 0.000000 3.748340 
# 
# 
# High freq. dielectric constant tensor:
#      x y z
#    x 1.799930 0.000000 -0.003170 
#    y 0.000000 1.799250 0.000000 
#    z -0.003170 0.000000 1.812940 
# 
# From -- ./inp_files/43882.got.cif
#   From: 2010.06.25/outbox.cif.g09.slc.cpg/sg11_22_cif.got.tgz:43882.got - 2010.06.27 23:14:04.
