data_PCOD8074141
_publ_section_title
;
Structure prediction by ZEFSAII (Michael W. Deem and Ramdas Pophale) SiO2 
 PCOD8074141
Probable space group: P 21/M
;
_chemical_formula_sum "Si O2"
_cell_formula_units_Z 32
_cell_length_a 15.286572
_cell_length_b 9.286084
_cell_length_c 24.951953
_cell_angle_alpha 90.000000
_cell_angle_beta 27.721360
_cell_angle_gamma 90.000000
_cell_volume 1647.634615
_symmetry_space_group_name_H-M "P 21/M"
_symmetry_group_IT_number 11
_symmetry_cell_setting 'monoclinic'
loop_
_space_group_symop_operation_xyz
x,y,z
-x,1/2+y,-z
-x,-y,-z
x,1/2-y,z
loop_
_atom_site_type_symbol
_atom_site_label
_atom_site_fract_x
_atom_site_fract_y
_atom_site_fract_z
Si Si1 0.876361 0.578248 0.523278
Si Si2 0.468182 0.912511 0.776151
Si Si3 0.875063 0.087759 0.108053
Si Si4 0.044489 0.917465 0.816856
Si Si5 0.303436 0.421292 0.595205
Si Si6 0.629110 0.081355 0.887950
Si Si7 0.043266 0.419890 0.639799
Si Si8 0.629284 0.913751 0.068423
O O1 0.901735 0.750000 0.513182
O O2 0.667264 0.525724 0.650157
O O3 0.925008 0.519978 0.437353
O O4 0.000000 0.500000 0.500000
O O5 0.488711 0.750000 0.785285
O O6 0.340785 0.922825 0.792402
O O7 0.374765 0.996235 0.875461
O O8 0.952198 0.250000 0.064692
O O9 0.890228 0.030156 0.159992
O O10 0.000000 0.000000 0.000000
O O11 0.098404 0.750000 0.776819
O O12 0.147998 0.023504 0.720564
O O13 0.821492 0.943621 0.931564
O O14 0.500000 0.500000 0.500000
O O15 0.331478 0.250000 0.585855
O O16 0.220305 0.461964 0.581519
O O17 0.618922 0.250000 0.907243
O O18 0.547437 0.049591 0.873149
O O19 0.844046 0.022174 0.771679
O O20 0.500000 0.000000 0.000000
O O21 0.025238 0.250000 0.646086
O O22 0.623967 0.750000 0.090402
#
# Coordination Sequence:
#
# PCOD8074141 Si02
#       8
#     4   4   4   4   4   4   4   4
#     4  10  21  39  61  85 114 151 192 235 285 342
#     4  10  21  34  55  84 112 148 191 229 278 343
#     4  10  20  35  56  84 117 154 190 232 286 343
#     4  10  21  37  58  84 118 153 189 237 291 339
#     4  11  24  41  62  85 112 153 201 246 292 344
#     4  10  20  35  57  84 110 144 185 226 280 339
#     4   9  20  39  61  82 113 155 193 229 283 351
#     4  10  20  35  57  85 116 149 182 227 284 338
#
# _framework density 19.421782
#
# number of rings (size 3 to 8) (size 9 to 14) (size 15 to 20)
#    0.000    2.000    1.250    1.875    1.750    3.000 
#    0.000    2.500    0.000    0.000    0.000    0.000 
#    0.000    0.000    0.000    0.000    0.000    0.000 
#
# Total GULP energy -396774.822143 kJ/mol
# GULP energy per Si atom -12399.213192 kJ/mol
# Density = 1.937758 g / cm^3
# Si number density = 19.421782 Si / 1000 Ang^3
#
#
#
# Elastic Constant Matrix: (Units=GPa)
#
#
# Indices 1 2 3 4 5 6 
#
# 1 125.5741 41.5334 57.3339 0.0000 -4.8416 0.0000
# 2 41.5334 52.2251 35.7574 0.0000 2.9870 0.0000
# 3 57.3339 35.7574 109.6508 0.0000 -2.1158 0.0000
# 4 0.0000 0.0000 0.0000 32.2957 0.0000 0.1011
# 5 -4.8416 2.9870 -2.1158 0.0000 38.9145 0.0000
# 6 0.0000 0.0000 0.0000 0.1011 0.0000 27.9237
#
#
#
# Elastic Compliance Matrix: (Units=1/GPa)
#
#
# Indices 1 2 3 4 5 6 
#
# 1 0.012215 -0.007044 -0.004055 0.000000 0.001840 0.000000
# 2 -0.007044 0.028927 -0.005816 0.000000 -0.003413 0.000000
# 3 -0.004055 -0.005816 0.013149 0.000000 0.000657 0.000000
# 4 0.000000 0.000000 0.000000 0.030964 0.000000 -0.000112
# 5 0.001840 -0.003413 0.000657 0.000000 0.026224 0.000000
# 6 0.000000 0.000000 0.000000 -0.000112 0.000000 0.035812
#
#
# Mechanical properties :
#
#
# Convention : Reuss Voigt Hill
#
# Bulk Modulus (GPa) = 48.86925 61.85546 55.36236
# Shear Modulus (GPa) = 26.60406 30.01513 28.30960
#
# Velocity S-wave (km/s) = 3.70510 3.93547 3.82202
# Velocity P-wave (km/s) = 6.59700 7.25039 6.93140
#
# Compressibility (1/GPa) = 0.02046277
#
# Stress axis : x y z
#
# Youngs Moduli (GPa) = 81.86466 34.57002 76.05014
#
# Poissons Ratio (x) = 0.24350 0.30836
# Poissons Ratio (y) = 0.57662 0.44231
# Poissons Ratio (z) = 0.33193 0.20106
#
# Static dielectric constant tensor:
#      x y z
#    x 4.011190 0.000000 -0.209980 
#    y 0.000000 3.107990 0.000000 
#    z -0.209980 0.000000 3.733790 
# 
# 
# High freq. dielectric constant tensor:
#      x y z
#    x 1.772310 0.000000 -0.008820 
#    y 0.000000 1.735170 0.000000 
#    z -0.008820 0.000000 1.763010 
# 
# From -- ./inp_files/55596.got.cif
#   From: 2010.06.25/outbox.cif.g09.slc.cpg/sg11_28_cif.got.tgz:55596.got - 2010.06.27 23:14:04.
