data_PCOD8074571
_publ_section_title
;
Structure prediction by ZEFSAII (Michael W. Deem and Ramdas Pophale) SiO2 
 PCOD8074571
Probable space group: P 21/M
;
_chemical_formula_sum "Si O2"
_cell_formula_units_Z 32
_cell_length_a 10.331433
_cell_length_b 17.431882
_cell_length_c 16.211430
_cell_angle_alpha 90.000000
_cell_angle_beta 36.254754
_cell_angle_gamma 90.000000
_cell_volume 1726.594180
_symmetry_space_group_name_H-M "P 21/M"
_symmetry_group_IT_number 11
_symmetry_cell_setting 'monoclinic'
loop_
_space_group_symop_operation_xyz
x,y,z
-x,1/2+y,-z
-x,-y,-z
x,1/2-y,z
loop_
_atom_site_type_symbol
_atom_site_label
_atom_site_fract_x
_atom_site_fract_y
_atom_site_fract_z
Si Si1 0.369343 0.337076 0.505983
Si Si2 0.702401 0.581936 0.200047
Si Si3 0.882977 0.658953 0.777590
Si Si4 0.628934 0.404685 0.232630
Si Si5 0.986312 0.661579 0.187860
Si Si6 0.535501 0.339144 0.105985
Si Si7 0.076592 0.339364 0.058176
Si Si8 0.657670 0.161971 0.518197
O O1 0.366038 0.250000 0.474952
O O2 0.429155 0.392024 0.399203
O O3 0.131021 0.360658 0.665404
O O4 0.548581 0.347362 0.485038
O O5 0.712641 0.490930 0.193819
O O6 0.895187 0.610569 0.160585
O O7 0.464738 0.610493 0.351413
O O8 0.748648 0.614082 0.085584
O O9 0.885290 0.750000 0.781978
O O10 0.664650 0.628533 0.845416
O O11 0.897746 0.626818 0.862859
O O12 0.093636 0.631808 0.616728
O O13 0.542603 0.386749 0.186125
O O14 0.829000 0.349252 0.153391
O O15 0.926422 0.750000 0.197697
O O16 0.245635 0.648886 0.061093
O O17 0.502341 0.250000 0.145056
O O18 0.135582 0.250000 0.022989
O O19 0.646560 0.250000 0.553239
#
# Coordination Sequence:
#
# PCOD8074571 Si02
#       8
#     4   4   4   4   4   4   4   4
#     4   9  17  32  54  80 104 136 179 222 266 314
#     4  11  22  33  52  84 114 141 179 221 273 325
#     4   9  19  36  59  81 102 137 189 229 262 317
#     4  12  22  33  53  85 115 139 177 224 272 324
#     4   9  18  33  55  80 110 141 177 225 277 317
#     4  10  20  36  57  81 109 142 176 224 280 321
#     4  11  20  36  58  80 105 139 184 230 264 312
#     4   9  17  34  56  79 108 143 184 226 266 313
#
# _framework density 18.533595999999999
#
# number of rings (size 3 to 8) (size 9 to 14) (size 15 to 20)
#    0.000    2.000    2.500    3.375    0.000    2.000 
#    0.000    2.500    0.000    4.500    0.000    0.000 
#    0.000    0.000    0.000    0.000    0.000    0.000 
#
# Total GULP energy -396853.510471 kJ/mol
# GULP energy per Si atom -12401.672202 kJ/mol
# Density = 1.849141 g / cm^3
# Si number density = 18.533596 Si / 1000 Ang^3
#
#
#
# Elastic Constant Matrix: (Units=GPa)
#
#
# Indices 1 2 3 4 5 6 
#
# 1 88.4795 11.9589 54.5859 0.0000 -5.3210 0.0000
# 2 11.9589 51.1457 22.6196 0.0000 2.4481 0.0000
# 3 54.5859 22.6196 139.5249 0.0000 -4.4996 0.0000
# 4 0.0000 0.0000 0.0000 10.9685 0.0000 0.5108
# 5 -5.3210 2.4481 -4.4996 0.0000 29.5587 0.0000
# 6 0.0000 0.0000 0.0000 0.5108 0.0000 6.6697
#
#
#
# Elastic Compliance Matrix: (Units=1/GPa)
#
#
# Indices 1 2 3 4 5 6 
#
# 1 0.015053 -0.001116 -0.005645 0.000000 0.001943 0.000000
# 2 -0.001116 0.021298 -0.003095 0.000000 -0.002436 0.000000
# 3 -0.005645 -0.003095 0.009902 0.000000 0.000747 0.000000
# 4 0.000000 0.000000 0.000000 0.091496 0.000000 -0.007007
# 5 0.001943 -0.002436 0.000747 0.000000 0.034496 0.000000
# 6 0.000000 0.000000 0.000000 -0.007007 0.000000 0.150468
#
#
# Mechanical properties :
#
#
# Convention : Reuss Voigt Hill
#
# Bulk Modulus (GPa) = 37.67871 50.83099 44.25485
# Shear Modulus (GPa) = 14.23398 22.10509 18.16954
#
# Velocity S-wave (km/s) = 2.77431 3.45730 3.13446
# Velocity P-wave (km/s) = 5.53502 6.58963 6.08521
#
# Compressibility (1/GPa) = 0.02654019
#
# Stress axis : x y z
#
# Youngs Moduli (GPa) = 66.43401 46.95229 100.99336
#
# Poissons Ratio (x) = 0.05239 0.57015
# Poissons Ratio (y) = 0.07413 0.31256
# Poissons Ratio (z) = 0.37505 0.14531
#
# Static dielectric constant tensor:
#      x y z
#    x 3.200560 0.000000 0.013260 
#    y 0.000000 3.165680 0.000000 
#    z 0.013260 0.000000 3.731040 
# 
# 
# High freq. dielectric constant tensor:
#      x y z
#    x 1.684950 0.000000 0.005870 
#    y 0.000000 1.697360 0.000000 
#    z 0.005870 0.000000 1.740000 
# 
# From -- ./inp_files/59606.got.cif
#   From: 2010.06.25/outbox.cif.g09.slc.cpg/sg11_30_cif.got.tgz:59606.got - 2010.06.27 23:14:04.
