data_PCOD8074026
_publ_section_title
;
Structure prediction by ZEFSAII (Michael W. Deem and Ramdas Pophale) SiO2 
 PCOD8074026
Probable space group: P 21/M
;
_chemical_formula_sum "Si O2"
_cell_formula_units_Z 28
_cell_length_a 15.896514
_cell_length_b 9.037052
_cell_length_c 12.425087
_cell_angle_alpha 90.000000
_cell_angle_beta 124.048086
_cell_angle_gamma 90.000000
_cell_volume 1478.959423
_symmetry_space_group_name_H-M "P 21/M"
_symmetry_group_IT_number 11
_symmetry_cell_setting 'monoclinic'
loop_
_space_group_symop_operation_xyz
x,y,z
-x,1/2+y,-z
-x,-y,-z
x,1/2-y,z
loop_
_atom_site_type_symbol
_atom_site_label
_atom_site_fract_x
_atom_site_fract_y
_atom_site_fract_z
Si Si1 0.503305 0.419042 0.172509
Si Si2 0.279094 0.419918 0.954152
Si Si3 0.442720 0.917295 0.551546
Si Si4 0.776008 0.073988 0.532058
Si Si5 0.903237 0.922343 0.797908
Si Si6 0.293258 0.079376 0.722540
Si Si7 0.865100 0.078216 0.984905
O O1 0.531286 0.250000 0.162465
O O2 0.396530 0.468248 0.046211
O O3 0.493516 0.435585 0.293917
O O4 0.590773 0.523888 0.189427
O O5 0.265973 0.250000 0.982467
O O6 0.212654 0.524963 0.980876
O O7 0.244325 0.439773 0.805693
O O8 0.435134 0.750000 0.508075
O O9 0.328864 0.978219 0.487477
O O10 0.500000 0.000000 0.500000
O O11 0.787244 0.250000 0.535784
O O12 0.867946 0.003213 0.664050
O O13 0.775859 0.013546 0.409768
O O14 0.876556 0.750000 0.772723
O O15 0.846289 0.990618 0.860533
O O16 0.022606 0.952471 0.890872
O O17 0.293898 0.250000 0.687383
O O18 0.846876 0.250000 0.947709
#
# Coordination Sequence:
#
# PCOD8074026 Si02
#       7
#     4   4   4   4   4   4   4
#     4   9  19  35  52  75 109 149 187 225 273 323
#     4  10  21  36  56  82 113 147 188 232 275 324
#     4   9  19  32  47  73 108 140 177 221 264 318
#     4  10  21  37  57  80 108 145 186 226 275 332
#     4  10  21  39  61  83 111 144 180 226 279 332
#     4  10  20  35  55  82 112 147 189 229 273 328
#     4  10  22  38  58  86 113 141 182 227 275 332
#
# _framework density 18.932229
#
# number of rings (size 3 to 8) (size 9 to 14) (size 15 to 20)
#    0.000    2.286    0.000    3.000    2.000    6.286 
#    0.000    0.714    0.000    0.000    0.000    0.000 
#    0.000    0.000    0.000    0.000    0.000    0.000 
#
# Total GULP energy -347268.546305 kJ/mol
# GULP energy per Si atom -12402.448082 kJ/mol
# Density = 1.888914 g / cm^3
# Si number density = 18.932229 Si / 1000 Ang^3
#
#
#
# Elastic Constant Matrix: (Units=GPa)
#
#
# Indices 1 2 3 4 5 6 
#
# 1 48.1029 31.3464 27.7360 0.0000 -9.9353 0.0000
# 2 31.3464 94.4111 50.7584 0.0000 -0.3980 0.0000
# 3 27.7360 50.7584 110.8285 0.0000 0.1553 0.0000
# 4 0.0000 0.0000 0.0000 32.0467 0.0000 0.9651
# 5 -9.9353 -0.3980 0.1553 0.0000 18.0370 0.0000
# 6 0.0000 0.0000 0.0000 0.9651 0.0000 32.5391
#
#
#
# Elastic Compliance Matrix: (Units=1/GPa)
#
#
# Indices 1 2 3 4 5 6 
#
# 1 0.032367 -0.008363 -0.004295 0.000000 0.017681 0.000000
# 2 -0.008363 0.016215 -0.005328 0.000000 -0.004203 0.000000
# 3 -0.004295 -0.005328 0.012541 0.000000 -0.002591 0.000000
# 4 0.000000 0.000000 0.000000 0.031232 0.000000 -0.000926
# 5 0.017681 -0.004203 -0.002591 0.000000 0.065110 0.000000
# 6 0.000000 0.000000 0.000000 -0.000926 0.000000 0.030760
#
#
# Mechanical properties :
#
#
# Convention : Reuss Voigt Hill
#
# Bulk Modulus (GPa) = 39.75704 52.55823 46.15764
# Shear Modulus (GPa) = 21.49794 26.09133 23.79464
#
# Velocity S-wave (km/s) = 3.37340 3.71636 3.54903
# Velocity P-wave (km/s) = 6.01817 6.79975 6.42087
#
# Compressibility (1/GPa) = 0.02515278
#
# Stress axis : x y z
#
# Youngs Moduli (GPa) = 30.89595 61.67049 79.73599
#
# Poissons Ratio (x) = 0.51574 0.34245
# Poissons Ratio (y) = 0.25838 0.42480
# Poissons Ratio (z) = 0.13269 0.32856
#
# Static dielectric constant tensor:
#      x y z
#    x 3.272540 0.000000 0.039900 
#    y 0.000000 3.555820 0.000000 
#    z 0.039900 0.000000 3.659850 
# 
# 
# High freq. dielectric constant tensor:
#      x y z
#    x 1.715110 0.000000 -0.007330 
#    y 0.000000 1.742460 0.000000 
#    z -0.007330 0.000000 1.744820 
# 
# From -- ./inp_files/37861.got.cif
#   From: 2010.06.25/outbox.cif.g09.slc.cpg/sg11_19_cif.got.tgz:37861.got - 2010.06.27 23:14:04.
