data_PCOD8074235
_publ_section_title
;
Structure prediction by ZEFSAII (Michael W. Deem and Ramdas Pophale) SiO2 
 PCOD8074235
Probable space group: P 21/M
;
_chemical_formula_sum "Si O2"
_cell_formula_units_Z 32
_cell_length_a 12.875124
_cell_length_b 8.891386
_cell_length_c 31.888579
_cell_angle_alpha 90.000000
_cell_angle_beta 26.764152
_cell_angle_gamma 90.000000
_cell_volume 1643.903483
_symmetry_space_group_name_H-M "P 21/M"
_symmetry_group_IT_number 11
_symmetry_cell_setting 'monoclinic'
loop_
_space_group_symop_operation_xyz
x,y,z
-x,1/2+y,-z
-x,-y,-z
x,1/2-y,z
loop_
_atom_site_type_symbol
_atom_site_label
_atom_site_fract_x
_atom_site_fract_y
_atom_site_fract_z
Si Si1 0.057780 0.927833 0.121668
Si Si2 0.121942 0.572306 0.416727
Si Si3 0.644296 0.575014 0.210484
Si Si4 0.258943 0.073396 0.597027
Si Si5 0.553091 0.928439 0.072415
Si Si6 0.065038 0.572019 0.214194
Si Si7 0.044444 0.080118 0.360919
Si Si8 0.580995 0.081147 0.149287
O O1 0.103258 0.750000 0.103000
O O2 0.030289 0.985355 0.179346
O O3 0.827730 0.973366 0.179485
O O4 0.274640 0.014890 0.025168
O O5 0.080564 0.750000 0.430475
O O6 0.393315 0.532018 0.318990
O O7 0.997110 0.494224 0.422701
O O8 0.000000 0.500000 0.500000
O O9 0.657102 0.750000 0.195476
O O10 0.704503 0.491411 0.145239
O O11 0.292859 0.250000 0.584079
O O12 0.156789 0.019033 0.678742
O O13 0.500000 0.000000 0.500000
O O14 0.076188 0.026889 0.628440
O O15 0.556778 0.750000 0.073350
O O16 0.300145 0.990794 0.150601
O O17 0.636874 0.990726 0.086987
O O18 0.081819 0.750000 0.208585
O O19 0.944106 0.250000 0.396293
O O20 0.311020 0.079705 0.254315
O O21 0.675634 0.250000 0.109646
#
# Coordination Sequence:
#
# PCOD8074235 Si02
#       8
#     4   4   4   4   4   4   4   4
#     4  10  21  39  59  83 114 153 195 237 287 348
#     4  10  20  35  57  85 114 151 194 239 291 353
#     4   9  20  37  57  81 115 154 191 235 294 352
#     4  11  22  38  59  87 119 154 193 240 293 350
#     4  11  21  36  59  87 115 151 194 238 292 350
#     4   9  20  38  60  83 116 156 193 236 290 349
#     4  10  20  36  57  82 111 147 191 242 292 342
#     4  10  20  35  59  85 111 147 192 241 286 339
#
# _framework density 19.465862999999999
#
# number of rings (size 3 to 8) (size 9 to 14) (size 15 to 20)
#    0.000    2.000    1.250    2.250    0.000    3.500 
#    0.000    4.375    0.000    0.000    0.000    0.000 
#    0.000    0.000    0.000    0.000    0.000    0.000 
#
# Total GULP energy -396834.763731 kJ/mol
# GULP energy per Si atom -12401.086367 kJ/mol
# Density = 1.942156 g / cm^3
# Si number density = 19.465863 Si / 1000 Ang^3
#
#
#
# Elastic Constant Matrix: (Units=GPa)
#
#
# Indices 1 2 3 4 5 6 
#
# 1 145.5761 45.5089 67.7893 0.0000 23.1583 0.0000
# 2 45.5089 74.8047 53.1500 0.0000 9.0042 0.0000
# 3 67.7893 53.1500 110.7641 0.0000 26.2397 0.0000
# 4 0.0000 0.0000 0.0000 32.4494 0.0000 3.9682
# 5 23.1583 9.0042 26.2397 0.0000 35.3138 0.0000
# 6 0.0000 0.0000 0.0000 3.9682 0.0000 28.2821
#
#
#
# Elastic Compliance Matrix: (Units=1/GPa)
#
#
# Indices 1 2 3 4 5 6 
#
# 1 0.010160 -0.002881 -0.004164 0.000000 -0.002834 0.000000
# 2 -0.002881 0.021284 -0.009238 0.000000 0.003327 0.000000
# 3 -0.004164 -0.009238 0.017967 0.000000 -0.008264 0.000000
# 4 0.000000 0.000000 0.000000 0.031355 0.000000 -0.004399
# 5 -0.002834 0.003327 -0.008264 0.000000 0.035469 0.000000
# 6 0.000000 0.000000 0.000000 -0.004399 0.000000 0.035975
#
#
# Mechanical properties :
#
#
# Convention : Reuss Voigt Hill
#
# Bulk Modulus (GPa) = 59.36512 73.78236 66.57374
# Shear Modulus (GPa) = 26.26163 30.18884 28.22524
#
# Velocity S-wave (km/s) = 3.67701 3.94237 3.81200
# Velocity P-wave (km/s) = 6.97069 7.66217 7.32459
#
# Compressibility (1/GPa) = 0.01684491
#
# Stress axis : x y z
#
# Youngs Moduli (GPa) = 98.42681 46.98308 55.65666
#
# Poissons Ratio (x) = 0.13537 0.23176
# Poissons Ratio (y) = 0.28358 0.51416
# Poissons Ratio (z) = 0.40986 0.43403
#
# Static dielectric constant tensor:
#      x y z
#    x 3.614990 0.000000 0.221540 
#    y 0.000000 3.535650 0.000000 
#    z 0.221540 0.000000 3.495840 
# 
# 
# High freq. dielectric constant tensor:
#      x y z
#    x 1.766900 0.000000 0.008930 
#    y 0.000000 1.752510 0.000000 
#    z 0.008930 0.000000 1.757830 
# 
# From -- ./inp_files/73094.got.cif
#   From: 2010.06.25/outbox.cif.g09.slc.cpg/sg11_37_cif.got.tgz:73094.got - 2010.06.27 23:14:04.
