data_PCOD8074014
_publ_section_title
;
Structure prediction by ZEFSAII (Michael W. Deem and Ramdas Pophale) SiO2 
 PCOD8074014
Probable space group: P 21/M
;
_chemical_formula_sum "Si O2"
_cell_formula_units_Z 32
_cell_length_a 12.722520
_cell_length_b 9.298534
_cell_length_c 14.065641
_cell_angle_alpha 90.000000
_cell_angle_beta 90.002681
_cell_angle_gamma 90.000000
_cell_volume 1663.976367
_symmetry_space_group_name_H-M "P 21/M"
_symmetry_group_IT_number 11
_symmetry_cell_setting 'monoclinic'
loop_
_space_group_symop_operation_xyz
x,y,z
-x,1/2+y,-z
-x,-y,-z
x,1/2-y,z
loop_
_atom_site_type_symbol
_atom_site_label
_atom_site_fract_x
_atom_site_fract_y
_atom_site_fract_z
Si Si1 0.729306 0.081202 0.399756
Si Si2 0.999939 0.918661 0.099314
Si Si3 0.804928 0.082571 0.770925
Si Si4 0.499988 0.411786 0.406556
Si Si5 0.804877 0.917393 0.229092
Si Si6 0.618322 0.916287 0.092867
Si Si7 0.729326 0.581196 0.600247
Si Si8 0.381563 0.583672 0.092846
O O1 0.754777 0.250000 0.413400
O O2 0.611244 0.057338 0.354185
O O3 0.810625 0.011085 0.325334
O O4 0.741287 0.999976 0.499990
O O5 0.999925 0.750000 0.077119
O O6 0.898347 0.964634 0.159615
O O7 0.101469 0.964570 0.159720
O O8 0.000000 0.000000 0.000000
O O9 0.814215 0.250000 0.743663
O O10 0.694959 0.046158 0.821119
O O11 0.810657 0.988971 0.674643
O O12 0.500000 0.500000 0.500000
O O13 0.499971 0.250000 0.442623
O O14 0.388731 0.442693 0.354185
O O15 0.814397 0.750000 0.256409
O O16 0.694793 0.953488 0.179003
O O17 0.624597 0.750000 0.065916
O O18 0.499944 0.961581 0.122649
O O19 0.656519 0.000083 0.000073
O O20 0.754801 0.750000 0.586636
O O21 0.375154 0.750000 0.066084
#
# Coordination Sequence:
#
# PCOD8074014 Si02
#       8
#     4   4   4   4   4   4   4   4
#     4  10  20  35  55  81 113 148 186 227 273 326
#     4  10  22  40  61  84 111 144 185 234 280 328
#     4  10  21  36  55  80 110 144 185 228 276 327
#     4   8  16  30  48  74 107 142 179 218 263 316
#     4  10  21  36  55  80 110 144 185 228 276 327
#     4   9  18  32  50  75 106 139 174 217 271 328
#     4  10  20  35  55  81 113 148 186 227 273 326
#     4   9  18  32  50  75 106 139 174 217 271 328
#
# _framework density 19.231041999999999
#
# number of rings (size 3 to 8) (size 9 to 14) (size 15 to 20)
#    0.000    2.500    0.000    1.500    1.750    3.000 
#    0.000    0.625    0.000    0.000    0.000    0.000 
#    0.000    0.000    0.000    0.000    0.000    0.000 
#
# Total GULP energy -396594.553686 kJ/mol
# GULP energy per Si atom -12393.579803 kJ/mol
# Density = 1.918727 g / cm^3
# Si number density = 19.231042 Si / 1000 Ang^3
#
#
#
# Elastic Constant Matrix: (Units=GPa)
#
#
# Indices 1 2 3 4 5 6 
#
# 1 84.9391 48.1102 61.7414 0.0000 -0.0772 0.0000
# 2 48.1102 81.7732 73.4589 0.0000 -0.2889 0.0000
# 3 61.7414 73.4589 129.2311 0.0000 -0.3366 0.0000
# 4 0.0000 0.0000 0.0000 39.4027 0.0000 -0.0184
# 5 -0.0772 -0.2889 -0.3366 0.0000 19.4464 0.0000
# 6 0.0000 0.0000 0.0000 -0.0184 0.0000 17.8248
#
#
#
# Elastic Compliance Matrix: (Units=1/GPa)
#
#
# Indices 1 2 3 4 5 6 
#
# 1 0.019528 -0.006351 -0.005720 0.000000 -0.000116 0.000000
# 2 -0.006351 0.027055 -0.012344 0.000000 0.000163 0.000000
# 3 -0.005720 -0.012344 0.017488 0.000000 0.000097 0.000000
# 4 0.000000 0.000000 0.000000 0.025379 0.000000 0.000026
# 5 -0.000116 0.000163 0.000097 0.000000 0.051427 0.000000
# 6 0.000000 0.000000 0.000000 0.000026 0.000000 0.056102
#
#
# Mechanical properties :
#
#
# Convention : Reuss Voigt Hill
#
# Bulk Modulus (GPa) = 65.61400 73.61827 69.61614
# Shear Modulus (GPa) = 19.92904 22.84364 21.38634
#
# Velocity S-wave (km/s) = 3.22265 3.45026 3.33839
# Velocity P-wave (km/s) = 6.93110 7.36454 7.15111
#
# Compressibility (1/GPa) = 0.01524065
#
# Stress axis : x y z
#
# Youngs Moduli (GPa) = 51.20816 36.96118 57.18254
#
# Poissons Ratio (x) = 0.23475 0.32707
# Poissons Ratio (y) = 0.32524 0.70588
# Poissons Ratio (z) = 0.29290 0.45626
#
# Static dielectric constant tensor:
#      x y z
#    x 13.814070 0.000000 -0.004050 
#    y 0.000000 3.435960 0.000000 
#    z -0.004050 0.000000 3.235630 
# 
# 
# High freq. dielectric constant tensor:
#      x y z
#    x 1.743260 0.000000 -0.000010 
#    y 0.000000 1.748580 0.000000 
#    z -0.000010 0.000000 1.736310 
# 
# From -- ./inp_files/49356.got.cif
#   From: 2010.06.25/outbox.cif.g09.slc.cpg/sg11_25_cif.got.tgz:49356.got - 2010.06.27 23:14:04.
