data_PCOD8074222
_publ_section_title
;
Structure prediction by ZEFSAII (Michael W. Deem and Ramdas Pophale) SiO2 
 PCOD8074222
Probable space group: P 21/M
;
_chemical_formula_sum "Si O2"
_cell_formula_units_Z 28
_cell_length_a 12.339692
_cell_length_b 8.498606
_cell_length_c 16.594131
_cell_angle_alpha 90.000000
_cell_angle_beta 119.911287
_cell_angle_gamma 90.000000
_cell_volume 1508.428388
_symmetry_space_group_name_H-M "P 21/M"
_symmetry_group_IT_number 11
_symmetry_cell_setting 'monoclinic'
loop_
_space_group_symop_operation_xyz
x,y,z
-x,1/2+y,-z
-x,-y,-z
x,1/2-y,z
loop_
_atom_site_type_symbol
_atom_site_label
_atom_site_fract_x
_atom_site_fract_y
_atom_site_fract_z
Si Si1 0.525193 0.567381 0.725823
Si Si2 0.391160 0.933476 0.404482
Si Si3 0.694037 0.932512 0.102367
Si Si4 0.437373 0.932486 0.090592
Si Si5 0.145654 0.565923 0.414284
Si Si6 0.116222 0.933252 0.713521
Si Si7 0.745623 0.566838 0.387287
O O1 0.539375 0.750000 0.750087
O O2 0.609983 0.520828 0.681434
O O3 0.576773 0.471527 0.821035
O O4 0.381384 0.531190 0.652742
O O5 0.414889 0.750000 0.399664
O O6 0.259539 0.968570 0.396967
O O7 0.500000 0.000000 0.500000
O O8 0.726311 0.750000 0.123122
O O9 0.575775 0.981882 0.113391
O O10 0.811823 0.033702 0.176230
O O11 0.665704 0.972426 0.998782
O O12 0.413819 0.750000 0.066271
O O13 0.128061 0.750000 0.424413
O O14 0.164725 0.479163 0.506140
O O15 0.024271 0.493498 0.327211
O O16 0.118868 0.750000 0.693086
O O17 0.183254 0.031403 0.668545
O O18 0.711195 0.750000 0.377369
#
# Coordination Sequence:
#
# PCOD8074222 Si02
#       7
#     4   4   4   4   4   4   4
#     4  12  23  36  58  86 119 153 191 237 288 342
#     4  11  23  39  61  84 113 151 195 242 287 336
#     4  10  20  35  57  84 117 152 188 234 285 341
#     4  10  20  35  57  85 117 151 189 234 286 341
#     4  11  24  41  59  82 114 154 197 238 285 342
#     4  12  24  38  58  84 118 156 193 235 286 345
#     4  12  23  37  57  83 117 154 193 236 286 343
#
# _framework density 18.562366999999998
#
# number of rings (size 3 to 8) (size 9 to 14) (size 15 to 20)
#    0.000    0.857    2.857    6.000    0.000    2.857 
#    0.000    0.000    0.000    0.857    0.000    0.000 
#    0.000    0.000    0.000    0.000    0.000    0.000 
#
# Total GULP energy -347424.430734 kJ/mol
# GULP energy per Si atom -12408.015383 kJ/mol
# Density = 1.852012 g / cm^3
# Si number density = 18.562367 Si / 1000 Ang^3
#
#
#
# Elastic Constant Matrix: (Units=GPa)
#
#
# Indices 1 2 3 4 5 6 
#
# 1 60.8741 24.8883 44.3202 0.0000 10.7685 0.0000
# 2 24.8883 81.1597 20.6954 0.0000 5.7930 0.0000
# 3 44.3202 20.6954 118.3062 0.0000 0.0492 0.0000
# 4 0.0000 0.0000 0.0000 36.4111 0.0000 0.5127
# 5 10.7685 5.7930 0.0492 0.0000 25.2419 0.0000
# 6 0.0000 0.0000 0.0000 0.5127 0.0000 26.6364
#
#
#
# Elastic Compliance Matrix: (Units=1/GPa)
#
#
# Indices 1 2 3 4 5 6 
#
# 1 0.027124 -0.005222 -0.009243 0.000000 -0.010355 0.000000
# 2 -0.005222 0.014126 -0.000515 0.000000 -0.001013 0.000000
# 3 -0.009243 -0.000515 0.012004 0.000000 0.004038 0.000000
# 4 0.000000 0.000000 0.000000 0.027472 0.000000 -0.000529
# 5 -0.010355 -0.001013 0.004038 0.000000 0.044259 0.000000
# 6 0.000000 0.000000 0.000000 -0.000529 0.000000 0.037553
#
#
# Mechanical properties :
#
#
# Convention : Reuss Voigt Hill
#
# Bulk Modulus (GPa) = 42.92855 48.90532 45.91693
# Shear Modulus (GPa) = 24.96743 29.02029 26.99386
#
# Velocity S-wave (km/s) = 3.67148 3.95827 3.81757
# Velocity P-wave (km/s) = 6.41482 6.87708 6.64996
#
# Compressibility (1/GPa) = 0.02329452
#
# Stress axis : x y z
#
# Youngs Moduli (GPa) = 36.86808 70.79064 83.30703
#
# Poissons Ratio (x) = 0.36964 0.77005
# Poissons Ratio (y) = 0.19251 0.04287
# Poissons Ratio (z) = 0.34079 0.03643
#
# Static dielectric constant tensor:
#      x y z
#    x 3.387180 0.000000 0.018460 
#    y 0.000000 3.513180 0.000000 
#    z 0.018460 0.000000 3.469400 
# 
# 
# High freq. dielectric constant tensor:
#      x y z
#    x 1.694930 0.000000 -0.000770 
#    y 0.000000 1.739440 0.000000 
#    z -0.000770 0.000000 1.726300 
# 
# From -- ./inp_files/37483.got.cif
#   From: 2010.06.25/outbox.cif.g09.slc.cpg/sg11_19_cif.got.tgz:37483.got - 2010.06.27 23:14:04.
