data_PCOD8074019
_publ_section_title
;
Structure prediction by ZEFSAII (Michael W. Deem and Ramdas Pophale) SiO2 
 PCOD8074019
Probable space group: P 21/M
;
_chemical_formula_sum "Si O2"
_cell_formula_units_Z 32
_cell_length_a 9.715579
_cell_length_b 10.307422
_cell_length_c 16.205526
_cell_angle_alpha 90.000000
_cell_angle_beta 81.628631
_cell_angle_gamma 90.000000
_cell_volume 1605.571797
_symmetry_space_group_name_H-M "P 21/M"
_symmetry_group_IT_number 11
_symmetry_cell_setting 'monoclinic'
loop_
_space_group_symop_operation_xyz
x,y,z
-x,1/2+y,-z
-x,-y,-z
x,1/2-y,z
loop_
_atom_site_type_symbol
_atom_site_label
_atom_site_fract_x
_atom_site_fract_y
_atom_site_fract_z
Si Si1 0.247282 0.396971 0.083138
Si Si2 0.975765 0.602113 0.670814
Si Si3 0.817529 0.105643 0.473640
Si Si4 0.308682 0.492509 0.348859
Si Si5 0.595411 0.105084 0.819436
Si Si6 0.715892 0.897892 0.108691
Si Si7 0.939470 0.098041 0.158240
Si Si8 0.465618 0.890668 0.566855
O O1 0.276959 0.250000 0.112623
O O2 0.323122 0.498906 0.135180
O O3 0.081704 0.420917 0.094786
O O4 0.306686 0.416277 0.986679
O O5 0.022769 0.750000 0.663386
O O6 0.809102 0.594654 0.683764
O O7 0.050058 0.535801 0.583345
O O8 0.031904 0.545302 0.751727
O O9 0.857131 0.250000 0.499128
O O10 0.759853 0.037384 0.559751
O O11 0.701357 0.107078 0.410024
O O12 0.351989 0.603313 0.280339
O O13 0.450637 0.413329 0.355309
O O14 0.625048 0.250000 0.851437
O O15 0.431429 0.075448 0.835007
O O16 0.767785 0.750000 0.122886
O O17 0.823042 0.005276 0.130874
O O18 0.893185 0.250000 0.159273
O O19 0.511309 0.750000 0.527287
O O20 0.500000 0.000000 0.500000
#
# Coordination Sequence:
#
# PCOD8074019 Si02
#       8
#     4   4   4   4   4   4   4   4
#     4  10  21  41  65  89 118 152 196 245 296 354
#     4  10  20  35  55  81 115 147 193 245 283 333
#     4   9  19  35  54  78 110 149 191 238 283 336
#     4  11  20  35  56  81 115 153 196 233 291 342
#     4  11  24  39  59  89 124 157 195 243 295 352
#     4  10  23  41  61  88 121 156 194 242 297 354
#     4  10  21  38  61  90 118 152 195 244 293 346
#     4   9  19  34  56  81 108 146 190 235 288 343
#
# _framework density 19.930595
#
# number of rings (size 3 to 8) (size 9 to 14) (size 15 to 20)
#    0.000    2.000    1.250    1.875    1.750    2.500 
#    0.000    0.000    0.000    1.500    0.000    0.000 
#    0.000    0.000    0.000    0.000    0.000    0.000 
#
# Total GULP energy -396453.253838 kJ/mol
# GULP energy per Si atom -12389.164182 kJ/mol
# Density = 1.988523 g / cm^3
# Si number density = 19.930595 Si / 1000 Ang^3
#
#
#
# Elastic Constant Matrix: (Units=GPa)
#
#
# Indices 1 2 3 4 5 6 
#
# 1 102.7497 55.4742 39.6177 0.0000 2.0686 0.0000
# 2 55.4742 110.4500 33.3324 0.0000 14.9857 0.0000
# 3 39.6177 33.3324 92.0503 0.0000 -9.1130 0.0000
# 4 0.0000 0.0000 0.0000 23.1090 0.0000 3.2323
# 5 2.0686 14.9857 -9.1130 0.0000 36.0704 0.0000
# 6 0.0000 0.0000 0.0000 3.2323 0.0000 33.4158
#
#
#
# Elastic Compliance Matrix: (Units=1/GPa)
#
#
# Indices 1 2 3 4 5 6 
#
# 1 0.014616 -0.006252 -0.003951 0.000000 0.000761 0.000000
# 2 -0.006252 0.013926 -0.002964 0.000000 -0.006176 0.000000
# 3 -0.003951 -0.002964 0.014135 0.000000 0.005029 0.000000
# 4 0.000000 0.000000 0.000000 0.043867 0.000000 -0.004243
# 5 0.000761 -0.006176 0.005029 0.000000 0.031516 0.000000
# 6 0.000000 0.000000 0.000000 -0.004243 0.000000 0.030336
#
#
# Mechanical properties :
#
#
# Convention : Reuss Voigt Hill
#
# Bulk Modulus (GPa) = 61.18454 62.45541 61.81997
# Shear Modulus (GPa) = 27.75033 30.30742 29.02888
#
# Velocity S-wave (km/s) = 3.73547 3.90378 3.82055
# Velocity P-wave (km/s) = 7.02641 7.19193 7.10965
#
# Compressibility (1/GPa) = 0.01634400
#
# Stress axis : x y z
#
# Youngs Moduli (GPa) = 68.41862 71.80760 70.74476
#
# Poissons Ratio (x) = 0.44892 0.27955
# Poissons Ratio (y) = 0.42773 0.20966
# Poissons Ratio (z) = 0.27035 0.21281
#
# Static dielectric constant tensor:
#      x y z
#    x 4.038300 0.000000 -0.004410 
#    y 0.000000 3.537200 0.000000 
#    z -0.004410 0.000000 3.782480 
# 
# 
# High freq. dielectric constant tensor:
#      x y z
#    x 1.786640 0.000000 -0.006790 
#    y 0.000000 1.765420 0.000000 
#    z -0.006790 0.000000 1.776210 
# 
# From -- ./inp_files/47191.got.cif
#   From: 2010.06.25/outbox.cif.g09.slc.cpg/sg11_24_cif.got.tgz:47191.got - 2010.06.27 23:14:04.
