data_PCOD8074662
_publ_section_title
;
Structure prediction by ZEFSAII (Michael W. Deem and Ramdas Pophale) SiO2 
 PCOD8074662
Probable space group: P 21/M
;
_chemical_formula_sum "Si O2"
_cell_formula_units_Z 28
_cell_length_a 9.217505
_cell_length_b 9.032218
_cell_length_c 29.185285
_cell_angle_alpha 90.000000
_cell_angle_beta 142.060149
_cell_angle_gamma 90.000000
_cell_volume 1493.927513
_symmetry_space_group_name_H-M "P 21/M"
_symmetry_group_IT_number 11
_symmetry_cell_setting 'monoclinic'
loop_
_space_group_symop_operation_xyz
x,y,z
-x,1/2+y,-z
-x,-y,-z
x,1/2-y,z
loop_
_atom_site_type_symbol
_atom_site_label
_atom_site_fract_x
_atom_site_fract_y
_atom_site_fract_z
Si Si1 0.385586 0.078195 0.787300
Si Si2 0.833196 0.573994 0.495256
Si Si3 0.085550 0.925222 0.067365
Si Si4 0.995829 0.077579 0.362746
Si Si5 0.665759 0.576078 0.635465
Si Si6 0.749878 0.576129 0.066274
Si Si7 0.951476 0.577656 0.213767
O O1 0.383146 0.250000 0.775053
O O2 0.651847 0.017646 0.855548
O O3 0.264275 0.043781 0.805735
O O4 0.248142 0.000371 0.711590
O O5 0.836363 0.750000 0.490758
O O6 0.572363 0.515346 0.422537
O O7 0.000000 0.500000 0.500000
O O8 0.923603 0.522748 0.567510
O O9 0.084566 0.750000 0.059953
O O10 0.915129 0.975639 0.065861
O O11 0.000000 0.000000 0.000000
O O12 0.943884 0.250000 0.349017
O O13 0.202827 0.035646 0.379000
O O14 0.614048 0.750000 0.627292
O O15 0.824313 0.522058 0.717400
O O16 0.706936 0.750000 0.054943
O O17 0.873827 0.527337 0.144139
O O18 0.500000 0.500000 0.000000
O O19 0.023641 0.750000 0.233622
#
# Coordination Sequence:
#
# PCOD8074662 Si02
#       7
#     4   4   4   4   4   4   4
#     4   9  18  33  54  78 106 140 179 219 263 315
#     4  11  23  38  55  79 111 145 181 223 268 316
#     4  10  21  36  54  79 108 141 179 220 265 316
#     4   9  20  37  57  81 109 140 177 219 265 318
#     4  10  20  36  58  83 109 140 178 220 266 320
#     4  10  21  36  55  79 109 143 181 222 268 320
#     4   9  18  34  54  77 107 143 179 219 265 317
#
# _framework density 18.742542
#
# number of rings (size 3 to 8) (size 9 to 14) (size 15 to 20)
#    0.000    2.286    0.000    2.143    0.000    5.714 
#    0.000    4.286    0.000    0.000    0.000    0.000 
#    0.000    0.000    0.000    0.000    0.000    0.000 
#
# Total GULP energy -347301.825982 kJ/mol
# GULP energy per Si atom -12403.636642 kJ/mol
# Density = 1.869988 g / cm^3
# Si number density = 18.742542 Si / 1000 Ang^3
#
#
#
# Elastic Constant Matrix: (Units=GPa)
#
#
# Indices 1 2 3 4 5 6 
#
# 1 129.9075 47.5363 104.0875 0.0000 2.2843 0.0000
# 2 47.5363 52.3669 58.9268 0.0000 2.4240 0.0000
# 3 104.0875 58.9268 176.5836 0.0000 3.3960 0.0000
# 4 0.0000 0.0000 0.0000 39.5092 0.0000 2.6148
# 5 2.2843 2.4240 3.3960 0.0000 38.2688 0.0000
# 6 0.0000 0.0000 0.0000 2.6148 0.0000 28.9776
#
#
#
# Elastic Compliance Matrix: (Units=1/GPa)
#
#
# Indices 1 2 3 4 5 6 
#
# 1 0.015738 -0.006164 -0.007221 0.000000 0.000092 0.000000
# 2 -0.006164 0.033034 -0.007369 0.000000 -0.001070 0.000000
# 3 -0.007221 -0.007369 0.012383 0.000000 -0.000201 0.000000
# 4 0.000000 0.000000 0.000000 0.025463 0.000000 -0.002298
# 5 0.000092 -0.001070 -0.000201 0.000000 0.026211 0.000000
# 6 0.000000 0.000000 0.000000 -0.002298 0.000000 0.034717
#
#
# Mechanical properties :
#
#
# Convention : Reuss Voigt Hill
#
# Bulk Modulus (GPa) = 50.90565 86.66213 68.78389
# Shear Modulus (GPa) = 25.56189 31.23829 28.40009
#
# Velocity S-wave (km/s) = 3.69703 4.08696 3.89688
# Velocity P-wave (km/s) = 6.74118 8.28309 7.55159
#
# Compressibility (1/GPa) = 0.01964419
#
# Stress axis : x y z
#
# Youngs Moduli (GPa) = 63.54026 30.27202 80.75721
#
# Poissons Ratio (x) = 0.18661 0.58319
# Poissons Ratio (y) = 0.39169 0.59512
# Poissons Ratio (z) = 0.45886 0.22308
#
# Static dielectric constant tensor:
#      x y z
#    x 2.353080 0.000000 0.199700 
#    y 0.000000 4.822790 0.000000 
#    z 0.199700 0.000000 3.566950 
# 
# 
# High freq. dielectric constant tensor:
#      x y z
#    x 1.729850 0.000000 0.001090 
#    y 0.000000 1.723300 0.000000 
#    z 0.001090 0.000000 1.741610 
# 
# From -- ./inp_files/24159.got.cif
#   From: 2010.06.25/outbox.cif.g09.slc.cpg/sg11_13_cif.got.tgz:24159.got - 2010.06.27 23:14:04.
