data_PCOD8074472
_publ_section_title
;
Structure prediction by ZEFSAII (Michael W. Deem and Ramdas Pophale) SiO2 
 PCOD8074472
Probable space group: P 21/M
;
_chemical_formula_sum "Si O2"
_cell_formula_units_Z 28
_cell_length_a 16.089354
_cell_length_b 13.252463
_cell_length_c 15.589335
_cell_angle_alpha 90.000000
_cell_angle_beta 26.195023
_cell_angle_gamma 90.000000
_cell_volume 1467.312397
_symmetry_space_group_name_H-M "P 21/M"
_symmetry_group_IT_number 11
_symmetry_cell_setting 'monoclinic'
loop_
_space_group_symop_operation_xyz
x,y,z
-x,1/2+y,-z
-x,-y,-z
x,1/2-y,z
loop_
_atom_site_type_symbol
_atom_site_label
_atom_site_fract_x
_atom_site_fract_y
_atom_site_fract_z
Si Si1 0.933040 0.631344 0.211178
Si Si2 0.820598 0.369283 0.174612
Si Si3 0.408589 0.130324 0.587724
Si Si4 0.971768 0.367768 0.459991
Si Si5 0.914111 0.989547 0.795724
Si Si6 0.281535 0.516660 0.188521
Si Si7 0.835384 0.631230 0.028981
O O1 0.952641 0.750000 0.207778
O O2 0.727513 0.603080 0.365409
O O3 0.963386 0.577120 0.273775
O O4 0.090008 0.591603 0.997563
O O5 0.800422 0.250000 0.185171
O O6 0.615114 0.419963 0.381700
O O7 0.955721 0.395985 0.129160
O O8 0.429780 0.250000 0.574256
O O9 0.317724 0.091617 0.760672
O O10 0.002502 0.250000 0.422568
O O11 0.946301 0.416764 0.388544
O O12 0.788798 0.390247 0.687706
O O13 0.159895 0.417258 0.329140
O O14 0.802691 0.923866 0.969259
O O15 0.759783 0.039172 0.874120
O O16 0.500000 0.500000 0.000000
O O17 0.814489 0.750000 0.033930
#
# Coordination Sequence:
#
# PCOD8074472 Si02
#       7
#     4   4   4   4   4   4   4
#     4   9  18  33  50  72 108 149 186 232 274 316
#     4   8  15  30  49  70 104 150 190 223 269 323
#     4   8  15  30  49  70 104 150 190 222 268 322
#     4   9  20  41  64  85 114 149 181 229 293 352
#     4  10  20  36  55  84 114 138 183 237 280 342
#     4   9  21  42  62  85 115 148 187 229 286 357
#     4   9  17  31  50  74 108 142 180 229 274 321
#
# _framework density 19.082508000000001
#
# number of rings (size 3 to 8) (size 9 to 14) (size 15 to 20)
#    0.857    2.286    0.000    2.143    0.000    3.429 
#    5.143    1.429    0.000    0.000    0.000    0.000 
#    0.000    0.000    0.000    0.000    0.000    0.000 
#
# Total GULP energy -347042.229815 kJ/mol
# GULP energy per Si atom -12394.365351 kJ/mol
# Density = 1.903907 g / cm^3
# Si number density = 19.082508 Si / 1000 Ang^3
#
#
#
# Elastic Constant Matrix: (Units=GPa)
#
#
# Indices 1 2 3 4 5 6 
#
# 1 116.3289 35.9556 53.2806 0.0000 13.3443 0.0000
# 2 35.9556 64.5076 33.1745 0.0000 7.9548 0.0000
# 3 53.2806 33.1745 124.1941 0.0000 -16.6074 0.0000
# 4 0.0000 0.0000 0.0000 28.7774 0.0000 7.4763
# 5 13.3443 7.9548 -16.6074 0.0000 24.4016 0.0000
# 6 0.0000 0.0000 0.0000 7.4763 0.0000 28.4780
#
#
#
# Elastic Compliance Matrix: (Units=1/GPa)
#
#
# Indices 1 2 3 4 5 6 
#
# 1 0.013810 -0.002916 -0.006632 0.000000 -0.011116 0.000000
# 2 -0.002916 0.021140 -0.005615 0.000000 -0.009118 0.000000
# 3 -0.006632 -0.005615 0.014441 0.000000 0.015286 0.000000
# 4 0.000000 0.000000 0.000000 0.037293 0.000000 -0.009791
# 5 -0.011116 -0.009118 0.015286 0.000000 0.060435 0.000000
# 6 0.000000 0.000000 0.000000 -0.009791 0.000000 0.037685
#
#
# Mechanical properties :
#
#
# Convention : Reuss Voigt Hill
#
# Bulk Modulus (GPa) = 52.45418 61.09466 56.77442
# Shear Modulus (GPa) = 22.57475 28.50605 25.54040
#
# Velocity S-wave (km/s) = 3.44322 3.86920 3.66241
# Velocity P-wave (km/s) = 6.58449 7.21433 6.90659
#
# Compressibility (1/GPa) = 0.01906426
#
# Stress axis : x y z
#
# Youngs Moduli (GPa) = 72.40891 47.30472 69.24673
#
# Poissons Ratio (x) = 0.13795 0.45926
# Poissons Ratio (y) = 0.21116 0.38882
# Poissons Ratio (z) = 0.48023 0.26561
#
# Static dielectric constant tensor:
#      x y z
#    x 3.313840 0.000000 0.047260 
#    y 0.000000 3.419500 0.000000 
#    z 0.047260 0.000000 3.700830 
# 
# 
# High freq. dielectric constant tensor:
#      x y z
#    x 1.718120 0.000000 0.007260 
#    y 0.000000 1.754930 0.000000 
#    z 0.007260 0.000000 1.732230 
# 
# From -- ./inp_files/52441.got.cif
#   From: 2010.06.25/outbox.cif.g09.slc.cpg/sg11_27_cif.got.tgz:52441.got - 2010.06.27 23:14:04.
