data_PCOD8074869
_publ_section_title
;
Structure prediction by ZEFSAII (Michael W. Deem and Ramdas Pophale) SiO2 
 PCOD8074869
Probable space group: P 21/M
;
_chemical_formula_sum "Si O2"
_cell_formula_units_Z 28
_cell_length_a 19.854553
_cell_length_b 8.813746
_cell_length_c 14.499022
_cell_angle_alpha 90.000000
_cell_angle_beta 33.570586
_cell_angle_gamma 90.000000
_cell_volume 1402.994977
_symmetry_space_group_name_H-M "P 21/M"
_symmetry_group_IT_number 11
_symmetry_cell_setting 'monoclinic'
loop_
_space_group_symop_operation_xyz
x,y,z
-x,1/2+y,-z
-x,-y,-z
x,1/2-y,z
loop_
_atom_site_type_symbol
_atom_site_label
_atom_site_fract_x
_atom_site_fract_y
_atom_site_fract_z
Si Si1 0.021950 0.580555 0.880363
Si Si2 0.617010 0.430197 0.914560
Si Si3 0.703168 0.421947 0.494863
Si Si4 0.787974 0.569643 0.579329
Si Si5 0.313194 0.929568 0.964949
Si Si6 0.503628 0.930384 0.597430
Si Si7 0.050608 0.929128 0.216439
O O1 0.969928 0.750000 0.944247
O O2 0.163752 0.580069 0.698691
O O3 0.946809 0.491533 0.889466
O O4 0.000000 0.500000 0.000000
O O5 0.613338 0.250000 0.909601
O O6 0.739312 0.494035 0.728042
O O7 0.620218 0.484070 0.017546
O O8 0.500000 0.500000 0.000000
O O9 0.654788 0.250000 0.564527
O O10 0.704629 0.509315 0.590558
O O11 0.622593 0.512776 0.514235
O O12 0.774849 0.750000 0.598417
O O13 0.928917 0.516317 0.408842
O O14 0.309561 0.750000 0.967960
O O15 0.173773 0.990753 0.124182
O O16 0.387068 0.986183 0.790627
O O17 0.507470 0.750000 0.584349
O O18 0.500000 0.000000 0.500000
O O19 0.049730 0.750000 0.210946
#
# Coordination Sequence:
#
# PCOD8074869 Si02
#       7
#     4   4   4   4   4   4   4
#     4  10  21  35  55  83 113 148 192 243 294 348
#     4  11  22  38  62  89 118 155 200 245 292 349
#     4  10  21  38  58  82 113 151 196 242 290 348
#     4  10  20  36  60  89 119 151 190 239 296 353
#     4   9  21  40  60  83 115 155 195 241 294 349
#     4  11  23  39  59  84 117 154 197 246 301 356
#     4   9  19  38  60  82 114 155 195 236 290 354
#
# _framework density 19.957304000000001
#
# number of rings (size 3 to 8) (size 9 to 14) (size 15 to 20)
#    0.000    2.000    0.000    3.000    2.000    4.000 
#    0.000    4.286    0.000    0.000    0.000    0.000 
#    0.000    0.000    0.000    0.000    0.000    0.000 
#
# Total GULP energy -347196.384505 kJ/mol
# GULP energy per Si atom -12399.870875 kJ/mol
# Density = 1.991188 g / cm^3
# Si number density = 19.957304 Si / 1000 Ang^3
#
#
#
# Elastic Constant Matrix: (Units=GPa)
#
#
# Indices 1 2 3 4 5 6 
#
# 1 144.7358 33.3127 77.7301 0.0000 -0.3710 0.0000
# 2 33.3127 62.7495 38.5411 0.0000 2.8075 0.0000
# 3 77.7301 38.5411 100.5172 0.0000 17.4415 0.0000
# 4 0.0000 0.0000 0.0000 32.6483 0.0000 3.8166
# 5 -0.3710 2.8075 17.4415 0.0000 36.5034 0.0000
# 6 0.0000 0.0000 0.0000 3.8166 0.0000 30.7310
#
#
#
# Elastic Compliance Matrix: (Units=1/GPa)
#
#
# Indices 1 2 3 4 5 6 
#
# 1 0.012688 -0.000508 -0.010518 0.000000 0.005194 0.000000
# 2 -0.000508 0.021063 -0.008071 0.000000 0.002231 0.000000
# 3 -0.010518 -0.008071 0.022994 0.000000 -0.010473 0.000000
# 4 0.000000 0.000000 0.000000 0.031081 0.000000 -0.003860
# 5 0.005194 0.002231 -0.010473 0.000000 0.032280 0.000000
# 6 0.000000 0.000000 0.000000 -0.003860 0.000000 0.033020
#
#
# Mechanical properties :
#
#
# Convention : Reuss Voigt Hill
#
# Bulk Modulus (GPa) = 53.90266 67.46336 60.68301
# Shear Modulus (GPa) = 25.31606 30.53778 27.92692
#
# Velocity S-wave (km/s) = 3.56548 3.91596 3.74482
# Velocity P-wave (km/s) = 6.63459 7.37045 7.01218
#
# Compressibility (1/GPa) = 0.01855196
#
# Stress axis : x y z
#
# Youngs Moduli (GPa) = 78.81373 47.47613 43.48966
#
# Poissons Ratio (x) = 0.02412 0.45743
# Poissons Ratio (y) = 0.04003 0.35098
# Poissons Ratio (z) = 0.82898 0.38316
#
# Static dielectric constant tensor:
#      x y z
#    x 3.946970 0.000000 0.175230 
#    y 0.000000 2.365470 0.000000 
#    z 0.175230 0.000000 3.355050 
# 
# 
# High freq. dielectric constant tensor:
#      x y z
#    x 1.781140 0.000000 0.000600 
#    y 0.000000 1.774930 0.000000 
#    z 0.000600 0.000000 1.788430 
# 
# From -- ./inp_files/54516.got.cif
#   From: 2010.06.25/outbox.cif.g09.slc.cpg/sg11_28_cif.got.tgz:54516.got - 2010.06.27 23:14:04.
