data_PCOD8074115
_publ_section_title
;
Structure prediction by ZEFSAII (Michael W. Deem and Ramdas Pophale) SiO2 
 PCOD8074115
Probable space group: P 21/M
;
_chemical_formula_sum "Si O2"
_cell_formula_units_Z 32
_cell_length_a 17.165648
_cell_length_b 22.120574
_cell_length_c 6.399689
_cell_angle_alpha 90.000000
_cell_angle_beta 132.278584
_cell_angle_gamma 90.000000
_cell_volume 1797.952770
_symmetry_space_group_name_H-M "P 21/M"
_symmetry_group_IT_number 11
_symmetry_cell_setting 'monoclinic'
loop_
_space_group_symop_operation_xyz
x,y,z
-x,1/2+y,-z
-x,-y,-z
x,1/2-y,z
loop_
_atom_site_type_symbol
_atom_site_label
_atom_site_fract_x
_atom_site_fract_y
_atom_site_fract_z
Si Si1 0.653878 0.414222 0.413179
Si Si2 0.647017 0.681779 0.088792
Si Si3 0.515514 0.870597 0.203204
Si Si4 0.608907 0.975869 0.613837
Si Si5 0.780338 0.569587 0.216521
Si Si6 0.439435 0.681595 0.465969
Si Si7 0.945401 0.533707 0.213594
Si Si8 0.143170 0.531659 0.330237
O O1 0.655084 0.478033 0.531048
O O2 0.644186 0.359579 0.560870
O O3 0.767337 0.415947 0.502585
O O4 0.558754 0.411147 0.077972
O O5 0.692047 0.750000 0.154495
O O6 0.588611 0.674949 0.205553
O O7 0.742854 0.634696 0.235280
O O8 0.559236 0.669511 0.754194
O O9 0.594863 0.912506 0.473347
O O10 0.438415 0.833280 0.217965
O O11 0.500000 0.000000 0.500000
O O12 0.682838 0.968067 0.947709
O O13 0.864717 0.580694 0.179702
O O14 0.826508 0.529300 0.487768
O O15 0.403992 0.750000 0.443018
O O16 0.000000 0.500000 0.500000
O O17 0.038573 0.563166 0.241397
O O18 0.879916 0.487426 0.950239
#
# Coordination Sequence:
#
# PCOD8074115 Si02
#       8
#     4   4   4   4   4   4   4   4
#     4  11  21  32  53  78 108 139 180 220 265 320
#     4  10  21  35  51  75 107 151 191 217 250 314
#     4  11  20  34  49  76 111 149 177 216 260 312
#     4  12  19  31  48  81 114 140 169 214 272 316
#     4  11  20  34  54  79 114 142 175 223 272 322
#     4  10  21  36  50  71 108 150 189 218 251 308
#     4   9  20  36  55  79 109 136 168 217 277 332
#     4  10  20  35  56  83 107 135 175 220 278 327
#
# _framework density 17.798020999999999
#
# number of rings (size 3 to 8) (size 9 to 14) (size 15 to 20)
#    0.000    1.500    3.750    3.000    0.000    0.500 
#    0.000    0.000    0.000    0.750    0.000   10.500 
#    0.000    0.000    0.000    0.000    0.000    0.000 
#
# Total GULP energy -396684.904991 kJ/mol
# GULP energy per Si atom -12396.403281 kJ/mol
# Density = 1.775751 g / cm^3
# Si number density = 17.798021 Si / 1000 Ang^3
#
#
#
# Elastic Constant Matrix: (Units=GPa)
#
#
# Indices 1 2 3 4 5 6 
#
# 1 128.4352 52.3607 21.1910 0.0000 2.0824 0.0000
# 2 52.3607 86.5051 20.8952 0.0000 -1.4719 0.0000
# 3 21.1910 20.8952 81.8425 0.0000 -8.0971 0.0000
# 4 0.0000 0.0000 0.0000 15.1673 0.0000 -2.4268
# 5 2.0824 -1.4719 -8.0971 0.0000 29.0489 0.0000
# 6 0.0000 0.0000 0.0000 -2.4268 0.0000 21.7230
#
#
#
# Elastic Compliance Matrix: (Units=1/GPa)
#
#
# Indices 1 2 3 4 5 6 
#
# 1 0.010496 -0.006061 -0.001311 0.000000 -0.001425 0.000000
# 2 -0.006061 0.015821 -0.002414 0.000000 0.000563 0.000000
# 3 -0.001311 -0.002414 0.013545 0.000000 0.003747 0.000000
# 4 0.000000 0.000000 0.000000 0.067131 0.000000 0.007500
# 5 -0.001425 0.000563 0.003747 0.000000 0.035600 0.000000
# 6 0.000000 0.000000 0.000000 0.007500 0.000000 0.046872
#
#
# Mechanical properties :
#
#
# Convention : Reuss Voigt Hill
#
# Bulk Modulus (GPa) = 49.28553 53.96406 51.62480
# Shear Modulus (GPa) = 23.16931 26.67689 24.92310
#
# Velocity S-wave (km/s) = 3.61195 3.87572 3.74616
# Velocity P-wave (km/s) = 6.71912 7.10031 6.91234
#
# Compressibility (1/GPa) = 0.02028993
#
# Stress axis : x y z
#
# Youngs Moduli (GPa) = 95.27065 63.20567 73.82648
#
# Poissons Ratio (x) = 0.38308 0.09681
# Poissons Ratio (y) = 0.57742 0.17824
# Poissons Ratio (z) = 0.12493 0.15260
#
# Static dielectric constant tensor:
#      x y z
#    x 3.733820 0.000000 -0.258200 
#    y 0.000000 3.022610 0.000000 
#    z -0.258200 0.000000 3.180140 
# 
# 
# High freq. dielectric constant tensor:
#      x y z
#    x 1.698400 0.000000 -0.018070 
#    y 0.000000 1.652840 0.000000 
#    z -0.018070 0.000000 1.692180 
# 
# From -- ./inp_files/8358.got.cif
#   From: 2010.06.25/outbox.cif.g09.slc.cpg/sg11_5_cif.got.tgz:8358.got - 2010.06.27 23:14:04.
