data_PCOD8074089
_publ_section_title
;
Structure prediction by ZEFSAII (Michael W. Deem and Ramdas Pophale) SiO2 
 PCOD8074089
Probable space group: P 21/M
;
_chemical_formula_sum "Si O2"
_cell_formula_units_Z 28
_cell_length_a 26.224606
_cell_length_b 8.957987
_cell_length_c 9.229923
_cell_angle_alpha 90.000000
_cell_angle_beta 137.763239
_cell_angle_gamma 90.000000
_cell_volume 1457.515699
_symmetry_space_group_name_H-M "P 21/M"
_symmetry_group_IT_number 11
_symmetry_cell_setting 'monoclinic'
loop_
_space_group_symop_operation_xyz
x,y,z
-x,1/2+y,-z
-x,-y,-z
x,1/2-y,z
loop_
_atom_site_type_symbol
_atom_site_label
_atom_site_fract_x
_atom_site_fract_y
_atom_site_fract_z
Si Si1 0.699047 0.927315 0.572283
Si Si2 0.855740 0.420254 0.407531
Si Si3 0.596171 0.923579 0.822782
Si Si4 0.832571 0.074466 0.023483
Si Si5 0.019973 0.423308 0.691079
Si Si6 0.424958 0.922833 0.520095
Si Si7 0.271588 0.073949 0.689137
O O1 0.703429 0.750000 0.592857
O O2 0.717654 0.986454 0.450725
O O3 0.756527 0.000450 0.806168
O O4 0.615018 0.983261 0.436947
O O5 0.831311 0.250000 0.380349
O O6 0.808677 0.520822 0.418381
O O7 0.945202 0.442429 0.634324
O O8 0.838793 0.466092 0.206097
O O9 0.607689 0.750000 0.806466
O O10 0.514655 0.949095 0.725443
O O11 0.604655 0.020714 0.696989
O O12 0.659277 0.983958 0.066495
O O13 0.831768 0.250000 0.993666
O O14 0.904781 0.004079 0.088392
O O15 0.038006 0.250000 0.703144
O O16 0.000000 0.500000 0.500000
O O17 0.403024 0.750000 0.488572
O O18 0.271888 0.250000 0.687913
#
# Coordination Sequence:
#
# PCOD8074089 Si02
#       7
#     4   4   4   4   4   4   4
#     4  11  23  37  52  75 108 143 178 217 263 316
#     4   9  19  34  54  80 107 134 171 218 263 310
#     4   9  19  37  58  80 107 138 174 219 266 311
#     4  10  20  35  56  82 107 136 178 223 267 317
#     4   9  17  31  52  80 110 139 174 219 268 315
#     4  10  20  35  57  83 107 135 175 219 264 316
#     4  10  22  37  53  75 105 142 181 216 258 315
#
# _framework density 19.21077
#
# number of rings (size 3 to 8) (size 9 to 14) (size 15 to 20)
#    0.000    2.286    0.000    3.429    0.000    8.571 
#    0.000    0.714    0.000    0.000    0.000    0.000 
#    0.000    0.000    0.000    0.000    0.000    0.000 
#
# Total GULP energy -347199.276873 kJ/mol
# GULP energy per Si atom -12399.974174 kJ/mol
# Density = 1.916705 g / cm^3
# Si number density = 19.210770 Si / 1000 Ang^3
#
#
#
# Elastic Constant Matrix: (Units=GPa)
#
#
# Indices 1 2 3 4 5 6 
#
# 1 120.9268 40.6825 32.9837 0.0000 8.4283 0.0000
# 2 40.6825 71.5068 18.2361 0.0000 4.1297 0.0000
# 3 32.9837 18.2361 28.2782 0.0000 8.1268 0.0000
# 4 0.0000 0.0000 0.0000 24.2426 0.0000 6.4636
# 5 8.4283 4.1297 8.1268 0.0000 24.0644 0.0000
# 6 0.0000 0.0000 0.0000 6.4636 0.0000 37.3824
#
#
#
# Elastic Compliance Matrix: (Units=1/GPa)
#
#
# Indices 1 2 3 4 5 6 
#
# 1 0.013136 -0.004260 -0.012695 0.000000 0.000417 0.000000
# 2 -0.004260 0.018135 -0.006933 0.000000 0.000721 0.000000
# 3 -0.012695 -0.006933 0.058720 0.000000 -0.014195 0.000000
# 4 0.000000 0.000000 0.000000 0.043243 0.000000 -0.007477
# 5 0.000417 0.000721 -0.014195 0.000000 0.046079 0.000000
# 6 0.000000 0.000000 0.000000 -0.007477 0.000000 0.028043
#
#
# Mechanical properties :
#
#
# Convention : Reuss Voigt Hill
#
# Bulk Modulus (GPa) = 23.68797 44.94627 34.31712
# Shear Modulus (GPa) = 18.57324 25.72518 22.14921
#
# Velocity S-wave (km/s) = 3.11274 3.66334 3.39921
# Velocity P-wave (km/s) = 5.02754 6.42967 5.77134
#
# Compressibility (1/GPa) = 0.04221552
#
# Stress axis : x y z
#
# Youngs Moduli (GPa) = 76.12577 55.14220 17.02988
#
# Poissons Ratio (x) = 0.23492 0.21619
# Poissons Ratio (y) = 0.32431 0.11807
# Poissons Ratio (z) = 0.96639 0.38231
#
# Static dielectric constant tensor:
#      x y z
#    x 3.665980 0.000000 0.279750 
#    y 0.000000 3.578380 0.000000 
#    z 0.279750 0.000000 3.552980 
# 
# 
# High freq. dielectric constant tensor:
#      x y z
#    x 1.748010 0.000000 0.024520 
#    y 0.000000 1.751800 0.000000 
#    z 0.024520 0.000000 1.733870 
# 
# From -- ./inp_files/28622.got.cif
#   From: 2010.06.25/outbox.cif.g09.slc.cpg/sg11_15_cif.got.tgz:28622.got - 2010.06.27 23:14:04.
