data_PCOD8074708
_publ_section_title
;
Structure prediction by ZEFSAII (Michael W. Deem and Ramdas Pophale) SiO2 
 PCOD8074708
Probable space group: P 21/M
;
_chemical_formula_sum "Si O2"
_cell_formula_units_Z 28
_cell_length_a 9.672814
_cell_length_b 8.676875
_cell_length_c 26.888584
_cell_angle_alpha 90.000000
_cell_angle_beta 140.876098
_cell_angle_gamma 90.000000
_cell_volume 1424.010270
_symmetry_space_group_name_H-M "P 21/M"
_symmetry_group_IT_number 11
_symmetry_cell_setting 'monoclinic'
loop_
_space_group_symop_operation_xyz
x,y,z
-x,1/2+y,-z
-x,-y,-z
x,1/2-y,z
loop_
_atom_site_type_symbol
_atom_site_label
_atom_site_fract_x
_atom_site_fract_y
_atom_site_fract_z
Si Si1 0.734925 0.077637 0.186229
Si Si2 0.296880 0.933863 0.413944
Si Si3 0.796091 0.929021 0.717393
Si Si4 0.949124 0.931396 0.932047
Si Si5 0.602783 0.066614 0.763488
Si Si6 0.170145 0.072152 0.689071
Si Si7 0.636445 0.926360 0.994748
O O1 0.762362 0.250000 0.216117
O O2 0.505653 0.063019 0.094637
O O3 0.941350 0.044473 0.207391
O O4 0.728177 0.954673 0.228164
O O5 0.303809 0.750000 0.415080
O O6 0.076178 0.998924 0.380226
O O7 0.500000 0.000000 0.500000
O O8 0.305732 0.993752 0.360029
O O9 0.733889 0.750000 0.700223
O O10 0.692527 0.006168 0.736719
O O11 0.922103 0.750000 0.929645
O O12 0.729919 0.998942 0.846565
O O13 0.146002 0.973546 0.950017
O O14 0.000000 0.000000 0.000000
O O15 0.622469 0.250000 0.770838
O O16 0.346947 0.011315 0.697856
O O17 0.139930 0.250000 0.671364
O O18 0.698379 0.750000 0.024375
O O19 0.500000 0.000000 0.000000
#
# Coordination Sequence:
#
# PCOD8074708 Si02
#       7
#     4   4   4   4   4   4   4
#     4   9  19  34  53  76 104 138 183 229 274 329
#     4  10  20  38  62  89 117 147 182 225 274 332
#     4  10  20  36  58  86 116 149 185 228 280 336
#     4  12  25  40  56  79 112 153 198 246 295 345
#     4  11  22  38  58  83 113 148 189 235 285 341
#     4   9  20  36  57  82 109 140 178 222 273 330
#     4  11  22  36  54  79 109 145 188 239 292 343
#
# _framework density 19.662780000000001
#
# number of rings (size 3 to 8) (size 9 to 14) (size 15 to 20)
#    0.000    1.714    0.000    4.714    0.000    6.857 
#    0.000    0.714    0.000    0.000    0.000    0.000 
#    0.000    0.000    0.000    0.000    0.000    0.000 
#
# Total GULP energy -347120.259857 kJ/mol
# GULP energy per Si atom -12397.152138 kJ/mol
# Density = 1.961803 g / cm^3
# Si number density = 19.662780 Si / 1000 Ang^3
#
#
#
# Elastic Constant Matrix: (Units=GPa)
#
#
# Indices 1 2 3 4 5 6 
#
# 1 113.9890 35.5474 34.5927 0.0000 15.9572 0.0000
# 2 35.5474 91.6124 37.8131 0.0000 6.0652 0.0000
# 3 34.5927 37.8131 95.6300 0.0000 11.6284 0.0000
# 4 0.0000 0.0000 0.0000 31.0841 0.0000 -4.4448
# 5 15.9572 6.0652 11.6284 0.0000 26.7711 0.0000
# 6 0.0000 0.0000 0.0000 -4.4448 0.0000 32.3271
#
#
#
# Elastic Compliance Matrix: (Units=1/GPa)
#
#
# Indices 1 2 3 4 5 6 
#
# 1 0.011091 -0.003069 -0.002195 0.000000 -0.004962 0.000000
# 2 -0.003069 0.013908 -0.004464 0.000000 0.000617 0.000000
# 3 -0.002195 -0.004464 0.013444 0.000000 -0.003520 0.000000
# 4 0.000000 0.000000 0.000000 0.032816 0.000000 0.004512
# 5 -0.004962 0.000617 -0.003520 0.000000 0.041700 0.000000
# 6 0.000000 0.000000 0.000000 0.004512 0.000000 0.031554
#
#
# Mechanical properties :
#
#
# Convention : Reuss Voigt Hill
#
# Bulk Modulus (GPa) = 52.66921 57.45974 55.06448
# Shear Modulus (GPa) = 29.36019 30.92168 30.14094
#
# Velocity S-wave (km/s) = 3.86837 3.96990 3.91947
# Velocity P-wave (km/s) = 6.84082 7.09222 6.96765
#
# Compressibility (1/GPa) = 0.01898642
#
# Stress axis : x y z
#
# Youngs Moduli (GPa) = 90.16695 71.90037 74.38115
#
# Poissons Ratio (x) = 0.22065 0.16327
# Poissons Ratio (y) = 0.27671 0.33207
# Poissons Ratio (z) = 0.19792 0.32099
#
# Static dielectric constant tensor:
#      x y z
#    x 3.827220 0.000000 0.371550 
#    y 0.000000 -0.807100 0.000000 
#    z 0.371550 0.000000 3.731160 
# 
# 
# High freq. dielectric constant tensor:
#      x y z
#    x 1.777780 0.000000 0.016700 
#    y 0.000000 1.772420 0.000000 
#    z 0.016700 0.000000 1.752420 
# 
# From -- ./inp_files/28280.got.cif
#   From: 2010.06.25/outbox.cif.g09.slc.cpg/sg11_15_cif.got.tgz:28280.got - 2010.06.27 23:14:04.
