data_PCOD8074448
_publ_section_title
;
Structure prediction by ZEFSAII (Michael W. Deem and Ramdas Pophale) SiO2 
 PCOD8074448
Probable space group: P 21/M
;
_chemical_formula_sum "Si O2"
_cell_formula_units_Z 28
_cell_length_a 8.392853
_cell_length_b 24.471597
_cell_length_c 10.084020
_cell_angle_alpha 90.000000
_cell_angle_beta 42.671528
_cell_angle_gamma 90.000000
_cell_volume 1403.794685
_symmetry_space_group_name_H-M "P 21/M"
_symmetry_group_IT_number 11
_symmetry_cell_setting 'monoclinic'
loop_
_space_group_symop_operation_xyz
x,y,z
-x,1/2+y,-z
-x,-y,-z
x,1/2-y,z
loop_
_atom_site_type_symbol
_atom_site_label
_atom_site_fract_x
_atom_site_fract_y
_atom_site_fract_z
Si Si1 0.020038 0.812937 0.816215
Si Si2 0.492533 0.360951 0.576015
Si Si3 0.009086 0.190263 0.856243
Si Si4 0.337594 0.994803 0.813453
Si Si5 0.249010 0.463616 0.598908
Si Si6 0.774929 0.412052 0.897384
Si Si7 0.620801 0.603697 0.072031
O O1 0.968607 0.750000 0.802526
O O2 0.263331 0.833999 0.609831
O O3 0.044842 0.816643 0.957249
O O4 0.814246 0.854371 0.893897
O O5 0.284097 0.319966 0.663081
O O6 0.433684 0.417579 0.537889
O O7 0.507400 0.368120 0.725622
O O8 0.945687 0.250000 0.842191
O O9 0.838722 0.150676 0.880514
O O10 0.191418 0.998503 0.764024
O O11 0.267718 0.046633 0.946751
O O12 0.616573 0.995339 0.601378
O O13 0.283558 0.939352 0.925237
O O14 0.003558 0.441220 0.692943
O O15 0.557365 0.414403 0.933105
#
# Coordination Sequence:
#
# PCOD8074448 Si02
#       7
#     4   4   4   4   4   4   4
#     4  10  20  37  60  79 102 141 183 221 262 316
#     4   9  18  36  56  79 107 137 179 225 266 316
#     4   9  19  35  56  80 102 133 180 226 268 313
#     4  10  20  36  54  79 111 144 182 221 263 318
#     4   9  20  34  56  83 105 140 185 225 267 312
#     4  11  21  35  55  80 113 145 173 220 273 320
#     4  10  23  35  52  82 113 145 176 214 270 328
#
# _framework density 19.945937000000001
#
# number of rings (size 3 to 8) (size 9 to 14) (size 15 to 20)
#    0.000    2.286    0.000    3.000    0.000    6.286 
#    0.000    0.000    0.000    0.000    0.000    0.000 
#    0.000    0.000    0.000    0.000    0.000    0.000 
#
# Total GULP energy -347048.444980 kJ/mol
# GULP energy per Si atom -12394.587321 kJ/mol
# Density = 1.990054 g / cm^3
# Si number density = 19.945937 Si / 1000 Ang^3
#
#
#
# Elastic Constant Matrix: (Units=GPa)
#
#
# Indices 1 2 3 4 5 6 
#
# 1 60.2872 22.5921 34.2504 0.0000 -13.6119 0.0000
# 2 22.5921 91.1547 45.2242 0.0000 -9.9834 0.0000
# 3 34.2504 45.2242 80.5697 0.0000 -19.5360 0.0000
# 4 0.0000 0.0000 0.0000 29.7361 0.0000 -4.2599
# 5 -13.6119 -9.9834 -19.5360 0.0000 18.7585 0.0000
# 6 0.0000 0.0000 0.0000 -4.2599 0.0000 16.5035
#
#
#
# Elastic Compliance Matrix: (Units=1/GPa)
#
#
# Indices 1 2 3 4 5 6 
#
# 1 0.022985 -0.001308 -0.006905 0.000000 0.008792 0.000000
# 2 -0.001308 0.015295 -0.008409 0.000000 -0.001567 0.000000
# 3 -0.006905 -0.008409 0.023769 0.000000 0.015268 0.000000
# 4 0.000000 0.000000 0.000000 0.034920 0.000000 0.009014
# 5 0.008792 -0.001567 0.015268 0.000000 0.074756 0.000000
# 6 0.000000 0.000000 0.000000 0.009014 0.000000 0.062920
#
#
# Mechanical properties :
#
#
# Convention : Reuss Voigt Hill
#
# Bulk Modulus (GPa) = 34.71603 48.46054 41.58828
# Shear Modulus (GPa) = 18.01855 21.66263 19.84059
#
# Velocity S-wave (km/s) = 3.00887 3.29913 3.15734
# Velocity P-wave (km/s) = 5.43267 6.23386 5.84701
#
# Compressibility (1/GPa) = 0.02880514
#
# Stress axis : x y z
#
# Youngs Moduli (GPa) = 43.50575 65.38158 42.07136
#
# Poissons Ratio (x) = 0.08552 0.29051
# Poissons Ratio (y) = 0.05691 0.35377
# Poissons Ratio (z) = 0.30042 0.54978
#
# Static dielectric constant tensor:
#      x y z
#    x 3.225290 0.000000 -0.099040 
#    y 0.000000 3.957520 0.000000 
#    z -0.099040 0.000000 3.666810 
# 
# 
# High freq. dielectric constant tensor:
#      x y z
#    x 1.747050 0.000000 -0.014940 
#    y 0.000000 1.788670 0.000000 
#    z -0.014940 0.000000 1.780620 
# 
# From -- ./inp_files/15265.got.cif
#   From: 2010.06.25/outbox.cif.g09.slc.cpg/sg11_8_cif.got.tgz:15265.got - 2010.06.27 23:14:04.
