data_PCOD8074221
_publ_section_title
;
Structure prediction by ZEFSAII (Michael W. Deem and Ramdas Pophale) SiO2 
 PCOD8074221
Probable space group: P 21/M
;
_chemical_formula_sum "Si O2"
_cell_formula_units_Z 28
_cell_length_a 20.988320
_cell_length_b 8.744063
_cell_length_c 15.517237
_cell_angle_alpha 90.000000
_cell_angle_beta 29.078342
_cell_angle_gamma 90.000000
_cell_volume 1384.032016
_symmetry_space_group_name_H-M "P 21/M"
_symmetry_group_IT_number 11
_symmetry_cell_setting 'monoclinic'
loop_
_space_group_symop_operation_xyz
x,y,z
-x,1/2+y,-z
-x,-y,-z
x,1/2-y,z
loop_
_atom_site_type_symbol
_atom_site_label
_atom_site_fract_x
_atom_site_fract_y
_atom_site_fract_z
Si Si1 0.605299 0.069840 0.940678
Si Si2 0.571471 0.072905 0.722122
Si Si3 0.310678 0.923389 0.740943
Si Si4 0.545271 0.922756 0.578919
Si Si5 0.839494 0.571673 0.440587
Si Si6 0.984171 0.072852 0.925019
Si Si7 0.112673 0.072244 0.424990
O O1 0.611472 0.250000 0.920960
O O2 0.552015 0.025049 0.098103
O O3 0.500000 0.000000 0.000000
O O4 0.749008 0.002837 0.760318
O O5 0.548329 0.250000 0.769042
O O6 0.582322 0.042798 0.608089
O O7 0.705344 0.021510 0.609936
O O8 0.328776 0.750000 0.684466
O O9 0.394290 0.945047 0.729247
O O10 0.358742 0.044222 0.613917
O O11 0.160607 0.958281 0.940449
O O12 0.571971 0.750000 0.579107
O O13 0.806406 0.750000 0.466914
O O14 0.919833 0.547367 0.434764
O O15 0.918754 0.507229 0.263601
O O16 0.012999 0.250000 0.903148
O O17 0.000000 0.000000 0.000000
O O18 0.121556 0.250000 0.392128
O O19 0.000000 0.000000 0.500000
#
# Coordination Sequence:
#
# PCOD8074221 Si02
#       7
#     4   4   4   4   4   4   4
#     4  12  24  42  67  94 125 161 206 260 316 377
#     4  12  24  38  61  91 122 157 204 255 311 376
#     4   9  19  36  56  80 116 157 199 248 304 366
#     4  10  20  35  57  84 116 155 200 251 308 366
#     4  10  22  40  62  87 121 163 208 256 312 377
#     4  10  21  37  57  84 116 155 200 246 300 364
#     4  11  24  43  67  96 132 173 215 264 322 384
#
# _framework density 20.230746
#
# number of rings (size 3 to 8) (size 9 to 14) (size 15 to 20)
#    0.000    1.429    1.429    4.286    0.000    5.714 
#    0.000    2.857    0.000    0.000    0.000    0.000 
#    0.000    0.000    0.000    0.000    0.000    0.000 
#
# Total GULP energy -347228.723212 kJ/mol
# GULP energy per Si atom -12401.025829 kJ/mol
# Density = 2.018470 g / cm^3
# Si number density = 20.230746 Si / 1000 Ang^3
#
#
#
# Elastic Constant Matrix: (Units=GPa)
#
#
# Indices 1 2 3 4 5 6 
#
# 1 119.0284 52.1975 51.6707 0.0000 -6.4373 0.0000
# 2 52.1975 114.8656 49.5371 0.0000 -6.7287 0.0000
# 3 51.6707 49.5371 122.1246 0.0000 -9.3419 0.0000
# 4 0.0000 0.0000 0.0000 32.1021 0.0000 -0.2472
# 5 -6.4373 -6.7287 -9.3419 0.0000 33.1800 0.0000
# 6 0.0000 0.0000 0.0000 -0.2472 0.0000 34.0785
#
#
#
# Elastic Compliance Matrix: (Units=1/GPa)
#
#
# Indices 1 2 3 4 5 6 
#
# 1 0.011521 -0.003781 -0.003300 0.000000 0.000539 0.000000
# 2 -0.003781 0.011822 -0.003136 0.000000 0.000781 0.000000
# 3 -0.003300 -0.003136 0.010996 0.000000 0.001820 0.000000
# 4 0.000000 0.000000 0.000000 0.031152 0.000000 0.000226
# 5 0.000539 0.000781 0.001820 0.000000 0.030914 0.000000
# 6 0.000000 0.000000 0.000000 0.000226 0.000000 0.029346
#
#
# Mechanical properties :
#
#
# Convention : Reuss Voigt Hill
#
# Bulk Modulus (GPa) = 71.91195 73.64771 72.77983
# Shear Modulus (GPa) = 33.15239 33.37967 33.26603
#
# Velocity S-wave (km/s) = 4.05249 4.06636 4.05943
# Velocity P-wave (km/s) = 7.58419 7.65049 7.61741
#
# Compressibility (1/GPa) = 0.01390590
#
# Stress axis : x y z
#
# Youngs Moduli (GPa) = 86.79882 84.58761 90.94495
#
# Poissons Ratio (x) = 0.31980 0.30008
# Poissons Ratio (y) = 0.32816 0.28520
# Poissons Ratio (z) = 0.28640 0.26526
#
# Static dielectric constant tensor:
#      x y z
#    x 3.764980 0.000000 0.000680 
#    y 0.000000 4.929340 0.000000 
#    z 0.000680 0.000000 3.902420 
# 
# 
# High freq. dielectric constant tensor:
#      x y z
#    x 1.795470 0.000000 0.000380 
#    y 0.000000 1.790930 0.000000 
#    z 0.000380 0.000000 1.791860 
# 
# From -- ./inp_files/54512.got.cif
#   From: 2010.06.25/outbox.cif.g09.slc.cpg/sg11_28_cif.got.tgz:54512.got - 2010.06.27 23:14:04.
