data_PCOD8074546
_publ_section_title
;
Structure prediction by ZEFSAII (Michael W. Deem and Ramdas Pophale) SiO2 
 PCOD8074546
Probable space group: P 21/M
;
_chemical_formula_sum "Si O2"
_cell_formula_units_Z 32
_cell_length_a 15.695104
_cell_length_b 22.795873
_cell_length_c 9.821016
_cell_angle_alpha 90.000000
_cell_angle_beta 150.347932
_cell_angle_gamma 90.000000
_cell_volume 1738.387906
_symmetry_space_group_name_H-M "P 21/M"
_symmetry_group_IT_number 11
_symmetry_cell_setting 'monoclinic'
loop_
_space_group_symop_operation_xyz
x,y,z
-x,1/2+y,-z
-x,-y,-z
x,1/2-y,z
loop_
_atom_site_type_symbol
_atom_site_label
_atom_site_fract_x
_atom_site_fract_y
_atom_site_fract_z
Si Si1 0.262078 0.102110 0.953657
Si Si2 0.589886 0.938644 0.110576
Si Si3 0.122610 0.816701 0.946787
Si Si4 0.050282 0.816208 0.543773
Si Si5 0.582424 0.183236 0.441887
Si Si6 0.260749 0.869003 0.600209
Si Si7 0.903025 0.923678 0.739340
Si Si8 0.048310 0.453414 0.889212
O O1 0.422580 0.139518 0.230262
O O2 0.312675 0.060465 0.898772
O O3 0.190900 0.061426 0.974863
O O4 0.118252 0.145104 0.698441
O O5 0.717076 0.926306 0.411648
O O6 0.445580 0.888619 0.912523
O O7 0.500000 0.000000 0.000000
O O8 0.055902 0.750000 0.880354
O O9 0.987004 0.861049 0.825210
O O10 0.144139 0.829658 0.816632
O O11 0.311311 0.825104 0.271914
O O12 0.985672 0.750000 0.446042
O O13 0.180901 0.827234 0.602703
O O14 0.516757 0.250000 0.334008
O O15 0.712324 0.167939 0.499448
O O16 0.136558 0.924217 0.398676
O O17 0.876934 0.930380 0.864431
O O18 0.024660 0.976441 0.854939
#
# Coordination Sequence:
#
# PCOD8074546 Si02
#       8
#     4   4   4   4   4   4   4   4
#     4  10  22  37  57  87 114 148 193 238 281 346
#     4  11  22  37  58  84 117 149 191 236 292 341
#     4  10  21  37  58  84 114 153 191 230 286 344
#     4  10  20  36  57  84 115 149 191 236 283 336
#     4  10  20  37  59  81 116 153 188 232 283 341
#     4  10  20  36  56  86 114 146 194 233 281 346
#     4  11  21  40  59  84 118 153 186 244 287 343
#     4  10  22  37  61  84 116 149 195 233 292 342
#
# _framework density 18.407858999999998
#
# number of rings (size 3 to 8) (size 9 to 14) (size 15 to 20)
#    0.000    1.750    3.750    0.750    0.000    2.500 
#    0.000    2.500    0.000    0.000    0.000    0.000 
#    0.000    0.000    0.000    0.000    0.000    0.000 
#
# Total GULP energy -396895.081071 kJ/mol
# GULP energy per Si atom -12402.971283 kJ/mol
# Density = 1.836596 g / cm^3
# Si number density = 18.407859 Si / 1000 Ang^3
#
#
#
# Elastic Constant Matrix: (Units=GPa)
#
#
# Indices 1 2 3 4 5 6 
#
# 1 125.6223 53.1971 62.7610 0.0000 -2.3171 0.0000
# 2 53.1971 89.2308 40.1672 0.0000 -6.0623 0.0000
# 3 62.7610 40.1672 122.7352 0.0000 -12.3765 0.0000
# 4 0.0000 0.0000 0.0000 42.8550 0.0000 21.3955
# 5 -2.3171 -6.0623 -12.3765 0.0000 27.3262 0.0000
# 6 0.0000 0.0000 0.0000 21.3955 0.0000 59.4676
#
#
#
# Elastic Compliance Matrix: (Units=1/GPa)
#
#
# Indices 1 2 3 4 5 6 
#
# 1 0.012723 -0.005524 -0.004938 0.000000 -0.002383 0.000000
# 2 -0.005524 0.015568 -0.002064 0.000000 0.002051 0.000000
# 3 -0.004938 -0.002064 0.011799 0.000000 0.004467 0.000000
# 4 0.000000 0.000000 0.000000 0.028444 0.000000 -0.010234
# 5 -0.002383 0.002051 0.004467 0.000000 0.038871 0.000000
# 6 0.000000 0.000000 0.000000 -0.010234 0.000000 0.020498
#
#
# Mechanical properties :
#
#
# Convention : Reuss Voigt Hill
#
# Bulk Modulus (GPa) = 66.49748 72.20433 69.35090
# Shear Modulus (GPa) = 31.65223 38.02729 34.83976
#
# Velocity S-wave (km/s) = 4.15118 4.55006 4.35519
# Velocity P-wave (km/s) = 7.69281 8.18009 7.94019
#
# Compressibility (1/GPa) = 0.01503816
#
# Stress axis : x y z
#
# Youngs Moduli (GPa) = 78.59872 64.23289 84.75525
#
# Poissons Ratio (x) = 0.35482 0.41856
# Poissons Ratio (y) = 0.43417 0.17489
# Poissons Ratio (z) = 0.38815 0.13255
#
# Static dielectric constant tensor:
#      x y z
#    x 3.383180 0.000000 -0.135410 
#    y 0.000000 3.466150 0.000000 
#    z -0.135410 0.000000 3.659640 
# 
# 
# High freq. dielectric constant tensor:
#      x y z
#    x 1.710570 0.000000 -0.011490 
#    y 0.000000 1.721090 0.000000 
#    z -0.011490 0.000000 1.723980 
# 
# From -- ./inp_files/14951.got.cif
#   From: 2010.06.25/outbox.cif.g09.slc.cpg/sg11_8_cif.got.tgz:14951.got - 2010.06.27 23:14:04.
