data_PCOD8074363
_publ_section_title
;
Structure prediction by ZEFSAII (Michael W. Deem and Ramdas Pophale) SiO2 
 PCOD8074363
Probable space group: P 21/M
;
_chemical_formula_sum "Si O2"
_cell_formula_units_Z 32
_cell_length_a 11.941461
_cell_length_b 8.947254
_cell_length_c 29.081582
_cell_angle_alpha 90.000000
_cell_angle_beta 31.796777
_cell_angle_gamma 90.000000
_cell_volume 1637.193608
_symmetry_space_group_name_H-M "P 21/M"
_symmetry_group_IT_number 11
_symmetry_cell_setting 'monoclinic'
loop_
_space_group_symop_operation_xyz
x,y,z
-x,1/2+y,-z
-x,-y,-z
x,1/2-y,z
loop_
_atom_site_type_symbol
_atom_site_label
_atom_site_fract_x
_atom_site_fract_y
_atom_site_fract_z
Si Si1 0.464268 0.577839 0.313284
Si Si2 0.375042 0.070804 0.000152
Si Si3 0.392526 0.580729 0.578420
Si Si4 0.940704 0.915438 0.257728
Si Si5 0.103343 0.575736 0.818305
Si Si6 0.750526 0.920090 0.527901
Si Si7 0.168267 0.922710 0.331899
Si Si8 0.659988 0.416153 0.822658
O O1 0.490265 0.750000 0.317335
O O2 0.698592 0.506710 0.227106
O O3 0.302765 0.507425 0.406789
O O4 0.361110 0.555199 0.299539
O O5 0.395286 0.250000 0.997789
O O6 0.460877 0.012188 0.919959
O O7 0.127996 0.020837 0.083784
O O8 0.500000 0.000000 0.000000
O O9 0.500000 0.500000 0.500000
O O10 0.329348 0.750000 0.588160
O O11 0.188187 0.475882 0.654052
O O12 0.538434 0.574174 0.572287
O O13 0.864950 0.750000 0.268049
O O14 0.180523 0.908537 0.190091
O O15 0.894485 0.040015 0.236095
O O16 0.138008 0.750000 0.814157
O O17 0.809334 0.750000 0.520975
O O18 0.950661 0.992169 0.429717
O O19 0.115145 0.750000 0.340193
O O20 0.245900 0.998899 0.255958
O O21 0.597271 0.250000 0.827864
#
# Coordination Sequence:
#
# PCOD8074363 Si02
#       8
#     4   4   4   4   4   4   4   4
#     4  11  22  36  58  83 109 148 197 240 272 324
#     4  10  20  35  59  87 114 146 183 228 283 343
#     4  11  22  34  51  78 115 154 188 227 281 339
#     4  11  20  33  57  83 111 146 186 230 280 338
#     4  11  22  36  55  82 116 148 181 229 285 337
#     4  10  20  36  57  80 111 148 186 233 286 336
#     4   9  19  36  57  82 111 146 190 235 281 334
#     4   9  18  35  58  84 113 146 182 228 288 346
#
# _framework density 19.545642000000001
#
# number of rings (size 3 to 8) (size 9 to 14) (size 15 to 20)
#    0.000    1.750    2.500    2.625    0.000    3.000 
#    0.000    1.250    0.000    5.250    0.000    0.000 
#    0.000    0.000    0.000    0.000    0.000    0.000 
#
# Total GULP energy -396465.444478 kJ/mol
# GULP energy per Si atom -12389.545140 kJ/mol
# Density = 1.950116 g / cm^3
# Si number density = 19.545642 Si / 1000 Ang^3
#
#
#
# Elastic Constant Matrix: (Units=GPa)
#
#
# Indices 1 2 3 4 5 6 
#
# 1 57.3716 20.1166 32.8194 0.0000 4.8133 0.0000
# 2 20.1166 58.2250 32.7847 0.0000 -4.3478 0.0000
# 3 32.8194 32.7847 159.9275 0.0000 1.4674 0.0000
# 4 0.0000 0.0000 0.0000 18.4364 0.0000 0.0611
# 5 4.8133 -4.3478 1.4674 0.0000 27.2075 0.0000
# 6 0.0000 0.0000 0.0000 0.0611 0.0000 20.6814
#
#
#
# Elastic Compliance Matrix: (Units=1/GPa)
#
#
# Indices 1 2 3 4 5 6 
#
# 1 0.021770 -0.006079 -0.003179 0.000000 -0.004651 0.000000
# 2 -0.006079 0.021418 -0.003186 0.000000 0.004670 0.000000
# 3 -0.003179 -0.003186 0.007562 0.000000 -0.000355 0.000000
# 4 0.000000 0.000000 0.000000 0.054241 0.000000 -0.000160
# 5 -0.004651 0.004670 -0.000355 0.000000 0.038343 0.000000
# 6 0.000000 0.000000 0.000000 -0.000160 0.000000 0.048353
#
#
# Mechanical properties :
#
#
# Convention : Reuss Voigt Hill
#
# Bulk Modulus (GPa) = 38.66658 49.66284 44.16471
# Shear Modulus (GPa) = 22.20299 25.91860 24.06079
#
# Velocity S-wave (km/s) = 3.37405 3.64545 3.51238
# Velocity P-wave (km/s) = 5.91647 6.57137 6.25250
#
# Compressibility (1/GPa) = 0.02586212
#
# Stress axis : x y z
#
# Youngs Moduli (GPa) = 45.93387 46.69047 132.24879
#
# Poissons Ratio (x) = 0.28384 0.42038
# Poissons Ratio (y) = 0.27924 0.42133
# Poissons Ratio (z) = 0.14601 0.14875
#
# Static dielectric constant tensor:
#      x y z
#    x 3.114250 0.000000 0.130640 
#    y 0.000000 3.486370 0.000000 
#    z 0.130640 0.000000 3.918540 
# 
# 
# High freq. dielectric constant tensor:
#      x y z
#    x 1.745050 0.000000 0.000210 
#    y 0.000000 1.735460 0.000000 
#    z 0.000210 0.000000 1.783520 
# 
# From -- ./inp_files/38104.got.cif
#   From: 2010.06.25/outbox.cif.g09.slc.cpg/sg11_20_cif.got.tgz:38104.got - 2010.06.27 23:14:04.
