data_PCOD8074092
_publ_section_title
;
Structure prediction by ZEFSAII (Michael W. Deem and Ramdas Pophale) SiO2 
 PCOD8074092
Probable space group: P 21/M
;
_chemical_formula_sum "Si O2"
_cell_formula_units_Z 28
_cell_length_a 25.649041
_cell_length_b 9.052128
_cell_length_c 9.356878
_cell_angle_alpha 90.000000
_cell_angle_beta 43.041869
_cell_angle_gamma 90.000000
_cell_volume 1482.778209
_symmetry_space_group_name_H-M "P 21/M"
_symmetry_group_IT_number 11
_symmetry_cell_setting 'monoclinic'
loop_
_space_group_symop_operation_xyz
x,y,z
-x,1/2+y,-z
-x,-y,-z
x,1/2-y,z
loop_
_atom_site_type_symbol
_atom_site_label
_atom_site_fract_x
_atom_site_fract_y
_atom_site_fract_z
Si Si1 0.564689 0.078600 0.059050
Si Si2 0.150237 0.577916 0.356186
Si Si3 0.587447 0.420563 0.684481
Si Si4 0.711575 0.916782 0.268875
Si Si5 0.117616 0.422398 0.133219
Si Si6 0.694272 0.920802 0.972339
Si Si7 0.990745 0.420981 0.168023
O O1 0.564222 0.250000 0.100619
O O2 0.479810 0.015825 0.251808
O O3 0.592541 0.050182 0.842609
O O4 0.620404 0.993469 0.052283
O O5 0.165999 0.750000 0.298873
O O6 0.111427 0.512570 0.292138
O O7 0.229304 0.498953 0.237958
O O8 0.093753 0.551063 0.601937
O O9 0.571716 0.250000 0.682181
O O10 0.667725 0.469266 0.457472
O O11 0.692810 0.750000 0.355339
O O12 0.801222 0.950060 0.105439
O O13 0.686213 0.941645 0.157228
O O14 0.107379 0.250000 0.192197
O O15 0.052624 0.482076 0.157272
O O16 0.699102 0.750000 0.918955
O O17 0.007124 0.250000 0.109348
O O18 0.000000 0.500000 0.000000
#
# Coordination Sequence:
#
# PCOD8074092 Si02
#       7
#     4   4   4   4   4   4   4
#     4  10  21  37  56  79 108 141 179 222 265 314
#     4  10  20  35  56  82 109 139 178 223 269 318
#     4  10  21  36  55  79 107 141 179 217 265 322
#     4   9  19  35  55  79 106 137 177 222 265 314
#     4   9  19  37  57  78 106 142 182 220 264 321
#     4  10  21  37  57  81 108 141 180 219 265 320
#     4  10  22  37  54  80 112 143 180 224 268 317
#
# _framework density 18.883472000000001
#
# number of rings (size 3 to 8) (size 9 to 14) (size 15 to 20)
#    0.000    2.286    0.000    3.000    0.000    8.000 
#    0.000    2.857    0.000    0.000    0.000    0.000 
#    0.000    0.000    0.000    0.000    0.000    0.000 
#
# Total GULP energy -347318.500507 kJ/mol
# GULP energy per Si atom -12404.232161 kJ/mol
# Density = 1.884049 g / cm^3
# Si number density = 18.883472 Si / 1000 Ang^3
#
#
#
# Elastic Constant Matrix: (Units=GPa)
#
#
# Indices 1 2 3 4 5 6 
#
# 1 37.9904 12.9511 -5.4324 0.0000 -6.4795 0.0000
# 2 12.9511 84.1801 31.4425 0.0000 -0.2198 0.0000
# 3 -5.4324 31.4425 72.5224 0.0000 -1.5639 0.0000
# 4 0.0000 0.0000 0.0000 35.1536 0.0000 -0.5948
# 5 -6.4795 -0.2198 -1.5639 0.0000 16.7419 0.0000
# 6 0.0000 0.0000 0.0000 -0.5948 0.0000 34.4364
#
#
#
# Elastic Compliance Matrix: (Units=1/GPa)
#
#
# Indices 1 2 3 4 5 6 
#
# 1 0.031667 -0.006953 0.005660 0.000000 0.012693 0.000000
# 2 -0.006953 0.015704 -0.007398 0.000000 -0.003176 0.000000
# 3 0.005660 -0.007398 0.017501 0.000000 0.003728 0.000000
# 4 0.000000 0.000000 0.000000 0.028455 0.000000 0.000491
# 5 0.012693 -0.003176 0.003728 0.000000 0.064950 0.000000
# 6 0.000000 0.000000 0.000000 0.000491 0.000000 0.029048
#
#
# Mechanical properties :
#
#
# Convention : Reuss Voigt Hill
#
# Bulk Modulus (GPa) = 21.05682 30.29058 25.67370
# Shear Modulus (GPa) = 22.67213 27.64848 25.16031
#
# Velocity S-wave (km/s) = 3.46878 3.83059 3.65416
# Velocity P-wave (km/s) = 5.21712 5.96994 5.60618
#
# Compressibility (1/GPa) = 0.04749055
#
# Stress axis : x y z
#
# Youngs Moduli (GPa) = 31.57852 63.67836 57.14084
#
# Poissons Ratio (x) = 0.44276 -0.32344
# Poissons Ratio (y) = 0.21957 0.42272
# Poissons Ratio (z) = -0.17875 0.47108
#
# Static dielectric constant tensor:
#      x y z
#    x 3.441860 0.000000 -0.113390 
#    y 0.000000 3.517850 0.000000 
#    z -0.113390 0.000000 3.365280 
# 
# 
# High freq. dielectric constant tensor:
#      x y z
#    x 1.733580 0.000000 -0.010350 
#    y 0.000000 1.740880 0.000000 
#    z -0.010350 0.000000 1.733530 
# 
# From -- ./inp_files/28406.got.cif
#   From: 2010.06.25/outbox.cif.g09.slc.cpg/sg11_15_cif.got.tgz:28406.got - 2010.06.27 23:14:04.
