data_PCOD8074144
_publ_section_title
;
Structure prediction by ZEFSAII (Michael W. Deem and Ramdas Pophale) SiO2 
 PCOD8074144
Probable space group: P 21/M
;
_chemical_formula_sum "Si O2"
_cell_formula_units_Z 28
_cell_length_a 9.063404
_cell_length_b 8.619469
_cell_length_c 28.915820
_cell_angle_alpha 90.000000
_cell_angle_beta 141.353086
_cell_angle_gamma 90.000000
_cell_volume 1410.760293
_symmetry_space_group_name_H-M "P 21/M"
_symmetry_group_IT_number 11
_symmetry_cell_setting 'monoclinic'
loop_
_space_group_symop_operation_xyz
x,y,z
-x,1/2+y,-z
-x,-y,-z
x,1/2-y,z
loop_
_atom_site_type_symbol
_atom_site_label
_atom_site_fract_x
_atom_site_fract_y
_atom_site_fract_z
Si Si1 0.718287 0.572679 0.655873
Si Si2 0.935881 0.430517 0.344165
Si Si3 0.587937 0.565757 0.069563
Si Si4 0.564428 0.067394 0.794385
Si Si5 0.114968 0.568388 0.210639
Si Si6 0.740602 0.932608 0.931912
Si Si7 0.321308 0.930455 0.492505
O O1 0.756674 0.750000 0.679894
O O2 0.763338 0.467636 0.711017
O O3 0.445812 0.545234 0.572964
O O4 0.900872 0.529438 0.659887
O O5 0.869761 0.250000 0.330323
O O6 0.704624 0.534526 0.284534
O O7 0.073157 0.479373 0.425140
O O8 0.584750 0.750000 0.067058
O O9 0.420916 0.508961 0.069109
O O10 0.850843 0.499274 0.143459
O O11 0.500000 0.500000 0.000000
O O12 0.599129 0.250000 0.812143
O O13 0.728661 0.003239 0.793221
O O14 0.632479 0.970637 0.855929
O O15 0.100441 0.750000 0.201435
O O16 0.747775 0.750000 0.941605
O O17 0.000000 0.000000 0.000000
O O18 0.281324 0.750000 0.472430
O O19 0.500000 0.000000 0.500000
#
# Coordination Sequence:
#
# PCOD8074144 Si02
#       7
#     4   4   4   4   4   4   4
#     4   9  19  34  55  82 112 144 187 236 285 341
#     4  10  20  35  56  85 114 148 193 239 288 347
#     4  11  23  41  64  91 121 156 195 240 290 345
#     4  11  23  40  59  84 117 153 193 240 289 344
#     4  10  23  39  57  82 114 150 191 234 284 343
#     4  12  25  42  64  91 120 154 195 240 290 349
#     4   9  17  31  52  81 113 147 187 237 289 343
#
# _framework density 19.847453999999999
#
# number of rings (size 3 to 8) (size 9 to 14) (size 15 to 20)
#    0.000    1.714    0.000    5.571    0.000    9.143 
#    0.000    0.714    0.000    0.000    0.000    0.000 
#    0.000    0.000    0.000    0.000    0.000    0.000 
#
# Total GULP energy -347206.758107 kJ/mol
# GULP energy per Si atom -12400.241361 kJ/mol
# Density = 1.980228 g / cm^3
# Si number density = 19.847454 Si / 1000 Ang^3
#
#
#
# Elastic Constant Matrix: (Units=GPa)
#
#
# Indices 1 2 3 4 5 6 
#
# 1 113.5112 23.0882 59.6041 0.0000 -0.9914 0.0000
# 2 23.0882 64.3562 26.2907 0.0000 -2.9690 0.0000
# 3 59.6041 26.2907 148.6262 0.0000 3.9722 0.0000
# 4 0.0000 0.0000 0.0000 39.9760 0.0000 -2.6690
# 5 -0.9914 -2.9690 3.9722 0.0000 30.5675 0.0000
# 6 0.0000 0.0000 0.0000 -2.6690 0.0000 28.3914
#
#
#
# Elastic Compliance Matrix: (Units=1/GPa)
#
#
# Indices 1 2 3 4 5 6 
#
# 1 0.011512 -0.002376 -0.004215 0.000000 0.000690 0.000000
# 2 -0.002376 0.017364 -0.002169 0.000000 0.001891 0.000000
# 3 -0.004215 -0.002169 0.008842 0.000000 -0.001496 0.000000
# 4 0.000000 0.000000 0.000000 0.025173 0.000000 0.002366
# 5 0.000690 0.001891 -0.001496 0.000000 0.033115 0.000000
# 6 0.000000 0.000000 0.000000 0.002366 0.000000 0.035444
#
#
# Mechanical properties :
#
#
# Convention : Reuss Voigt Hill
#
# Bulk Modulus (GPa) = 49.50948 60.49552 55.00250
# Shear Modulus (GPa) = 32.11196 34.28769 33.19983
#
# Velocity S-wave (km/s) = 4.02672 4.16090 4.09436
# Velocity P-wave (km/s) = 6.82777 7.32329 7.07987
#
# Compressibility (1/GPa) = 0.02019815
#
# Stress axis : x y z
#
# Youngs Moduli (GPa) = 86.86353 57.58889 113.09266
#
# Poissons Ratio (x) = 0.13685 0.47667
# Poissons Ratio (y) = 0.20642 0.24532
# Poissons Ratio (z) = 0.36612 0.12492
#
# Static dielectric constant tensor:
#      x y z
#    x 3.566830 0.000000 0.092540 
#    y 0.000000 3.267470 0.000000 
#    z 0.092540 0.000000 4.088310 
# 
# 
# High freq. dielectric constant tensor:
#      x y z
#    x 1.759920 0.000000 0.005630 
#    y 0.000000 1.778760 0.000000 
#    z 0.005630 0.000000 1.796460 
# 
# From -- ./inp_files/70782.got.cif
#   From: 2010.06.25/outbox.cif.g09.slc.cpg/sg11_36_cif.got.tgz:70782.got - 2010.06.27 23:14:04.
