data_PCOD8074819
_publ_section_title
;
Structure prediction by ZEFSAII (Michael W. Deem and Ramdas Pophale) SiO2 
 PCOD8074819
Probable space group: P 21/M
;
_chemical_formula_sum "Si O2"
_cell_formula_units_Z 28
_cell_length_a 8.946995
_cell_length_b 9.029592
_cell_length_c 25.201181
_cell_angle_alpha 90.000000
_cell_angle_beta 44.179451
_cell_angle_gamma 90.000000
_cell_volume 1418.866803
_symmetry_space_group_name_H-M "P 21/M"
_symmetry_group_IT_number 11
_symmetry_cell_setting 'monoclinic'
loop_
_space_group_symop_operation_xyz
x,y,z
-x,1/2+y,-z
-x,-y,-z
x,1/2-y,z
loop_
_atom_site_type_symbol
_atom_site_label
_atom_site_fract_x
_atom_site_fract_y
_atom_site_fract_z
Si Si1 0.144308 0.578838 0.506431
Si Si2 0.551623 0.919876 0.063579
Si Si3 0.416480 0.576973 0.623642
Si Si4 0.161249 0.922357 0.088826
Si Si5 0.006534 0.920078 0.660116
Si Si6 0.285245 0.924637 0.775040
Si Si7 0.577002 0.077957 0.785883
O O1 0.161966 0.750000 0.486938
O O2 0.380306 0.512260 0.448522
O O3 0.030844 0.555388 0.591490
O O4 0.000000 0.500000 0.500000
O O5 0.609549 0.750000 0.036170
O O6 0.322172 0.958842 0.096009
O O7 0.543089 0.950479 0.128151
O O8 0.736370 0.023203 0.992540
O O9 0.470425 0.750000 0.606625
O O10 0.222855 0.532380 0.634547
O O11 0.358449 0.528835 0.697875
O O12 0.108998 0.750000 0.097001
O O13 0.943852 0.007405 0.154613
O O14 0.949577 0.750000 0.687862
O O15 0.820734 0.024882 0.729454
O O16 0.268429 0.750000 0.785516
O O17 0.462195 0.984025 0.770118
O O18 0.572879 0.250000 0.771620
#
# Coordination Sequence:
#
# PCOD8074819 Si02
#       7
#     4   4   4   4   4   4   4
#     4  11  23  38  59  86 117 151 186 229 280 332
#     4   9  20  38  58  83 114 146 184 230 280 333
#     4  10  22  40  61  84 112 148 190 233 278 331
#     4  10  20  36  60  86 111 144 187 232 278 332
#     4  10  22  40  60  84 114 148 187 231 281 334
#     4  11  23  38  57  82 114 150 186 230 283 333
#     4  11  23  38  58  84 114 149 188 231 278 331
#
# _framework density 19.734058000000001
#
# number of rings (size 3 to 8) (size 9 to 14) (size 15 to 20)
#    0.000    1.714    0.000    3.857    0.000    8.571 
#    0.000    0.000    0.000    0.000    0.000    0.000 
#    0.000    0.000    0.000    0.000    0.000    0.000 
#
# Total GULP energy -347379.523762 kJ/mol
# GULP energy per Si atom -12406.411563 kJ/mol
# Density = 1.968914 g / cm^3
# Si number density = 19.734058 Si / 1000 Ang^3
#
#
#
# Elastic Constant Matrix: (Units=GPa)
#
#
# Indices 1 2 3 4 5 6 
#
# 1 51.2265 15.8715 -15.7215 0.0000 11.9558 0.0000
# 2 15.8715 71.6474 28.7929 0.0000 0.4040 0.0000
# 3 -15.7215 28.7929 40.5502 0.0000 -1.6861 0.0000
# 4 0.0000 0.0000 0.0000 37.5613 0.0000 -7.2765
# 5 11.9558 0.4040 -1.6861 0.0000 28.9952 0.0000
# 6 0.0000 0.0000 0.0000 -7.2765 0.0000 35.8850
#
#
#
# Elastic Compliance Matrix: (Units=1/GPa)
#
#
# Indices 1 2 3 4 5 6 
#
# 1 0.036941 -0.019086 0.027318 0.000000 -0.013377 0.000000
# 2 -0.019086 0.029425 -0.028051 0.000000 0.005829 0.000000
# 3 0.027318 -0.028051 0.054850 0.000000 -0.007684 0.000000
# 4 0.000000 0.000000 0.000000 0.027712 0.000000 0.005619
# 5 -0.013377 0.005829 -0.007684 0.000000 0.039476 0.000000
# 6 0.000000 0.000000 0.000000 0.005619 0.000000 0.029006
#
#
# Mechanical properties :
#
#
# Convention : Reuss Voigt Hill
#
# Bulk Modulus (GPa) = 12.25821 24.59000 18.42411
# Shear Modulus (GPa) = 17.59074 29.45371 23.52222
#
# Velocity S-wave (km/s) = 2.98885 3.86752 3.45622
# Velocity P-wave (km/s) = 4.25866 5.69485 5.02830
#
# Compressibility (1/GPa) = 0.08157796
#
# Stress axis : x y z
#
# Youngs Moduli (GPa) = 27.07053 33.98463 18.23151
#
# Poissons Ratio (x) = 0.64863 -0.49804
# Poissons Ratio (y) = 0.51667 0.51141
# Poissons Ratio (z) = -0.73951 0.95329
#
# Static dielectric constant tensor:
#      x y z
#    x 3.681970 0.000000 0.058360 
#    y 0.000000 3.684380 0.000000 
#    z 0.058360 0.000000 3.616340 
# 
# 
# High freq. dielectric constant tensor:
#      x y z
#    x 1.779430 0.000000 0.001250 
#    y 0.000000 1.775570 0.000000 
#    z 0.001250 0.000000 1.779030 
# 
# From -- ./inp_files/70819.got.cif
#   From: 2010.06.25/outbox.cif.g09.slc.cpg/sg11_36_cif.got.tgz:70819.got - 2010.06.27 23:14:04.
