data_PCOD8074388
_publ_section_title
;
Structure prediction by ZEFSAII (Michael W. Deem and Ramdas Pophale) SiO2 
 PCOD8074388
Probable space group: P 21/M
;
_chemical_formula_sum "Si O2"
_cell_formula_units_Z 28
_cell_length_a 9.733227
_cell_length_b 8.788831
_cell_length_c 27.541161
_cell_angle_alpha 90.000000
_cell_angle_beta 142.043639
_cell_angle_gamma 90.000000
_cell_volume 1449.067044
_symmetry_space_group_name_H-M "P 21/M"
_symmetry_group_IT_number 11
_symmetry_cell_setting 'monoclinic'
loop_
_space_group_symop_operation_xyz
x,y,z
-x,1/2+y,-z
-x,-y,-z
x,1/2-y,z
loop_
_atom_site_type_symbol
_atom_site_label
_atom_site_fract_x
_atom_site_fract_y
_atom_site_fract_z
Si Si1 0.850409 0.431809 0.501241
Si Si2 0.968286 0.927572 0.195422
Si Si3 0.726114 0.078757 0.048568
Si Si4 0.673956 0.425929 0.192654
Si Si5 0.928022 0.927843 0.625352
Si Si6 0.632308 0.430550 0.624833
Si Si7 0.770072 0.422536 0.947035
O O1 0.855410 0.250000 0.499950
O O2 0.599158 0.491941 0.425742
O O3 0.000000 0.500000 0.500000
O O4 0.946852 0.488080 0.579367
O O5 0.943803 0.750000 0.182787
O O6 0.203910 0.972427 0.285042
O O7 0.940566 0.001564 0.134617
O O8 0.764901 0.983280 0.171942
O O9 0.717006 0.250000 0.064568
O O10 0.747918 0.066080 0.997908
O O11 0.500000 0.000000 0.000000
O O12 0.661651 0.250000 0.175376
O O13 0.832636 0.453142 0.283040
O O14 0.428239 0.489013 0.136086
O O15 0.872652 0.750000 0.602566
O O16 0.729522 0.001045 0.601960
O O17 0.603673 0.250000 0.610202
O O18 0.768649 0.250000 0.927863
O O19 0.000000 0.500000 0.000000
#
# Coordination Sequence:
#
# PCOD8074388 Si02
#       7
#     4   4   4   4   4   4   4
#     4  12  25  42  63  88 121 159 196 240 295 354
#     4  10  20  35  59  90 120 152 195 244 293 343
#     4  11  22  36  59  87 117 155 198 244 294 348
#     4  10  20  36  61  88 118 154 195 243 293 345
#     4  10  21  39  64  93 120 154 198 243 293 349
#     4  10  21  39  63  91 122 156 198 245 291 347
#     4  11  24  40  58  83 117 158 201 245 295 351
#
# _framework density 19.322779000000001
#
# number of rings (size 3 to 8) (size 9 to 14) (size 15 to 20)
#    0.000    1.429    1.429    4.286    0.000    5.143 
#    2.571    0.000    0.000    0.000    0.000    0.000 
#    0.000    0.000    0.000    0.000    0.000    0.000 
#
# Total GULP energy -347265.820971 kJ/mol
# GULP energy per Si atom -12402.350749 kJ/mol
# Density = 1.927880 g / cm^3
# Si number density = 19.322779 Si / 1000 Ang^3
#
#
#
# Elastic Constant Matrix: (Units=GPa)
#
#
# Indices 1 2 3 4 5 6 
#
# 1 95.9408 58.7507 53.9063 0.0000 15.1455 0.0000
# 2 58.7507 119.4779 60.1521 0.0000 -1.6821 0.0000
# 3 53.9063 60.1521 128.8028 0.0000 9.8461 0.0000
# 4 0.0000 0.0000 0.0000 38.3973 0.0000 -0.0701
# 5 15.1455 -1.6821 9.8461 0.0000 29.6686 0.0000
# 6 0.0000 0.0000 0.0000 -0.0701 0.0000 34.3880
#
#
#
# Elastic Compliance Matrix: (Units=1/GPa)
#
#
# Indices 1 2 3 4 5 6 
#
# 1 0.018247 -0.007291 -0.003579 0.000000 -0.008541 0.000000
# 2 -0.007291 0.014022 -0.003942 0.000000 0.005825 0.000000
# 3 -0.003579 -0.003942 0.011266 0.000000 -0.002135 0.000000
# 4 0.000000 0.000000 0.000000 0.026044 0.000000 0.000053
# 5 -0.008541 0.005825 -0.002135 0.000000 0.039104 0.000000
# 6 0.000000 0.000000 0.000000 0.000053 0.000000 0.029080
#
#
# Mechanical properties :
#
#
# Convention : Reuss Voigt Hill
#
# Bulk Modulus (GPa) = 71.88808 76.64885 74.26847
# Shear Modulus (GPa) = 29.06587 31.91829 30.49208
#
# Velocity S-wave (km/s) = 3.88265 4.06870 3.97676
# Velocity P-wave (km/s) = 7.57525 7.86296 7.72045
#
# Compressibility (1/GPa) = 0.01391051
#
# Stress axis : x y z
#
# Youngs Moduli (GPa) = 54.80389 71.31835 88.76370
#
# Poissons Ratio (x) = 0.51998 0.31767
# Poissons Ratio (y) = 0.39957 0.34992
# Poissons Ratio (z) = 0.19613 0.28115
#
# Static dielectric constant tensor:
#      x y z
#    x 2.392330 0.000000 2.332750 
#    y 0.000000 3.816550 0.000000 
#    z 2.332750 0.000000 -2.901420 
# 
# 
# High freq. dielectric constant tensor:
#      x y z
#    x 1.730840 0.000000 -0.001460 
#    y 0.000000 1.773300 0.000000 
#    z -0.001460 0.000000 1.772180 
# 
# From -- ./inp_files/23985.got.cif
#   From: 2010.06.25/outbox.cif.g09.slc.cpg/sg11_12_cif.got.tgz:23985.got - 2010.06.27 23:14:04.
