data_PCOD8074676
_publ_section_title
;
Structure prediction by ZEFSAII (Michael W. Deem and Ramdas Pophale) SiO2 
 PCOD8074676
Probable space group: P 21/M
;
_chemical_formula_sum "Si O2"
_cell_formula_units_Z 28
_cell_length_a 14.822190
_cell_length_b 9.027967
_cell_length_c 21.669971
_cell_angle_alpha 90.000000
_cell_angle_beta 30.666794
_cell_angle_gamma 90.000000
_cell_volume 1479.001924
_symmetry_space_group_name_H-M "P 21/M"
_symmetry_group_IT_number 11
_symmetry_cell_setting 'monoclinic'
loop_
_space_group_symop_operation_xyz
x,y,z
-x,1/2+y,-z
-x,-y,-z
x,1/2-y,z
loop_
_atom_site_type_symbol
_atom_site_label
_atom_site_fract_x
_atom_site_fract_y
_atom_site_fract_z
Si Si1 0.277555 0.077700 0.846375
Si Si2 0.642089 0.579878 0.643282
Si Si3 0.444886 0.425583 0.969456
Si Si4 0.062518 0.577490 0.873059
Si Si5 0.734996 0.580419 0.724685
Si Si6 0.924040 0.074838 0.398836
Si Si7 0.048345 0.425169 0.193618
O O1 0.319829 0.250000 0.814876
O O2 0.452727 0.994561 0.764611
O O3 0.129862 0.045973 0.984822
O O4 0.212405 0.017465 0.818596
O O5 0.612739 0.750000 0.642865
O O6 0.756309 0.563710 0.638687
O O7 0.745980 0.501791 0.526786
O O8 0.453867 0.250000 0.970974
O O9 0.573193 0.477122 0.839644
O O10 0.500000 0.500000 0.000000
O O11 0.248461 0.482932 0.069559
O O12 0.110628 0.750000 0.851347
O O13 0.060605 0.524880 0.802795
O O14 0.693810 0.750000 0.767843
O O15 0.913074 0.526423 0.653492
O O16 0.896001 0.250000 0.417242
O O17 0.958502 0.014958 0.309161
O O18 0.054946 0.250000 0.193195
#
# Coordination Sequence:
#
# PCOD8074676 Si02
#       7
#     4   4   4   4   4   4   4
#     4  10  20  36  58  84 112 141 176 221 276 332
#     4  11  23  37  55  80 110 144 187 233 273 319
#     4  11  20  33  54  81 114 147 182 222 269 325
#     4   9  18  35  60  86 109 137 176 222 273 329
#     4  10  21  37  55  79 111 146 185 231 277 321
#     4  10  20  37  56  75 109 149 186 225 270 327
#     4   9  18  34  56  80 110 146 179 219 274 325
#
# _framework density 18.931685999999999
#
# number of rings (size 3 to 8) (size 9 to 14) (size 15 to 20)
#    0.000    2.000    1.429    2.571    0.000    3.429 
#    0.000    2.857    0.000    0.000    0.000    0.000 
#    0.000    0.000    0.000    0.000    0.000    0.000 
#
# Total GULP energy -347259.450617 kJ/mol
# GULP energy per Si atom -12402.123236 kJ/mol
# Density = 1.888860 g / cm^3
# Si number density = 18.931686 Si / 1000 Ang^3
#
#
#
# Elastic Constant Matrix: (Units=GPa)
#
#
# Indices 1 2 3 4 5 6 
#
# 1 112.2558 30.7036 31.1724 0.0000 12.8347 0.0000
# 2 30.7036 66.5484 31.9538 0.0000 3.1564 0.0000
# 3 31.1724 31.9538 77.4928 0.0000 9.6610 0.0000
# 4 0.0000 0.0000 0.0000 32.2077 0.0000 -2.6909
# 5 12.8347 3.1564 9.6610 0.0000 23.8969 0.0000
# 6 0.0000 0.0000 0.0000 -2.6909 0.0000 26.6554
#
#
#
# Elastic Compliance Matrix: (Units=1/GPa)
#
#
# Indices 1 2 3 4 5 6 
#
# 1 0.011112 -0.003786 -0.002345 0.000000 -0.004520 0.000000
# 2 -0.003786 0.020037 -0.007016 0.000000 0.002223 0.000000
# 3 -0.002345 -0.007016 0.017342 0.000000 -0.004825 0.000000
# 4 0.000000 0.000000 0.000000 0.031313 0.000000 0.003161
# 5 -0.004520 0.002223 -0.004825 0.000000 0.045931 0.000000
# 6 0.000000 0.000000 0.000000 0.003161 0.000000 0.037835
#
#
# Mechanical properties :
#
#
# Convention : Reuss Voigt Hill
#
# Bulk Modulus (GPa) = 45.05343 49.32850 47.19096
# Shear Modulus (GPa) = 25.34680 27.38316 26.36498
#
# Velocity S-wave (km/s) = 3.66301 3.80731 3.73585
# Velocity P-wave (km/s) = 6.46063 6.74093 6.60226
#
# Compressibility (1/GPa) = 0.02219587
#
# Stress axis : x y z
#
# Youngs Moduli (GPa) = 89.99439 49.90767 57.66203
#
# Poissons Ratio (x) = 0.18896 0.13522
# Poissons Ratio (y) = 0.34074 0.40457
# Poissons Ratio (z) = 0.21105 0.35017
#
# Static dielectric constant tensor:
#      x y z
#    x 3.620260 0.000000 0.125100 
#    y 0.000000 3.420770 0.000000 
#    z 0.125100 0.000000 3.486840 
# 
# 
# High freq. dielectric constant tensor:
#      x y z
#    x 1.741250 0.000000 0.006640 
#    y 0.000000 1.723840 0.000000 
#    z 0.006640 0.000000 1.727600 
# 
# From -- ./inp_files/37390.got.cif
#   From: 2010.06.25/outbox.cif.g09.slc.cpg/sg11_19_cif.got.tgz:37390.got - 2010.06.27 23:14:04.
