data_PCOD8074055
_publ_section_title
;
Structure prediction by ZEFSAII (Michael W. Deem and Ramdas Pophale) SiO2 
 PCOD8074055
Probable space group: P 21/M
;
_chemical_formula_sum "Si O2"
_cell_formula_units_Z 28
_cell_length_a 30.568613
_cell_length_b 9.313250
_cell_length_c 10.200562
_cell_angle_alpha 90.000000
_cell_angle_beta 147.093337
_cell_angle_gamma 90.000000
_cell_volume 1577.678424
_symmetry_space_group_name_H-M "P 21/M"
_symmetry_group_IT_number 11
_symmetry_cell_setting 'monoclinic'
loop_
_space_group_symop_operation_xyz
x,y,z
-x,1/2+y,-z
-x,-y,-z
x,1/2-y,z
loop_
_atom_site_type_symbol
_atom_site_label
_atom_site_fract_x
_atom_site_fract_y
_atom_site_fract_z
Si Si1 0.585337 0.581543 0.482772
Si Si2 0.313755 0.918513 0.046339
Si Si3 0.841079 0.584244 0.950434
Si Si4 0.333116 0.082465 0.581246
Si Si5 0.010184 0.916004 0.659470
Si Si6 0.166934 0.086954 0.763199
Si Si7 0.400737 0.583900 0.997029
O O1 0.600872 0.750000 0.545114
O O2 0.630782 0.494668 0.708178
O O3 0.618934 0.532363 0.426789
O O4 0.492099 0.539670 0.257351
O O5 0.313175 0.750000 0.073674
O O6 0.347191 0.954357 0.987394
O O7 0.223119 0.979211 0.823942
O O8 0.864736 0.750000 0.992434
O O9 0.760964 0.544044 0.669760
O O10 0.914328 0.488462 0.075165
O O11 0.826766 0.549199 0.067147
O O12 0.345659 0.250000 0.635551
O O13 0.368191 0.002495 0.793026
O O14 0.029631 0.750000 0.680059
O O15 0.924947 0.930863 0.521162
O O16 0.000000 0.000000 0.500000
O O17 0.196668 0.250000 0.815686
O O18 0.395809 0.750000 0.947440
#
# Coordination Sequence:
#
# PCOD8074055 Si02
#       7
#     4   4   4   4   4   4   4
#     4  10  20  38  58  75 103 138 175 220 266 310
#     4  11  22  34  52  80 108 136 177 219 259 309
#     4   9  17  31  50  76 106 133 169 213 258 308
#     4  10  20  35  56  79 104 138 177 215 258 315
#     4   9  17  28  46  74 105 135 168 209 258 307
#     4   9  17  32  51  73 105 139 170 210 259 309
#     4  10  23  38  52  76 108 140 174 218 265 310
#
# _framework density 17.747598
#
# number of rings (size 3 to 8) (size 9 to 14) (size 15 to 20)
#    0.000    2.286    1.429    2.571    0.000    5.714 
#    0.000    0.000    0.000    0.857    0.000    0.000 
#    0.000    0.000    0.000    0.000    0.000    0.000 
#
# Total GULP energy -347178.692122 kJ/mol
# GULP energy per Si atom -12399.239004 kJ/mol
# Density = 1.770720 g / cm^3
# Si number density = 17.747598 Si / 1000 Ang^3
#
#
#
# Elastic Constant Matrix: (Units=GPa)
#
#
# Indices 1 2 3 4 5 6 
#
# 1 -7213.7263-3872.7153-7208.1429 0.0000 -5.5591 0.0000
# 2 -3872.7153-2033.1214-3865.6961 0.0000 -0.0444 0.0000
# 3 -7208.1429-3865.6961-7186.4379 0.0000 1.3295 0.0000
# 4 0.0000 0.0000 0.0000 46.4086 0.0000 -4.7432
# 5 -5.5591 -0.0444 1.3295 0.0000 28.1154 0.0000
# 6 0.0000 0.0000 0.0000 -4.7432 0.0000 35.4577
#
#
#
# Elastic Compliance Matrix: (Units=1/GPa)
#
#
# Indices 1 2 3 4 5 6 
#
# 1 0.071095 -0.006867 -0.067613 0.000000 0.017244 0.000000
# 2 -0.006867 0.022273 -0.005093 0.000000 -0.001082 0.000000
# 3 -0.067613 -0.005093 0.070414 0.000000 -0.016706 0.000000
# 4 0.000000 0.000000 0.000000 0.021846 0.000000 0.002922
# 5 0.017244 -0.001082 -0.016706 0.000000 0.039765 0.000000
# 6 0.000000 0.000000 0.000000 0.002922 0.000000 0.028594
#
#
# Mechanical properties :
#
#
# Convention : Reuss Voigt Hill
#
# Bulk Modulus (GPa) = 215.69263 -5147.37713 -2465.84225
# Shear Modulus (GPa) = 12.05752 -77.11907 -32.53078
#
# Velocity S-wave (km/s) = 2.60934 -6.59906 -4.28596
# Velocity P-wave (km/s) = 11.44008 54.44890 37.64178
#
# Compressibility (1/GPa) = 0.00463623
#
# Stress axis : x y z
#
# Youngs Moduli (GPa) = 14.06566 44.89755 14.20169
#
# Poissons Ratio (x) = 0.30833 0.96021
# Poissons Ratio (y) = 0.09659 0.07233
# Poissons Ratio (z) = 0.95102 0.22866
#
# Static dielectric constant tensor:
#      x y z
#    x 3.793860 0.000000 0.654510 
#    y 0.000000 2.802820 0.000000 
#    z 0.654510 0.000000 3.550720 
# 
# 
# High freq. dielectric constant tensor:
#      x y z
#    x 1.670810 0.000000 0.029330 
#    y 0.000000 1.689260 0.000000 
#    z 0.029330 0.000000 1.685880 
# 
# From -- ./inp_files/28567.got.cif
#   From: 2010.06.25/outbox.cif.g09.slc.cpg/sg11_15_cif.got.tgz:28567.got - 2010.06.27 23:14:04.
