data_PCOD8074466
_publ_section_title
;
Structure prediction by ZEFSAII (Michael W. Deem and Ramdas Pophale) SiO2 
 PCOD8074466
Probable space group: P 21/M
;
_chemical_formula_sum "Si O2"
_cell_formula_units_Z 32
_cell_length_a 14.323735
_cell_length_b 8.910937
_cell_length_c 14.191852
_cell_angle_alpha 90.000000
_cell_angle_beta 73.056256
_cell_angle_gamma 90.000000
_cell_volume 1732.786991
_symmetry_space_group_name_H-M "P 21/M"
_symmetry_group_IT_number 11
_symmetry_cell_setting 'monoclinic'
loop_
_space_group_symop_operation_xyz
x,y,z
-x,1/2+y,-z
-x,-y,-z
x,1/2-y,z
loop_
_atom_site_type_symbol
_atom_site_label
_atom_site_fract_x
_atom_site_fract_y
_atom_site_fract_z
Si Si1 0.763103 0.576240 0.327127
Si Si2 0.919463 0.074896 0.396589
Si Si3 0.554183 0.918333 0.687434
Si Si4 0.601155 0.073303 0.498707
Si Si5 0.396778 0.073130 0.005165
Si Si6 0.364402 0.077038 0.804010
Si Si7 0.880094 0.424924 0.619838
Si Si8 0.715023 0.919127 0.784776
O O1 0.756705 0.750000 0.357530
O O2 0.868838 0.512726 0.324656
O O3 0.686865 0.480652 0.407901
O O4 0.737971 0.554911 0.222863
O O5 0.917307 0.250000 0.373960
O O6 0.865390 0.041109 0.512564
O O7 0.030220 0.020727 0.367697
O O8 0.545609 0.750000 0.649348
O O9 0.607131 0.920797 0.771807
O O10 0.621405 0.018756 0.599043
O O11 0.445650 0.982253 0.726061
O O12 0.594472 0.250000 0.496481
O O13 0.500000 0.000000 0.500000
O O14 0.413442 0.250000 0.006028
O O15 0.308696 0.025746 0.102008
O O16 0.357011 0.022623 0.914182
O O17 0.500000 0.000000 0.000000
O O18 0.397205 0.250000 0.790519
O O19 0.902267 0.250000 0.628225
O O20 0.786338 0.469857 0.708612
O O21 0.758699 0.750000 0.769151
#
# Coordination Sequence:
#
# PCOD8074466 Si02
#       8
#     4   4   4   4   4   4   4   4
#     4  11  22  36  54  79 109 147 187 227 274 328
#     4  10  21  38  60  85 113 146 180 223 277 333
#     4  11  21  33  51  76 107 144 184 225 271 327
#     4  12  23  34  48  71 105 145 184 223 267 320
#     4  10  20  36  55  79 109 147 190 234 282 330
#     4  10  21  35  53  75 107 147 186 227 274 324
#     4  10  21  37  59  86 112 142 181 226 277 333
#     4  10  21  35  54  81 112 144 182 230 282 331
#
# _framework density 18.467359999999999
#
# number of rings (size 3 to 8) (size 9 to 14) (size 15 to 20)
#    0.000    1.500    2.500    3.375    0.000    5.500 
#    0.000    0.000    0.000    0.750    0.000    0.000 
#    0.000    0.000    0.000    0.000    0.000    0.000 
#
# Total GULP energy -396730.882190 kJ/mol
# GULP energy per Si atom -12397.840068 kJ/mol
# Density = 1.842533 g / cm^3
# Si number density = 18.467360 Si / 1000 Ang^3
#
#
#
# Elastic Constant Matrix: (Units=GPa)
#
#
# Indices 1 2 3 4 5 6 
#
# 1 83.1248 36.4898 40.1868 0.0000 17.7747 0.0000
# 2 36.4898 100.8848 33.6688 0.0000 9.8063 0.0000
# 3 40.1868 33.6688 92.9672 0.0000 14.0251 0.0000
# 4 0.0000 0.0000 0.0000 23.4886 0.0000 -2.7380
# 5 17.7747 9.8063 14.0251 0.0000 28.2500 0.0000
# 6 0.0000 0.0000 0.0000 -2.7380 0.0000 32.2696
#
#
#
# Elastic Compliance Matrix: (Units=1/GPa)
#
#
# Indices 1 2 3 4 5 6 
#
# 1 0.017847 -0.004026 -0.005160 0.000000 -0.007270 0.000000
# 2 -0.004026 0.012293 -0.002648 0.000000 -0.000419 0.000000
# 3 -0.005160 -0.002648 0.014396 0.000000 -0.002981 0.000000
# 4 0.000000 0.000000 0.000000 0.042999 0.000000 0.003648
# 5 -0.007270 -0.000419 -0.002981 0.000000 0.041598 0.000000
# 6 0.000000 0.000000 0.000000 0.003648 0.000000 0.031298
#
#
# Mechanical properties :
#
#
# Convention : Reuss Voigt Hill
#
# Bulk Modulus (GPa) = 47.92335 55.29638 51.60986
# Shear Modulus (GPa) = 26.17046 27.91042 27.04044
#
# Velocity S-wave (km/s) = 3.76855 3.89181 3.83068
# Velocity P-wave (km/s) = 6.70392 7.08539 6.89729
#
# Compressibility (1/GPa) = 0.02086666
#
# Stress axis : x y z
#
# Youngs Moduli (GPa) = 56.03336 81.34544 69.46531
#
# Poissons Ratio (x) = 0.32754 0.35841
# Poissons Ratio (y) = 0.22562 0.18397
# Poissons Ratio (z) = 0.28911 0.21543
#
# Static dielectric constant tensor:
#      x y z
#    x 3.404570 0.000000 0.293430 
#    y 0.000000 3.373890 0.000000 
#    z 0.293430 0.000000 3.573230 
# 
# 
# High freq. dielectric constant tensor:
#      x y z
#    x 1.706530 0.000000 0.018140 
#    y 0.000000 1.725740 0.000000 
#    z 0.018140 0.000000 1.701940 
# 
# From -- ./inp_files/51611.got.cif
#   From: 2010.06.25/outbox.cif.g09.slc.cpg/sg11_26_cif.got.tgz:51611.got - 2010.06.27 23:14:04.
