data_PCOD8074916
_publ_section_title
;
Structure prediction by ZEFSAII (Michael W. Deem and Ramdas Pophale) SiO2 
 PCOD8074916
Probable space group: P 21/M
;
_chemical_formula_sum "Si O2"
_cell_formula_units_Z 28
_cell_length_a 9.826637
_cell_length_b 8.828095
_cell_length_c 28.239987
_cell_angle_alpha 90.000000
_cell_angle_beta 142.676578
_cell_angle_gamma 90.000000
_cell_volume 1485.366637
_symmetry_space_group_name_H-M "P 21/M"
_symmetry_group_IT_number 11
_symmetry_cell_setting 'monoclinic'
loop_
_space_group_symop_operation_xyz
x,y,z
-x,1/2+y,-z
-x,-y,-z
x,1/2-y,z
loop_
_atom_site_type_symbol
_atom_site_label
_atom_site_fract_x
_atom_site_fract_y
_atom_site_fract_z
Si Si1 0.231071 0.071066 0.049247
Si Si2 0.367501 0.569737 0.507770
Si Si3 0.857042 0.571711 0.373447
Si Si4 0.470564 0.071861 0.634791
Si Si5 0.711839 0.071317 0.035018
Si Si6 0.483602 0.921696 0.785595
Si Si7 0.182926 0.078515 0.206405
O O1 0.205120 0.250000 0.044055
O O2 0.433449 0.020668 0.140286
O O3 0.286681 0.014134 0.013493
O O4 0.000000 0.000000 0.000000
O O5 0.500000 0.500000 0.500000
O O6 0.379907 0.750000 0.507099
O O7 0.475837 0.516222 0.586819
O O8 0.110111 0.510054 0.438375
O O9 0.857175 0.750000 0.375701
O O10 0.733018 0.512237 0.387255
O O11 0.722971 0.521943 0.289662
O O12 0.451175 0.250000 0.619863
O O13 0.706961 0.035500 0.725426
O O14 0.691744 0.250000 0.021288
O O15 0.925548 0.032645 0.126933
O O16 0.500000 0.000000 0.000000
O O17 0.395602 0.750000 0.763243
O O18 0.697582 0.936808 0.810938
O O19 0.204436 0.250000 0.231784
#
# Coordination Sequence:
#
# PCOD8074916 Si02
#       7
#     4   4   4   4   4   4   4
#     4  11  21  36  59  87 117 154 196 242 291 344
#     4  11  23  40  59  83 117 153 187 228 281 338
#     4   9  20  37  59  87 115 144 186 235 279 331
#     4  10  20  36  61  90 113 142 187 234 283 339
#     4  11  23  40  58  83 117 156 199 243 292 348
#     4   9  18  34  57  86 115 146 187 233 285 337
#     4   9  18  36  58  82 115 150 188 234 283 338
#
# _framework density 18.850565
#
# number of rings (size 3 to 8) (size 9 to 14) (size 15 to 20)
#    0.000    2.000    1.429    2.143    0.000    4.000 
#    2.571    0.000    0.000    0.000    0.000    0.000 
#    0.000    0.000    0.000    0.000    0.000    0.000 
#
# Total GULP energy -347171.272741 kJ/mol
# GULP energy per Si atom -12398.974026 kJ/mol
# Density = 1.880766 g / cm^3
# Si number density = 18.850565 Si / 1000 Ang^3
#
#
#
# Elastic Constant Matrix: (Units=GPa)
#
#
# Indices 1 2 3 4 5 6 
#
# 1 112.7821 29.3329 64.2495 0.0000 -6.2724 0.0000
# 2 29.3329 48.9621 38.0474 0.0000 -5.9907 0.0000
# 3 64.2495 38.0474 123.3841 0.0000 -4.4845 0.0000
# 4 0.0000 0.0000 0.0000 36.2469 0.0000 -3.2610
# 5 -6.2724 -5.9907 -4.4845 0.0000 28.9174 0.0000
# 6 0.0000 0.0000 0.0000 -3.2610 0.0000 31.8524
#
#
#
# Elastic Compliance Matrix: (Units=1/GPa)
#
#
# Indices 1 2 3 4 5 6 
#
# 1 0.013051 -0.003179 -0.005769 0.000000 0.001278 0.000000
# 2 -0.003179 0.028178 -0.006885 0.000000 0.004080 0.000000
# 3 -0.005769 -0.006885 0.013209 0.000000 -0.000629 0.000000
# 4 0.000000 0.000000 0.000000 0.027845 0.000000 0.002851
# 5 0.001278 0.004080 -0.000629 0.000000 0.035606 0.000000
# 6 0.000000 0.000000 0.000000 0.002851 0.000000 0.031687
#
#
# Mechanical properties :
#
#
# Convention : Reuss Voigt Hill
#
# Bulk Modulus (GPa) = 43.91575 60.93202 52.42388
# Shear Modulus (GPa) = 26.47812 29.63657 28.05734
#
# Velocity S-wave (km/s) = 3.75191 3.96938 3.86218
# Velocity P-wave (km/s) = 6.48972 7.30766 6.91080
#
# Compressibility (1/GPa) = 0.02277087
#
# Stress axis : x y z
#
# Youngs Moduli (GPa) = 76.62092 35.48818 75.70401
#
# Poissons Ratio (x) = 0.11283 0.43676
# Poissons Ratio (y) = 0.24361 0.52125
# Poissons Ratio (z) = 0.44205 0.24435
#
# Static dielectric constant tensor:
#      x y z
#    x 3.501630 0.000000 0.032340 
#    y 0.000000 3.487460 0.000000 
#    z 0.032340 0.000000 3.634720 
# 
# 
# High freq. dielectric constant tensor:
#      x y z
#    x 1.719910 0.000000 -0.003700 
#    y 0.000000 1.733790 0.000000 
#    z -0.003700 0.000000 1.744670 
# 
# From -- ./inp_files/70634.got.cif
#   From: 2010.06.25/outbox.cif.g09.slc.cpg/sg11_36_cif.got.tgz:70634.got - 2010.06.27 23:14:04.
