data_PCOD8074061
_publ_section_title
;
Structure prediction by ZEFSAII (Michael W. Deem and Ramdas Pophale) SiO2 
 PCOD8074061
Probable space group: P 21/M
;
_chemical_formula_sum "Si O2"
_cell_formula_units_Z 24
_cell_length_a 15.758130
_cell_length_b 8.926918
_cell_length_c 15.789586
_cell_angle_alpha 90.000000
_cell_angle_beta 143.533921
_cell_angle_gamma 90.000000
_cell_volume 1320.130534
_symmetry_space_group_name_H-M "P 21/M"
_symmetry_group_IT_number 11
_symmetry_cell_setting 'monoclinic'
loop_
_space_group_symop_operation_xyz
x,y,z
-x,1/2+y,-z
-x,-y,-z
x,1/2-y,z
loop_
_atom_site_type_symbol
_atom_site_label
_atom_site_fract_x
_atom_site_fract_y
_atom_site_fract_z
Si Si1 0.889502 0.421958 0.803325
Si Si2 0.206448 0.077014 0.110839
Si Si3 0.561836 0.578095 0.131017
Si Si4 0.869622 0.924682 0.442319
Si Si5 0.526231 0.427578 0.756713
Si Si6 0.757738 0.073985 0.517792
O O1 0.854997 0.250000 0.798645
O O2 0.805295 0.526937 0.801157
O O3 0.838830 0.463775 0.669346
O O4 0.058295 0.452127 0.943630
O O5 0.252515 0.250000 0.144744
O O6 0.322143 0.976402 0.156806
O O7 0.526105 0.750000 0.090802
O O8 0.730695 0.548775 0.272962
O O9 0.485677 0.518761 0.155277
O O10 0.500000 0.500000 0.000000
O O11 0.899649 0.750000 0.480175
O O12 0.849687 0.998961 0.517651
O O13 0.000000 0.000000 0.500000
O O14 0.505774 0.250000 0.733026
O O15 0.400558 0.505516 0.602420
O O16 0.747031 0.250000 0.492234
#
# Coordination Sequence:
#
# PCOD8074061 Si02
#       6
#     4   4   4   4   4   4
#     4   9  20  37  55  78 108 138 173 219 265 312
#     4  10  20  35  56  80 105 138 177 216 262 313
#     4   9  20  36  54  77 105 137 174 216 260 308
#     4  10  21  37  55  79 109 140 176 217 261 311
#     4  10  21  37  54  77 109 141 175 216 261 311
#     4  10  20  36  57  80 106 138 176 218 264 311
#
# _framework density 18.180022000000001
#
# number of rings (size 3 to 8) (size 9 to 14) (size 15 to 20)
#    0.000    2.333    0.000    3.000    0.000    8.000 
#    0.000    5.000    0.000    0.000    0.000    0.000 
#    0.000    0.000    0.000    0.000    0.000    0.000 
#
# Total GULP energy -297666.294272 kJ/mol
# GULP energy per Si atom -12402.762261 kJ/mol
# Density = 1.813864 g / cm^3
# Si number density = 18.180022 Si / 1000 Ang^3
#
#
#
# Elastic Constant Matrix: (Units=GPa)
#
#
# Indices 1 2 3 4 5 6 
#
# 1 112.2790 55.0073 65.9747 0.0000 7.4182 0.0000
# 2 55.0073 96.1223 59.8671 0.0000 -5.6084 0.0000
# 3 65.9747 59.8671 115.9225 0.0000 -18.0414 0.0000
# 4 0.0000 0.0000 0.0000 31.1017 0.0000 0.7802
# 5 7.4182 -5.6084 -18.0414 0.0000 27.2114 0.0000
# 6 0.0000 0.0000 0.0000 0.7802 0.0000 38.9402
#
#
#
# Elastic Compliance Matrix: (Units=1/GPa)
#
#
# Indices 1 2 3 4 5 6 
#
# 1 0.017617 -0.004973 -0.009328 0.000000 -0.012012 0.000000
# 2 -0.004973 0.016874 -0.005722 0.000000 0.001040 0.000000
# 3 -0.009328 -0.005722 0.019070 0.000000 0.014007 0.000000
# 4 0.000000 0.000000 0.000000 0.032169 0.000000 -0.000645
# 5 -0.012012 0.001040 0.014007 0.000000 0.049525 0.000000
# 6 0.000000 0.000000 0.000000 -0.000645 0.000000 0.025693
#
#
# Mechanical properties :
#
#
# Convention : Reuss Voigt Hill
#
# Bulk Modulus (GPa) = 73.98917 76.22465 75.10691
# Shear Modulus (GPa) = 24.33092 29.01563 26.67328
#
# Velocity S-wave (km/s) = 3.66229 3.99935 3.83453
# Velocity P-wave (km/s) = 7.65961 7.95897 7.81072
#
# Compressibility (1/GPa) = 0.01351549
#
# Stress axis : x y z
#
# Youngs Moduli (GPa) = 56.76241 59.26289 52.43779
#
# Poissons Ratio (x) = 0.29472 0.48912
# Poissons Ratio (y) = 0.28229 0.30006
# Poissons Ratio (z) = 0.52946 0.33912
#
# Static dielectric constant tensor:
#      x y z
#    x 3.400330 0.000000 0.020020 
#    y 0.000000 3.457370 0.000000 
#    z 0.020020 0.000000 3.359970 
# 
# 
# High freq. dielectric constant tensor:
#      x y z
#    x 1.707720 0.000000 0.000280 
#    y 0.000000 1.716460 0.000000 
#    z 0.000280 0.000000 1.705350 
# 
# From -- ./inp_files/25720.got.cif
#   From: 2010.06.25/outbox.cif.g09.slc.cpg/sg11_13_cif.got.tgz:25720.got - 2010.06.27 23:14:04.
