data_PCOD8074442
_publ_section_title
;
Structure prediction by ZEFSAII (Michael W. Deem and Ramdas Pophale) SiO2 
 PCOD8074442
Probable space group: P 21/M
;
_chemical_formula_sum "Si O2"
_cell_formula_units_Z 28
_cell_length_a 9.412871
_cell_length_b 9.416943
_cell_length_c 28.371795
_cell_angle_alpha 90.000000
_cell_angle_beta 140.403565
_cell_angle_gamma 90.000000
_cell_volume 1602.930157
_symmetry_space_group_name_H-M "P 21/M"
_symmetry_group_IT_number 11
_symmetry_cell_setting 'monoclinic'
loop_
_space_group_symop_operation_xyz
x,y,z
-x,1/2+y,-z
-x,-y,-z
x,1/2-y,z
loop_
_atom_site_type_symbol
_atom_site_label
_atom_site_fract_x
_atom_site_fract_y
_atom_site_fract_z
Si Si1 0.624948 0.585746 0.490854
Si Si2 0.849854 0.412141 0.898596
Si Si3 0.086350 0.587797 0.189787
Si Si4 0.299425 0.407722 0.061165
Si Si5 0.649083 0.088496 0.073895
Si Si6 0.481136 0.085436 0.642980
Si Si7 0.082549 0.917461 0.566640
O O1 0.500000 0.500000 0.500000
O O2 0.572262 0.750000 0.486904
O O3 0.533424 0.540608 0.415740
O O4 0.895238 0.559535 0.559822
O O5 0.812607 0.250000 0.901934
O O6 0.798697 0.442243 0.831116
O O7 0.676225 0.498235 0.885952
O O8 0.102698 0.461763 0.975792
O O9 0.996293 0.750000 0.168035
O O10 0.265417 0.560214 0.276331
O O11 0.885955 0.479957 0.144708
O O12 0.241124 0.250000 0.063174
O O13 0.532730 0.413030 0.094646
O O14 0.674984 0.250000 0.061717
O O15 0.500000 0.000000 0.000000
O O16 0.409921 0.250000 0.630784
O O17 0.323746 0.989776 0.637439
O O18 0.110722 0.750000 0.563743
O O19 0.000000 0.000000 0.500000
#
# Coordination Sequence:
#
# PCOD8074442 Si02
#       7
#     4   4   4   4   4   4   4
#     4   9  18  32  52  80 106 136 172 208 250 301
#     4   9  17  31  50  71  94 125 164 206 257 307
#     4  10  20  36  54  75 104 135 172 220 264 311
#     4   9  18  32  48  70  97 123 163 213 255 303
#     4  11  21  34  52  75 102 135 176 219 263 313
#     4   9  19  35  54  76 105 138 174 215 260 306
#     4   9  17  31  52  77 104 132 171 210 246 297
#
# _framework density 17.468011000000001
#
# number of rings (size 3 to 8) (size 9 to 14) (size 15 to 20)
#    0.000    2.571    1.429    1.714    0.000    5.143 
#    0.000    1.429    0.000    8.571    0.000    0.000 
#    0.000    0.000    0.000    0.000    0.000    0.000 
#
# Total GULP energy -347013.518753 kJ/mol
# GULP energy per Si atom -12393.339955 kJ/mol
# Density = 1.742825 g / cm^3
# Si number density = 17.468011 Si / 1000 Ang^3
#
#
#
# Elastic Constant Matrix: (Units=GPa)
#
#
# Indices 1 2 3 4 5 6 
#
# 1 106.3327 67.1724 41.7455 0.0000 4.4429 0.0000
# 2 67.1724 103.3822 48.3352 0.0000 9.9565 0.0000
# 3 41.7455 48.3352 81.8157 0.0000 4.3641 0.0000
# 4 0.0000 0.0000 0.0000 24.7678 0.0000 4.2668
# 5 4.4429 9.9565 4.3641 0.0000 21.0573 0.0000
# 6 0.0000 0.0000 0.0000 4.2668 0.0000 36.9501
#
#
#
# Elastic Compliance Matrix: (Units=1/GPa)
#
#
# Indices 1 2 3 4 5 6 
#
# 1 0.016478 -0.009521 -0.002869 0.000000 0.001620 0.000000
# 2 -0.009521 0.019349 -0.006262 0.000000 -0.005842 0.000000
# 3 -0.002869 -0.006262 0.017388 0.000000 -0.000038 0.000000
# 4 0.000000 0.000000 0.000000 0.041194 0.000000 -0.004757
# 5 0.001620 -0.005842 -0.000038 0.000000 0.049918 0.000000
# 6 0.000000 0.000000 0.000000 -0.004757 0.000000 0.027613
#
#
# Mechanical properties :
#
#
# Convention : Reuss Voigt Hill
#
# Bulk Modulus (GPa) = 62.84813 67.33740 65.09277
# Shear Modulus (GPa) = 23.30489 25.50688 24.40588
#
# Velocity S-wave (km/s) = 3.65656 3.82541 3.74194
# Velocity P-wave (km/s) = 7.34059 7.62524 7.48427
#
# Compressibility (1/GPa) = 0.01591137
#
# Stress axis : x y z
#
# Youngs Moduli (GPa) = 60.68801 51.68156 57.51153
#
# Poissons Ratio (x) = 0.49206 0.16501
# Poissons Ratio (y) = 0.57781 0.36012
# Poissons Ratio (z) = 0.17412 0.32361
#
# Static dielectric constant tensor:
#      x y z
#    x 3.309940 0.000000 0.196950 
#    y 0.000000 3.480350 0.000000 
#    z 0.196950 0.000000 3.246320 
# 
# 
# High freq. dielectric constant tensor:
#      x y z
#    x 1.669010 0.000000 0.008770 
#    y 0.000000 1.681980 0.000000 
#    z 0.008770 0.000000 1.649300 
# 
# From -- ./inp_files/25571.got.cif
#   From: 2010.06.25/outbox.cif.g09.slc.cpg/sg11_13_cif.got.tgz:25571.got - 2010.06.27 23:14:04.
