data_PCOD8074432
_publ_section_title
;
Structure prediction by ZEFSAII (Michael W. Deem and Ramdas Pophale) SiO2 
 PCOD8074432
Probable space group: P 21/M
;
_chemical_formula_sum "Si O2"
_cell_formula_units_Z 28
_cell_length_a 7.762429
_cell_length_b 13.749944
_cell_length_c 13.759406
_cell_angle_alpha 90.000000
_cell_angle_beta 119.275772
_cell_angle_gamma 90.000000
_cell_volume 1281.009192
_symmetry_space_group_name_H-M "P 21/M"
_symmetry_group_IT_number 11
_symmetry_cell_setting 'monoclinic'
loop_
_space_group_symop_operation_xyz
x,y,z
-x,1/2+y,-z
-x,-y,-z
x,1/2-y,z
loop_
_atom_site_type_symbol
_atom_site_label
_atom_site_fract_x
_atom_site_fract_y
_atom_site_fract_z
Si Si1 0.069772 0.022187 0.626365
Si Si2 0.164522 0.634805 0.287455
Si Si3 0.585755 0.365764 0.973376
Si Si4 0.487622 0.949026 0.250968
Si Si5 0.176219 0.363059 0.944175
Si Si6 0.281251 0.359044 0.185048
Si Si7 0.085986 0.861135 0.786431
O O1 0.281073 0.077521 0.681574
O O2 0.903423 0.091075 0.628284
O O3 0.000000 0.000000 0.500000
O O4 0.098812 0.921970 0.691872
O O5 0.168155 0.750000 0.296715
O O6 0.380712 0.597776 0.315498
O O7 0.008874 0.591648 0.164906
O O8 0.588844 0.250000 0.967868
O O9 0.615710 0.406187 0.873575
O O10 0.382607 0.407638 0.962764
O O11 0.763113 0.402856 0.090949
O O12 0.461305 0.066041 0.245975
O O13 0.176449 0.250000 0.918677
O O14 0.154493 0.381372 0.052788
O O15 0.371707 0.250000 0.203314
O O16 0.136393 0.369102 0.235798
O O17 0.140712 0.750000 0.776511
#
# Coordination Sequence:
#
# PCOD8074432 Si02
#       7
#     4   4   4   4   4   4   4
#     4  12  28  47  70  96 130 177 236 282 328 388
#     4  11  24  44  67  99 136 172 220 279 335 391
#     4  10  20  35  63 103 139 173 216 265 329 409
#     4  12  24  40  72  98 134 175 219 267 338 405
#     4   9  18  34  58  94 138 171 206 260 324 396
#     4  10  21  37  61  98 138 174 214 267 332 407
#     4  10  22  43  66  96 137 176 220 275 337 398
#
# _framework density 21.857768
#
# number of rings (size 3 to 8) (size 9 to 14) (size 15 to 20)
#    0.000    1.429    2.857    2.143    2.000    8.000 
#    0.000    0.000    0.000    0.000    0.000    0.000 
#    0.000    0.000    0.000    0.000    0.000    0.000 
#
# Total GULP energy -347321.446026 kJ/mol
# GULP energy per Si atom -12404.337358 kJ/mol
# Density = 2.180802 g / cm^3
# Si number density = 21.857768 Si / 1000 Ang^3
#
#
#
# Elastic Constant Matrix: (Units=GPa)
#
#
# Indices 1 2 3 4 5 6 
#
# 1 128.4091 39.3219 42.3038 0.0000 -20.2229 0.0000
# 2 39.3219 81.5375 39.1678 0.0000 -13.1350 0.0000
# 3 42.3038 39.1678 105.6385 0.0000 -22.4826 0.0000
# 4 0.0000 0.0000 0.0000 17.3064 0.0000 -3.6254
# 5 -20.2229 -13.1350 -22.4826 0.0000 23.6468 0.0000
# 6 0.0000 0.0000 0.0000 -3.6254 0.0000 35.5922
#
#
#
# Elastic Compliance Matrix: (Units=1/GPa)
#
#
# Indices 1 2 3 4 5 6 
#
# 1 0.010180 -0.003216 -0.001770 0.000000 0.005237 0.000000
# 2 -0.003216 0.016215 -0.004253 0.000000 0.002213 0.000000
# 3 -0.001770 -0.004253 0.013699 0.000000 0.009148 0.000000
# 4 0.000000 0.000000 0.000000 0.059042 0.000000 0.006014
# 5 0.005237 0.002213 0.009148 0.000000 0.056695 0.000000
# 6 0.000000 0.000000 0.000000 0.006014 0.000000 0.028709
#
#
# Mechanical properties :
#
#
# Convention : Reuss Voigt Hill
#
# Bulk Modulus (GPa) = 46.26122 61.90801 54.08461
# Shear Modulus (GPa) = 23.78432 28.29518 26.03975
#
# Velocity S-wave (km/s) = 3.30228 3.60184 3.45530
# Velocity P-wave (km/s) = 5.97918 6.75886 6.38094
#
# Compressibility (1/GPa) = 0.02161638
#
# Stress axis : x y z
#
# Youngs Moduli (GPa) = 98.23005 61.67276 72.99789
#
# Poissons Ratio (x) = 0.19831 0.12920
# Poissons Ratio (y) = 0.31587 0.31048
# Poissons Ratio (z) = 0.17385 0.26231
#
# Static dielectric constant tensor:
#      x y z
#    x 4.074710 0.000000 0.006210 
#    y 0.000000 3.986870 0.000000 
#    z 0.006210 0.000000 3.520920 
# 
# 
# High freq. dielectric constant tensor:
#      x y z
#    x 1.872940 0.000000 -0.005660 
#    y 0.000000 1.870810 0.000000 
#    z -0.005660 0.000000 1.811990 
# 
# From -- ./inp_files/47679.got.cif
#   From: 2010.06.25/outbox.cif.g09.slc.cpg/sg11_24_cif.got.tgz:47679.got - 2010.06.27 23:14:04.
