data_PCOD8074391
_publ_section_title
;
Structure prediction by ZEFSAII (Michael W. Deem and Ramdas Pophale) SiO2 
 PCOD8074391
Probable space group: P 21/M
;
_chemical_formula_sum "Si O2"
_cell_formula_units_Z 28
_cell_length_a 14.985617
_cell_length_b 9.048281
_cell_length_c 11.459490
_cell_angle_alpha 90.000000
_cell_angle_beta 63.620425
_cell_angle_gamma 90.000000
_cell_volume 1392.038006
_symmetry_space_group_name_H-M "P 21/M"
_symmetry_group_IT_number 11
_symmetry_cell_setting 'monoclinic'
loop_
_space_group_symop_operation_xyz
x,y,z
-x,1/2+y,-z
-x,-y,-z
x,1/2-y,z
loop_
_atom_site_type_symbol
_atom_site_label
_atom_site_fract_x
_atom_site_fract_y
_atom_site_fract_z
Si Si1 0.533456 0.579458 0.809855
Si Si2 0.646094 0.577789 0.977988
Si Si3 0.102601 0.582431 0.452463
Si Si4 0.411400 0.423052 0.483524
Si Si5 0.844859 0.419051 0.835825
Si Si6 0.788929 0.078896 0.383558
Si Si7 0.015174 0.921640 0.869281
O O1 0.500037 0.750000 0.836077
O O2 0.613238 0.543360 0.864350
O O3 0.581962 0.540191 0.657813
O O4 0.436279 0.479021 0.883440
O O5 0.663600 0.750000 0.988826
O O6 0.747850 0.493164 0.948272
O O7 0.075503 0.750000 0.501158
O O8 0.165443 0.571289 0.297581
O O9 0.168331 0.515606 0.518930
O O10 0.000000 0.500000 0.500000
O O11 0.500000 0.500000 0.500000
O O12 0.416513 0.250000 0.504998
O O13 0.307928 0.485279 0.593917
O O14 0.852136 0.250000 0.874839
O O15 0.943776 0.505294 0.815203
O O16 0.758151 0.250000 0.413310
O O17 0.870729 0.055996 0.235430
O O18 0.988010 0.750000 0.895824
O O19 0.000000 0.000000 0.000000
#
# Coordination Sequence:
#
# PCOD8074391 Si02
#       7
#     4   4   4   4   4   4   4
#     4   9  20  39  59  85 119 153 193 244 301 354
#     4  10  20  35  60  89 118 154 194 241 297 356
#     4  10  20  35  59  90 122 155 193 241 296 353
#     4  11  24  41  63  88 117 156 200 248 297 353
#     4  11  22  36  58  89 122 157 196 240 294 356
#     4  10  22  41  63  89 121 156 194 246 303 352
#     4  11  24  42  62  84 118 159 200 245 292 349
#
# _framework density 20.114393
#
# number of rings (size 3 to 8) (size 9 to 14) (size 15 to 20)
#    0.000    1.714    1.429    2.571    0.000    5.143 
#    0.000    1.429    0.000    0.000    0.000    0.000 
#    0.000    0.000    0.000    0.000    0.000    0.000 
#
# Total GULP energy -347341.336962 kJ/mol
# GULP energy per Si atom -12405.047749 kJ/mol
# Density = 2.006861 g / cm^3
# Si number density = 20.114393 Si / 1000 Ang^3
#
#
#
# Elastic Constant Matrix: (Units=GPa)
#
#
# Indices 1 2 3 4 5 6 
#
# 1 113.3845 60.0402 36.5312 0.0000 -19.2879 0.0000
# 2 60.0402 119.4402 51.1046 0.0000 -16.8785 0.0000
# 3 36.5312 51.1046 88.4879 0.0000 -6.1070 0.0000
# 4 0.0000 0.0000 0.0000 33.9313 0.0000 -4.2210
# 5 -19.2879 -16.8785 -6.1070 0.0000 35.0047 0.0000
# 6 0.0000 0.0000 0.0000 -4.2210 0.0000 39.8845
#
#
#
# Elastic Compliance Matrix: (Units=1/GPa)
#
#
# Indices 1 2 3 4 5 6 
#
# 1 0.012864 -0.004927 -0.002166 0.000000 0.004334 0.000000
# 2 -0.004927 0.013684 -0.005669 0.000000 0.002894 0.000000
# 3 -0.002166 -0.005669 0.015383 0.000000 -0.001243 0.000000
# 4 0.000000 0.000000 0.000000 0.029865 0.000000 0.003161
# 5 0.004334 0.002894 -0.001243 0.000000 0.032134 0.000000
# 6 0.000000 0.000000 0.000000 0.003161 0.000000 0.025407
#
#
# Mechanical properties :
#
#
# Convention : Reuss Voigt Hill
#
# Bulk Modulus (GPa) = 60.95025 68.51829 64.73427
# Shear Modulus (GPa) = 31.18577 33.33987 32.26282
#
# Velocity S-wave (km/s) = 3.94181 4.07567 4.00930
# Velocity P-wave (km/s) = 7.14736 7.50243 7.32704
#
# Compressibility (1/GPa) = 0.01640682
#
# Stress axis : x y z
#
# Youngs Moduli (GPa) = 77.73774 73.07989 65.00531
#
# Poissons Ratio (x) = 0.36007 0.14080
# Poissons Ratio (y) = 0.38302 0.36851
# Poissons Ratio (z) = 0.16838 0.41428
#
# Static dielectric constant tensor:
#      x y z
#    x 3.665180 0.000000 0.091310 
#    y 0.000000 3.636660 0.000000 
#    z 0.091310 0.000000 3.662660 
# 
# 
# High freq. dielectric constant tensor:
#      x y z
#    x 1.783980 0.000000 -0.005050 
#    y 0.000000 1.790450 0.000000 
#    z -0.005050 0.000000 1.786600 
# 
# From -- ./inp_files/37854.got.cif
#   From: 2010.06.25/outbox.cif.g09.slc.cpg/sg11_19_cif.got.tgz:37854.got - 2010.06.27 23:14:04.
