data_PCOD8074899
_publ_section_title
;
Structure prediction by ZEFSAII (Michael W. Deem and Ramdas Pophale) SiO2 
 PCOD8074899
Probable space group: P 21/M
;
_chemical_formula_sum "Si O2"
_cell_formula_units_Z 28
_cell_length_a 9.458110
_cell_length_b 8.691968
_cell_length_c 27.479649
_cell_angle_alpha 90.000000
_cell_angle_beta 38.547705
_cell_angle_gamma 90.000000
_cell_volume 1407.788554
_symmetry_space_group_name_H-M "P 21/M"
_symmetry_group_IT_number 11
_symmetry_cell_setting 'monoclinic'
loop_
_space_group_symop_operation_xyz
x,y,z
-x,1/2+y,-z
-x,-y,-z
x,1/2-y,z
loop_
_atom_site_type_symbol
_atom_site_label
_atom_site_fract_x
_atom_site_fract_y
_atom_site_fract_z
Si Si1 0.668152 0.068448 0.796071
Si Si2 0.212076 0.432207 0.968744
Si Si3 0.683791 0.067948 0.487689
Si Si4 0.173937 0.568211 0.350945
Si Si5 0.034149 0.432458 0.771860
Si Si6 0.541833 0.067213 0.632752
Si Si7 0.255873 0.932340 0.058330
O O1 0.663043 0.250000 0.804472
O O2 0.442344 0.000209 0.882322
O O3 0.675065 0.025574 0.737085
O O4 0.892047 0.004322 0.763644
O O5 0.216782 0.250000 0.965752
O O6 0.162715 0.491720 0.035444
O O7 0.000000 0.500000 0.000000
O O8 0.666155 0.250000 0.488868
O O9 0.639881 0.011228 0.554745
O O10 0.500000 0.000000 0.500000
O O11 0.934209 0.012951 0.407002
O O12 0.132405 0.750000 0.365669
O O13 0.302455 0.504716 0.364568
O O14 0.051559 0.250000 0.764159
O O15 0.907457 0.485775 0.854459
O O16 0.287742 0.501988 0.704721
O O17 0.535812 0.250000 0.638017
O O18 0.267069 0.750000 0.051339
O O19 0.500000 0.000000 0.000000
#
# Coordination Sequence:
#
# PCOD8074899 Si02
#       7
#     4   4   4   4   4   4   4
#     4   9  18  34  57  83 112 150 195 236 277 343
#     4  11  23  39  58  85 117 154 200 247 299 353
#     4  11  22  38  60  86 117 151 189 233 283 337
#     4  10  20  36  61  88 114 147 189 234 282 340
#     4   9  17  32  55  83 111 146 194 236 272 334
#     4   9  19  34  58  88 114 145 189 234 277 337
#     4  11  21  36  60  86 117 155 197 247 295 345
#
# _framework density 19.889351999999999
#
# number of rings (size 3 to 8) (size 9 to 14) (size 15 to 20)
#    0.000    2.000    1.429    2.571    2.000    2.286 
#    0.000    2.143    0.000    2.571    0.000    0.000 
#    0.000    0.000    0.000    0.000    0.000    0.000 
#
# Total GULP energy -347110.583313 kJ/mol
# GULP energy per Si atom -12396.806547 kJ/mol
# Density = 1.984408 g / cm^3
# Si number density = 19.889352 Si / 1000 Ang^3
#
#
#
# Elastic Constant Matrix: (Units=GPa)
#
#
# Indices 1 2 3 4 5 6 
#
# 1 170.3272 21.0884 54.2902 0.0000 10.2981 0.0000
# 2 21.0884 36.9438 23.0101 0.0000 6.8181 0.0000
# 3 54.2902 23.0101 110.5903 0.0000 3.8400 0.0000
# 4 0.0000 0.0000 0.0000 26.3922 0.0000 -1.4615
# 5 10.2981 6.8181 3.8400 0.0000 39.4273 0.0000
# 6 0.0000 0.0000 0.0000 -1.4615 0.0000 29.6411
#
#
#
# Elastic Compliance Matrix: (Units=1/GPa)
#
#
# Indices 1 2 3 4 5 6 
#
# 1 0.007165 -0.001951 -0.003069 0.000000 -0.001235 0.000000
# 2 -0.001951 0.032547 -0.005656 0.000000 -0.004568 0.000000
# 3 -0.003069 -0.005656 0.011703 0.000000 0.000640 0.000000
# 4 0.000000 0.000000 0.000000 0.037994 0.000000 0.001873
# 5 -0.001235 -0.004568 0.000640 0.000000 0.026413 0.000000
# 6 0.000000 0.000000 0.000000 0.001873 0.000000 0.033829
#
#
# Mechanical properties :
#
#
# Convention : Reuss Voigt Hill
#
# Bulk Modulus (GPa) = 33.26070 57.18208 45.22139
# Shear Modulus (GPa) = 27.62044 33.72360 30.67202
#
# Velocity S-wave (km/s) = 3.73058 4.12219 3.93126
# Velocity P-wave (km/s) = 5.94268 7.17419 6.58728
#
# Compressibility (1/GPa) = 0.03006552
#
# Stress axis : x y z
#
# Youngs Moduli (GPa) = 139.55899 30.72447 85.44488
#
# Poissons Ratio (x) = 0.05994 0.26221
# Poissons Ratio (y) = 0.27226 0.48325
# Poissons Ratio (z) = 0.42828 0.17377
#
# Static dielectric constant tensor:
#      x y z
#    x 3.780080 0.000000 0.019490 
#    y 0.000000 3.540390 0.000000 
#    z 0.019490 0.000000 3.790650 
# 
# 
# High freq. dielectric constant tensor:
#      x y z
#    x 1.796300 0.000000 0.002670 
#    y 0.000000 1.731510 0.000000 
#    z 0.002670 0.000000 1.790600 
# 
# From -- ./inp_files/28408.got.cif
#   From: 2010.06.25/outbox.cif.g09.slc.cpg/sg11_15_cif.got.tgz:28408.got - 2010.06.27 23:14:04.
