data_PCOD8074804
_publ_section_title
;
Structure prediction by ZEFSAII (Michael W. Deem and Ramdas Pophale) SiO2 
 PCOD8074804
Probable space group: P 21/M
;
_chemical_formula_sum "Si O2"
_cell_formula_units_Z 24
_cell_length_a 21.711277
_cell_length_b 8.808813
_cell_length_c 10.982543
_cell_angle_alpha 90.000000
_cell_angle_beta 32.459796
_cell_angle_gamma 90.000000
_cell_volume 1127.310305
_symmetry_space_group_name_H-M "P 21/M"
_symmetry_group_IT_number 11
_symmetry_cell_setting 'monoclinic'
loop_
_space_group_symop_operation_xyz
x,y,z
-x,1/2+y,-z
-x,-y,-z
x,1/2-y,z
loop_
_atom_site_type_symbol
_atom_site_label
_atom_site_fract_x
_atom_site_fract_y
_atom_site_fract_z
Si Si1 0.824519 0.427804 0.339094
Si Si2 0.819115 0.574033 0.099859
Si Si3 0.378194 0.075666 0.199907
Si Si4 0.941835 0.424738 0.392170
Si Si5 0.254031 0.077357 0.151562
Si Si6 0.624897 0.428872 0.276153
O O1 0.828239 0.250000 0.306734
O O2 0.867560 0.516044 0.148000
O O3 0.695368 0.481247 0.580824
O O4 0.903056 0.475890 0.321834
O O5 0.787172 0.750000 0.163147
O O6 0.706229 0.481784 0.250779
O O7 0.920767 0.549606 0.830251
O O8 0.384403 0.250000 0.231557
O O9 0.327850 0.061033 0.149430
O O10 0.500000 0.000000 0.000000
O O11 0.908187 0.250000 0.469020
O O12 0.876316 0.521966 0.604323
O O13 0.247784 0.250000 0.114576
O O14 0.316414 0.976407 0.947507
O O15 0.500000 0.500000 0.500000
O O16 0.611066 0.250000 0.304068
#
# Coordination Sequence:
#
# PCOD8074804 Si02
#       6
#     4   4   4   4   4   4
#     4  10  20  36  59  91 128 162 202 251 304 364
#     4  11  23  40  63  92 126 165 208 253 305 365
#     4  10  21  36  58  87 120 159 203 250 304 365
#     4   9  20  39  64  94 127 163 204 251 306 364
#     4  10  22  41  64  90 122 159 204 255 306 361
#     4  12  27  46  66  88 120 162 208 256 308 366
#
# _framework density 21.289614
#
# number of rings (size 3 to 8) (size 9 to 14) (size 15 to 20)
#    0.000    1.667    0.000    4.000    2.333    4.667 
#    0.000    0.000    0.000    0.000    0.000    0.000 
#    0.000    0.000    0.000    0.000    0.000    0.000 
#
# Total GULP energy -297679.373204 kJ/mol
# GULP energy per Si atom -12403.307217 kJ/mol
# Density = 2.124116 g / cm^3
# Si number density = 21.289614 Si / 1000 Ang^3
#
#
#
# Elastic Constant Matrix: (Units=GPa)
#
#
# Indices 1 2 3 4 5 6 
#
# 1 38.1503 36.0893 26.9366 0.0000 -0.0521 0.0000
# 2 36.0893 133.2664 52.6059 0.0000 -0.3468 0.0000
# 3 26.9366 52.6059 120.6336 0.0000 -6.0827 0.0000
# 4 0.0000 0.0000 0.0000 41.7102 0.0000 2.6603
# 5 -0.0521 -0.3468 -6.0827 0.0000 37.0828 0.0000
# 6 0.0000 0.0000 0.0000 2.6603 0.0000 33.8358
#
#
#
# Elastic Compliance Matrix: (Units=1/GPa)
#
#
# Indices 1 2 3 4 5 6 
#
# 1 0.037387 -0.008232 -0.004799 0.000000 -0.000812 0.000000
# 2 -0.008232 0.010889 -0.002930 0.000000 -0.000390 0.000000
# 3 -0.004799 -0.002930 0.010726 0.000000 0.001725 0.000000
# 4 0.000000 0.000000 0.000000 0.024096 0.000000 -0.001895
# 5 -0.000812 -0.000390 0.001725 0.000000 0.027245 0.000000
# 6 0.000000 0.000000 0.000000 -0.001895 0.000000 0.029703
#
#
# Mechanical properties :
#
#
# Convention : Reuss Voigt Hill
#
# Bulk Modulus (GPa) = 36.92906 58.14599 47.53752
# Shear Modulus (GPa) = 27.62511 34.28700 30.95606
#
# Velocity S-wave (km/s) = 3.60611 4.01746 3.81733
# Velocity P-wave (km/s) = 5.89257 6.99222 6.46582
#
# Compressibility (1/GPa) = 0.02707894
#
# Stress axis : x y z
#
# Youngs Moduli (GPa) = 26.74711 91.83908 93.23308
#
# Poissons Ratio (x) = 0.75605 0.44745
# Poissons Ratio (y) = 0.22019 0.27315
# Poissons Ratio (z) = 0.12837 0.26907
#
# Static dielectric constant tensor:
#      x y z
#    x 3.767810 0.000000 -0.003530 
#    y 0.000000 3.908370 0.000000 
#    z -0.003530 0.000000 3.966190 
# 
# 
# High freq. dielectric constant tensor:
#      x y z
#    x 1.830570 0.000000 -0.002150 
#    y 0.000000 1.842100 0.000000 
#    z -0.002150 0.000000 1.847880 
# 
# From -- ./inp_files/33925.got.cif
#   From: 2010.06.25/outbox.cif.g09.slc.cpg/sg11_17_cif.got.tgz:33925.got - 2010.06.27 23:14:04.
