data_PCOD8074421
_publ_section_title
;
Structure prediction by ZEFSAII (Michael W. Deem and Ramdas Pophale) SiO2 
 PCOD8074421
Probable space group: P 21/M
;
_chemical_formula_sum "Si O2"
_cell_formula_units_Z 20
_cell_length_a 7.806763
_cell_length_b 8.621960
_cell_length_c 16.235589
_cell_angle_alpha 90.000000
_cell_angle_beta 118.594499
_cell_angle_gamma 90.000000
_cell_volume 959.519651
_symmetry_space_group_name_H-M "P 21/M"
_symmetry_group_IT_number 11
_symmetry_cell_setting 'monoclinic'
loop_
_space_group_symop_operation_xyz
x,y,z
-x,1/2+y,-z
-x,-y,-z
x,1/2-y,z
loop_
_atom_site_type_symbol
_atom_site_label
_atom_site_fract_x
_atom_site_fract_y
_atom_site_fract_z
Si Si1 0.275260 0.429766 0.103223
Si Si2 0.608178 0.067353 0.603018
Si Si3 0.037410 0.569118 0.713118
Si Si4 0.604213 0.931800 0.278152
Si Si5 0.914710 0.571690 0.107453
O O1 0.233584 0.250000 0.113740
O O2 0.491593 0.478299 0.179164
O O3 0.128180 0.535572 0.121144
O O4 0.248011 0.461893 0.999582
O O5 0.627581 0.250000 0.598918
O O6 0.482997 0.019862 0.653985
O O7 0.500000 0.000000 0.500000
O O8 0.820895 0.995684 0.658584
O O9 0.034259 0.750000 0.694422
O O10 0.129204 0.534634 0.824010
O O11 0.171291 0.486932 0.674687
O O12 0.588396 0.750000 0.258913
O O13 0.912991 0.750000 0.135673
#
# Coordination Sequence:
#
# PCOD8074421 Si02
#       5
#     4   4   4   4   4
#     4  10  20  35  60  92 127 169 215 259 309 370
#     4  11  25  46  71  96 125 163 207 261 324 383
#     4  12  25  41  66  96 129 168 213 263 315 375
#     4  11  24  42  66  94 129 169 211 260 316 376
#     4  10  20  36  59  90 129 171 213 258 310 372
#
# _framework density 20.843762000000002
#
# number of rings (size 3 to 8) (size 9 to 14) (size 15 to 20)
#    0.000    1.200    2.000    4.200    0.000    6.400 
#    0.000    0.000    0.000    0.000    0.000    0.000 
#    0.000    0.000    0.000    0.000    0.000    0.000 
#
# Total GULP energy -248107.511764 kJ/mol
# GULP energy per Si atom -12405.375588 kJ/mol
# Density = 2.079632 g / cm^3
# Si number density = 20.843762 Si / 1000 Ang^3
#
#
#
# Elastic Constant Matrix: (Units=GPa)
#
#
# Indices 1 2 3 4 5 6 
#
# 1 134.6683 48.1173 60.8183 0.0000 -5.2375 0.0000
# 2 48.1173 90.3894 53.7538 0.0000 -2.6701 0.0000
# 3 60.8183 53.7538 121.4041 0.0000 -11.6457 0.0000
# 4 0.0000 0.0000 0.0000 33.0224 0.0000 3.0595
# 5 -5.2375 -2.6701 -11.6457 0.0000 5.8483 0.0000
# 6 0.0000 0.0000 0.0000 3.0595 0.0000 35.4217
#
#
#
# Elastic Compliance Matrix: (Units=1/GPa)
#
#
# Indices 1 2 3 4 5 6 
#
# 1 0.010262 -0.003281 -0.003646 0.000000 0.000431 0.000000
# 2 -0.003281 0.016367 -0.006388 0.000000 -0.008187 0.000000
# 3 -0.003646 -0.006388 0.015203 0.000000 0.024092 0.000000
# 4 0.000000 0.000000 0.000000 0.030527 0.000000 -0.002637
# 5 0.000431 -0.008187 0.024092 0.000000 0.215609 0.000000
# 6 0.000000 0.000000 0.000000 -0.002637 0.000000 0.028459
#
#
# Mechanical properties :
#
#
# Convention : Reuss Voigt Hill
#
# Bulk Modulus (GPa) = 65.79089 74.64897 70.21993
# Shear Modulus (GPa) = 14.36259 27.10998 20.73629
#
# Velocity S-wave (km/s) = 2.62784 3.61033 3.15754
# Velocity P-wave (km/s) = 6.39060 7.29868 6.85968
#
# Compressibility (1/GPa) = 0.01519967
#
# Stress axis : x y z
#
# Youngs Moduli (GPa) = 97.45034 61.09731 65.77538
#
# Poissons Ratio (x) = 0.20048 0.23985
# Poissons Ratio (y) = 0.31977 0.42020
# Poissons Ratio (z) = 0.35535 0.39032
#
# Static dielectric constant tensor:
#      x y z
#    x 3.756920 0.000000 -0.033520 
#    y 0.000000 3.884710 0.000000 
#    z -0.033520 0.000000 3.901310 
# 
# 
# High freq. dielectric constant tensor:
#      x y z
#    x 1.816040 0.000000 0.000540 
#    y 0.000000 1.827970 0.000000 
#    z 0.000540 0.000000 1.814690 
# 
# From -- ./inp_files/57566.got.cif
#   From: 2010.06.25/outbox.cif.g09.slc.cpg/sg11_29_cif.got.tgz:57566.got - 2010.06.27 23:14:04.
