data_PCOD8074360
_publ_section_title
;
Structure prediction by ZEFSAII (Michael W. Deem and Ramdas Pophale) SiO2 
 PCOD8074360
Probable space group: P 21/M
;
_chemical_formula_sum "Si O2"
_cell_formula_units_Z 28
_cell_length_a 15.093506
_cell_length_b 8.698915
_cell_length_c 18.779027
_cell_angle_alpha 90.000000
_cell_angle_beta 146.145603
_cell_angle_gamma 90.000000
_cell_volume 1373.565044
_symmetry_space_group_name_H-M "P 21/M"
_symmetry_group_IT_number 11
_symmetry_cell_setting 'monoclinic'
loop_
_space_group_symop_operation_xyz
x,y,z
-x,1/2+y,-z
-x,-y,-z
x,1/2-y,z
loop_
_atom_site_type_symbol
_atom_site_label
_atom_site_fract_x
_atom_site_fract_y
_atom_site_fract_z
Si Si1 0.123576 0.424466 0.670015
Si Si2 0.772109 0.425794 0.398817
Si Si3 0.604811 0.570116 0.632265
Si Si4 0.230768 0.574173 0.004178
Si Si5 0.494683 0.576179 0.295464
Si Si6 0.053366 0.568509 0.110917
Si Si7 0.356660 0.427456 0.948069
O O1 0.152000 0.250000 0.662354
O O2 0.209811 0.538149 0.672666
O O3 0.194494 0.450155 0.795502
O O4 0.936591 0.459866 0.549563
O O5 0.717543 0.250000 0.370845
O O6 0.642866 0.538056 0.344904
O O7 0.500000 0.500000 0.500000
O O8 0.628120 0.750000 0.635528
O O9 0.510028 0.540644 0.642035
O O10 0.775662 0.489928 0.749959
O O11 0.186007 0.750000 0.958098
O O12 0.332800 0.559247 0.143656
O O13 0.334671 0.509474 0.008673
O O14 0.070135 0.477931 0.909375
O O15 0.512588 0.750000 0.335734
O O16 0.059370 0.750000 0.106652
O O17 0.000000 0.500000 0.000000
O O18 0.395349 0.250000 0.987767
O O19 0.500000 0.500000 0.000000
#
# Coordination Sequence:
#
# PCOD8074360 Si02
#       7
#     4   4   4   4   4   4   4
#     4   9  20  38  56  80 117 159 199 250 314 377
#     4  10  20  35  59  86 115 155 205 254 309 378
#     4  12  26  45  69  97 132 170 213 267 329 392
#     4  11  24  41  64  93 126 168 217 265 321 387
#     4  11  23  40  62  89 124 162 207 259 317 383
#     4  12  24  43  70  99 132 171 218 271 327 390
#     4  11  23  39  59  86 124 163 207 262 322 383
#
# _framework density 20.384910999999999
#
# number of rings (size 3 to 8) (size 9 to 14) (size 15 to 20)
#    0.000    1.143    1.429    5.143    0.000    8.000 
#    0.000    4.286    0.000    0.000    0.000    0.000 
#    0.000    0.000    0.000    0.000    0.000    0.000 
#
# Total GULP energy -347367.160896 kJ/mol
# GULP energy per Si atom -12405.970032 kJ/mol
# Density = 2.033851 g / cm^3
# Si number density = 20.384911 Si / 1000 Ang^3
#
#
#
# Elastic Constant Matrix: (Units=GPa)
#
#
# Indices 1 2 3 4 5 6 
#
# 1 85.1493 48.9233 32.6929 0.0000 6.0335 0.0000
# 2 48.9233 151.1175 56.8643 0.0000 -0.1218 0.0000
# 3 32.6929 56.8643 98.6187 0.0000 3.2308 0.0000
# 4 0.0000 0.0000 0.0000 33.1815 0.0000 1.1102
# 5 6.0335 -0.1218 3.2308 0.0000 34.5085 0.0000
# 6 0.0000 0.0000 0.0000 1.1102 0.0000 39.8771
#
#
#
# Elastic Compliance Matrix: (Units=1/GPa)
#
#
# Indices 1 2 3 4 5 6 
#
# 1 0.015198 -0.003903 -0.002709 0.000000 -0.002417 0.000000
# 2 -0.003903 0.009461 -0.004198 0.000000 0.001109 0.000000
# 3 -0.002709 -0.004198 0.013485 0.000000 -0.000804 0.000000
# 4 0.000000 0.000000 0.000000 0.030165 0.000000 -0.000840
# 5 -0.002417 0.001109 -0.000804 0.000000 0.029480 0.000000
# 6 0.000000 0.000000 0.000000 -0.000840 0.000000 0.025100
#
#
# Mechanical properties :
#
#
# Convention : Reuss Voigt Hill
#
# Bulk Modulus (GPa) = 60.51374 67.98295 64.24834
# Shear Modulus (GPa) = 33.32943 34.60709 33.96826
#
# Velocity S-wave (km/s) = 4.04791 4.12476 4.08652
# Velocity P-wave (km/s) = 7.18313 7.49046 7.33840
#
# Compressibility (1/GPa) = 0.01652517
#
# Stress axis : x y z
#
# Youngs Moduli (GPa) = 65.79913 105.69154 74.15694
#
# Poissons Ratio (x) = 0.41251 0.20086
# Poissons Ratio (y) = 0.25681 0.31131
# Poissons Ratio (z) = 0.17822 0.44370
#
# Static dielectric constant tensor:
#      x y z
#    x 3.605210 0.000000 0.003660 
#    y 0.000000 3.929780 0.000000 
#    z 0.003660 0.000000 3.864650 
# 
# 
# High freq. dielectric constant tensor:
#      x y z
#    x 1.796210 0.000000 0.006040 
#    y 0.000000 1.810370 0.000000 
#    z 0.006040 0.000000 1.804290 
# 
# From -- ./inp_files/65458.got.cif
#   From: 2010.06.25/outbox.cif.g09.slc.cpg/sg11_33_cif.got.tgz:65458.got - 2010.06.27 23:14:04.
