data_PCOD8074097
_publ_section_title
;
Structure prediction by ZEFSAII (Michael W. Deem and Ramdas Pophale) SiO2 
 PCOD8074097
Probable space group: P 21/M
;
_chemical_formula_sum "Si O2"
_cell_formula_units_Z 16
_cell_length_a 7.721571
_cell_length_b 8.812111
_cell_length_c 13.101163
_cell_angle_alpha 90.000000
_cell_angle_beta 91.305066
_cell_angle_gamma 90.000000
_cell_volume 891.215656
_symmetry_space_group_name_H-M "P 21/M"
_symmetry_group_IT_number 11
_symmetry_cell_setting 'monoclinic'
loop_
_space_group_symop_operation_xyz
x,y,z
-x,1/2+y,-z
-x,-y,-z
x,1/2-y,z
loop_
_atom_site_type_symbol
_atom_site_label
_atom_site_fract_x
_atom_site_fract_y
_atom_site_fract_z
Si Si1 0.952593 0.930455 0.391612
Si Si2 0.750316 0.571547 0.732486
Si Si3 0.416134 0.079098 0.689545
Si Si4 0.439254 0.921033 0.101240
O O1 0.962300 0.750000 0.396317
O O2 0.759671 0.986860 0.360105
O O3 0.079765 0.990612 0.306790
O O4 0.000000 0.000000 0.500000
O O5 0.776885 0.750000 0.729463
O O6 0.582711 0.524145 0.660542
O O7 0.720515 0.513351 0.848664
O O8 0.449923 0.250000 0.650108
O O9 0.403467 0.079557 0.813822
O O10 0.378561 0.750000 0.075415
O O11 0.500000 0.000000 0.000000
#
# Coordination Sequence:
#
# PCOD8074097 Si02
#       4
#     4   4   4   4
#     4  11  22  38  57  80 109 144 183 226 271 319
#     4  10  20  35  56  82 111 143 180 223 268 321
#     4   8  19  37  56  77 109 144 180 223 267 318
#     4   9  17  34  57  82 108 142 180 220 270 320
#
# _framework density 17.953005999999998
#
# number of rings (size 3 to 8) (size 9 to 14) (size 15 to 20)
#    1.500    1.000    0.000    3.000    0.000    3.000 
#    0.000    1.250    0.000    0.000    0.000    0.000 
#    0.000    0.000    0.000    0.000    0.000    0.000 
#
# Total GULP energy -198227.345198 kJ/mol
# GULP energy per Si atom -12389.209075 kJ/mol
# Density = 1.791214 g / cm^3
# Si number density = 17.953006 Si / 1000 Ang^3
#
#
#
# Elastic Constant Matrix: (Units=GPa)
#
#
# Indices 1 2 3 4 5 6 
#
# 1 51.9581 20.6280 -14.2178 0.0000 -0.5694 0.0000
# 2 20.6280 96.1585 9.1547 0.0000 -3.1656 0.0000
# 3 -14.2178 9.1547 38.2382 0.0000 -7.9197 0.0000
# 4 0.0000 0.0000 0.0000 32.9320 0.0000 -6.9777
# 5 -0.5694 -3.1656 -7.9197 0.0000 27.3510 0.0000
# 6 0.0000 0.0000 0.0000 -6.9777 0.0000 25.2415
#
#
#
# Elastic Compliance Matrix: (Units=1/GPa)
#
#
# Indices 1 2 3 4 5 6 
#
# 1 0.024919 -0.006331 0.011422 0.000000 0.003093 0.000000
# 2 -0.006331 0.012258 -0.005343 0.000000 -0.000260 0.000000
# 3 0.011422 -0.005343 0.033615 0.000000 0.009353 0.000000
# 4 0.000000 0.000000 0.000000 0.032255 0.000000 0.008917
# 5 0.003093 -0.000260 0.009353 0.000000 0.039304 0.000000
# 6 0.000000 0.000000 0.000000 0.008917 0.000000 0.042082
#
#
# Mechanical properties :
#
#
# Convention : Reuss Voigt Hill
#
# Bulk Modulus (GPa) = 14.22711 24.16492 19.19601
# Shear Modulus (GPa) = 23.99618 28.49091 26.24354
#
# Velocity S-wave (km/s) = 3.65993 3.98800 3.82749
# Velocity P-wave (km/s) = 5.07957 5.89024 5.49986
#
# Compressibility (1/GPa) = 0.07028836
#
# Stress axis : x y z
#
# Youngs Moduli (GPa) = 40.12952 81.58092 29.74856
#
# Poissons Ratio (x) = 0.51651 -0.33979
# Poissons Ratio (y) = 0.25407 0.15894
# Poissons Ratio (z) = -0.45836 0.43586
#
# Static dielectric constant tensor:
#      x y z
#    x 3.356000 0.000000 0.038700 
#    y 0.000000 3.386820 0.000000 
#    z 0.038700 0.000000 3.186380 
# 
# 
# High freq. dielectric constant tensor:
#      x y z
#    x 1.677430 0.000000 -0.007010 
#    y 0.000000 1.706860 0.000000 
#    z -0.007010 0.000000 1.680610 
# 
# From -- ./inp_files/7533.got.cif
#   From: 2010.06.25/outbox.cif.g09.slc.cpg/sg11_4_cif.got.tgz:7533.got - 2010.06.27 23:14:04.
