data_PCOD8074835
_publ_section_title
;
Structure prediction by ZEFSAII (Michael W. Deem and Ramdas Pophale) SiO2 
 PCOD8074835
Probable space group: P 21/M
;
_chemical_formula_sum "Si O2"
_cell_formula_units_Z 32
_cell_length_a 20.879253
_cell_length_b 14.179944
_cell_length_c 12.418121
_cell_angle_alpha 90.000000
_cell_angle_beta 152.180291
_cell_angle_gamma 90.000000
_cell_volume 1715.831710
_symmetry_space_group_name_H-M "P 21/M"
_symmetry_group_IT_number 11
_symmetry_cell_setting 'monoclinic'
loop_
_space_group_symop_operation_xyz
x,y,z
-x,1/2+y,-z
-x,-y,-z
x,1/2-y,z
loop_
_atom_site_type_symbol
_atom_site_label
_atom_site_fract_x
_atom_site_fract_y
_atom_site_fract_z
Si Si1 0.674997 0.144171 0.125829
Si Si2 0.285909 0.643767 0.568852
Si Si3 0.291414 0.353980 0.320247
Si Si4 0.000202 0.435311 0.896545
Si Si5 0.375495 0.454831 0.251327
Si Si6 0.032915 0.858698 0.538897
Si Si7 0.922892 0.005030 0.213694
Si Si8 0.471318 0.000760 0.720458
O O1 0.615985 0.250000 0.023469
O O2 0.722765 0.126072 0.317594
O O3 0.806373 0.129967 0.246051
O O4 0.559139 0.069665 0.925046
O O5 0.332356 0.750000 0.610237
O O6 0.394779 0.572682 0.681239
O O7 0.135250 0.627683 0.297719
O O8 0.333884 0.250000 0.424138
O O9 0.332989 0.361514 0.255179
O O10 0.363793 0.435547 0.495692
O O11 0.128642 0.365027 0.089266
O O12 0.002498 0.498580 0.791015
O O13 0.000000 0.500000 0.000000
O O14 0.500000 0.500000 0.500000
O O15 0.429956 0.439132 0.211062
O O16 0.240271 0.521694 0.046754
O O17 0.986586 0.750000 0.475810
O O18 0.009453 0.907853 0.620361
O O19 0.942829 0.908951 0.312636
#
# Coordination Sequence:
#
# PCOD8074835 Si02
#       8
#     4   4   4   4   4   4   4   4
#     4  10  20  36  60  87 114 151 195 238 287 349
#     4  11  23  38  58  85 116 153 197 236 287 351
#     4  10  21  36  59  85 111 148 195 239 281 340
#     4  11  21  39  61  82 115 155 197 243 290 342
#     4   9  20  35  55  83 115 147 184 229 284 343
#     4  10  20  36  61  90 115 149 194 245 295 344
#     4  10  20  37  63  85 116 150 193 245 294 341
#     4  11  20  38  59  82 120 152 187 236 289 343
#
# _framework density 18.649847000000001
#
# number of rings (size 3 to 8) (size 9 to 14) (size 15 to 20)
#    0.000    1.750    3.750    1.125    0.000    2.500 
#    0.000    1.250    0.000    0.000    0.000    0.000 
#    0.000    0.000    0.000    0.000    0.000    0.000 
#
# Total GULP energy -396692.861717 kJ/mol
# GULP energy per Si atom -12396.651929 kJ/mol
# Density = 1.860740 g / cm^3
# Si number density = 18.649847 Si / 1000 Ang^3
#
#
#
# Elastic Constant Matrix: (Units=GPa)
#
#
# Indices 1 2 3 4 5 6 
#
# 1 87.0126 47.0755 12.5426 0.0000 -8.3366 0.0000
# 2 47.0755 114.1870 35.2742 0.0000 -6.8774 0.0000
# 3 12.5426 35.2742 89.4546 0.0000 -2.8594 0.0000
# 4 0.0000 0.0000 0.0000 21.7962 0.0000 1.2488
# 5 -8.3366 -6.8774 -2.8594 0.0000 32.1334 0.0000
# 6 0.0000 0.0000 0.0000 1.2488 0.0000 19.1140
#
#
#
# Elastic Compliance Matrix: (Units=1/GPa)
#
#
# Indices 1 2 3 4 5 6 
#
# 1 0.015017 -0.006159 0.000407 0.000000 0.002614 0.000000
# 2 -0.006159 0.012602 -0.004082 0.000000 0.000736 0.000000
# 3 0.000407 -0.004082 0.012743 0.000000 0.000366 0.000000
# 4 0.000000 0.000000 0.000000 0.046052 0.000000 -0.003009
# 5 0.002614 0.000736 0.000366 0.000000 0.031988 0.000000
# 6 0.000000 0.000000 0.000000 -0.003009 0.000000 0.052514
#
#
# Mechanical properties :
#
#
# Convention : Reuss Voigt Hill
#
# Bulk Modulus (GPa) = 48.32597 53.38209 50.85403
# Shear Modulus (GPa) = 25.31860 27.65953 26.48906
#
# Velocity S-wave (km/s) = 3.68853 3.85528 3.77282
# Velocity P-wave (km/s) = 6.64145 6.96441 6.80485
#
# Compressibility (1/GPa) = 0.02069281
#
# Stress axis : x y z
#
# Youngs Moduli (GPa) = 66.59325 79.35176 78.47299
#
# Poissons Ratio (x) = 0.48873 -0.03192
# Poissons Ratio (y) = 0.41015 0.32034
# Poissons Ratio (z) = -0.02708 0.32393
#
# Static dielectric constant tensor:
#      x y z
#    x 3.612280 0.000000 0.003470 
#    y 0.000000 3.283870 0.000000 
#    z 0.003470 0.000000 3.526800 
# 
# 
# High freq. dielectric constant tensor:
#      x y z
#    x 1.726120 0.000000 -0.004630 
#    y 0.000000 1.705230 0.000000 
#    z -0.004630 0.000000 1.735680 
# 
# From -- ./inp_files/41723.got.cif
#   From: 2010.06.25/outbox.cif.g09.slc.cpg/sg11_21_cif.got.tgz:41723.got - 2010.06.27 23:14:04.
