data_PCOD8074243
_publ_section_title
;
Structure prediction by ZEFSAII (Michael W. Deem and Ramdas Pophale) SiO2 
 PCOD8074243
Probable space group: P 21/M
;
_chemical_formula_sum "Si O2"
_cell_formula_units_Z 32
_cell_length_a 26.387590
_cell_length_b 13.111443
_cell_length_c 9.842313
_cell_angle_alpha 90.000000
_cell_angle_beta 29.878788
_cell_angle_gamma 90.000000
_cell_volume 1696.376081
_symmetry_space_group_name_H-M "P 21/M"
_symmetry_group_IT_number 11
_symmetry_cell_setting 'monoclinic'
loop_
_space_group_symop_operation_xyz
x,y,z
-x,1/2+y,-z
-x,-y,-z
x,1/2-y,z
loop_
_atom_site_type_symbol
_atom_site_label
_atom_site_fract_x
_atom_site_fract_y
_atom_site_fract_z
Si Si1 0.191876 0.865026 0.052065
Si Si2 0.837131 0.500397 0.632332
Si Si3 0.635527 0.511159 0.455111
Si Si4 0.455142 0.135041 0.876358
Si Si5 0.351203 0.132663 0.841327
Si Si6 0.883974 0.017875 0.231303
Si Si7 0.723193 0.631797 0.502829
Si Si8 0.035100 0.863826 0.185644
O O1 0.233436 0.750000 0.965733
O O2 0.088788 0.870286 0.206018
O O3 0.166366 0.903315 0.261894
O O4 0.276283 0.932723 0.784759
O O5 0.823131 0.456828 0.511699
O O6 0.944253 0.556604 0.397749
O O7 0.751801 0.581556 0.867896
O O8 0.538144 0.446957 0.730885
O O9 0.606288 0.579254 0.392793
O O10 0.670954 0.584876 0.491968
O O11 0.493522 0.250000 0.819396
O O12 0.436964 0.122787 0.757503
O O13 0.350504 0.114161 0.198194
O O14 0.326464 0.250000 0.866673
O O15 0.831880 0.919276 0.282781
O O16 0.882818 0.109364 0.124179
O O17 0.000000 0.000000 0.000000
O O18 0.744781 0.750000 0.424648
O O19 0.993771 0.750000 0.254749
#
# Coordination Sequence:
#
# PCOD8074243 Si02
#       8
#     4   4   4   4   4   4   4   4
#     4  10  21  36  56  80 114 150 187 235 289 348
#     4  10  20  35  59  81 114 146 192 237 286 338
#     4  11  21  37  58  84 118 151 192 238 292 337
#     4  10  21  37  60  84 112 152 195 237 288 343
#     4  10  20  35  57  86 113 148 193 238 287 341
#     4  10  21  37  58  85 114 148 187 234 287 339
#     4  11  22  39  61  87 117 150 194 241 284 339
#     4  10  20  36  57  81 111 149 188 230 286 349
#
# _framework density 18.863741999999998
#
# number of rings (size 3 to 8) (size 9 to 14) (size 15 to 20)
#    0.000    1.750    2.500    2.250    0.000    2.500 
#    0.000    1.875    0.000    1.500    0.000    0.000 
#    0.000    0.000    0.000    0.000    0.000    0.000 
#
# Total GULP energy -396787.767084 kJ/mol
# GULP energy per Si atom -12399.617721 kJ/mol
# Density = 1.882081 g / cm^3
# Si number density = 18.863742 Si / 1000 Ang^3
#
#
#
# Elastic Constant Matrix: (Units=GPa)
#
#
# Indices 1 2 3 4 5 6 
#
# 1 83.5099 34.6158 20.1779 0.0000 5.0472 0.0000
# 2 34.6158 72.7913 25.1186 0.0000 1.0518 0.0000
# 3 20.1779 25.1186 54.4936 0.0000 -1.2935 0.0000
# 4 0.0000 0.0000 0.0000 18.5791 0.0000 11.5295
# 5 5.0472 1.0518 -1.2935 0.0000 29.4475 0.0000
# 6 0.0000 0.0000 0.0000 11.5295 0.0000 16.8366
#
#
#
# Elastic Compliance Matrix: (Units=1/GPa)
#
#
# Indices 1 2 3 4 5 6 
#
# 1 0.015439 -0.006316 -0.002866 0.000000 -0.002547 0.000000
# 2 -0.006316 0.018945 -0.006391 0.000000 0.000125 0.000000
# 3 -0.002866 -0.006391 0.022398 0.000000 0.001703 0.000000
# 4 0.000000 0.000000 0.000000 0.093600 0.000000 -0.064096
# 5 -0.002547 0.000125 0.001703 0.000000 0.034466 0.000000
# 6 0.000000 0.000000 0.000000 -0.064096 0.000000 0.103287
#
#
# Mechanical properties :
#
#
# Convention : Reuss Voigt Hill
#
# Bulk Modulus (GPa) = 39.00689 41.17992 40.09340
# Shear Modulus (GPa) = 15.25195 21.69811 18.47503
#
# Velocity S-wave (km/s) = 2.84656 3.39522 3.13292
# Velocity P-wave (km/s) = 5.61489 6.10308 5.86407
#
# Compressibility (1/GPa) = 0.02563650
#
# Stress axis : x y z
#
# Youngs Moduli (GPa) = 64.77023 52.78374 44.64638
#
# Poissons Ratio (x) = 0.33340 0.12795
# Poissons Ratio (y) = 0.40911 0.28533
# Poissons Ratio (z) = 0.18562 0.33734
#
# Static dielectric constant tensor:
#      x y z
#    x 3.691660 0.000000 0.287860 
#    y 0.000000 3.520380 0.000000 
#    z 0.287860 0.000000 3.469810 
# 
# 
# High freq. dielectric constant tensor:
#      x y z
#    x 1.743840 0.000000 0.008680 
#    y 0.000000 1.733180 0.000000 
#    z 0.008680 0.000000 1.727100 
# 
# From -- ./inp_files/27784.got.cif
#   From: 2010.06.25/outbox.cif.g09.slc.cpg/sg11_14_cif.got.tgz:27784.got - 2010.06.27 23:14:04.
