data_PCOD8074139
_publ_section_title
;
Structure prediction by ZEFSAII (Michael W. Deem and Ramdas Pophale) SiO2 
 PCOD8074139
Probable space group: P 21/M
;
_chemical_formula_sum "Si O2"
_cell_formula_units_Z 28
_cell_length_a 30.058571
_cell_length_b 10.317415
_cell_length_c 24.599643
_cell_angle_alpha 90.000000
_cell_angle_beta 169.267570
_cell_angle_gamma 90.000000
_cell_volume 1420.694766
_symmetry_space_group_name_H-M "P 21/M"
_symmetry_group_IT_number 11
_symmetry_cell_setting 'monoclinic'
loop_
_space_group_symop_operation_xyz
x,y,z
-x,1/2+y,-z
-x,-y,-z
x,1/2-y,z
loop_
_atom_site_type_symbol
_atom_site_label
_atom_site_fract_x
_atom_site_fract_y
_atom_site_fract_z
Si Si1 0.703326 0.604275 0.865012
Si Si2 0.896908 0.396228 0.295187
Si Si3 0.589651 0.603174 0.063954
Si Si4 0.168942 0.899621 0.233088
Si Si5 0.847827 0.102655 0.663719
Si Si6 0.399501 0.483231 0.734924
Si Si7 0.080787 0.897157 0.797296
O O1 0.746607 0.750000 0.941139
O O2 0.428791 0.590480 0.517076
O O3 0.760124 0.494442 0.976687
O O4 0.873811 0.583538 0.017617
O O5 0.924708 0.250000 0.310811
O O6 0.903108 0.463263 0.243163
O O7 0.130718 0.432938 0.611466
O O8 0.653223 0.412375 0.035666
O O9 0.558724 0.750000 0.049338
O O10 0.500000 0.500000 0.000000
O O11 0.443275 0.596902 0.831627
O O12 0.073483 0.750000 0.115265
O O13 0.188419 0.948773 0.318788
O O14 0.000000 0.000000 0.000000
O O15 0.766192 0.250000 0.563213
O O16 0.674287 0.030910 0.413281
O O17 0.193005 0.391303 0.510484
O O18 0.182756 0.750000 0.924451
#
# Coordination Sequence:
#
# PCOD8074139 Si02
#       7
#     4   4   4   4   4   4   4
#     4   9  19  36  57  82 114 151 188 228 277 333
#     4  10  21  36  54  81 115 152 192 242 296 343
#     4  11  23  40  59  83 117 154 198 245 294 348
#     4  10  21  38  59  84 116 149 183 228 280 332
#     4   9  19  36  57  82 113 146 187 235 279 332
#     4  11  20  36  61  83 112 152 196 237 290 343
#     4  10  20  35  56  84 117 151 188 238 289 339
#
# _framework density 19.708666000000001
#
# number of rings (size 3 to 8) (size 9 to 14) (size 15 to 20)
#    0.000    2.000    1.429    2.143    0.000    2.286 
#    0.000    5.714    0.000    0.000    0.000    0.000 
#    0.000    0.000    0.000    0.000    0.000    0.000 
#
# Total GULP energy -346965.038135 kJ/mol
# GULP energy per Si atom -12391.608505 kJ/mol
# Density = 1.966381 g / cm^3
# Si number density = 19.708666 Si / 1000 Ang^3
#
#
#
# Elastic Constant Matrix: (Units=GPa)
#
#
# Indices 1 2 3 4 5 6 
#
# 1 67.7059 19.0301 29.1607 0.0000 -4.9429 0.0000
# 2 19.0301 83.6642 40.8660 0.0000 -9.2141 0.0000
# 3 29.1607 40.8660 110.3917 0.0000 3.3562 0.0000
# 4 0.0000 0.0000 0.0000 25.8246 0.0000 -0.4192
# 5 -4.9429 -9.2141 3.3562 0.0000 31.4876 0.0000
# 6 0.0000 0.0000 0.0000 -0.4192 0.0000 23.9508
#
#
#
# Elastic Compliance Matrix: (Units=1/GPa)
#
#
# Indices 1 2 3 4 5 6 
#
# 1 0.017149 -0.001659 -0.003996 0.000000 0.002633 0.000000
# 2 -0.001659 0.015533 -0.005460 0.000000 0.004867 0.000000
# 3 -0.003996 -0.005460 0.012243 0.000000 -0.003530 0.000000
# 4 0.000000 0.000000 0.000000 0.038734 0.000000 0.000678
# 5 0.002633 0.004867 -0.003530 0.000000 0.033972 0.000000
# 6 0.000000 0.000000 0.000000 0.000678 0.000000 0.041764
#
#
# Mechanical properties :
#
#
# Convention : Reuss Voigt Hill
#
# Bulk Modulus (GPa) = 44.06219 48.87504 46.46861
# Shear Modulus (GPa) = 26.42853 27.76626 27.09740
#
# Velocity S-wave (km/s) = 3.66588 3.75752 3.71198
# Velocity P-wave (km/s) = 6.35008 6.60892 6.48080
#
# Compressibility (1/GPa) = 0.02269519
#
# Stress axis : x y z
#
# Youngs Moduli (GPa) = 58.31138 64.38018 81.68126
#
# Poissons Ratio (x) = 0.10680 0.32640
# Poissons Ratio (y) = 0.09674 0.44596
# Poissons Ratio (z) = 0.23301 0.35150
#
# Static dielectric constant tensor:
#      x y z
#    x 3.626950 0.000000 0.075230 
#    y 0.000000 3.443250 0.000000 
#    z 0.075230 0.000000 3.637070 
# 
# 
# High freq. dielectric constant tensor:
#      x y z
#    x 1.765750 0.000000 0.012530 
#    y 0.000000 1.756640 0.000000 
#    z 0.012530 0.000000 1.769530 
# 
# From -- ./inp_files/70466.got.cif
#   From: 2010.06.25/outbox.cif.g09.slc.cpg/sg11_36_cif.got.tgz:70466.got - 2010.06.27 23:14:04.
