data_PCOD8074778
_publ_section_title
;
Structure prediction by ZEFSAII (Michael W. Deem and Ramdas Pophale) SiO2 
 PCOD8074778
Probable space group: P 21/M
;
_chemical_formula_sum "Si O2"
_cell_formula_units_Z 24
_cell_length_a 10.212551
_cell_length_b 8.783297
_cell_length_c 31.809842
_cell_angle_alpha 90.000000
_cell_angle_beta 153.004733
_cell_angle_gamma 90.000000
_cell_volume 1295.178620
_symmetry_space_group_name_H-M "P 21/M"
_symmetry_group_IT_number 11
_symmetry_cell_setting 'monoclinic'
loop_
_space_group_symop_operation_xyz
x,y,z
-x,1/2+y,-z
-x,-y,-z
x,1/2-y,z
loop_
_atom_site_type_symbol
_atom_site_label
_atom_site_fract_x
_atom_site_fract_y
_atom_site_fract_z
Si Si1 0.131130 0.072526 0.224101
Si Si2 0.771835 0.569968 0.054496
Si Si3 0.713250 0.425142 0.434716
Si Si4 0.393734 0.431237 0.426188
Si Si5 0.884976 0.925694 0.235094
Si Si6 0.235289 0.926288 0.037859
O O1 0.055055 0.250000 0.199763
O O2 0.467014 0.045392 0.329731
O O3 0.060795 0.990625 0.160077
O O4 0.933859 0.001093 0.203892
O O5 0.758373 0.750000 0.053584
O O6 0.500000 0.500000 0.000000
O O7 0.776431 0.518771 0.008236
O O8 0.782384 0.250000 0.460072
O O9 0.606019 0.488072 0.449381
O O10 0.000000 0.500000 0.500000
O O11 0.500000 0.500000 0.500000
O O12 0.385355 0.250000 0.426367
O O13 0.071008 0.490236 0.324228
O O14 0.979101 0.750000 0.260069
O O15 0.547338 0.943006 0.149333
O O16 0.164411 0.750000 0.008881
O O17 0.000000 0.000000 0.000000
#
# Coordination Sequence:
#
# PCOD8074778 Si02
#       6
#     4   4   4   4   4   4
#     4  10  20  36  59  87 117 151 195 240 285 343
#     4  12  23  37  61  89 117 153 196 242 287 343
#     4   9  20  37  58  85 116 149 186 233 287 339
#     4  10  21  38  60  86 114 149 193 240 286 345
#     4  10  20  36  60  86 114 151 194 238 288 347
#     4  11  24  41  60  86 120 156 195 240 294 349
#
# _framework density 18.530263999999999
#
# number of rings (size 3 to 8) (size 9 to 14) (size 15 to 20)
#    0.000    1.667    1.667    4.500    0.000    6.000 
#    3.000    0.000    0.000    0.000    0.000    0.000 
#    0.000    0.000    0.000    0.000    0.000    0.000 
#
# Total GULP energy -297638.735516 kJ/mol
# GULP energy per Si atom -12401.613980 kJ/mol
# Density = 1.848809 g / cm^3
# Si number density = 18.530264 Si / 1000 Ang^3
#
#
#
# Elastic Constant Matrix: (Units=GPa)
#
#
# Indices 1 2 3 4 5 6 
#
# 1 107.6653 54.7711 70.0725 0.0000 -2.9573 0.0000
# 2 54.7711 136.3256 67.3858 0.0000 -0.5961 0.0000
# 3 70.0725 67.3858 124.0699 0.0000 -8.1785 0.0000
# 4 0.0000 0.0000 0.0000 37.8210 0.0000 -1.9136
# 5 -2.9573 -0.5961 -8.1785 0.0000 38.1061 0.0000
# 6 0.0000 0.0000 0.0000 -1.9136 0.0000 35.3513
#
#
#
# Elastic Compliance Matrix: (Units=1/GPa)
#
#
# Indices 1 2 3 4 5 6 
#
# 1 0.015323 -0.002552 -0.007296 0.000000 -0.000417 0.000000
# 2 -0.002552 0.010492 -0.004321 0.000000 -0.000961 0.000000
# 3 -0.007296 -0.004321 0.014693 0.000000 0.002520 0.000000
# 4 0.000000 0.000000 0.000000 0.026513 0.000000 0.001435
# 5 -0.000417 -0.000961 0.002520 0.000000 0.026736 0.000000
# 6 0.000000 0.000000 0.000000 0.001435 0.000000 0.028365
#
#
# Mechanical properties :
#
#
# Convention : Reuss Voigt Hill
#
# Bulk Modulus (GPa) = 82.15587 83.61328 82.88457
# Shear Modulus (GPa) = 32.35905 33.97778 33.16841
#
# Velocity S-wave (km/s) = 4.18339 4.28674 4.23538
# Velocity P-wave (km/s) = 8.23205 8.34997 8.29122
#
# Compressibility (1/GPa) = 0.01217198
#
# Stress axis : x y z
#
# Youngs Moduli (GPa) = 65.26110 95.30928 68.05862
#
# Poissons Ratio (x) = 0.24322 0.49653
# Poissons Ratio (y) = 0.16654 0.29406
# Poissons Ratio (z) = 0.47612 0.41180
#
# Static dielectric constant tensor:
#      x y z
#    x 2.104050 0.000170 -0.044590 
#    y 0.000170 7.074210 -0.000010 
#    z -0.044590 -0.000010 3.624760 
# 
# 
# High freq. dielectric constant tensor:
#      x y z
#    x 1.701900 0.000000 -0.006430 
#    y 0.000000 1.736460 0.000000 
#    z -0.006430 0.000000 1.730460 
# 
# From -- ./inp_files/20360.got.cif
#   From: 2010.06.25/outbox.cif.g09.slc.cpg/sg11_11_cif.got.tgz:20360.got - 2010.06.27 23:14:04.
