data_PCOD8074864
_publ_section_title
;
Structure prediction by ZEFSAII (Michael W. Deem and Ramdas Pophale) SiO2 
 PCOD8074864
Probable space group: P 21/M
;
_chemical_formula_sum "Si O2"
_cell_formula_units_Z 32
_cell_length_a 15.861373
_cell_length_b 8.924901
_cell_length_c 11.951891
_cell_angle_alpha 90.000000
_cell_angle_beta 79.626412
_cell_angle_gamma 90.000000
_cell_volume 1664.268635
_symmetry_space_group_name_H-M "P 21/M"
_symmetry_group_IT_number 11
_symmetry_cell_setting 'monoclinic'
loop_
_space_group_symop_operation_xyz
x,y,z
-x,1/2+y,-z
-x,-y,-z
x,1/2-y,z
loop_
_atom_site_type_symbol
_atom_site_label
_atom_site_fract_x
_atom_site_fract_y
_atom_site_fract_z
Si Si1 0.250870 0.422353 0.686468
Si Si2 0.619926 0.071371 0.717336
Si Si3 0.068690 0.926037 0.339891
Si Si4 0.478611 0.923565 0.888895
Si Si5 0.103972 0.574428 0.584972
Si Si6 0.721617 0.077426 0.093713
Si Si7 0.771884 0.427850 0.839699
Si Si8 0.409330 0.075927 0.500154
O O1 0.224133 0.250000 0.692346
O O2 0.189079 0.507821 0.617003
O O3 0.239309 0.483922 0.814095
O O4 0.348701 0.445127 0.622550
O O5 0.616250 0.250000 0.711715
O O6 0.693447 0.011951 0.783312
O O7 0.528791 0.008169 0.778968
O O8 0.638752 0.004786 0.590928
O O9 0.052795 0.750000 0.333790
O O10 0.103231 0.968883 0.454419
O O11 0.138321 0.983274 0.233180
O O12 0.979988 0.008529 0.334177
O O13 0.505243 0.750000 0.887859
O O14 0.379542 0.942961 0.886357
O O15 0.500000 0.000000 0.000000
O O16 0.104370 0.750000 0.603697
O O17 0.746898 0.250000 0.105254
O O18 0.762555 0.013624 0.968822
O O19 0.766181 0.250000 0.839456
O O20 0.424055 0.250000 0.468827
O O21 0.500000 0.000000 0.500000
#
# Coordination Sequence:
#
# PCOD8074864 Si02
#       8
#     4   4   4   4   4   4   4   4
#     4  11  24  40  58  82 114 151 193 236 281 336
#     4  11  21  36  58  84 115 149 190 237 289 346
#     4   9  18  35  61  88 115 144 180 229 283 338
#     4  11  21  35  55  81 114 153 196 240 285 335
#     4  10  20  36  60  89 116 147 184 224 281 345
#     4  10  21  38  57  79 111 151 195 237 280 338
#     4   9  18  35  57  83 112 146 185 229 285 339
#     4  11  24  40  57  82 114 150 191 238 287 337
#
# _framework density 19.227665999999999
#
# number of rings (size 3 to 8) (size 9 to 14) (size 15 to 20)
#    0.000    1.750    1.250    3.375    0.000    6.500 
#    0.000    2.500    0.000    0.000    0.000    0.000 
#    0.000    0.000    0.000    0.000    0.000    0.000 
#
# Total GULP energy -396916.203146 kJ/mol
# GULP energy per Si atom -12403.631348 kJ/mol
# Density = 1.918390 g / cm^3
# Si number density = 19.227666 Si / 1000 Ang^3
#
#
#
# Elastic Constant Matrix: (Units=GPa)
#
#
# Indices 1 2 3 4 5 6 
#
# 1 96.5187 41.2459 40.7366 0.0000 -8.9424 0.0000
# 2 41.2459 79.3910 38.3144 0.0000 -2.0899 0.0000
# 3 40.7366 38.3144 112.0248 0.0000 -10.0651 0.0000
# 4 0.0000 0.0000 0.0000 32.3352 0.0000 1.9338
# 5 -8.9424 -2.0899 -10.0651 0.0000 33.7176 0.0000
# 6 0.0000 0.0000 0.0000 1.9338 0.0000 31.8650
#
#
#
# Elastic Compliance Matrix: (Units=1/GPa)
#
#
# Indices 1 2 3 4 5 6 
#
# 1 0.014407 -0.005989 -0.002960 0.000000 0.002566 0.000000
# 2 -0.005989 0.017588 -0.003989 0.000000 -0.001689 0.000000
# 3 -0.002960 -0.003989 0.011585 0.000000 0.002426 0.000000
# 4 0.000000 0.000000 0.000000 0.031039 0.000000 -0.001884
# 5 0.002566 -0.001689 0.002426 0.000000 0.030958 0.000000
# 6 0.000000 0.000000 0.000000 -0.001884 0.000000 0.031497
#
#
# Mechanical properties :
#
#
# Convention : Reuss Voigt Hill
#
# Bulk Modulus (GPa) = 56.48478 58.72539 57.60508
# Shear Modulus (GPa) = 29.61173 30.75939 30.18556
#
# Velocity S-wave (km/s) = 3.92862 4.00402 3.96650
# Velocity P-wave (km/s) = 7.07243 7.21004 7.14157
#
# Compressibility (1/GPa) = 0.01770388
#
# Stress axis : x y z
#
# Youngs Moduli (GPa) = 69.41072 56.85680 86.31516
#
# Poissons Ratio (x) = 0.34050 0.25551
# Poissons Ratio (y) = 0.41568 0.34435
# Poissons Ratio (z) = 0.20547 0.22683
#
# Static dielectric constant tensor:
#      x y z
#    x 3.433500 0.000000 -0.138230 
#    y 0.000000 3.486060 0.000000 
#    z -0.138230 0.000000 3.632070 
# 
# 
# High freq. dielectric constant tensor:
#      x y z
#    x 1.744510 0.000000 -0.005160 
#    y 0.000000 1.743520 0.000000 
#    z -0.005160 0.000000 1.752950 
# 
# From -- ./inp_files/38255.got.cif
#   From: 2010.06.25/outbox.cif.g09.slc.cpg/sg11_20_cif.got.tgz:38255.got - 2010.06.27 23:14:04.
