data_PCOD8074732
_publ_section_title
;
Structure prediction by ZEFSAII (Michael W. Deem and Ramdas Pophale) SiO2 
 PCOD8074732
Probable space group: P 21/M
;
_chemical_formula_sum "Si O2"
_cell_formula_units_Z 32
_cell_length_a 27.447581
_cell_length_b 8.791477
_cell_length_c 21.366478
_cell_angle_alpha 90.000000
_cell_angle_beta 161.325628
_cell_angle_gamma 90.000000
_cell_volume 1650.842513
_symmetry_space_group_name_H-M "P 21/M"
_symmetry_group_IT_number 11
_symmetry_cell_setting 'monoclinic'
loop_
_space_group_symop_operation_xyz
x,y,z
-x,1/2+y,-z
-x,-y,-z
x,1/2-y,z
loop_
_atom_site_type_symbol
_atom_site_label
_atom_site_fract_x
_atom_site_fract_y
_atom_site_fract_z
Si Si1 0.526620 0.069117 0.348776
Si Si2 0.606466 0.927557 0.578119
Si Si3 0.338185 0.931088 0.817465
Si Si4 0.206680 0.430239 0.909463
Si Si5 0.198408 0.930607 0.402052
Si Si6 0.952337 0.573144 0.006241
Si Si7 0.838671 0.930761 0.287267
Si Si8 0.884833 0.431106 0.563731
O O1 0.527558 0.250000 0.356150
O O2 0.643216 0.015475 0.436297
O O3 0.579443 0.000953 0.478203
O O4 0.358972 0.006034 0.127776
O O5 0.572878 0.750000 0.532327
O O6 0.777485 0.961373 0.808996
O O7 0.500000 0.000000 0.500000
O O8 0.345601 0.750000 0.830013
O O9 0.221289 0.987431 0.621916
O O10 0.288689 0.998977 0.823359
O O11 0.500000 0.000000 0.000000
O O12 0.207526 0.250000 0.914255
O O13 0.205742 0.481813 0.836446
O O14 0.056337 0.493694 0.761547
O O15 0.193010 0.750000 0.398791
O O16 0.181421 0.996906 0.451628
O O17 0.056611 0.993305 0.188841
O O18 0.984152 0.750000 0.037534
O O19 0.000000 0.500000 0.000000
O O20 0.845059 0.750000 0.302133
O O21 0.000000 0.000000 0.500000
O O22 0.887503 0.250000 0.568134
#
# Coordination Sequence:
#
# PCOD8074732 Si02
#       8
#     4   4   4   4   4   4   4   4
#     4  10  20  36  60  86 113 148 194 239 285 342
#     4  11  24  39  58  85 119 155 193 239 291 344
#     4  11  23  39  60  88 119 156 199 250 302 355
#     4   9  19  34  57  86 114 151 196 237 283 348
#     4   9  18  32  55  84 111 143 187 237 282 336
#     4  10  20  36  59  84 109 144 186 229 282 336
#     4  11  21  38  62  88 118 156 201 248 298 357
#     4   9  18  34  56  83 114 146 192 240 281 340
#
# _framework density 19.384042000000001
#
# number of rings (size 3 to 8) (size 9 to 14) (size 15 to 20)
#    0.000    2.000    2.500    1.125    3.500    0.500 
#    0.000    1.250    0.000    1.500    0.000    0.000 
#    0.000    0.000    0.000    0.000    0.000    0.000 
#
# Total GULP energy -396800.733782 kJ/mol
# GULP energy per Si atom -12400.022931 kJ/mol
# Density = 1.933992 g / cm^3
# Si number density = 19.384042 Si / 1000 Ang^3
#
#
#
# Elastic Constant Matrix: (Units=GPa)
#
#
# Indices 1 2 3 4 5 6 
#
# 1 154.1724 26.1372 52.6235 0.0000 16.7613 0.0000
# 2 26.1372 40.9270 25.5521 0.0000 6.2131 0.0000
# 3 52.6235 25.5521 134.6909 0.0000 14.1529 0.0000
# 4 0.0000 0.0000 0.0000 24.9768 0.0000 0.1207
# 5 16.7613 6.2131 14.1529 0.0000 38.3091 0.0000
# 6 0.0000 0.0000 0.0000 0.1207 0.0000 28.6724
#
#
#
# Elastic Compliance Matrix: (Units=1/GPa)
#
#
# Indices 1 2 3 4 5 6 
#
# 1 0.008076 -0.003407 -0.002284 0.000000 -0.002137 0.000000
# 2 -0.003407 0.029416 -0.004062 0.000000 -0.001779 0.000000
# 3 -0.002284 -0.004062 0.009273 0.000000 -0.001768 0.000000
# 4 0.000000 0.000000 0.000000 0.040038 0.000000 -0.000168
# 5 -0.002137 -0.001779 -0.001768 0.000000 0.027980 0.000000
# 6 0.000000 0.000000 0.000000 -0.000168 0.000000 0.034877
#
#
# Mechanical properties :
#
#
# Convention : Reuss Voigt Hill
#
# Bulk Modulus (GPa) = 36.68681 59.82399 48.25540
# Shear Modulus (GPa) = 28.04988 33.42348 30.73668
#
# Velocity S-wave (km/s) = 3.80815 4.15695 3.98637
# Velocity P-wave (km/s) = 6.18897 7.34641 6.79239
#
# Compressibility (1/GPa) = 0.02725775
#
# Stress axis : x y z
#
# Youngs Moduli (GPa) = 123.82569 33.99520 107.83627
#
# Poissons Ratio (x) = 0.11582 0.24634
# Poissons Ratio (y) = 0.42186 0.43808
# Poissons Ratio (z) = 0.28286 0.13810
#
# Static dielectric constant tensor:
#      x y z
#    x 5.191160 0.000000 -1.454240 
#    y 0.000000 3.188810 0.000000 
#    z -1.454240 0.000000 5.325460 
# 
# 
# High freq. dielectric constant tensor:
#      x y z
#    x 1.770090 0.000000 0.003970 
#    y 0.000000 1.716050 0.000000 
#    z 0.003970 0.000000 1.770650 
# 
# From -- ./inp_files/67135.got.cif
#   From: 2010.06.25/outbox.cif.g09.slc.cpg/sg11_34_cif.got.tgz:67135.got - 2010.06.27 23:14:04.
