data_PCOD8074450
_publ_section_title
;
Structure prediction by ZEFSAII (Michael W. Deem and Ramdas Pophale) SiO2 
 PCOD8074450
Probable space group: P 21/M
;
_chemical_formula_sum "Si O2"
_cell_formula_units_Z 28
_cell_length_a 15.179613
_cell_length_b 13.599670
_cell_length_c 9.056298
_cell_angle_alpha 90.000000
_cell_angle_beta 48.129888
_cell_angle_gamma 90.000000
_cell_volume 1392.187381
_symmetry_space_group_name_H-M "P 21/M"
_symmetry_group_IT_number 11
_symmetry_cell_setting 'monoclinic'
loop_
_space_group_symop_operation_xyz
x,y,z
-x,1/2+y,-z
-x,-y,-z
x,1/2-y,z
loop_
_atom_site_type_symbol
_atom_site_label
_atom_site_fract_x
_atom_site_fract_y
_atom_site_fract_z
Si Si1 0.446209 0.864859 0.464583
Si Si2 0.944874 0.358124 0.281634
Si Si3 0.115087 0.139781 0.835196
Si Si4 0.687422 0.140347 0.667154
Si Si5 0.314807 0.029385 0.777345
Si Si6 0.799396 0.481333 0.786899
Si Si7 0.963035 0.564925 0.386426
O O1 0.422329 0.750000 0.519000
O O2 0.416202 0.894782 0.328044
O O3 0.582737 0.889232 0.339333
O O4 0.364588 0.924121 0.671312
O O5 0.987081 0.250000 0.294390
O O6 0.803505 0.361887 0.433669
O O7 0.989647 0.447703 0.331380
O O8 0.994445 0.375122 0.061570
O O9 0.164728 0.250000 0.797832
O O10 0.214138 0.063438 0.776074
O O11 0.081689 0.123496 0.703390
O O12 0.661200 0.250000 0.755126
O O13 0.700358 0.071198 0.795791
O O14 0.262841 0.023873 0.999610
O O15 0.859480 0.570779 0.625368
O O16 0.905132 0.401723 0.708428
#
# Coordination Sequence:
#
# PCOD8074450 Si02
#       7
#     4   4   4   4   4   4   4
#     4  10  23  42  63  85 112 154 203 247 293 343
#     4   9  17  31  56  83 111 152 194 236 286 342
#     4  11  22  36  58  87 120 157 196 241 293 347
#     4   9  19  36  55  81 118 156 198 240 284 344
#     4  11  22  39  64  89 117 150 197 251 293 343
#     4  10  21  34  58  85 119 157 187 236 293 350
#     4  10  20  36  54  85 125 156 187 228 293 361
#
# _framework density 20.112234999999998
#
# number of rings (size 3 to 8) (size 9 to 14) (size 15 to 20)
#    0.000    2.000    1.429    2.571    2.000    1.714 
#    0.000    3.571    0.000    3.429    0.000    0.000 
#    0.000    0.000    0.000    0.000    0.000    0.000 
#
# Total GULP energy -346994.307080 kJ/mol
# GULP energy per Si atom -12392.653824 kJ/mol
# Density = 2.006646 g / cm^3
# Si number density = 20.112235 Si / 1000 Ang^3
#
#
#
# Elastic Constant Matrix: (Units=GPa)
#
#
# Indices 1 2 3 4 5 6 
#
# 1 79.9149 11.9063 15.6239 0.0000 10.4168 0.0000
# 2 11.9063 68.8557 21.5296 0.0000 0.9892 0.0000
# 3 15.6239 21.5296 100.1021 0.0000 12.5510 0.0000
# 4 0.0000 0.0000 0.0000 16.2865 0.0000 2.2276
# 5 10.4168 0.9892 12.5510 0.0000 24.0018 0.0000
# 6 0.0000 0.0000 0.0000 2.2276 0.0000 24.5308
#
#
#
# Elastic Compliance Matrix: (Units=1/GPa)
#
#
# Indices 1 2 3 4 5 6 
#
# 1 0.013704 -0.001965 -0.001050 0.000000 -0.005318 0.000000
# 2 -0.001965 0.015884 -0.003354 0.000000 0.001952 0.000000
# 3 -0.001050 -0.003354 0.011558 0.000000 -0.005450 0.000000
# 4 0.000000 0.000000 0.000000 0.062173 0.000000 -0.005646
# 5 -0.005318 0.001952 -0.005450 0.000000 0.046741 0.000000
# 6 0.000000 0.000000 0.000000 -0.005646 0.000000 0.041278
#
#
# Mechanical properties :
#
#
# Convention : Reuss Voigt Hill
#
# Bulk Modulus (GPa) = 35.20059 38.55470 36.87765
# Shear Modulus (GPa) = 23.41417 26.28468 24.84943
#
# Velocity S-wave (km/s) = 3.41570 3.61903 3.51884
# Velocity P-wave (km/s) = 5.75292 6.05595 5.90638
#
# Compressibility (1/GPa) = 0.02840861
#
# Stress axis : x y z
#
# Youngs Moduli (GPa) = 72.96887 62.95767 86.51711
#
# Poissons Ratio (x) = 0.12372 0.09080
# Poissons Ratio (y) = 0.14340 0.29020
# Poissons Ratio (z) = 0.07658 0.21118
#
# Static dielectric constant tensor:
#      x y z
#    x 3.689700 0.000000 -0.011290 
#    y 0.000000 3.623910 0.000000 
#    z -0.011290 0.000000 3.586760 
# 
# 
# High freq. dielectric constant tensor:
#      x y z
#    x 1.789950 0.000000 0.008040 
#    y 0.000000 1.768660 0.000000 
#    z 0.008040 0.000000 1.775880 
# 
# From -- ./inp_files/22125.got.cif
#   From: 2010.06.25/outbox.cif.g09.slc.cpg/sg11_12_cif.got.tgz:22125.got - 2010.06.27 23:14:04.
