data_PCOD8074426
_publ_section_title
;
Structure prediction by ZEFSAII (Michael W. Deem and Ramdas Pophale) SiO2 
 PCOD8074426
Probable space group: P 21/M
;
_chemical_formula_sum "Si O2"
_cell_formula_units_Z 32
_cell_length_a 19.812748
_cell_length_b 8.831617
_cell_length_c 25.341438
_cell_angle_alpha 90.000000
_cell_angle_beta 21.831988
_cell_angle_gamma 90.000000
_cell_volume 1649.021049
_symmetry_space_group_name_H-M "P 21/M"
_symmetry_group_IT_number 11
_symmetry_cell_setting 'monoclinic'
loop_
_space_group_symop_operation_xyz
x,y,z
-x,1/2+y,-z
-x,-y,-z
x,1/2-y,z
loop_
_atom_site_type_symbol
_atom_site_label
_atom_site_fract_x
_atom_site_fract_y
_atom_site_fract_z
Si Si1 0.508621 0.076222 0.640249
Si Si2 0.850967 0.428075 0.071339
Si Si3 0.423825 0.428827 0.107734
Si Si4 0.656181 0.424265 0.646186
Si Si5 0.031169 0.073223 0.421800
Si Si6 0.342132 0.573720 0.580447
Si Si7 0.384374 0.571300 0.924024
Si Si8 0.062500 0.430227 0.102145
O O1 0.438986 0.250000 0.689078
O O2 0.629244 0.045618 0.604017
O O3 0.630214 0.038176 0.501247
O O4 0.339880 0.962581 0.762596
O O5 0.881811 0.250000 0.043617
O O6 0.855619 0.504767 0.011013
O O7 0.000000 0.500000 0.000000
O O8 0.431697 0.250000 0.096875
O O9 0.217830 0.489061 0.261925
O O10 0.537951 0.482537 0.075968
O O11 0.500000 0.500000 0.000000
O O12 0.616585 0.250000 0.690089
O O13 0.524416 0.527637 0.776341
O O14 0.864887 0.468749 0.504390
O O15 0.049101 0.250000 0.418361
O O16 0.000000 0.000000 0.500000
O O17 0.500000 0.500000 0.500000
O O18 0.350170 0.750000 0.586699
O O19 0.143498 0.510588 0.740504
O O20 0.355231 0.750000 0.943023
O O21 0.190308 0.490096 0.056560
O O22 0.070400 0.250000 0.095109
#
# Coordination Sequence:
#
# PCOD8074426 Si02
#       8
#     4   4   4   4   4   4   4   4
#     4  10  21  39  60  87 118 150 197 250 298 354
#     4  12  24  38  59  88 119 155 198 247 297 351
#     4  10  23  40  59  88 126 162 204 252 299 357
#     4  10  20  35  61  89 117 155 200 247 304 360
#     4  10  20  36  59  88 118 157 203 249 300 357
#     4  10  23  41  62  87 119 157 198 246 298 357
#     4  11  22  38  60  89 124 158 199 252 304 354
#     4  11  23  40  62  90 121 160 203 242 297 366
#
# _framework density 19.405453000000001
#
# number of rings (size 3 to 8) (size 9 to 14) (size 15 to 20)
#    0.000    1.500    2.500    2.625    0.000    6.000 
#    0.000    2.500    0.000    0.000    0.000    0.000 
#    0.000    0.000    0.000    0.000    0.000    0.000 
#
# Total GULP energy -396902.530609 kJ/mol
# GULP energy per Si atom -12403.204082 kJ/mol
# Density = 1.936128 g / cm^3
# Si number density = 19.405453 Si / 1000 Ang^3
#
#
#
# Elastic Constant Matrix: (Units=GPa)
#
#
# Indices 1 2 3 4 5 6 
#
# 1 129.9182 38.1077 52.8248 0.0000 -9.4671 0.0000
# 2 38.1077 62.2610 37.0606 0.0000 -7.5475 0.0000
# 3 52.8248 37.0606 132.9403 0.0000 -11.6765 0.0000
# 4 0.0000 0.0000 0.0000 28.6250 0.0000 -2.0192
# 5 -9.4671 -7.5475 -11.6765 0.0000 42.5138 0.0000
# 6 0.0000 0.0000 0.0000 -2.0192 0.0000 30.7815
#
#
#
# Elastic Compliance Matrix: (Units=1/GPa)
#
#
# Indices 1 2 3 4 5 6 
#
# 1 0.010184 -0.004526 -0.002722 0.000000 0.000717 0.000000
# 2 -0.004526 0.021435 -0.004028 0.000000 0.001691 0.000000
# 3 -0.002722 -0.004028 0.009848 0.000000 0.001384 0.000000
# 4 0.000000 0.000000 0.000000 0.035097 0.000000 0.002302
# 5 0.000717 0.001691 0.001384 0.000000 0.024362 0.000000
# 6 0.000000 0.000000 0.000000 0.002302 0.000000 0.032638
#
#
# Mechanical properties :
#
#
# Convention : Reuss Voigt Hill
#
# Bulk Modulus (GPa) = 52.87139 64.56729 58.71934
# Shear Modulus (GPa) = 30.78433 33.52582 32.15508
#
# Velocity S-wave (km/s) = 3.98725 4.16101 4.07506
# Velocity P-wave (km/s) = 6.96436 7.51201 7.24337
#
# Compressibility (1/GPa) = 0.01891382
#
# Stress axis : x y z
#
# Youngs Moduli (GPa) = 98.19665 46.65366 101.54040
#
# Poissons Ratio (x) = 0.21115 0.27638
# Poissons Ratio (y) = 0.44444 0.40905
# Poissons Ratio (z) = 0.26728 0.18794
#
# Static dielectric constant tensor:
#      x y z
#    x 4.457490 0.000000 -0.166280 
#    y 0.000000 3.489790 0.000000 
#    z -0.166280 0.000000 3.725600 
# 
# 
# High freq. dielectric constant tensor:
#      x y z
#    x 1.768230 0.000000 -0.009680 
#    y 0.000000 1.750470 0.000000 
#    z -0.009680 0.000000 1.761760 
# 
# From -- ./inp_files/72053.got.cif
#   From: 2010.06.25/outbox.cif.g09.slc.cpg/sg11_37_cif.got.tgz:72053.got - 2010.06.27 23:14:04.
