data_PCOD8074480
_publ_section_title
;
Structure prediction by ZEFSAII (Michael W. Deem and Ramdas Pophale) SiO2 
 PCOD8074480
Probable space group: P 21/M
;
_chemical_formula_sum "Si O2"
_cell_formula_units_Z 32
_cell_length_a 21.243923
_cell_length_b 9.206963
_cell_length_c 26.564022
_cell_angle_alpha 90.000000
_cell_angle_beta 19.616797
_cell_angle_gamma 90.000000
_cell_volume 1744.344113
_symmetry_space_group_name_H-M "P 21/M"
_symmetry_group_IT_number 11
_symmetry_cell_setting 'monoclinic'
loop_
_space_group_symop_operation_xyz
x,y,z
-x,1/2+y,-z
-x,-y,-z
x,1/2-y,z
loop_
_atom_site_type_symbol
_atom_site_label
_atom_site_fract_x
_atom_site_fract_y
_atom_site_fract_z
Si Si1 0.356340 0.420195 0.840491
Si Si2 0.026567 0.082299 0.264607
Si Si3 0.591710 0.913895 0.858092
Si Si4 0.606095 0.418840 0.559390
Si Si5 0.783912 0.413602 0.794253
Si Si6 0.388910 0.420384 0.927854
Si Si7 0.998731 0.416619 0.052614
Si Si8 0.422082 0.582615 0.606293
O O1 0.331837 0.250000 0.866539
O O2 0.525529 0.458109 0.675205
O O3 0.397160 0.484789 0.865037
O O4 0.160334 0.483149 0.966697
O O5 0.035186 0.250000 0.274495
O O6 0.825543 0.042826 0.392530
O O7 0.182191 0.046719 0.105451
O O8 0.056225 0.988880 0.292621
O O9 0.657683 0.750000 0.796920
O O10 0.758011 0.997796 0.761892
O O11 0.408619 0.913861 0.030332
O O12 0.548475 0.995856 0.838670
O O13 0.570557 0.250000 0.573526
O O14 0.498807 0.514486 0.599664
O O15 0.846773 0.250000 0.733994
O O16 0.434929 0.250000 0.896318
O O17 0.045045 0.250000 0.005075
O O18 0.801185 0.433379 0.229013
O O19 0.000000 0.500000 0.000000
O O20 0.500000 0.500000 0.500000
O O21 0.483941 0.750000 0.557766
#
# Coordination Sequence:
#
# PCOD8074480 Si02
#       8
#     4   4   4   4   4   4   4   4
#     4   9  18  33  54  76 101 135 172 212 258 311
#     4   9  18  30  49  75 102 135 172 210 253 305
#     4   9  16  27  45  71 103 131 164 209 255 303
#     4  10  20  36  56  76 105 141 175 212 262 317
#     4   9  16  27  46  71 101 135 167 206 255 304
#     4   9  17  30  49  73 100 132 171 210 252 304
#     4  10  20  36  58  80 104 136 178 221 264 315
#     4  11  24  38  56  81 109 140 177 221 269 318
#
# _framework density 18.345003999999999
#
# number of rings (size 3 to 8) (size 9 to 14) (size 15 to 20)
#    0.000    2.500    1.250    1.125    1.750    4.000 
#    0.000    1.250    0.000    0.750    0.000    0.000 
#    0.000    0.000    0.000    0.000    0.000    0.000 
#
# Total GULP energy -396803.604884 kJ/mol
# GULP energy per Si atom -12400.112653 kJ/mol
# Density = 1.830325 g / cm^3
# Si number density = 18.345004 Si / 1000 Ang^3
#
#
#
# Elastic Constant Matrix: (Units=GPa)
#
#
# Indices 1 2 3 4 5 6 
#
# 1 134.3774 52.2675 20.3190 0.0000 11.7110 0.0000
# 2 52.2675 87.4159 22.7814 0.0000 3.2135 0.0000
# 3 20.3190 22.7814 42.3054 0.0000 7.9013 0.0000
# 4 0.0000 0.0000 0.0000 16.9406 0.0000 -3.5328
# 5 11.7110 3.2135 7.9013 0.0000 20.2997 0.0000
# 6 0.0000 0.0000 0.0000 -3.5328 0.0000 34.3419
#
#
#
# Elastic Compliance Matrix: (Units=1/GPa)
#
#
# Indices 1 2 3 4 5 6 
#
# 1 0.010198 -0.005672 -0.000984 0.000000 -0.004602 0.000000
# 2 -0.005672 0.016472 -0.006762 0.000000 0.003296 0.000000
# 3 -0.000984 -0.006762 0.029597 0.000000 -0.009882 0.000000
# 4 0.000000 0.000000 0.000000 0.060324 0.000000 0.006206
# 5 -0.004602 0.003296 -0.009882 0.000000 0.055241 0.000000
# 6 0.000000 0.000000 0.000000 0.006206 0.000000 0.029757
#
#
# Mechanical properties :
#
#
# Convention : Reuss Voigt Hill
#
# Bulk Modulus (GPa) = 33.97702 50.53717 42.25709
# Shear Modulus (GPa) = 20.98772 25.56517 23.27645
#
# Velocity S-wave (km/s) = 3.38606 3.73711 3.56591
# Velocity P-wave (km/s) = 5.81795 6.79922 6.32763
#
# Compressibility (1/GPa) = 0.02943165
#
# Stress axis : x y z
#
# Youngs Moduli (GPa) = 98.06130 60.70996 33.78712
#
# Poissons Ratio (x) = 0.34433 0.03325
# Poissons Ratio (y) = 0.55618 0.22845
# Poissons Ratio (z) = 0.09650 0.41050
#
# Static dielectric constant tensor:
#      x y z
#    x 3.675110 0.000000 -0.142020 
#    y 0.000000 3.361380 0.000000 
#    z -0.142020 0.000000 3.271450 
# 
# 
# High freq. dielectric constant tensor:
#      x y z
#    x 1.719260 0.000000 -0.010420 
#    y 0.000000 1.700570 0.000000 
#    z -0.010420 0.000000 1.686600 
# 
# From -- ./inp_files/72001.got.cif
#   From: 2010.06.25/outbox.cif.g09.slc.cpg/sg11_37_cif.got.tgz:72001.got - 2010.06.27 23:14:04.
