data_PCOD8074487
_publ_section_title
;
Structure prediction by ZEFSAII (Michael W. Deem and Ramdas Pophale) SiO2 
 PCOD8074487
Probable space group: P 21/M
;
_chemical_formula_sum "Si O2"
_cell_formula_units_Z 32
_cell_length_a 20.652391
_cell_length_b 9.606993
_cell_length_c 26.544640
_cell_angle_alpha 90.000000
_cell_angle_beta 18.795421
_cell_angle_gamma 90.000000
_cell_volume 1696.862932
_symmetry_space_group_name_H-M "P 21/M"
_symmetry_group_IT_number 11
_symmetry_cell_setting 'monoclinic'
loop_
_space_group_symop_operation_xyz
x,y,z
-x,1/2+y,-z
-x,-y,-z
x,1/2-y,z
loop_
_atom_site_type_symbol
_atom_site_label
_atom_site_fract_x
_atom_site_fract_y
_atom_site_fract_z
Si Si1 0.482552 0.091859 0.211868
Si Si2 0.869403 0.409586 0.298862
Si Si3 0.208348 0.591775 0.097368
Si Si4 0.703309 0.086283 0.854869
Si Si5 0.972685 0.586795 0.469536
Si Si6 0.449076 0.410244 0.649555
Si Si7 0.294689 0.411076 0.871009
Si Si8 0.840613 0.089488 0.205333
O O1 0.509648 0.250000 0.210323
O O2 0.249364 0.049480 0.386817
O O3 0.612226 0.995487 0.152136
O O4 0.568966 0.074299 0.091195
O O5 0.936831 0.250000 0.254794
O O6 0.681035 0.448310 0.471893
O O7 0.797799 0.441028 0.295118
O O8 0.057173 0.500247 0.176524
O O9 0.134519 0.750000 0.147150
O O10 0.206788 0.546436 0.156827
O O11 0.652232 0.250000 0.889616
O O12 0.863885 0.044089 0.693360
O O13 0.500000 0.000000 0.000000
O O14 0.990289 0.750000 0.469561
O O15 0.000000 0.500000 0.500000
O O16 0.403720 0.250000 0.669811
O O17 0.418353 0.444269 0.730266
O O18 0.308261 0.500318 0.718179
O O19 0.300278 0.250000 0.882849
O O20 0.067643 0.457268 0.026681
O O21 0.805190 0.250000 0.217460
#
# Coordination Sequence:
#
# PCOD8074487 Si02
#       8
#     4   4   4   4   4   4   4   4
#     4  10  21  37  58  84 114 149 190 234 280 334
#     4  10  21  37  55  80 113 147 187 233 282 337
#     4  10  21  37  58  84 114 149 190 234 280 334
#     4  10  22  40  62  90 122 154 192 236 282 338
#     4  10  22  40  62  90 122 154 192 236 282 338
#     4  10  22  36  54  80 111 144 185 236 285 338
#     4  10  21  37  55  80 113 147 187 233 282 337
#     4  10  20  36  56  78 107 146 189 234 281 336
#
# _framework density 18.858329999999999
#
# number of rings (size 3 to 8) (size 9 to 14) (size 15 to 20)
#    0.000    2.000    1.250    1.500    1.750    4.500 
#    0.000    0.000    0.000    0.000    0.000    0.000 
#    0.000    0.000    0.000    0.000    0.000    0.000 
#
# Total GULP energy -396823.015329 kJ/mol
# GULP energy per Si atom -12400.719229 kJ/mol
# Density = 1.881541 g / cm^3
# Si number density = 18.858330 Si / 1000 Ang^3
#
#
#
# Elastic Constant Matrix: (Units=GPa)
#
#
# Indices 1 2 3 4 5 6 
#
# 1 76.5771 45.4382 56.3657 0.0000 -6.7803 0.0000
# 2 45.4382 64.0716 45.2348 0.0000 -9.6773 0.0000
# 3 56.3657 45.2348 120.0845 0.0000 20.4577 0.0000
# 4 0.0000 0.0000 0.0000 19.9293 0.0000 -7.8137
# 5 -6.7803 -9.6773 20.4577 0.0000 26.3783 0.0000
# 6 0.0000 0.0000 0.0000 -7.8137 0.0000 36.6582
#
#
#
# Elastic Compliance Matrix: (Units=1/GPa)
#
#
# Indices 1 2 3 4 5 6 
#
# 1 0.029151 -0.010138 -0.012107 0.000000 0.013163 0.000000
# 2 -0.010138 0.033083 -0.010748 0.000000 0.017867 0.000000
# 3 -0.012107 -0.010748 0.022193 0.000000 -0.024266 0.000000
# 4 0.000000 0.000000 0.000000 0.054753 0.000000 0.011671
# 5 0.013163 0.017867 -0.024266 0.000000 0.066668 0.000000
# 6 0.000000 0.000000 0.000000 0.011671 0.000000 0.029767
#
#
# Mechanical properties :
#
#
# Convention : Reuss Voigt Hill
#
# Bulk Modulus (GPa) = 54.22063 61.64563 57.93313
# Shear Modulus (GPa) = 16.24719 24.17278 20.20998
#
# Velocity S-wave (km/s) = 2.93838 3.58412 3.27719
# Velocity P-wave (km/s) = 6.35028 7.06312 6.71617
#
# Compressibility (1/GPa) = 0.01844316
#
# Stress axis : x y z
#
# Youngs Moduli (GPa) = 34.30439 30.22667 45.06009
#
# Poissons Ratio (x) = 0.30643 0.54552
# Poissons Ratio (y) = 0.34777 0.48428
# Poissons Ratio (z) = 0.41531 0.32486
#
# Static dielectric constant tensor:
#      x y z
#    x 3.360090 0.000000 0.253090 
#    y 0.000000 3.415670 0.000000 
#    z 0.253090 0.000000 3.767950 
# 
# 
# High freq. dielectric constant tensor:
#      x y z
#    x 1.731750 0.000000 0.011930 
#    y 0.000000 1.728490 0.000000 
#    z 0.011930 0.000000 1.750900 
# 
# From -- ./inp_files/72027.got.cif
#   From: 2010.06.25/outbox.cif.g09.slc.cpg/sg11_37_cif.got.tgz:72027.got - 2010.06.27 23:14:04.
