data_PCOD8074979
_publ_section_title
;
Structure prediction by ZEFSAII (Michael W. Deem and Ramdas Pophale) SiO2 
 PCOD8074979
Probable space group: P 21/M
;
_chemical_formula_sum "Si O2"
_cell_formula_units_Z 32
_cell_length_a 16.243782
_cell_length_b 8.991176
_cell_length_c 24.345779
_cell_angle_alpha 90.000000
_cell_angle_beta 28.524402
_cell_angle_gamma 90.000000
_cell_volume 1697.972752
_symmetry_space_group_name_H-M "P 21/M"
_symmetry_group_IT_number 11
_symmetry_cell_setting 'monoclinic'
loop_
_space_group_symop_operation_xyz
x,y,z
-x,1/2+y,-z
-x,-y,-z
x,1/2-y,z
loop_
_atom_site_type_symbol
_atom_site_label
_atom_site_fract_x
_atom_site_fract_y
_atom_site_fract_z
Si Si1 0.079493 0.088064 0.502729
Si Si2 0.730618 0.088323 0.764207
Si Si3 0.240225 0.075390 0.666971
Si Si4 0.470232 0.075684 0.431493
Si Si5 0.874610 0.574230 0.892315
Si Si6 0.319051 0.077339 0.103523
Si Si7 0.556949 0.574546 0.151146
Si Si8 0.405681 0.926945 0.353767
O O1 0.160056 0.250000 0.438843
O O2 0.919602 0.122802 0.634057
O O3 0.215365 0.985647 0.454078
O O4 0.000000 0.000000 0.500000
O O5 0.652532 0.250000 0.829371
O O6 0.599666 0.015362 0.795942
O O7 0.773691 0.972857 0.786972
O O8 0.251877 0.250000 0.673461
O O9 0.298834 0.045319 0.569208
O O10 0.364741 0.985636 0.633831
O O11 0.049865 0.017924 0.792180
O O12 0.493388 0.250000 0.407405
O O13 0.467271 0.994821 0.374845
O O14 0.914825 0.750000 0.870689
O O15 0.785202 0.524801 0.888409
O O16 0.745065 0.526097 0.017929
O O17 0.345836 0.250000 0.086244
O O18 0.500000 0.000000 0.000000
O O19 0.541335 0.750000 0.159106
O O20 0.529229 0.520555 0.230426
O O21 0.402171 0.750000 0.361043
#
# Coordination Sequence:
#
# PCOD8074979 Si02
#       8
#     4   4   4   4   4   4   4   4
#     4  11  22  36  55  81 115 156 200 244 293 342
#     4  10  20  37  54  73 112 158 198 244 291 335
#     4  10  22  41  65  91 117 146 184 234 292 348
#     4  10  22  42  65  90 119 149 183 232 292 348
#     4  10  21  38  59  83 115 154 195 238 288 344
#     4  11  22  35  54  82 114 154 199 241 288 342
#     4   9  18  37  58  79 113 158 196 234 286 336
#     4  11  22  38  61  87 117 155 198 240 288 347
#
# _framework density 18.846005000000002
#
# number of rings (size 3 to 8) (size 9 to 14) (size 15 to 20)
#    0.000    1.750    2.500    1.875    1.750    3.500 
#    0.000    1.875    0.000    0.000    0.000    0.000 
#    0.000    0.000    0.000    0.000    0.000    0.000 
#
# Total GULP energy -396545.349049 kJ/mol
# GULP energy per Si atom -12392.042158 kJ/mol
# Density = 1.880311 g / cm^3
# Si number density = 18.846005 Si / 1000 Ang^3
#
#
#
# Elastic Constant Matrix: (Units=GPa)
#
#
# Indices 1 2 3 4 5 6 
#
# 1 110.4058 50.7547 50.4944 0.0000 16.8333 0.0000
# 2 50.7547 74.7549 44.2785 0.0000 1.9113 0.0000
# 3 50.4944 44.2785 121.5659 0.0000 4.8978 0.0000
# 4 0.0000 0.0000 0.0000 29.5543 0.0000 -2.6232
# 5 16.8333 1.9113 4.8978 0.0000 29.8428 0.0000
# 6 0.0000 0.0000 0.0000 -2.6232 0.0000 33.5736
#
#
#
# Elastic Compliance Matrix: (Units=1/GPa)
#
#
# Indices 1 2 3 4 5 6 
#
# 1 0.015564 -0.008575 -0.003030 0.000000 -0.007733 0.000000
# 2 -0.008575 0.021781 -0.004540 0.000000 0.004187 0.000000
# 3 -0.003030 -0.004540 0.011131 0.000000 0.000173 0.000000
# 4 0.000000 0.000000 0.000000 0.034072 0.000000 0.002662
# 5 -0.007733 0.004187 0.000173 0.000000 0.037574 0.000000
# 6 0.000000 0.000000 0.000000 0.002662 0.000000 0.029993
#
#
# Mechanical properties :
#
#
# Convention : Reuss Voigt Hill
#
# Bulk Modulus (GPa) = 61.78123 66.42019 64.10071
# Shear Modulus (GPa) = 26.62365 29.34074 27.98219
#
# Velocity S-wave (km/s) = 3.76266 3.95000 3.85747
# Velocity P-wave (km/s) = 7.19237 7.49156 7.34349
#
# Compressibility (1/GPa) = 0.01618615
#
# Stress axis : x y z
#
# Youngs Moduli (GPa) = 64.24972 45.91095 89.83600
#
# Poissons Ratio (x) = 0.39368 0.27221
# Poissons Ratio (y) = 0.55093 0.40790
# Poissons Ratio (z) = 0.19468 0.20846
#
# Static dielectric constant tensor:
#      x y z
#    x 3.034570 0.000000 0.016510 
#    y 0.000000 2.938360 0.000000 
#    z 0.016510 0.000000 3.456740 
# 
# 
# High freq. dielectric constant tensor:
#      x y z
#    x 1.725120 0.000000 0.008750 
#    y 0.000000 1.733460 0.000000 
#    z 0.008750 0.000000 1.736110 
# 
# From -- ./inp_files/69047.got.cif
#   From: 2010.06.25/outbox.cif.g09.slc.cpg/sg11_35_cif.got.tgz:69047.got - 2010.06.27 23:14:04.
