data_PCOD8074037
_publ_section_title
;
Structure prediction by ZEFSAII (Michael W. Deem and Ramdas Pophale) SiO2 
 PCOD8074037
Probable space group: P 21/M
;
_chemical_formula_sum "Si O2"
_cell_formula_units_Z 32
_cell_length_a 25.699093
_cell_length_b 9.023360
_cell_length_c 14.974539
_cell_angle_alpha 90.000000
_cell_angle_beta 153.406300
_cell_angle_gamma 90.000000
_cell_volume 1554.492307
_symmetry_space_group_name_H-M "P 21/M"
_symmetry_group_IT_number 11
_symmetry_cell_setting 'monoclinic'
loop_
_space_group_symop_operation_xyz
x,y,z
-x,1/2+y,-z
-x,-y,-z
x,1/2-y,z
loop_
_atom_site_type_symbol
_atom_site_label
_atom_site_fract_x
_atom_site_fract_y
_atom_site_fract_z
Si Si1 0.354735 0.917873 0.358538
Si Si2 0.374156 0.083560 0.215077
Si Si3 0.933994 0.073813 0.481369
Si Si4 0.780257 0.076900 0.570469
Si Si5 0.303592 0.077823 0.909314
Si Si6 0.476356 0.924682 0.870263
Si Si7 0.021716 0.576798 0.254618
Si Si8 0.167083 0.074836 0.173035
O O1 0.310996 0.750000 0.303347
O O2 0.489062 0.933270 0.587527
O O3 0.326112 0.969177 0.214001
O O4 0.293867 0.025262 0.335295
O O5 0.343565 0.250000 0.200124
O O6 0.312914 0.047234 0.028550
O O7 0.940198 0.250000 0.479780
O O8 0.991815 0.020205 0.663963
O O9 0.800663 0.023917 0.284363
O O10 0.000000 0.000000 0.500000
O O11 0.782510 0.250000 0.597110
O O12 0.647908 0.019400 0.358093
O O13 0.849034 0.041902 0.584214
O O14 0.850884 0.993817 0.756790
O O15 0.276240 0.250000 0.848142
O O16 0.422798 0.029613 0.044063
O O17 0.471926 0.750000 0.878622
O O18 0.500000 0.000000 0.000000
O O19 0.999264 0.750000 0.221037
O O20 0.925631 0.507438 0.040362
O O21 0.157773 0.250000 0.167016
#
# Coordination Sequence:
#
# PCOD8074037 Si02
#       8
#     4   4   4   4   4   4   4   4
#     4  10  20  35  55  83 115 151 195 241 290 350
#     4   9  19  36  57  79 112 152 190 239 297 350
#     4  11  24  43  64  88 117 156 202 250 300 359
#     4  10  20  39  63  88 119 158 200 247 296 352
#     4  10  21  38  59  85 117 153 192 240 299 358
#     4  10  21  37  61  90 122 158 198 244 302 357
#     4   9  21  40  61  83 116 158 199 244 303 357
#     4  11  22  36  57  86 118 157 198 241 297 358
#
# _framework density 20.585498999999999
#
# number of rings (size 3 to 8) (size 9 to 14) (size 15 to 20)
#    0.000    2.000    0.000    3.000    1.750    5.000 
#    0.000    5.000    0.000    0.000    0.000    0.000 
#    0.000    0.000    0.000    0.000    0.000    0.000 
#
# Total GULP energy -396804.773944 kJ/mol
# GULP energy per Si atom -12400.149186 kJ/mol
# Density = 2.053865 g / cm^3
# Si number density = 20.585499 Si / 1000 Ang^3
#
#
#
# Elastic Constant Matrix: (Units=GPa)
#
#
# Indices 1 2 3 4 5 6 
#
# 1 113.3278 34.7988 48.4820 0.0000 -11.2166 0.0000
# 2 34.7988 56.4724 37.0576 0.0000 -5.8765 0.0000
# 3 48.4820 37.0576 100.1864 0.0000 -19.3951 0.0000
# 4 0.0000 0.0000 0.0000 30.4478 0.0000 -2.1852
# 5 -11.2166 -5.8765 -19.3951 0.0000 32.5371 0.0000
# 6 0.0000 0.0000 0.0000 -2.1852 0.0000 35.1551
#
#
#
# Elastic Compliance Matrix: (Units=1/GPa)
#
#
# Indices 1 2 3 4 5 6 
#
# 1 0.012045 -0.004780 -0.003871 0.000000 0.000982 0.000000
# 2 -0.004780 0.025312 -0.007329 0.000000 -0.001445 0.000000
# 3 -0.003871 -0.007329 0.015884 0.000000 0.006810 0.000000
# 4 0.000000 0.000000 0.000000 0.032990 0.000000 0.002051
# 5 0.000982 -0.001445 0.006810 0.000000 0.034871 0.000000
# 6 0.000000 0.000000 0.000000 0.002051 0.000000 0.028573
#
#
# Mechanical properties :
#
#
# Convention : Reuss Voigt Hill
#
# Bulk Modulus (GPa) = 46.98997 56.74040 51.86518
# Shear Modulus (GPa) = 26.49306 29.60456 28.04881
#
# Velocity S-wave (km/s) = 3.59134 3.79638 3.69528
# Velocity P-wave (km/s) = 6.33034 6.84396 6.59215
#
# Compressibility (1/GPa) = 0.02128114
#
# Stress axis : x y z
#
# Youngs Moduli (GPa) = 83.02379 39.50623 62.95710
#
# Poissons Ratio (x) = 0.18884 0.24368
# Poissons Ratio (y) = 0.39686 0.46143
# Poissons Ratio (z) = 0.32135 0.28955
#
# Static dielectric constant tensor:
#      x y z
#    x 3.917950 0.000000 -0.077240 
#    y 0.000000 3.593520 0.000000 
#    z -0.077240 0.000000 3.890010 
# 
# 
# High freq. dielectric constant tensor:
#      x y z
#    x 1.819070 0.000000 -0.001880 
#    y 0.000000 1.784510 0.000000 
#    z -0.001880 0.000000 1.810810 
# 
# From -- ./inp_files/55664.got.cif
#   From: 2010.06.25/outbox.cif.g09.slc.cpg/sg11_28_cif.got.tgz:55664.got - 2010.06.27 23:14:04.
