data_PCOD8074276
_publ_section_title
;
Structure prediction by ZEFSAII (Michael W. Deem and Ramdas Pophale) SiO2 
 PCOD8074276
Probable space group: P 21/M
;
_chemical_formula_sum "Si O2"
_cell_formula_units_Z 32
_cell_length_a 17.322128
_cell_length_b 16.323485
_cell_length_c 11.569926
_cell_angle_alpha 90.000000
_cell_angle_beta 29.733525
_cell_angle_gamma 90.000000
_cell_volume 1622.547236
_symmetry_space_group_name_H-M "P 21/M"
_symmetry_group_IT_number 11
_symmetry_cell_setting 'monoclinic'
loop_
_space_group_symop_operation_xyz
x,y,z
-x,1/2+y,-z
-x,-y,-z
x,1/2-y,z
loop_
_atom_site_type_symbol
_atom_site_label
_atom_site_fract_x
_atom_site_fract_y
_atom_site_fract_z
Si Si1 0.401737 0.344206 0.275619
Si Si2 0.994257 0.654814 0.387560
Si Si3 0.187850 0.943140 0.754003
Si Si4 0.676391 0.596700 0.869266
Si Si5 0.495427 0.155529 0.690509
Si Si6 0.702751 0.430354 0.958424
Si Si7 0.907586 0.912414 0.258258
Si Si8 0.662674 0.526299 0.239775
O O1 0.419735 0.250000 0.218567
O O2 0.388435 0.396595 0.175833
O O3 0.246924 0.356462 0.555007
O O4 0.550141 0.373959 0.153929
O O5 0.009121 0.750000 0.334159
O O6 0.843889 0.641004 0.663861
O O7 0.976391 0.599593 0.296435
O O8 0.146015 0.625771 0.260813
O O9 0.336753 0.886364 0.543878
O O10 0.144292 0.992125 0.693604
O O11 0.213903 0.015418 0.817236
O O12 0.041113 0.889199 0.990367
O O13 0.693531 0.500706 0.874176
O O14 0.556118 0.641499 0.110814
O O15 0.513221 0.250000 0.637044
O O16 0.362605 0.117978 0.778159
O O17 0.715731 0.467206 0.068410
O O18 0.500000 0.500000 0.500000
#
# Coordination Sequence:
#
# PCOD8074276 Si02
#       8
#     4   4   4   4   4   4   4   4
#     4  11  22  37  58  88 119 148 190 248 297 333
#     4  11  22  38  59  90 119 145 191 248 299 336
#     4  10  20  37  58  82 114 152 200 229 284 347
#     4  10  21  38  59  80 117 154 193 232 289 353
#     4  10  20  35  58  84 112 151 193 237 288 341
#     4  11  21  37  59  88 112 154 198 231 287 359
#     4  10  20  37  59  81 112 154 185 235 288 345
#     4   9  18  35  53  81 113 147 184 233 276 340
#
# _framework density 19.722076000000001
#
# number of rings (size 3 to 8) (size 9 to 14) (size 15 to 20)
#    0.000    1.750    1.250    5.625    0.000    2.000 
#    0.000    4.375    0.000    0.750    0.000    0.000 
#    0.000    0.000    0.000    0.000    0.000    0.000 
#
# Total GULP energy -396669.304555 kJ/mol
# GULP energy per Si atom -12395.915767 kJ/mol
# Density = 1.967719 g / cm^3
# Si number density = 19.722076 Si / 1000 Ang^3
#
#
#
# Elastic Constant Matrix: (Units=GPa)
#
#
# Indices 1 2 3 4 5 6 
#
# 1 67.5055 52.0318 42.4160 0.0000 -10.8913 0.0000
# 2 52.0318 105.8194 51.2539 0.0000 -3.4384 0.0000
# 3 42.4160 51.2539 123.0742 0.0000 -12.4194 0.0000
# 4 0.0000 0.0000 0.0000 23.2651 0.0000 -2.6284
# 5 -10.8913 -3.4384 -12.4194 0.0000 35.2096 0.0000
# 6 0.0000 0.0000 0.0000 -2.6284 0.0000 17.0842
#
#
#
# Elastic Compliance Matrix: (Units=1/GPa)
#
#
# Indices 1 2 3 4 5 6 
#
# 1 0.026790 -0.011018 -0.004061 0.000000 0.005778 0.000000
# 2 -0.011018 0.016382 -0.003326 0.000000 -0.002981 0.000000
# 3 -0.004061 -0.003326 0.011147 0.000000 0.002351 0.000000
# 4 0.000000 0.000000 0.000000 0.043743 0.000000 0.006730
# 5 0.005778 -0.002981 0.002351 0.000000 0.030727 0.000000
# 6 0.000000 0.000000 0.000000 0.006730 0.000000 0.059569
#
#
# Mechanical properties :
#
#
# Convention : Reuss Voigt Hill
#
# Bulk Modulus (GPa) = 57.11436 65.31140 61.21288
# Shear Modulus (GPa) = 21.64462 25.15827 23.40145
#
# Velocity S-wave (km/s) = 3.31642 3.57549 3.44839
# Velocity P-wave (km/s) = 6.60964 7.08754 6.85276
#
# Compressibility (1/GPa) = 0.01750873
#
# Stress axis : x y z
#
# Youngs Moduli (GPa) = 37.32705 61.04427 89.70937
#
# Poissons Ratio (x) = 0.67258 0.36435
# Poissons Ratio (y) = 0.41127 0.29835
# Poissons Ratio (z) = 0.15160 0.20302
#
# Static dielectric constant tensor:
#      x y z
#    x 3.689980 0.000000 -0.132370 
#    y 0.000000 3.494330 0.000000 
#    z -0.132370 0.000000 3.830190 
# 
# 
# High freq. dielectric constant tensor:
#      x y z
#    x 1.758730 0.000000 -0.009930 
#    y 0.000000 1.750880 0.000000 
#    z -0.009930 0.000000 1.786240 
# 
# From -- ./inp_files/41637.got.cif
#   From: 2010.06.25/outbox.cif.g09.slc.cpg/sg11_21_cif.got.tgz:41637.got - 2010.06.27 23:14:04.
