data_PCOD8074737
_publ_section_title
;
Structure prediction by ZEFSAII (Michael W. Deem and Ramdas Pophale) SiO2 
 PCOD8074737
Probable space group: P 21/M
;
_chemical_formula_sum "Si O2"
_cell_formula_units_Z 32
_cell_length_a 27.452720
_cell_length_b 9.067806
_cell_length_c 10.689756
_cell_angle_alpha 90.000000
_cell_angle_beta 144.188463
_cell_angle_gamma 90.000000
_cell_volume 1557.044632
_symmetry_space_group_name_H-M "P 21/M"
_symmetry_group_IT_number 11
_symmetry_cell_setting 'monoclinic'
loop_
_space_group_symop_operation_xyz
x,y,z
-x,1/2+y,-z
-x,-y,-z
x,1/2-y,z
loop_
_atom_site_type_symbol
_atom_site_label
_atom_site_fract_x
_atom_site_fract_y
_atom_site_fract_z
Si Si1 0.966985 0.578615 0.227831
Si Si2 0.861387 0.916756 0.769619
Si Si3 0.282971 0.919860 0.421339
Si Si4 0.123734 0.417803 0.479151
Si Si5 0.543447 0.924794 0.208505
Si Si6 0.540751 0.424121 0.705257
Si Si7 0.731472 0.422579 0.107874
Si Si8 0.178327 0.581855 0.957468
O O1 0.979896 0.750000 0.278404
O O2 0.904478 0.516439 0.202533
O O3 0.057260 0.503334 0.426825
O O4 0.930436 0.540157 0.015331
O O5 0.829671 0.750000 0.728635
O O6 0.903581 0.930311 0.722209
O O7 0.783217 0.027393 0.613105
O O8 0.307386 0.750000 0.497331
O O9 0.362174 0.023550 0.593846
O O10 0.242430 0.944172 0.202494
O O11 0.126861 0.250000 0.531443
O O12 0.215464 0.488964 0.679295
O O13 0.537728 0.750000 0.179911
O O14 0.502220 0.973837 0.254457
O O15 0.500000 0.000000 0.000000
O O16 0.500000 0.500000 0.500000
O O17 0.533599 0.250000 0.669774
O O18 0.636399 0.475522 0.913426
O O19 0.737817 0.250000 0.149954
O O20 0.771025 0.466369 0.058023
O O21 0.148107 0.750000 0.888998
#
# Coordination Sequence:
#
# PCOD8074737 Si02
#       8
#     4   4   4   4   4   4   4   4
#     4  10  20  36  59  84 113 151 193 240 292 347
#     4   9  20  37  57  84 117 152 194 241 290 349
#     4  10  20  36  61  88 114 151 195 241 297 354
#     4  11  23  37  55  83 118 153 193 239 291 350
#     4  11  24  40  60  91 128 163 203 253 309 369
#     4  10  23  43  67  93 123 161 207 256 307 370
#     4  10  22  40  60  84 116 152 193 241 293 349
#     4   9  19  37  60  84 112 148 193 242 290 347
#
# _framework density 20.551756000000001
#
# number of rings (size 3 to 8) (size 9 to 14) (size 15 to 20)
#    0.000    2.000    0.000    2.625    1.750    5.500 
#    0.000    0.000    0.000    0.000    0.000    0.000 
#    0.000    0.000    0.000    0.000    0.000    0.000 
#
# Total GULP energy -396884.314528 kJ/mol
# GULP energy per Si atom -12402.634829 kJ/mol
# Density = 2.050498 g / cm^3
# Si number density = 20.551756 Si / 1000 Ang^3
#
#
#
# Elastic Constant Matrix: (Units=GPa)
#
#
# Indices 1 2 3 4 5 6 
#
# 1 76.6923 39.2562 33.1493 0.0000 4.6571 0.0000
# 2 39.2562 84.6643 41.6917 0.0000 8.7281 0.0000
# 3 33.1493 41.6917 86.4859 0.0000 19.8299 0.0000
# 4 0.0000 0.0000 0.0000 37.7653 0.0000 2.2631
# 5 4.6571 8.7281 19.8299 0.0000 33.6469 0.0000
# 6 0.0000 0.0000 0.0000 2.2631 0.0000 28.7715
#
#
#
# Elastic Compliance Matrix: (Units=1/GPa)
#
#
# Indices 1 2 3 4 5 6 
#
# 1 0.018065 -0.006491 -0.004171 0.000000 0.001642 0.000000
# 2 -0.006491 0.017826 -0.006071 0.000000 -0.000147 0.000000
# 3 -0.004171 -0.006071 0.018031 0.000000 -0.008475 0.000000
# 4 0.000000 0.000000 0.000000 0.026605 0.000000 -0.002093
# 5 0.001642 -0.000147 -0.008475 0.000000 0.034526 0.000000
# 6 0.000000 0.000000 0.000000 -0.002093 0.000000 0.034921
#
#
# Mechanical properties :
#
#
# Convention : Reuss Voigt Hill
#
# Bulk Modulus (GPa) = 48.88973 52.89300 50.89137
# Shear Modulus (GPa) = 26.27965 28.95309 27.61637
#
# Velocity S-wave (km/s) = 3.57978 3.75746 3.66969
# Velocity P-wave (km/s) = 6.39739 6.67960 6.54002
#
# Compressibility (1/GPa) = 0.02045419
#
# Stress axis : x y z
#
# Youngs Moduli (GPa) = 55.35513 56.09716 55.45884
#
# Poissons Ratio (x) = 0.36415 0.23134
# Poissons Ratio (y) = 0.35933 0.33672
# Poissons Ratio (z) = 0.23091 0.34059
#
# Static dielectric constant tensor:
#      x y z
#    x 3.804780 0.000000 -0.045940 
#    y 0.000000 3.693680 0.000000 
#    z -0.045940 0.000000 3.864220 
# 
# 
# High freq. dielectric constant tensor:
#      x y z
#    x 1.809350 0.000000 0.001300 
#    y 0.000000 1.803240 0.000000 
#    z 0.001300 0.000000 1.808400 
# 
# From -- ./inp_files/45362.got.cif
#   From: 2010.06.25/outbox.cif.g09.slc.cpg/sg11_23_cif.got.tgz:45362.got - 2010.06.27 23:14:04.
