data_PCOD8074157
_publ_section_title
;
Structure prediction by ZEFSAII (Michael W. Deem and Ramdas Pophale) SiO2 
 PCOD8074157
Probable space group: P 21/M
;
_chemical_formula_sum "Si O2"
_cell_formula_units_Z 32
_cell_length_a 12.342896
_cell_length_b 23.017893
_cell_length_c 10.153357
_cell_angle_alpha 90.000000
_cell_angle_beta 32.459252
_cell_angle_gamma 90.000000
_cell_volume 1548.187713
_symmetry_space_group_name_H-M "P 21/M"
_symmetry_group_IT_number 11
_symmetry_cell_setting 'monoclinic'
loop_
_space_group_symop_operation_xyz
x,y,z
-x,1/2+y,-z
-x,-y,-z
x,1/2-y,z
loop_
_atom_site_type_symbol
_atom_site_label
_atom_site_fract_x
_atom_site_fract_y
_atom_site_fract_z
Si Si1 0.459265 0.317316 0.899257
Si Si2 0.884838 0.139940 0.513680
Si Si3 0.871323 0.813886 0.958779
Si Si4 0.613284 0.468829 0.262792
Si Si5 0.147213 0.316607 0.454841
Si Si6 0.046034 0.588136 0.944161
Si Si7 0.228107 0.075812 0.541743
Si Si8 0.980449 0.525985 0.753341
O O1 0.527936 0.250000 0.817612
O O2 0.645104 0.361056 0.733508
O O3 0.342720 0.336672 0.883640
O O4 0.314893 0.324913 0.171815
O O5 0.973202 0.187156 0.321880
O O6 0.933631 0.162365 0.611170
O O7 0.994027 0.077167 0.380075
O O8 0.839675 0.750000 0.047815
O O9 0.971353 0.848788 0.975261
O O10 0.500000 0.500000 0.500000
O O11 0.462554 0.440111 0.311732
O O12 0.749440 0.415276 0.179303
O O13 0.748984 0.512477 0.033187
O O14 0.132559 0.250000 0.519595
O O15 0.200085 0.357987 0.523344
O O16 0.088146 0.547947 0.775977
O O17 0.862731 0.565056 0.220070
O O18 0.104817 0.030489 0.574129
#
# Coordination Sequence:
#
# PCOD8074157 Si02
#       8
#     4   4   4   4   4   4   4   4
#     4   9  18  36  61  83 111 158 200 236 294 356
#     4  10  20  37  62  85 116 153 192 242 299 345
#     4   9  19  34  54  87 120 144 193 252 297 348
#     4  11  19  37  61  80 118 159 192 230 293 357
#     4  10  23  41  58  83 118 157 200 240 286 347
#     4  10  20  35  56  88 115 154 195 235 298 358
#     4  11  22  37  58  82 119 158 196 242 288 348
#     4  10  21  36  59  94 114 144 196 245 296 356
#
# _framework density 20.669328
#
# number of rings (size 3 to 8) (size 9 to 14) (size 15 to 20)
#    0.000    2.000    2.500    2.625    0.000    8.000 
#    0.000    1.875    0.000    0.000    0.000    0.000 
#    0.000    0.000    0.000    0.000    0.000    0.000 
#
# Total GULP energy -396452.976501 kJ/mol
# GULP energy per Si atom -12389.155516 kJ/mol
# Density = 2.062228 g / cm^3
# Si number density = 20.669328 Si / 1000 Ang^3
#
#
#
# Elastic Constant Matrix: (Units=GPa)
#
#
# Indices 1 2 3 4 5 6 
#
# 1 46.9875 37.9256 24.5982 0.0000 -23.2497 0.0000
# 2 37.9256 130.0119 31.3308 0.0000 -18.6305 0.0000
# 3 24.5982 31.3308 79.0232 0.0000 -34.7035 0.0000
# 4 0.0000 0.0000 0.0000 25.7276 0.0000 -0.6179
# 5 -23.2497 -18.6305 -34.7035 0.0000 25.5292 0.0000
# 6 0.0000 0.0000 0.0000 -0.6179 0.0000 24.4880
#
#
#
# Elastic Compliance Matrix: (Units=1/GPa)
#
#
# Indices 1 2 3 4 5 6 
#
# 1 0.050084 -0.009679 0.012843 0.000000 0.056007 0.000000
# 2 -0.009679 0.010545 -0.004118 0.000000 -0.006717 0.000000
# 3 0.012843 -0.004118 0.035000 0.000000 0.056270 0.000000
# 4 0.000000 0.000000 0.000000 0.038892 0.000000 0.000981
# 5 0.056007 -0.006717 0.056270 0.000000 0.161766 0.000000
# 6 0.000000 0.000000 0.000000 0.000981 0.000000 0.040861
#
#
# Mechanical properties :
#
#
# Convention : Reuss Voigt Hill
#
# Bulk Modulus (GPa) = 10.66985 49.30353 29.98669
# Shear Modulus (GPa) = 13.50269 25.96016 19.73142
#
# Velocity S-wave (km/s) = 2.55869 3.54782 3.09305
# Velocity P-wave (km/s) = 3.72862 6.37871 5.22449
#
# Compressibility (1/GPa) = 0.09372205
#
# Stress axis : x y z
#
# Youngs Moduli (GPa) = 19.96653 94.83276 28.57103
#
# Poissons Ratio (x) = 0.91791 -0.36695
# Poissons Ratio (y) = 0.19326 0.11765
# Poissons Ratio (z) = -0.25644 0.39049
#
# Static dielectric constant tensor:
#      x y z
#    x 3.612350 0.000000 -0.248270 
#    y 0.000000 3.795930 0.000000 
#    z -0.248270 0.000000 3.703790 
# 
# 
# High freq. dielectric constant tensor:
#      x y z
#    x 1.789050 0.000000 -0.018290 
#    y 0.000000 1.805300 0.000000 
#    z -0.018290 0.000000 1.797620 
# 
# From -- ./inp_files/36566.got.cif
#   From: 2010.06.25/outbox.cif.g09.slc.cpg/sg11_19_cif.got.tgz:36566.got - 2010.06.27 23:14:04.
