data_PCOD8074669
_publ_section_title
;
Structure prediction by ZEFSAII (Michael W. Deem and Ramdas Pophale) SiO2 
 PCOD8074669
Probable space group: P 21/M
;
_chemical_formula_sum "Si O2"
_cell_formula_units_Z 24
_cell_length_a 9.636314
_cell_length_b 8.745842
_cell_length_c 20.188320
_cell_angle_alpha 90.000000
_cell_angle_beta 131.036164
_cell_angle_gamma 90.000000
_cell_volume 1283.376770
_symmetry_space_group_name_H-M "P 21/M"
_symmetry_group_IT_number 11
_symmetry_cell_setting 'monoclinic'
loop_
_space_group_symop_operation_xyz
x,y,z
-x,1/2+y,-z
-x,-y,-z
x,1/2-y,z
loop_
_atom_site_type_symbol
_atom_site_label
_atom_site_fract_x
_atom_site_fract_y
_atom_site_fract_z
Si Si1 0.884732 0.429580 0.523307
Si Si2 0.448928 0.928731 0.769357
Si Si3 0.858212 0.568278 0.754968
Si Si4 0.108398 0.070536 0.724951
Si Si5 0.864482 0.925879 0.905928
Si Si6 0.472461 0.068706 0.633962
O O1 0.866287 0.250000 0.505913
O O2 0.683840 0.505892 0.464291
O O3 0.000000 0.500000 0.500000
O O4 0.984044 0.468799 0.622928
O O5 0.409866 0.750000 0.745518
O O6 0.653918 0.955999 0.861505
O O7 0.310494 0.999626 0.779267
O O8 0.421036 0.014276 0.691362
O O9 0.839287 0.750000 0.746094
O O10 0.895759 0.510021 0.841566
O O11 0.666887 0.496247 0.669841
O O12 0.024505 0.509637 0.762831
O O13 0.124743 0.250000 0.742609
O O14 0.913268 0.750000 0.921169
O O15 0.000000 0.000000 0.000000
O O16 0.476573 0.250000 0.632949
#
# Coordination Sequence:
#
# PCOD8074669 Si02
#       6
#     4   4   4   4   4   4
#     4  11  22  35  54  81 114 150 196 240 281 329
#     4  10  20  36  58  83 114 150 188 229 281 337
#     4  10  22  40  59  82 115 151 186 230 288 340
#     4  11  23  37  56  85 115 149 192 236 283 332
#     4   9  20  38  62  89 111 141 183 227 278 341
#     4  11  21  35  56  82 111 150 197 238 279 330
#
# _framework density 18.700664
#
# number of rings (size 3 to 8) (size 9 to 14) (size 15 to 20)
#    0.000    1.667    1.667    4.500    0.000    6.667 
#    0.000    0.833    0.000    0.000    0.000    0.000 
#    0.000    0.000    0.000    0.000    0.000    0.000 
#
# Total GULP energy -297688.011536 kJ/mol
# GULP energy per Si atom -12403.667147 kJ/mol
# Density = 1.865810 g / cm^3
# Si number density = 18.700664 Si / 1000 Ang^3
#
#
#
# Elastic Constant Matrix: (Units=GPa)
#
#
# Indices 1 2 3 4 5 6 
#
# 1 339.7233 126.4533 133.0719 0.0000 29.1548 0.0000
# 2 126.4533 142.0874 86.0025 0.0000 12.2528 0.0000
# 3 133.0719 86.0025 139.2521 0.0000 19.1094 0.0000
# 4 0.0000 0.0000 0.0000 33.0656 0.0000 3.5992
# 5 29.1548 12.2528 19.1094 0.0000 22.4276 0.0000
# 6 0.0000 0.0000 0.0000 3.5992 0.0000 36.9084
#
#
#
# Elastic Compliance Matrix: (Units=1/GPa)
#
#
# Indices 1 2 3 4 5 6 
#
# 1 0.005412 -0.002678 -0.003118 0.000000 -0.002916 0.000000
# 2 -0.002678 0.012566 -0.005365 0.000000 0.001187 0.000000
# 3 -0.003118 -0.005365 0.014172 0.000000 -0.005092 0.000000
# 4 0.000000 0.000000 0.000000 0.030567 0.000000 -0.002981
# 5 -0.002916 0.001187 -0.005092 0.000000 0.052068 0.000000
# 6 0.000000 0.000000 0.000000 -0.002981 0.000000 0.027385
#
#
# Mechanical properties :
#
#
# Convention : Reuss Voigt Hill
#
# Bulk Modulus (GPa) = 101.73002 145.79091 123.76047
# Shear Modulus (GPa) = 29.80321 36.84933 33.32627
#
# Velocity S-wave (km/s) = 3.99645 4.44383 4.22606
# Velocity P-wave (km/s) = 8.70705 10.22055 9.49401
#
# Compressibility (1/GPa) = 0.00982994
#
# Stress axis : x y z
#
# Youngs Moduli (GPa) = 184.78381 79.58098 70.55959
#
# Poissons Ratio (x) = 0.21310 0.21998
# Poissons Ratio (y) = 0.49482 0.37852
# Poissons Ratio (z) = 0.57608 0.42692
#
# Static dielectric constant tensor:
#      x y z
#    x 3.423500 0.000000 -0.165880 
#    y 0.000000 3.511680 0.000000 
#    z -0.165880 0.000000 3.451020 
# 
# 
# High freq. dielectric constant tensor:
#      x y z
#    x 1.727850 0.000000 0.013590 
#    y 0.000000 1.740440 0.000000 
#    z 0.013590 0.000000 1.713080 
# 
# From -- ./inp_files/25711.got.cif
#   From: 2010.06.25/outbox.cif.g09.slc.cpg/sg11_13_cif.got.tgz:25711.got - 2010.06.27 23:14:04.
