data_PCOD8074668
_publ_section_title
;
Structure prediction by ZEFSAII (Michael W. Deem and Ramdas Pophale) SiO2 
 PCOD8074668
Probable space group: P 21/M
;
_chemical_formula_sum "Si O2"
_cell_formula_units_Z 32
_cell_length_a 27.193861
_cell_length_b 8.929306
_cell_length_c 21.321655
_cell_angle_alpha 90.000000
_cell_angle_beta 161.538098
_cell_angle_gamma 90.000000
_cell_volume 1639.539620
_symmetry_space_group_name_H-M "P 21/M"
_symmetry_group_IT_number 11
_symmetry_cell_setting 'monoclinic'
loop_
_space_group_symop_operation_xyz
x,y,z
-x,1/2+y,-z
-x,-y,-z
x,1/2-y,z
loop_
_atom_site_type_symbol
_atom_site_label
_atom_site_fract_x
_atom_site_fract_y
_atom_site_fract_z
Si Si1 0.954115 0.926156 0.878978
Si Si2 0.868739 0.419787 0.029205
Si Si3 0.418689 0.426707 0.992259
Si Si4 0.637332 0.428150 0.486065
Si Si5 0.361149 0.428070 0.062520
Si Si6 0.731372 0.426604 0.303150
Si Si7 0.047812 0.427229 0.747422
Si Si8 0.486139 0.576499 0.417056
O O1 0.932202 0.750000 0.863270
O O2 0.086608 0.962527 0.988019
O O3 0.799258 0.998092 0.662143
O O4 0.000000 0.000000 0.000000
O O5 0.918654 0.250000 0.103225
O O6 0.956555 0.522211 0.185710
O O7 0.686438 0.442930 0.817979
O O8 0.396867 0.250000 0.963143
O O9 0.293112 0.499278 0.794108
O O10 0.385367 0.489127 0.021488
O O11 0.592880 0.473301 0.182850
O O12 0.652671 0.250000 0.505405
O O13 0.505160 0.485015 0.278412
O O14 0.601767 0.486890 0.512348
O O15 0.358101 0.250000 0.059351
O O16 0.199518 0.491645 0.894967
O O17 0.735948 0.250000 0.299202
O O18 0.893142 0.488049 0.526447
O O19 0.049651 0.250000 0.748925
O O20 0.500000 0.500000 0.500000
O O21 0.535094 0.750000 0.480437
#
# Coordination Sequence:
#
# PCOD8074668 Si02
#       8
#     4   4   4   4   4   4   4   4
#     4  11  24  42  61  86 117 152 194 244 296 351
#     4  10  23  40  57  83 118 149 188 240 291 341
#     4   9  18  35  56  79 112 150 187 229 280 335
#     4  11  22  38  60  87 118 153 195 240 291 350
#     4   9  19  35  56  83 113 149 190 233 279 337
#     4   9  19  34  55  83 112 144 188 234 277 333
#     4  10  20  36  58  83 113 149 191 234 281 340
#     4  11  22  38  61  86 115 152 195 241 292 348
#
# _framework density 19.517672999999998
#
# number of rings (size 3 to 8) (size 9 to 14) (size 15 to 20)
#    0.000    2.000    1.250    1.875    1.750    3.500 
#    0.000    1.875    0.000    0.000    0.000    0.000 
#    0.000    0.000    0.000    0.000    0.000    0.000 
#
# Total GULP energy -396883.525661 kJ/mol
# GULP energy per Si atom -12402.610177 kJ/mol
# Density = 1.947325 g / cm^3
# Si number density = 19.517673 Si / 1000 Ang^3
#
#
#
# Elastic Constant Matrix: (Units=GPa)
#
#
# Indices 1 2 3 4 5 6 
#
# 1 111.5701 26.8100 33.2137 0.0000 -13.5324 0.0000
# 2 26.8100 51.7036 29.0786 0.0000 -2.7772 0.0000
# 3 33.2137 29.0786 109.3016 0.0000 -9.6862 0.0000
# 4 0.0000 0.0000 0.0000 30.8554 0.0000 -3.6365
# 5 -13.5324 -2.7772 -9.6862 0.0000 33.7877 0.0000
# 6 0.0000 0.0000 0.0000 -3.6365 0.0000 31.0942
#
#
#
# Elastic Compliance Matrix: (Units=1/GPa)
#
#
# Indices 1 2 3 4 5 6 
#
# 1 0.011016 -0.004487 -0.001842 0.000000 0.003515 0.000000
# 2 -0.004487 0.024573 -0.005288 0.000000 -0.001294 0.000000
# 3 -0.001842 -0.005288 0.011299 0.000000 0.002067 0.000000
# 4 0.000000 0.000000 0.000000 0.032862 0.000000 0.003843
# 5 0.003515 -0.001294 0.002067 0.000000 0.031491 0.000000
# 6 0.000000 0.000000 0.000000 0.003843 0.000000 0.032610
#
#
# Mechanical properties :
#
#
# Convention : Reuss Voigt Hill
#
# Bulk Modulus (GPa) = 42.28008 50.08665 46.18336
# Shear Modulus (GPa) = 28.57639 31.37897 29.97768
#
# Velocity S-wave (km/s) = 3.83054 4.01399 3.92334
# Velocity P-wave (km/s) = 6.42445 6.87028 6.65110
#
# Compressibility (1/GPa) = 0.02365180
#
# Stress axis : x y z
#
# Youngs Moduli (GPa) = 90.77694 40.69578 88.50466
#
# Poissons Ratio (x) = 0.18261 0.16304
# Poissons Ratio (y) = 0.40734 0.46804
# Poissons Ratio (z) = 0.16722 0.21521
#
# Static dielectric constant tensor:
#      x y z
#    x 3.668620 0.000000 0.141520 
#    y 0.000000 3.394990 0.000000 
#    z 0.141520 0.000000 3.851350 
# 
# 
# High freq. dielectric constant tensor:
#      x y z
#    x 1.767200 0.000000 0.000580 
#    y 0.000000 1.744380 0.000000 
#    z 0.000580 0.000000 1.768210 
# 
# From -- ./inp_files/67208.got.cif
#   From: 2010.06.25/outbox.cif.g09.slc.cpg/sg11_34_cif.got.tgz:67208.got - 2010.06.27 23:14:04.
