data_PCOD8074921
_publ_section_title
;
Structure prediction by ZEFSAII (Michael W. Deem and Ramdas Pophale) SiO2 
 PCOD8074921
Probable space group: P 21/M
;
_chemical_formula_sum "Si O2"
_cell_formula_units_Z 28
_cell_length_a 9.401858
_cell_length_b 13.571612
_cell_length_c 12.257175
_cell_angle_alpha 90.000000
_cell_angle_beta 62.675139
_cell_angle_gamma 90.000000
_cell_volume 1389.482003
_symmetry_space_group_name_H-M "P 21/M"
_symmetry_group_IT_number 11
_symmetry_cell_setting 'monoclinic'
loop_
_space_group_symop_operation_xyz
x,y,z
-x,1/2+y,-z
-x,-y,-z
x,1/2-y,z
loop_
_atom_site_type_symbol
_atom_site_label
_atom_site_fract_x
_atom_site_fract_y
_atom_site_fract_z
Si Si1 0.740985 0.638958 0.440113
Si Si2 0.597036 0.636824 0.260468
Si Si3 0.332568 0.639293 0.020186
Si Si4 0.695681 0.863147 0.873265
Si Si5 0.105591 0.861688 0.303589
Si Si6 0.691703 0.507180 0.662717
Si Si7 0.824521 0.968122 0.027594
O O1 0.725047 0.750000 0.492489
O O2 0.623934 0.624642 0.379598
O O3 0.687786 0.561022 0.548774
O O4 0.922075 0.620113 0.335764
O O5 0.553457 0.750000 0.246546
O O6 0.458586 0.564618 0.269950
O O7 0.758832 0.607550 0.140492
O O8 0.301068 0.750000 0.989810
O O9 0.221261 0.612751 0.161864
O O10 0.518107 0.625346 0.988310
O O11 0.285119 0.566594 0.938484
O O12 0.745495 0.750000 0.842207
O O13 0.697616 0.910567 0.753674
O O14 0.821321 0.915245 0.910176
O O15 0.132775 0.750000 0.333908
O O16 0.152228 0.936455 0.384496
O O17 0.000000 0.000000 0.000000
#
# Coordination Sequence:
#
# PCOD8074921 Si02
#       7
#     4   4   4   4   4   4   4
#     4  10  23  41  60  88 123 165 208 254 309 365
#     4  11  24  41  63  91 125 164 213 258 300 364
#     4  10  20  38  62  91 124 162 207 253 301 370
#     4  11  23  39  62  93 126 161 205 260 316 369
#     4  10  20  36  61  90 120 157 209 258 302 360
#     4  12  21  39  65  91 123 162 208 256 311 368
#     4  12  23  39  62  91 128 163 204 251 316 375
#
# _framework density 20.151392999999999
#
# number of rings (size 3 to 8) (size 9 to 14) (size 15 to 20)
#    0.000    1.143    2.857    4.286    0.000    3.429 
#    0.000    0.000    0.000    0.857    0.000    0.000 
#    0.000    0.000    0.000    0.000    0.000    0.000 
#
# Total GULP energy -347249.291176 kJ/mol
# GULP energy per Si atom -12401.760399 kJ/mol
# Density = 2.010553 g / cm^3
# Si number density = 20.151393 Si / 1000 Ang^3
#
#
#
# Elastic Constant Matrix: (Units=GPa)
#
#
# Indices 1 2 3 4 5 6 
#
# 1 102.2368 53.6811 16.0280 0.0000 6.1226 0.0000
# 2 53.6811 136.4158 35.7056 0.0000 15.1594 0.0000
# 3 16.0280 35.7056 71.4430 0.0000 10.9727 0.0000
# 4 0.0000 0.0000 0.0000 33.3042 0.0000 3.1480
# 5 6.1226 15.1594 10.9727 0.0000 25.9731 0.0000
# 6 0.0000 0.0000 0.0000 3.1480 0.0000 31.7722
#
#
#
# Elastic Compliance Matrix: (Units=1/GPa)
#
#
# Indices 1 2 3 4 5 6 
#
# 1 0.012338 -0.004755 -0.000397 0.000000 0.000035 0.000000
# 2 -0.004755 0.010550 -0.003670 0.000000 -0.003486 0.000000
# 3 -0.000397 -0.003670 0.016658 0.000000 -0.004802 0.000000
# 4 0.000000 0.000000 0.000000 0.030310 0.000000 -0.003003
# 5 0.000035 -0.003486 -0.004802 0.000000 0.042556 0.000000
# 6 0.000000 0.000000 0.000000 -0.003003 0.000000 0.031772
#
#
# Mechanical properties :
#
#
# Convention : Reuss Voigt Hill
#
# Bulk Modulus (GPa) = 45.65941 57.88057 51.76999
# Shear Modulus (GPa) = 29.56322 31.85529 30.70926
#
# Velocity S-wave (km/s) = 3.83437 3.98024 3.90799
# Velocity P-wave (km/s) = 6.50466 7.06458 6.79039
#
# Compressibility (1/GPa) = 0.02190129
#
# Stress axis : x y z
#
# Youngs Moduli (GPa) = 81.04957 94.78855 60.03116
#
# Poissons Ratio (x) = 0.45074 0.02382
# Poissons Ratio (y) = 0.38540 0.22034
# Poissons Ratio (z) = 0.03216 0.34791
#
# Static dielectric constant tensor:
#      x y z
#    x 3.610800 0.000000 0.014540 
#    y 0.000000 3.968240 0.000000 
#    z 0.014540 0.000000 3.372890 
# 
# 
# High freq. dielectric constant tensor:
#      x y z
#    x 1.785760 0.000000 0.003410 
#    y 0.000000 1.811140 0.000000 
#    z 0.003410 0.000000 1.763850 
# 
# From -- ./inp_files/17681.got.cif
#   From: 2010.06.25/outbox.cif.g09.slc.cpg/sg11_9_cif.got.tgz:17681.got - 2010.06.27 23:14:04.
