data_PCOD8074214
_publ_section_title
;
Structure prediction by ZEFSAII (Michael W. Deem and Ramdas Pophale) SiO2 
 PCOD8074214
Probable space group: P 21/M
;
_chemical_formula_sum "Si O2"
_cell_formula_units_Z 28
_cell_length_a 24.996463
_cell_length_b 9.007321
_cell_length_c 9.001264
_cell_angle_alpha 90.000000
_cell_angle_beta 44.508691
_cell_angle_gamma 90.000000
_cell_volume 1420.713564
_symmetry_space_group_name_H-M "P 21/M"
_symmetry_group_IT_number 11
_symmetry_cell_setting 'monoclinic'
loop_
_space_group_symop_operation_xyz
x,y,z
-x,1/2+y,-z
-x,-y,-z
x,1/2-y,z
loop_
_atom_site_type_symbol
_atom_site_label
_atom_site_fract_x
_atom_site_fract_y
_atom_site_fract_z
Si Si1 0.871747 0.923911 0.924186
Si Si2 0.264693 0.578113 0.642241
Si Si3 0.580580 0.923225 0.167593
Si Si4 0.707415 0.424024 0.749367
Si Si5 0.841297 0.578849 0.645884
Si Si6 0.005794 0.076375 0.830394
Si Si7 0.408599 0.920860 0.553263
O O1 0.883908 0.750000 0.926909
O O2 0.864936 0.964130 0.765154
O O3 0.944612 0.010475 0.839141
O O4 0.796239 0.974223 0.158502
O O5 0.241124 0.750000 0.708444
O O6 0.267075 0.531286 0.466033
O O7 0.347671 0.546806 0.546150
O O8 0.596498 0.750000 0.127029
O O9 0.491524 0.963307 0.324228
O O10 0.611614 0.980235 0.264451
O O11 0.626063 0.001781 0.944885
O O12 0.697268 0.250000 0.786269
O O13 0.770095 0.478749 0.741985
O O14 0.816452 0.750000 0.685097
O O15 0.910862 0.543833 0.398790
O O16 0.989881 0.250000 0.880245
O O17 0.000000 0.000000 0.000000
O O18 0.407473 0.750000 0.607105
#
# Coordination Sequence:
#
# PCOD8074214 Si02
#       7
#     4   4   4   4   4   4   4
#     4  11  23  39  60  86 114 147 189 233 279 333
#     4  10  22  39  57  81 113 149 190 234 282 335
#     4  10  20  35  57  84 113 146 187 234 283 337
#     4  11  23  37  56  82 113 149 188 231 281 337
#     4  10  23  41  60  84 114 148 189 234 279 331
#     4  11  23  40  62  88 119 152 186 229 280 333
#     4   9  19  37  59  82 111 148 189 234 283 335
#
# _framework density 19.708404999999999
#
# number of rings (size 3 to 8) (size 9 to 14) (size 15 to 20)
#    0.000    1.714    0.000    3.857    0.000    9.714 
#    0.000    0.000    0.000    0.000    0.000    0.000 
#    0.000    0.000    0.000    0.000    0.000    0.000 
#
# Total GULP energy -347377.785497 kJ/mol
# GULP energy per Si atom -12406.349482 kJ/mol
# Density = 1.966355 g / cm^3
# Si number density = 19.708405 Si / 1000 Ang^3
#
#
#
# Elastic Constant Matrix: (Units=GPa)
#
#
# Indices 1 2 3 4 5 6 
#
# 1 61.7909 22.9370 4.0586 0.0000 1.7372 0.0000
# 2 22.9370 80.3159 43.0133 0.0000 3.9179 0.0000
# 3 4.0586 43.0133 89.8301 0.0000 9.1969 0.0000
# 4 0.0000 0.0000 0.0000 37.6708 0.0000 -0.7952
# 5 1.7372 3.9179 9.1969 0.0000 29.7156 0.0000
# 6 0.0000 0.0000 0.0000 -0.7952 0.0000 32.5579
#
#
#
# Elastic Compliance Matrix: (Units=1/GPa)
#
#
# Indices 1 2 3 4 5 6 
#
# 1 0.018467 -0.006500 0.002376 0.000000 -0.000958 0.000000
# 2 -0.006500 0.019035 -0.008884 0.000000 0.000620 0.000000
# 3 0.002376 -0.008884 0.015670 0.000000 -0.003817 0.000000
# 4 0.000000 0.000000 0.000000 0.026559 0.000000 0.000649
# 5 -0.000958 0.000620 -0.003817 0.000000 0.034808 0.000000
# 6 0.000000 0.000000 0.000000 0.000649 0.000000 0.030730
#
#
# Mechanical properties :
#
#
# Convention : Reuss Voigt Hill
#
# Bulk Modulus (GPa) = 36.82469 41.32829 39.07649
# Shear Modulus (GPa) = 27.72587 30.78407 29.25497
#
# Velocity S-wave (km/s) = 3.75481 3.95647 3.85696
# Velocity P-wave (km/s) = 6.12564 6.47201 6.30121
#
# Compressibility (1/GPa) = 0.02715570
#
# Stress axis : x y z
#
# Youngs Moduli (GPa) = 54.15014 52.53556 63.81791
#
# Poissons Ratio (x) = 0.34146 -0.15163
# Poissons Ratio (y) = 0.35196 0.56697
# Poissons Ratio (z) = -0.12866 0.46674
#
# Static dielectric constant tensor:
#      x y z
#    x 3.646870 0.000000 -0.024790 
#    y 0.000000 3.632380 0.000000 
#    z -0.024790 0.000000 3.724890 
# 
# 
# High freq. dielectric constant tensor:
#      x y z
#    x 1.774030 0.000000 -0.003800 
#    y 0.000000 1.773920 0.000000 
#    z -0.003800 0.000000 1.781140 
# 
# From -- ./inp_files/28423.got.cif
#   From: 2010.06.25/outbox.cif.g09.slc.cpg/sg11_15_cif.got.tgz:28423.got - 2010.06.27 23:14:04.
