data_PCOD8074340
_publ_section_title
;
Structure prediction by ZEFSAII (Michael W. Deem and Ramdas Pophale) SiO2 
 PCOD8074340
Probable space group: P 21/M
;
_chemical_formula_sum "Si O2"
_cell_formula_units_Z 28
_cell_length_a 20.952953
_cell_length_b 9.030525
_cell_length_c 18.532795
_cell_angle_alpha 90.000000
_cell_angle_beta 22.251591
_cell_angle_gamma 90.000000
_cell_volume 1327.898901
_symmetry_space_group_name_H-M "P 21/M"
_symmetry_group_IT_number 11
_symmetry_cell_setting 'monoclinic'
loop_
_space_group_symop_operation_xyz
x,y,z
-x,1/2+y,-z
-x,-y,-z
x,1/2-y,z
loop_
_atom_site_type_symbol
_atom_site_label
_atom_site_fract_x
_atom_site_fract_y
_atom_site_fract_z
Si Si1 0.775705 0.411664 0.576772
Si Si2 0.345001 0.926046 0.513763
Si Si3 0.835823 0.411597 0.681201
Si Si4 0.939719 0.924531 0.287584
Si Si5 0.269641 0.419048 0.887214
Si Si6 0.820361 0.578530 0.183021
Si Si7 0.452257 0.078003 0.975367
O O1 0.822579 0.250000 0.494759
O O2 0.765714 0.400778 0.673542
O O3 0.899072 0.534580 0.413790
O O4 0.575624 0.449072 0.776516
O O5 0.318252 0.750000 0.546242
O O6 0.539449 0.963498 0.288760
O O7 0.208860 0.992666 0.600537
O O8 0.310142 0.997888 0.627735
O O9 0.868445 0.250000 0.679628
O O10 0.725045 0.499049 0.856639
O O11 0.000000 0.500000 0.500000
O O12 0.928285 0.750000 0.286586
O O13 0.127877 0.977741 0.071985
O O14 0.232085 0.250000 0.949207
O O15 0.257108 0.437450 0.814758
O O16 0.842343 0.750000 0.182474
O O17 0.000000 0.500000 0.000000
O O18 0.422044 0.250000 0.021855
O O19 0.500000 0.000000 0.000000
#
# Coordination Sequence:
#
# PCOD8074340 Si02
#       7
#     4   4   4   4   4   4   4
#     4   9  20  39  60  82 114 157 196 232 290 359
#     4  11  23  41  64  89 120 161 205 252 306 366
#     4  10  20  35  58  88 119 152 190 241 293 347
#     4  12  25  40  62  89 122 162 203 256 307 359
#     4  10  23  42  64  88 120 163 205 250 305 366
#     4  11  21  36  62  93 122 159 202 252 310 362
#     4   9  17  32  56  82 108 143 184 230 282 339
#
# _framework density 21.085940999999998
#
# number of rings (size 3 to 8) (size 9 to 14) (size 15 to 20)
#    0.000    1.714    1.429    4.286    0.000    5.143 
#    2.571    0.000    0.000    0.000    0.000    0.000 
#    0.000    0.000    0.000    0.000    0.000    0.000 
#
# Total GULP energy -346866.147936 kJ/mol
# GULP energy per Si atom -12388.076712 kJ/mol
# Density = 2.103795 g / cm^3
# Si number density = 21.085941 Si / 1000 Ang^3
#
#
#
# Elastic Constant Matrix: (Units=GPa)
#
#
# Indices 1 2 3 4 5 6 
#
# 1 17.2513 19.9473 20.5017 0.0000 -0.6276 0.0000
# 2 19.9473 174.9306 94.2080 0.0000 0.7148 0.0000
# 3 20.5017 94.2080 169.9398 0.0000 -6.6919 0.0000
# 4 0.0000 0.0000 0.0000 43.8589 0.0000 2.7593
# 5 -0.6276 0.7148 -6.6919 0.0000 30.7514 0.0000
# 6 0.0000 0.0000 0.0000 2.7593 0.0000 25.2003
#
#
#
# Elastic Compliance Matrix: (Units=1/GPa)
#
#
# Indices 1 2 3 4 5 6 
#
# 1 0.070536 -0.004944 -0.005757 0.000000 0.000302 0.000000
# 2 -0.004944 0.008539 -0.004185 0.000000 -0.001210 0.000000
# 3 -0.005757 -0.004185 0.008975 0.000000 0.001933 0.000000
# 4 0.000000 0.000000 0.000000 0.022959 0.000000 -0.002514
# 5 0.000302 -0.001210 0.001933 0.000000 0.032974 0.000000
# 6 0.000000 0.000000 0.000000 -0.002514 0.000000 0.039957
#
#
# Mechanical properties :
#
#
# Convention : Reuss Voigt Hill
#
# Bulk Modulus (GPa) = 17.15903 70.15953 43.65928
# Shear Modulus (GPa) = 21.44659 35.12646 28.28652
#
# Velocity S-wave (km/s) = 3.19267 4.08594 3.66661
# Velocity P-wave (km/s) = 4.66328 7.45689 6.21898
#
# Compressibility (1/GPa) = 0.05827837
#
# Stress axis : x y z
#
# Youngs Moduli (GPa) = 14.17715 117.10940 111.42079
#
# Poissons Ratio (x) = 0.57901 0.64143
# Poissons Ratio (y) = 0.07009 0.46628
# Poissons Ratio (z) = 0.08161 0.49009
#
# Static dielectric constant tensor:
#      x y z
#    x 3.344350 0.000000 0.146390 
#    y 0.000000 4.009530 0.000000 
#    z 0.146390 0.000000 4.202500 
# 
# 
# High freq. dielectric constant tensor:
#      x y z
#    x 1.797730 0.000000 -0.002480 
#    y 0.000000 1.833100 0.000000 
#    z -0.002480 0.000000 1.851050 
# 
# From -- ./inp_files/66700.got.cif
#   From: 2010.06.25/outbox.cif.g09.slc.cpg/sg11_34_cif.got.tgz:66700.got - 2010.06.27 23:14:04.
