data_PCOD8074909
_publ_section_title
;
Structure prediction by ZEFSAII (Michael W. Deem and Ramdas Pophale) SiO2 
 PCOD8074909
Probable space group: P 21/M
;
_chemical_formula_sum "Si O2"
_cell_formula_units_Z 14
_cell_length_a 9.481908
_cell_length_b 5.209312
_cell_length_c 15.634816
_cell_angle_alpha 90.000000
_cell_angle_beta 95.996714
_cell_angle_gamma 90.000000
_cell_volume 768.043552
_symmetry_space_group_name_H-M "P 21/M"
_symmetry_group_IT_number 11
_symmetry_cell_setting 'monoclinic'
loop_
_space_group_symop_operation_xyz
x,y,z
-x,1/2+y,-z
-x,-y,-z
x,1/2-y,z
loop_
_atom_site_type_symbol
_atom_site_label
_atom_site_fract_x
_atom_site_fract_y
_atom_site_fract_z
Si Si1 0.906295 0.250000 0.974344
Si Si2 0.590201 0.750000 0.513661
Si Si3 0.415305 0.750000 0.025719
Si Si4 0.746316 0.750000 0.702417
Si Si5 0.015746 0.750000 0.616565
Si Si6 0.854692 0.750000 0.426702
Si Si7 0.282808 0.750000 0.189491
O O1 0.752665 0.250000 0.015498
O O2 0.867835 0.250000 0.870699
O O3 0.000000 0.500000 0.000000
O O4 0.500000 0.500000 0.500000
O O5 0.668215 0.750000 0.608014
O O6 0.690414 0.750000 0.437700
O O7 0.412376 0.750000 0.129336
O O8 0.500000 0.500000 0.000000
O O9 0.703128 0.500016 0.751811
O O10 0.913009 0.750000 0.691787
O O11 0.111510 0.497107 0.628726
O O12 0.938295 0.750000 0.520849
#
# Coordination Sequence:
#
# PCOD8074909 Si02
#       7
#     2   2   2   2   2   2   2
#     4  10  20  36  61  89 117 147 189 247 291 345
#     4  11  22  35  56  78 109 154 200 235 283 341
#     4  10  20  36  61  89 117 157 206 236 284 372
#     4  11  20  37  55  86 110 150 189 252 282 341
#     4   9  17  29  53  72 101 130 176 234 275 318
#     4   9  17  31  48  76  95 132 186 227 269 323
#     4  10  22  34  62  84 117 144 194 239 298 348
#
# _framework density 18.228135000000002
#
# number of rings (size 3 to 8) (size 9 to 14) (size 15 to 20)
#    0.857    1.143    0.000    5.143    0.000    4.571 
#    0.000    0.000    0.000   34.286    0.000    0.000 
#    0.000    0.000    0.000    0.000    0.000    0.000 
#
# Total GULP energy -173495.246194 kJ/mol
# GULP energy per Si atom -12392.517585 kJ/mol
# Density = 1.818665 g / cm^3
# Si number density = 18.228135 Si / 1000 Ang^3
#
#
#
# Elastic Constant Matrix: (Units=GPa)
#
#
# Indices 1 2 3 4 5 6 
#
# 1 144.7581 86.4604 35.4534 0.0000 -27.3037 0.0000
# 2 86.4604 208.5298 44.6992 0.0000 -26.6472 0.0000
# 3 35.4534 44.6992 69.9960 0.0000 -23.0456 0.0000
# 4 0.0000 0.0000 0.0000 32.5314 0.0000 -6.2202
# 5 -27.3037 -26.6472 -23.0456 0.0000 38.1323 0.0000
# 6 0.0000 0.0000 0.0000 -6.2202 0.0000 46.7744
#
#
#
# Elastic Compliance Matrix: (Units=1/GPa)
#
#
# Indices 1 2 3 4 5 6 
#
# 1 0.010020 -0.003298 -0.001705 0.000000 0.003839 0.000000
# 2 -0.003298 0.006789 -0.002348 0.000000 0.000964 0.000000
# 3 -0.001705 -0.002348 0.019609 0.000000 0.008990 0.000000
# 4 0.000000 0.000000 0.000000 0.031542 0.000000 0.004194
# 5 0.003839 0.000964 0.008990 0.000000 0.035080 0.000000
# 6 0.000000 0.000000 0.000000 0.004194 0.000000 0.021937
#
#
# Mechanical properties :
#
#
# Convention : Reuss Voigt Hill
#
# Bulk Modulus (GPa) = 46.04769 84.05666 65.05218
# Shear Modulus (GPa) = 34.03277 40.59902 37.31590
#
# Velocity S-wave (km/s) = 4.32562 4.72452 4.52946
# Velocity P-wave (km/s) = 7.08976 8.71638 7.94481
#
# Compressibility (1/GPa) = 0.02171661
#
# Stress axis : x y z
#
# Youngs Moduli (GPa) = 99.80275 147.28694 50.99705
#
# Poissons Ratio (x) = 0.48581 0.08694
# Poissons Ratio (y) = 0.32919 0.11973
# Poissons Ratio (z) = 0.17014 0.34579
#
# Static dielectric constant tensor:
#      x y z
#    x 3.519780 0.000000 -0.180920 
#    y 0.000000 3.647580 0.000000 
#    z -0.180920 0.000000 3.169190 
# 
# 
# High freq. dielectric constant tensor:
#      x y z
#    x 1.705510 0.000000 -0.019500 
#    y 0.000000 1.731420 0.000000 
#    z -0.019500 0.000000 1.678370 
# 
# From -- ./inp_files/28878.got.cif
#   From: 2010.06.25/outbox.cif.g09.slc.cpg/sg11_15_cif.got.tgz:28878.got - 2010.06.27 23:14:04.
