data_PCOD8074870
_publ_section_title
;
Structure prediction by ZEFSAII (Michael W. Deem and Ramdas Pophale) SiO2 
 PCOD8074870
Probable space group: P 21/M
;
_chemical_formula_sum "Si O2"
_cell_formula_units_Z 32
_cell_length_a 14.284980
_cell_length_b 8.748548
_cell_length_c 27.886747
_cell_angle_alpha 90.000000
_cell_angle_beta 28.905958
_cell_angle_gamma 90.000000
_cell_volume 1684.597824
_symmetry_space_group_name_H-M "P 21/M"
_symmetry_group_IT_number 11
_symmetry_cell_setting 'monoclinic'
loop_
_space_group_symop_operation_xyz
x,y,z
-x,1/2+y,-z
-x,-y,-z
x,1/2-y,z
loop_
_atom_site_type_symbol
_atom_site_label
_atom_site_fract_x
_atom_site_fract_y
_atom_site_fract_z
Si Si1 0.790626 0.928731 0.395311
Si Si2 0.101108 0.929340 0.001262
Si Si3 0.194019 0.578103 0.802934
Si Si4 0.561941 0.922305 0.697186
Si Si5 0.383035 0.569974 0.618830
Si Si6 0.479800 0.929866 0.185448
Si Si7 0.108809 0.570037 0.496027
Si Si8 0.116380 0.070569 0.308056
O O1 0.832786 0.750000 0.378635
O O2 0.610082 0.973962 0.511014
O O3 0.743297 0.977031 0.362520
O O4 0.986786 0.016337 0.321642
O O5 0.109060 0.750000 0.989941
O O6 0.982512 0.969139 0.102955
O O7 0.315532 0.990038 0.914326
O O8 0.000000 0.000000 0.000000
O O9 0.116312 0.750000 0.829284
O O10 0.337974 0.577284 0.783722
O O11 0.304756 0.519075 0.705946
O O12 0.633635 0.750000 0.676376
O O13 0.601472 0.024861 0.725969
O O14 0.679027 0.992720 0.599754
O O15 0.356752 0.750000 0.621577
O O16 0.506998 0.750000 0.169286
O O17 0.325201 0.987094 0.215069
O O18 0.128354 0.750000 0.482562
O O19 0.000000 0.500000 0.500000
O O20 0.001510 0.520850 0.592121
O O21 0.153380 0.250000 0.288157
#
# Coordination Sequence:
#
# PCOD8074870 Si02
#       8
#     4   4   4   4   4   4   4   4
#     4  10  20  36  60  89 119 154 194 239 287 342
#     4  12  24  39  59  83 114 152 195 243 293 344
#     4  10  21  37  59  84 114 151 191 238 291 344
#     4  11  21  34  53  78 113 150 188 232 280 337
#     4   9  19  37  60  88 120 155 191 237 290 341
#     4  12  24  38  57  80 110 150 194 237 284 342
#     4  11  22  33  49  73 108 149 189 230 275 332
#     4  11  23  38  56  80 113 155 195 236 287 345
#
# _framework density 18.995632000000001
#
# number of rings (size 3 to 8) (size 9 to 14) (size 15 to 20)
#    0.000    1.250    2.500    4.500    0.000    4.000 
#    0.000    0.000    0.000    0.750    0.000    0.000 
#    0.000    0.000    0.000    0.000    0.000    0.000 
#
# Total GULP energy -396858.908571 kJ/mol
# GULP energy per Si atom -12401.840893 kJ/mol
# Density = 1.895240 g / cm^3
# Si number density = 18.995632 Si / 1000 Ang^3
#
#
#
# Elastic Constant Matrix: (Units=GPa)
#
#
# Indices 1 2 3 4 5 6 
#
# 1 88.2481 35.5694 37.3329 0.0000 -16.4375 0.0000
# 2 35.5694 105.5981 42.3831 0.0000 -12.0212 0.0000
# 3 37.3329 42.3831 94.4483 0.0000 -16.5983 0.0000
# 4 0.0000 0.0000 0.0000 31.3223 0.0000 -3.4161
# 5 -16.4375 -12.0212 -16.5983 0.0000 30.2885 0.0000
# 6 0.0000 0.0000 0.0000 -3.4161 0.0000 30.6045
#
#
#
# Elastic Compliance Matrix: (Units=1/GPa)
#
#
# Indices 1 2 3 4 5 6 
#
# 1 0.015039 -0.003008 -0.003729 0.000000 0.004924 0.000000
# 2 -0.003008 0.012255 -0.004141 0.000000 0.000962 0.000000
# 3 -0.003729 -0.004141 0.014690 0.000000 0.004383 0.000000
# 4 0.000000 0.000000 0.000000 0.032320 0.000000 0.003607
# 5 0.004924 0.000962 0.004383 0.000000 0.038472 0.000000
# 6 0.000000 0.000000 0.000000 0.003607 0.000000 0.033078
#
#
# Mechanical properties :
#
#
# Convention : Reuss Voigt Hill
#
# Bulk Modulus (GPa) = 49.43917 57.65168 53.54543
# Shear Modulus (GPa) = 28.67750 29.97701 29.32725
#
# Velocity S-wave (km/s) = 3.88969 3.97684 3.93351
# Velocity P-wave (km/s) = 6.80118 7.17655 6.99138
#
# Compressibility (1/GPa) = 0.02022688
#
# Stress axis : x y z
#
# Youngs Moduli (GPa) = 66.49366 81.60078 68.07165
#
# Poissons Ratio (x) = 0.24549 0.25385
# Poissons Ratio (y) = 0.20004 0.28189
# Poissons Ratio (z) = 0.24797 0.33792
#
# Static dielectric constant tensor:
#      x y z
#    x 3.369550 0.000000 -0.148240 
#    y 0.000000 3.561400 0.000000 
#    z -0.148240 0.000000 3.645930 
# 
# 
# High freq. dielectric constant tensor:
#      x y z
#    x 1.723950 0.000000 -0.015540 
#    y 0.000000 1.746900 0.000000 
#    z -0.015540 0.000000 1.730250 
# 
# From -- ./inp_files/71614.got.cif
#   From: 2010.06.25/outbox.cif.g09.slc.cpg/sg11_36_cif.got.tgz:71614.got - 2010.06.27 23:14:04.
