data_PCOD8074499
_publ_section_title
;
Structure prediction by ZEFSAII (Michael W. Deem and Ramdas Pophale) SiO2 
 PCOD8074499
Probable space group: P 21/M
;
_chemical_formula_sum "Si O2"
_cell_formula_units_Z 28
_cell_length_a 30.767726
_cell_length_b 8.671427
_cell_length_c 9.942664
_cell_angle_alpha 90.000000
_cell_angle_beta 144.119469
_cell_angle_gamma 90.000000
_cell_volume 1554.741843
_symmetry_space_group_name_H-M "P 21/M"
_symmetry_group_IT_number 11
_symmetry_cell_setting 'monoclinic'
loop_
_space_group_symop_operation_xyz
x,y,z
-x,1/2+y,-z
-x,-y,-z
x,1/2-y,z
loop_
_atom_site_type_symbol
_atom_site_label
_atom_site_fract_x
_atom_site_fract_y
_atom_site_fract_z
Si Si1 0.722335 0.568545 0.660436
Si Si2 0.283117 0.434102 0.051557
Si Si3 0.846691 0.566756 0.775196
Si Si4 0.555681 0.567339 0.247222
Si Si5 0.004552 0.569440 0.864936
Si Si6 0.558841 0.067121 0.545434
Si Si7 0.157380 0.431221 0.539255
O O1 0.731105 0.750000 0.675973
O O2 0.739434 0.512054 0.854792
O O3 0.781164 0.495913 0.703334
O O4 0.638907 0.520764 0.410343
O O5 0.291452 0.250000 0.065664
O O6 0.360789 0.509131 0.205319
O O7 0.220955 0.500788 0.794309
O O8 0.846788 0.750000 0.776805
O O9 0.835875 0.502210 0.595909
O O10 0.925722 0.509722 0.035183
O O11 0.546967 0.750000 0.237085
O O12 0.537544 0.493912 0.345081
O O13 0.500000 0.500000 0.000000
O O14 0.019232 0.750000 0.909170
O O15 0.923586 0.533289 0.596944
O O16 0.000000 0.500000 0.000000
O O17 0.556252 0.250000 0.539564
O O18 0.500000 0.000000 0.500000
O O19 0.169385 0.250000 0.560003
#
# Coordination Sequence:
#
# PCOD8074499 Si02
#       7
#     4   4   4   4   4   4   4
#     4   8  16  30  49  69  95 128 162 195 239 295
#     4   9  17  33  52  70  94 129 165 201 245 299
#     4   9  16  29  47  69  93 124 161 197 236 287
#     4  10  20  36  56  80 106 137 173 211 254 305
#     4   9  16  28  45  68  94 123 156 196 241 287
#     4  11  22  37  55  77 104 136 171 213 259 308
#     4   8  15  27  47  69  92 123 161 197 239 293
#
# _framework density 18.009421
#
# number of rings (size 3 to 8) (size 9 to 14) (size 15 to 20)
#    0.000    2.857    0.000    3.857    0.000    1.143 
#    0.000   10.714    0.000    0.000    0.000    0.000 
#    0.000    0.000    0.000    0.000    0.000    0.000 
#
# Total GULP energy -346999.600410 kJ/mol
# GULP energy per Si atom -12392.842872 kJ/mol
# Density = 1.796843 g / cm^3
# Si number density = 18.009421 Si / 1000 Ang^3
#
#
#
# Elastic Constant Matrix: (Units=GPa)
#
#
# Indices 1 2 3 4 5 6 
#
# 1 157.7435 34.7482 85.9637 0.0000 26.0698 0.0000
# 2 34.7482 59.5994 37.9128 0.0000 7.0603 0.0000
# 3 85.9637 37.9128 159.9859 0.0000 17.3798 0.0000
# 4 0.0000 0.0000 0.0000 25.6713 0.0000 5.1580
# 5 26.0698 7.0603 17.3798 0.0000 19.0528 0.0000
# 6 0.0000 0.0000 0.0000 5.1580 0.0000 23.4061
#
#
#
# Elastic Compliance Matrix: (Units=1/GPa)
#
#
# Indices 1 2 3 4 5 6 
#
# 1 0.010799 -0.002480 -0.004117 0.000000 -0.010101 0.000000
# 2 -0.002480 0.020525 -0.003412 0.000000 -0.001100 0.000000
# 3 -0.004117 -0.003412 0.009459 0.000000 -0.001731 0.000000
# 4 0.000000 0.000000 0.000000 0.040759 0.000000 -0.008982
# 5 -0.010101 -0.001100 -0.001731 0.000000 0.068293 0.000000
# 6 0.000000 0.000000 0.000000 -0.008982 0.000000 0.044703
#
#
# Mechanical properties :
#
#
# Convention : Reuss Voigt Hill
#
# Bulk Modulus (GPa) = 48.15839 77.17538 62.66688
# Shear Modulus (GPa) = 22.57538 28.20630 25.39084
#
# Velocity S-wave (km/s) = 3.54437 3.96181 3.75889
# Velocity P-wave (km/s) = 6.59915 7.99211 7.32880
#
# Compressibility (1/GPa) = 0.02076482
#
# Stress axis : x y z
#
# Youngs Moduli (GPa) = 92.60126 48.71996 105.71431
#
# Poissons Ratio (x) = 0.12084 0.43527
# Poissons Ratio (y) = 0.22968 0.36068
# Poissons Ratio (z) = 0.38128 0.16622
#
# Static dielectric constant tensor:
#      x y z
#    x 3.655800 0.000000 0.197930 
#    y 0.000000 3.176930 0.000000 
#    z 0.197930 0.000000 3.686420 
# 
# 
# High freq. dielectric constant tensor:
#      x y z
#    x 1.695300 0.000000 0.018000 
#    y 0.000000 1.675180 0.000000 
#    z 0.018000 0.000000 1.696780 
# 
# From -- ./inp_files/29117.got.cif
#   From: 2010.06.25/outbox.cif.g09.slc.cpg/sg11_15_cif.got.tgz:29117.got - 2010.06.27 23:14:04.
