data_PCOD8074364
_publ_section_title
;
Structure prediction by ZEFSAII (Michael W. Deem and Ramdas Pophale) SiO2 
 PCOD8074364
Probable space group: P 21/M
;
_chemical_formula_sum "Si O2"
_cell_formula_units_Z 28
_cell_length_a 12.695234
_cell_length_b 9.060692
_cell_length_c 15.456001
_cell_angle_alpha 90.000000
_cell_angle_beta 53.826316
_cell_angle_gamma 90.000000
_cell_volume 1435.150055
_symmetry_space_group_name_H-M "P 21/M"
_symmetry_group_IT_number 11
_symmetry_cell_setting 'monoclinic'
loop_
_space_group_symop_operation_xyz
x,y,z
-x,1/2+y,-z
-x,-y,-z
x,1/2-y,z
loop_
_atom_site_type_symbol
_atom_site_label
_atom_site_fract_x
_atom_site_fract_y
_atom_site_fract_z
Si Si1 0.886309 0.074568 0.004111
Si Si2 0.172289 0.577256 0.493048
Si Si3 0.092220 0.922702 0.339445
Si Si4 0.547876 0.905696 0.053669
Si Si5 0.160198 0.412446 0.139919
Si Si6 0.548256 0.423763 0.564070
Si Si7 0.371190 0.075096 0.809366
O O1 0.894254 0.250000 0.001959
O O2 0.755839 0.023643 0.116400
O O3 0.909841 0.019977 0.894286
O O4 0.000000 0.000000 0.000000
O O5 0.147834 0.750000 0.522138
O O6 0.169236 0.545701 0.391412
O O7 0.308430 0.525300 0.471272
O O8 0.055402 0.484019 0.591409
O O9 0.086625 0.750000 0.321792
O O10 0.171876 0.007535 0.226697
O O11 0.473200 0.750000 0.082051
O O12 0.528023 0.966077 0.160826
O O13 0.700363 0.883974 0.968421
O O14 0.500000 0.000000 0.000000
O O15 0.091852 0.250000 0.182052
O O16 0.500000 0.500000 0.500000
O O17 0.550338 0.250000 0.547509
O O18 0.441447 0.469052 0.686946
O O19 0.337533 0.250000 0.828965
#
# Coordination Sequence:
#
# PCOD8074364 Si02
#       7
#     4   4   4   4   4   4   4
#     4  11  22  38  60  85 114 150 191 235 285 342
#     4   9  20  38  58  81 115 155 194 241 300 355
#     4  10  20  35  59  87 114 149 195 244 296 354
#     4   9  19  33  53  80 111 145 180 222 279 341
#     4  10  21  37  55  81 115 148 185 231 283 342
#     4  10  22  40  61  84 114 156 200 244 292 348
#     4   9  20  39  58  80 115 153 189 234 288 340
#
# _framework density 19.510154
#
# number of rings (size 3 to 8) (size 9 to 14) (size 15 to 20)
#    0.000    2.286    0.000    3.000    2.000    5.714 
#    0.000    2.857    0.000    0.000    0.000    0.000 
#    0.000    0.000    0.000    0.000    0.000    0.000 
#
# Total GULP energy -346953.032867 kJ/mol
# GULP energy per Si atom -12391.179745 kJ/mol
# Density = 1.946575 g / cm^3
# Si number density = 19.510154 Si / 1000 Ang^3
#
#
#
# Elastic Constant Matrix: (Units=GPa)
#
#
# Indices 1 2 3 4 5 6 
#
# 1 129.3124 53.8265 41.1624 0.0000 24.9585 0.0000
# 2 53.8265 107.5622 42.1334 0.0000 15.1627 0.0000
# 3 41.1624 42.1334 103.9550 0.0000 30.2791 0.0000
# 4 0.0000 0.0000 0.0000 34.2820 0.0000 3.7260
# 5 24.9585 15.1627 30.2791 0.0000 28.4752 0.0000
# 6 0.0000 0.0000 0.0000 3.7260 0.0000 33.9952
#
#
#
# Elastic Compliance Matrix: (Units=1/GPa)
#
#
# Indices 1 2 3 4 5 6 
#
# 1 0.011029 -0.004315 -0.000683 0.000000 -0.006642 0.000000
# 2 -0.004315 0.012792 -0.003757 0.000000 0.000966 0.000000
# 3 -0.000683 -0.003757 0.015437 0.000000 -0.013815 0.000000
# 4 0.000000 0.000000 0.000000 0.029522 0.000000 -0.003236
# 5 -0.006642 0.000966 -0.013815 0.000000 0.055116 0.000000
# 6 0.000000 0.000000 0.000000 -0.003236 0.000000 0.029771
#
#
# Mechanical properties :
#
#
# Convention : Reuss Voigt Hill
#
# Bulk Modulus (GPa) = 45.98504 68.34158 57.16331
# Shear Modulus (GPa) = 28.02269 32.93096 30.47682
#
# Velocity S-wave (km/s) = 3.79398 4.11285 3.95663
# Velocity P-wave (km/s) = 6.54319 7.59334 7.08774
#
# Compressibility (1/GPa) = 0.02174620
#
# Stress axis : x y z
#
# Youngs Moduli (GPa) = 90.67033 78.17421 64.77951
#
# Poissons Ratio (x) = 0.33733 0.04427
# Poissons Ratio (y) = 0.39125 0.24340
# Poissons Ratio (z) = 0.06196 0.29373
#
# Static dielectric constant tensor:
#      x y z
#    x 4.255770 0.000000 -2.503840 
#    y 0.000000 3.826190 0.000000 
#    z -2.503840 0.000000 11.420310 
# 
# 
# High freq. dielectric constant tensor:
#      x y z
#    x 1.755930 0.000000 0.012900 
#    y 0.000000 1.761040 0.000000 
#    z 0.012900 0.000000 1.763840 
# 
# From -- ./inp_files/49125.got.cif
#   From: 2010.06.25/outbox.cif.g09.slc.cpg/sg11_25_cif.got.tgz:49125.got - 2010.06.27 23:14:04.
