data_PCOD8074007
_publ_section_title
;
Structure prediction by ZEFSAII (Michael W. Deem and Ramdas Pophale) SiO2 
 PCOD8074007
Probable space group: P 21/M
;
_chemical_formula_sum "Si O2"
_cell_formula_units_Z 20
_cell_length_a 9.582804
_cell_length_b 14.187455
_cell_length_c 6.830160
_cell_angle_alpha 90.000000
_cell_angle_beta 94.756697
_cell_angle_gamma 90.000000
_cell_volume 925.400241
_symmetry_space_group_name_H-M "P 21/M"
_symmetry_group_IT_number 11
_symmetry_cell_setting 'monoclinic'
loop_
_space_group_symop_operation_xyz
x,y,z
-x,1/2+y,-z
-x,-y,-z
x,1/2-y,z
loop_
_atom_site_type_symbol
_atom_site_label
_atom_site_fract_x
_atom_site_fract_y
_atom_site_fract_z
Si Si1 0.451532 0.394845 0.494559
Si Si2 0.774215 0.953118 0.812381
Si Si3 0.018813 0.142166 0.424130
Si Si4 0.767132 0.643735 0.212362
Si Si5 0.252695 0.646903 0.391778
O O1 0.500000 0.500000 0.500000
O O2 0.341307 0.384122 0.303658
O O3 0.378320 0.365813 0.688451
O O4 0.595211 0.336639 0.490131
O O5 0.926369 0.925192 0.743124
O O6 0.744578 0.064597 0.772303
O O7 0.770167 0.933332 0.041285
O O8 0.039071 0.250000 0.360146
O O9 0.103509 0.120237 0.632139
O O10 0.856579 0.118274 0.449827
O O11 0.779426 0.750000 0.129956
O O12 0.208092 0.750000 0.297544
#
# Coordination Sequence:
#
# PCOD8074007 Si02
#       5
#     4   4   4   4   4
#     4   9  20  37  56  78 108 142 181 225 274 327
#     4  10  20  36  60  82 107 147 190 224 269 331
#     4   9  19  36  56  81 112 144 183 229 275 324
#     4  10  20  35  57  82 107 142 188 230 268 322
#     4  10  20  35  55  80 114 148 179 228 282 323
#
# _framework density 21.612269000000001
#
# number of rings (size 3 to 8) (size 9 to 14) (size 15 to 20)
#    0.000    2.400    0.000    1.800    0.000    6.400 
#    0.000    2.000    0.000   21.600    0.000    0.000 
#    0.000    0.000    0.000    0.000    0.000    0.000 
#
# Total GULP energy -247874.511332 kJ/mol
# GULP energy per Si atom -12393.725567 kJ/mol
# Density = 2.156308 g / cm^3
# Si number density = 21.612269 Si / 1000 Ang^3
#
#
#
# Elastic Constant Matrix: (Units=GPa)
#
#
# Indices 1 2 3 4 5 6 
#
# 1 154.3402 14.8545 37.3861 0.0000 -25.9943 0.0000
# 2 14.8545 89.9326 18.1511 0.0000 -7.8363 0.0000
# 3 37.3861 18.1511 76.7614 0.0000 -12.9223 0.0000
# 4 0.0000 0.0000 0.0000 26.0884 0.0000 -8.8816
# 5 -25.9943 -7.8363 -12.9223 0.0000 9.2364 0.0000
# 6 0.0000 0.0000 0.0000 -8.8816 0.0000 30.0208
#
#
#
# Elastic Compliance Matrix: (Units=1/GPa)
#
#
# Indices 1 2 3 4 5 6 
#
# 1 0.012420 0.001104 -0.000351 0.000000 0.035400 0.000000
# 2 0.001104 0.012233 -0.001518 0.000000 0.011363 0.000000
# 3 -0.000351 -0.001518 0.017233 0.000000 0.021835 0.000000
# 4 0.000000 0.000000 0.000000 0.042624 0.000000 0.012610
# 5 0.035400 0.011363 0.021835 0.000000 0.248086 0.000000
# 6 0.000000 0.000000 0.000000 0.012610 0.000000 0.037041
#
#
# Mechanical properties :
#
#
# Convention : Reuss Voigt Hill
#
# Bulk Modulus (GPa) = 24.77838 51.31307 38.04572
# Shear Modulus (GPa) = 12.99987 29.77861 21.38924
#
# Velocity S-wave (km/s) = 2.45522 3.71598 3.14933
# Velocity P-wave (km/s) = 4.41897 6.49657 5.55575
#
# Compressibility (1/GPa) = 0.04035777
#
# Stress axis : x y z
#
# Youngs Moduli (GPa) = 80.51456 81.74283 58.02862
#
# Poissons Ratio (x) = -0.09024 0.02035
# Poissons Ratio (y) = -0.08888 0.08806
# Poissons Ratio (z) = 0.02824 0.12405
#
# Static dielectric constant tensor:
#      x y z
#    x 4.711280 0.000000 0.118570 
#    y 0.000000 4.315870 0.000000 
#    z 0.118570 0.000000 3.423530 
# 
# 
# High freq. dielectric constant tensor:
#      x y z
#    x 1.866200 0.000000 -0.009150 
#    y 0.000000 1.863210 0.000000 
#    z -0.009150 0.000000 1.796780 
# 
# From -- ./inp_files/1935.got.cif
#   From: 2010.06.25/outbox.cif.g09.slc.cpg/sg11_1_cif.got.tgz:1935.got - 2010.06.27 23:14:04.
