data_PCOD8074932
_publ_section_title
;
Structure prediction by ZEFSAII (Michael W. Deem and Ramdas Pophale) SiO2 
 PCOD8074932
Probable space group: P 21/M
;
_chemical_formula_sum "Si O2"
_cell_formula_units_Z 32
_cell_length_a 24.187378
_cell_length_b 8.907732
_cell_length_c 24.088304
_cell_angle_alpha 90.000000
_cell_angle_beta 17.966743
_cell_angle_gamma 90.000000
_cell_volume 1600.913698
_symmetry_space_group_name_H-M "P 21/M"
_symmetry_group_IT_number 11
_symmetry_cell_setting 'monoclinic'
loop_
_space_group_symop_operation_xyz
x,y,z
-x,1/2+y,-z
-x,-y,-z
x,1/2-y,z
loop_
_atom_site_type_symbol
_atom_site_label
_atom_site_fract_x
_atom_site_fract_y
_atom_site_fract_z
Si Si1 0.514888 0.414784 0.928466
Si Si2 0.118591 0.925272 0.132517
Si Si3 0.960149 0.925779 0.905641
Si Si4 0.303236 0.425013 0.624515
Si Si5 0.668303 0.923326 0.275254
Si Si6 0.479692 0.574570 0.852141
Si Si7 0.146856 0.570335 0.529338
Si Si8 0.070559 0.588329 0.484684
O O1 0.422860 0.250000 0.020619
O O2 0.425352 0.509533 0.964496
O O3 0.719512 0.392229 0.719077
O O4 0.500000 0.500000 0.000000
O O5 0.072822 0.750000 0.177906
O O6 0.123832 0.984897 0.065222
O O7 0.313269 0.959114 0.971380
O O8 0.962599 0.012332 0.313815
O O9 0.964447 0.750000 0.887938
O O10 0.837208 0.962998 0.075958
O O11 0.160215 0.981948 0.725975
O O12 0.278590 0.250000 0.635174
O O13 0.275350 0.462729 0.715881
O O14 0.500469 0.475861 0.416702
O O15 0.611012 0.750000 0.324897
O O16 0.519834 0.750000 0.820399
O O17 0.652998 0.496107 0.659835
O O18 0.161294 0.750000 0.516436
O O19 0.040114 0.516077 0.574967
O O20 0.974999 0.750000 0.572901
O O21 0.000000 0.500000 0.500000
#
# Coordination Sequence:
#
# PCOD8074932 Si02
#       8
#     4   4   4   4   4   4   4   4
#     4  10  21  36  55  83 114 146 186 231 288 354
#     4  11  25  42  62  87 116 156 203 249 299 355
#     4  11  23  39  60  87 120 158 203 251 297 353
#     4  10  20  36  61  91 125 162 200 248 301 354
#     4   9  20  38  60  89 124 164 205 245 298 355
#     4  10  22  41  62  85 115 153 196 244 297 352
#     4  10  22  41  62  86 116 153 195 240 295 356
#     4   9  20  35  53  81 111 142 181 225 280 344
#
# _framework density 19.988585
#
# number of rings (size 3 to 8) (size 9 to 14) (size 15 to 20)
#    0.000    2.000    0.000    3.375    1.750    7.500 
#    0.000    2.500    0.000    0.000    0.000    0.000 
#    0.000    0.000    0.000    0.000    0.000    0.000 
#
# Total GULP energy -396793.226288 kJ/mol
# GULP energy per Si atom -12399.788322 kJ/mol
# Density = 1.994309 g / cm^3
# Si number density = 19.988585 Si / 1000 Ang^3
#
#
#
# Elastic Constant Matrix: (Units=GPa)
#
#
# Indices 1 2 3 4 5 6 
#
# 1 102.2685 47.8191 28.0221 0.0000 -16.1780 0.0000
# 2 47.8191 103.5261 39.2222 0.0000 -11.0028 0.0000
# 3 28.0221 39.2222 67.4126 0.0000 -9.2859 0.0000
# 4 0.0000 0.0000 0.0000 30.8820 0.0000 0.8896
# 5 -16.1780 -11.0028 -9.2859 0.0000 28.1988 0.0000
# 6 0.0000 0.0000 0.0000 0.8896 0.0000 36.8574
#
#
#
# Elastic Compliance Matrix: (Units=1/GPa)
#
#
# Indices 1 2 3 4 5 6 
#
# 1 0.013433 -0.004889 -0.002032 0.000000 0.005129 0.000000
# 2 -0.004889 0.014352 -0.006215 0.000000 0.000748 0.000000
# 3 -0.002032 -0.006215 0.019693 0.000000 0.002894 0.000000
# 4 0.000000 0.000000 0.000000 0.032404 0.000000 -0.000782
# 5 0.005129 0.000748 0.002894 0.000000 0.039650 0.000000
# 6 0.000000 0.000000 0.000000 -0.000782 0.000000 0.027150
#
#
# Mechanical properties :
#
#
# Convention : Reuss Voigt Hill
#
# Bulk Modulus (GPa) = 47.15893 55.92597 51.54245
# Shear Modulus (GPa) = 27.77406 29.73058 28.75232
#
# Velocity S-wave (km/s) = 3.73164 3.86084 3.79679
# Velocity P-wave (km/s) = 6.49700 6.92203 6.71288
#
# Compressibility (1/GPa) = 0.02120489
#
# Stress axis : x y z
#
# Youngs Moduli (GPa) = 74.44501 69.67701 50.77849
#
# Poissons Ratio (x) = 0.34069 0.10320
# Poissons Ratio (y) = 0.36400 0.31558
# Poissons Ratio (z) = 0.15130 0.43303
#
# Static dielectric constant tensor:
#      x y z
#    x 3.420530 0.000000 -0.015140 
#    y 0.000000 3.861120 0.000000 
#    z -0.015140 0.000000 3.489680 
# 
# 
# High freq. dielectric constant tensor:
#      x y z
#    x 1.782450 0.000000 0.000310 
#    y 0.000000 1.789910 0.000000 
#    z 0.000310 0.000000 1.780400 
# 
# From -- ./inp_files/69982.got.cif
#   From: 2010.06.25/outbox.cif.g09.slc.cpg/sg11_35_cif.got.tgz:69982.got - 2010.06.27 23:14:04.
