data_PCOD8074512
_publ_section_title
;
Structure prediction by ZEFSAII (Michael W. Deem and Ramdas Pophale) SiO2 
 PCOD8074512
Probable space group: P 21/M
;
_chemical_formula_sum "Si O2"
_cell_formula_units_Z 20
_cell_length_a 10.559137
_cell_length_b 10.152454
_cell_length_c 16.342417
_cell_angle_alpha 90.000000
_cell_angle_beta 33.805543
_cell_angle_gamma 90.000000
_cell_volume 974.729556
_symmetry_space_group_name_H-M "P 21/M"
_symmetry_group_IT_number 11
_symmetry_cell_setting 'monoclinic'
loop_
_space_group_symop_operation_xyz
x,y,z
-x,1/2+y,-z
-x,-y,-z
x,1/2-y,z
loop_
_atom_site_type_symbol
_atom_site_label
_atom_site_fract_x
_atom_site_fract_y
_atom_site_fract_z
Si Si1 0.944789 0.093485 0.226243
Si Si2 0.256567 0.109628 0.338452
Si Si3 0.381119 0.399605 0.888058
Si Si4 0.329299 0.393505 0.732789
Si Si5 0.836538 0.045522 0.463092
O O1 0.886060 0.250000 0.258988
O O2 0.758664 0.014909 0.273523
O O3 0.946421 0.027452 0.314861
O O4 0.194408 0.067817 0.056442
O O5 0.383466 0.250000 0.261261
O O6 0.219447 0.087550 0.456009
O O7 0.404588 0.996038 0.215694
O O8 0.013496 0.124149 0.424723
O O9 0.470017 0.250000 0.849262
O O10 0.265818 0.422018 0.861351
O O11 0.226387 0.250000 0.761772
O O12 0.600932 0.377100 0.578068
#
# Coordination Sequence:
#
# PCOD8074512 Si02
#       5
#     4   4   4   4   4
#     4  11  22  37  58  84 116 151 186 228 280 335
#     4  10  21  39  62  83 109 149 193 232 276 335
#     4   9  21  39  58  83 116 151 184 227 283 333
#     4  10  20  36  56  80 114 151 187 229 276 329
#     4  10  22  37  57  84 115 146 184 234 286 329
#
# _framework density 20.518511
#
# number of rings (size 3 to 8) (size 9 to 14) (size 15 to 20)
#    0.000    2.000    0.000    3.000    0.000   11.200 
#    0.000    0.000    0.000    0.000    0.000    0.000 
#    0.000    0.000    0.000    0.000    0.000    0.000 
#
# Total GULP energy -247835.456435 kJ/mol
# GULP energy per Si atom -12391.772822 kJ/mol
# Density = 2.047181 g / cm^3
# Si number density = 20.518511 Si / 1000 Ang^3
#
#
#
# Elastic Constant Matrix: (Units=GPa)
#
#
# Indices 1 2 3 4 5 6 
#
# 1 58.1575 42.3433 48.1621 0.0000 0.6955 0.0000
# 2 42.3433 124.5222 55.3724 0.0000 -14.7864 0.0000
# 3 48.1621 55.3724 141.2171 0.0000 18.0831 0.0000
# 4 0.0000 0.0000 0.0000 11.8925 0.0000 3.4429
# 5 0.6955 -14.7864 18.0831 0.0000 33.6616 0.0000
# 6 0.0000 0.0000 0.0000 3.4429 0.0000 -6.2368
#
#
#
# Elastic Compliance Matrix: (Units=1/GPa)
#
#
# Indices 1 2 3 4 5 6 
#
# 1 0.027495 -0.006168 -0.007022 0.000000 0.000494 0.000000
# 2 -0.006168 0.012807 -0.003925 0.000000 0.007861 0.000000
# 3 -0.007022 -0.003925 0.012046 0.000000 -0.008050 0.000000
# 4 0.000000 0.000000 0.000000 0.072500 0.000000 0.040022
# 5 0.000494 0.007861 -0.008050 0.000000 0.037475 0.000000
# 6 0.000000 0.000000 0.000000 0.040022 0.000000 -0.138245
#
#
# Mechanical properties :
#
#
# Convention : Reuss Voigt Hill
#
# Bulk Modulus (GPa) = 55.19389 68.40581 61.79985
# Shear Modulus (GPa) = 77.70453 19.73139 48.71796
#
# Velocity S-wave (km/s) = 6.16057 3.10439 4.87801
# Velocity P-wave (km/s) = 8.80690 6.80152 7.86836
#
# Compressibility (1/GPa) = 0.01811795
#
# Stress axis : x y z
#
# Youngs Moduli (GPa) = 36.37053 78.08262 83.01685
#
# Poissons Ratio (x) = 0.48164 0.58292
# Poissons Ratio (y) = 0.22435 0.32581
# Poissons Ratio (z) = 0.25538 0.30645
#
# Static dielectric constant tensor:
#      x y z
#    x 3.585550 0.000000 0.204670 
#    y 0.000000 3.698830 0.000000 
#    z 0.204670 0.000000 3.768790 
# 
# 
# High freq. dielectric constant tensor:
#      x y z
#    x 1.785530 0.000000 0.008630 
#    y 0.000000 1.801840 0.000000 
#    z 0.008630 0.000000 1.805270 
# 
# From -- ./inp_files/58824.got.cif
#   From: 2010.06.25/outbox.cif.g09.slc.cpg/sg11_30_cif.got.tgz:58824.got - 2010.06.27 23:14:04.
