data_PCOD8074324
_publ_section_title
;
Structure prediction by ZEFSAII (Michael W. Deem and Ramdas Pophale) SiO2 
 PCOD8074324
Probable space group: P 21/M
;
_chemical_formula_sum "Si O2"
_cell_formula_units_Z 32
_cell_length_a 8.820894
_cell_length_b 19.768827
_cell_length_c 12.932305
_cell_angle_alpha 90.000000
_cell_angle_beta 46.135725
_cell_angle_gamma 90.000000
_cell_volume 1625.903105
_symmetry_space_group_name_H-M "P 21/M"
_symmetry_group_IT_number 11
_symmetry_cell_setting 'monoclinic'
loop_
_space_group_symop_operation_xyz
x,y,z
-x,1/2+y,-z
-x,-y,-z
x,1/2-y,z
loop_
_atom_site_type_symbol
_atom_site_label
_atom_site_fract_x
_atom_site_fract_y
_atom_site_fract_z
Si Si1 0.319211 0.927464 0.311787
Si Si2 0.732943 0.119402 0.444453
Si Si3 0.923225 0.457496 0.180696
Si Si4 0.725046 0.827208 0.341592
Si Si5 0.298215 0.468355 0.150889
Si Si6 0.790154 0.585876 0.123103
Si Si7 0.825110 0.826377 0.719403
Si Si8 0.039580 0.328175 0.569799
O O1 0.271347 0.933664 0.457263
O O2 0.561683 0.906842 0.179062
O O3 0.179556 0.867782 0.330063
O O4 0.268484 0.997817 0.277888
O O5 0.743419 0.078948 0.332081
O O6 0.524684 0.163798 0.542518
O O7 0.932813 0.168614 0.358531
O O8 0.804162 0.512679 0.169455
O O9 0.098361 0.488090 0.175280
O O10 0.037360 0.405146 0.048374
O O11 0.783317 0.750000 0.307565
O O12 0.834635 0.859485 0.189982
O O13 0.823358 0.857494 0.399971
O O14 0.310974 0.386368 0.161395
O O15 0.500000 0.500000 0.000000
O O16 0.743716 0.750000 0.786437
O O17 0.817824 0.837631 0.599677
O O18 0.979522 0.250000 0.612826
#
# Coordination Sequence:
#
# PCOD8074324 Si02
#       8
#     4   4   4   4   4   4   4   4
#     4  10  20  35  58  87 111 150 195 238 289 339
#     4   9  20  35  61  85 113 144 194 237 290 341
#     4  10  21  38  55  83 115 149 187 239 288 343
#     4  10  20  36  58  84 114 149 192 239 286 344
#     4  11  21  36  57  82 116 152 194 240 290 347
#     4  10  21  36  56  82 115 153 191 231 290 339
#     4   9  19  36  57  82 113 146 186 238 292 347
#     4   9  19  36  59  86 117 150 191 242 293 342
#
# _framework density 19.681370000000001
#
# number of rings (size 3 to 8) (size 9 to 14) (size 15 to 20)
#    0.000    2.250    1.250    1.125    0.000   11.500 
#    0.000    3.750    0.000    0.750    0.000    0.000 
#    0.000    0.000    0.000    0.000    0.000    0.000 
#
# Total GULP energy -396687.046720 kJ/mol
# GULP energy per Si atom -12396.470210 kJ/mol
# Density = 1.963657 g / cm^3
# Si number density = 19.681370 Si / 1000 Ang^3
#
#
#
# Elastic Constant Matrix: (Units=GPa)
#
#
# Indices 1 2 3 4 5 6 
#
# 1 93.6918 33.4025 34.3219 0.0000 12.3628 0.0000
# 2 33.4025 97.3868 51.5349 0.0000 0.7712 0.0000
# 3 34.3219 51.5349 104.8763 0.0000 11.3749 0.0000
# 4 0.0000 0.0000 0.0000 33.9040 0.0000 2.4503
# 5 12.3628 0.7712 11.3749 0.0000 27.6881 0.0000
# 6 0.0000 0.0000 0.0000 2.4503 0.0000 28.1279
#
#
#
# Elastic Compliance Matrix: (Units=1/GPa)
#
#
# Indices 1 2 3 4 5 6 
#
# 1 0.013328 -0.003391 -0.002156 0.000000 -0.004971 0.000000
# 2 -0.003391 0.014910 -0.006632 0.000000 0.003823 0.000000
# 3 -0.002156 -0.006632 0.013999 0.000000 -0.004603 0.000000
# 4 0.000000 0.000000 0.000000 0.029682 0.000000 -0.002586
# 5 -0.004971 0.003823 -0.004603 0.000000 0.040121 0.000000
# 6 0.000000 0.000000 0.000000 -0.002586 0.000000 0.035777
#
#
# Mechanical properties :
#
#
# Convention : Reuss Voigt Hill
#
# Bulk Modulus (GPa) = 55.93088 59.38594 57.65841
# Shear Modulus (GPa) = 28.06863 29.72373 28.89618
#
# Velocity S-wave (km/s) = 3.78054 3.89041 3.83587
# Velocity P-wave (km/s) = 6.89467 7.10067 6.99843
#
# Compressibility (1/GPa) = 0.01787921
#
# Stress axis : x y z
#
# Youngs Moduli (GPa) = 75.02992 67.06689 71.43461
#
# Poissons Ratio (x) = 0.22742 0.15404
# Poissons Ratio (y) = 0.25442 0.47374
# Poissons Ratio (z) = 0.16179 0.44477
#
# Static dielectric constant tensor:
#      x y z
#    x 3.781400 0.000000 0.256620 
#    y 0.000000 3.463940 0.000000 
#    z 0.256620 0.000000 3.665280 
# 
# 
# High freq. dielectric constant tensor:
#      x y z
#    x 1.775390 0.000000 0.016080 
#    y 0.000000 1.749600 0.000000 
#    z 0.016080 0.000000 1.761420 
# 
# From -- ./inp_files/32798.got.cif
#   From: 2010.06.25/outbox.cif.g09.slc.cpg/sg11_17_cif.got.tgz:32798.got - 2010.06.27 23:14:04.
