data_PCOD8074446
_publ_section_title
;
Structure prediction by ZEFSAII (Michael W. Deem and Ramdas Pophale) SiO2 
 PCOD8074446
Probable space group: P 21/M
;
_chemical_formula_sum "Si O2"
_cell_formula_units_Z 32
_cell_length_a 20.129382
_cell_length_b 8.783969
_cell_length_c 13.663064
_cell_angle_alpha 90.000000
_cell_angle_beta 39.452994
_cell_angle_gamma 90.000000
_cell_volume 1535.137487
_symmetry_space_group_name_H-M "P 21/M"
_symmetry_group_IT_number 11
_symmetry_cell_setting 'monoclinic'
loop_
_space_group_symop_operation_xyz
x,y,z
-x,1/2+y,-z
-x,-y,-z
x,1/2-y,z
loop_
_atom_site_type_symbol
_atom_site_label
_atom_site_fract_x
_atom_site_fract_y
_atom_site_fract_z
Si Si1 0.645590 0.070636 0.777337
Si Si2 0.084493 0.080256 0.179889
Si Si3 0.095276 0.080183 0.939605
Si Si4 0.452273 0.570499 0.909305
Si Si5 0.750129 0.427842 0.362836
Si Si6 0.297520 0.930114 0.914391
Si Si7 0.854469 0.430508 0.442728
Si Si8 0.388136 0.429873 0.618293
O O1 0.636790 0.250000 0.776046
O O2 0.613249 0.012974 0.921405
O O3 0.766188 0.020171 0.621820
O O4 0.568209 0.002199 0.782204
O O5 0.100680 0.250000 0.206592
O O6 0.970590 0.008209 0.341880
O O7 0.073913 0.093107 0.076890
O O8 0.184877 0.975944 0.090887
O O9 0.115142 0.250000 0.874087
O O10 0.189362 0.967891 0.806439
O O11 0.000000 0.000000 0.000000
O O12 0.465114 0.750000 0.898080
O O13 0.389128 0.518973 0.885070
O O14 0.728257 0.250000 0.399066
O O15 0.812205 0.493235 0.386030
O O16 0.643645 0.515552 0.456032
O O17 0.298904 0.750000 0.896143
O O18 0.315210 0.015306 0.791830
O O19 0.865899 0.250000 0.420759
O O20 0.500000 0.500000 0.500000
O O21 0.390332 0.250000 0.618858
#
# Coordination Sequence:
#
# PCOD8074446 Si02
#       8
#     4   4   4   4   4   4   4   4
#     4   9  18  37  64  88 111 144 185 234 293 351
#     4  10  20  36  54  78 113 153 197 239 280 339
#     4  11  20  32  51  75 107 148 192 234 276 327
#     4   9  20  38  60  87 116 144 183 237 292 345
#     4  11  21  36  55  80 113 149 190 235 283 338
#     4  11  23  39  58  83 117 156 194 236 287 342
#     4   9  19  35  57  85 114 147 190 237 286 340
#     4  12  26  42  57  81 115 154 196 238 285 340
#
# _framework density 20.845039
#
# number of rings (size 3 to 8) (size 9 to 14) (size 15 to 20)
#    0.000    1.750    2.500    2.250    1.750    1.500 
#    0.000    1.875    0.000    0.000    0.000    0.000 
#    0.000    0.000    0.000    0.000    0.000    0.000 
#
# Total GULP energy -396446.039593 kJ/mol
# GULP energy per Si atom -12388.938737 kJ/mol
# Density = 2.079759 g / cm^3
# Si number density = 20.845039 Si / 1000 Ang^3
#
#
#
# Elastic Constant Matrix: (Units=GPa)
#
#
# Indices 1 2 3 4 5 6 
#
# 1 63.3121 18.8078 1.9929 0.0000 -13.9282 0.0000
# 2 18.8078 67.4122 6.8443 0.0000 -4.6503 0.0000
# 3 1.9929 6.8443 80.5920 0.0000 -21.8134 0.0000
# 4 0.0000 0.0000 0.0000 25.0387 0.0000 -7.8471
# 5 -13.9282 -4.6503 -21.8134 0.0000 34.4575 0.0000
# 6 0.0000 0.0000 0.0000 -7.8471 0.0000 28.1900
#
#
#
# Elastic Compliance Matrix: (Units=1/GPa)
#
#
# Indices 1 2 3 4 5 6 
#
# 1 0.019057 -0.004961 0.002237 0.000000 0.008450 0.000000
# 2 -0.004961 0.016316 -0.001460 0.000000 -0.000728 0.000000
# 3 0.002237 -0.001460 0.015288 0.000000 0.010385 0.000000
# 4 0.000000 0.000000 0.000000 0.043755 0.000000 0.012180
# 5 0.008450 -0.000728 0.010385 0.000000 0.038913 0.000000
# 6 0.000000 0.000000 0.000000 0.012180 0.000000 0.038864
#
#
# Mechanical properties :
#
#
# Convention : Reuss Voigt Hill
#
# Bulk Modulus (GPa) = 23.64439 29.62290 26.63364
# Shear Modulus (GPa) = 25.68595 29.78199 27.73397
#
# Velocity S-wave (km/s) = 3.51413 3.78396 3.65154
# Velocity P-wave (km/s) = 5.27570 5.77347 5.53019
#
# Compressibility (1/GPa) = 0.04229334
#
# Stress axis : x y z
#
# Youngs Moduli (GPa) = 52.47413 61.28854 65.41184
#
# Poissons Ratio (x) = 0.30406 -0.14634
# Poissons Ratio (y) = 0.26033 0.09550
# Poissons Ratio (z) = -0.11739 0.08948
#
# Static dielectric constant tensor:
#      x y z
#    x 3.892270 0.000000 -0.222770 
#    y 0.000000 3.735370 0.000000 
#    z -0.222770 0.000000 4.002240 
# 
# 
# High freq. dielectric constant tensor:
#      x y z
#    x 1.814330 0.000000 -0.024940 
#    y 0.000000 1.795900 0.000000 
#    z -0.024940 0.000000 1.816020 
# 
# From -- ./inp_files/54269.got.cif
#   From: 2010.06.25/outbox.cif.g09.slc.cpg/sg11_28_cif.got.tgz:54269.got - 2010.06.27 23:14:04.
