data_PCOD8074601
_publ_section_title
;
Structure prediction by ZEFSAII (Michael W. Deem and Ramdas Pophale) SiO2 
 PCOD8074601
Probable space group: P 21/M
;
_chemical_formula_sum "Si O2"
_cell_formula_units_Z 20
_cell_length_a 15.766393
_cell_length_b 8.625688
_cell_length_c 22.468472
_cell_angle_alpha 90.000000
_cell_angle_beta 160.171625
_cell_angle_gamma 90.000000
_cell_volume 1036.478717
_symmetry_space_group_name_H-M "P 21/M"
_symmetry_group_IT_number 11
_symmetry_cell_setting 'monoclinic'
loop_
_space_group_symop_operation_xyz
x,y,z
-x,1/2+y,-z
-x,-y,-z
x,1/2-y,z
loop_
_atom_site_type_symbol
_atom_site_label
_atom_site_fract_x
_atom_site_fract_y
_atom_site_fract_z
Si Si1 0.793188 0.065982 0.471694
Si Si2 0.636356 0.920625 0.730994
Si Si3 0.949638 0.920412 0.057629
Si Si4 0.338145 0.932710 0.840234
Si Si5 0.481212 0.930672 0.160321
O O1 0.764549 0.250000 0.442207
O O2 0.631878 0.014642 0.423506
O O3 0.691253 0.978199 0.346513
O O4 0.075179 0.019767 0.668959
O O5 0.602672 0.750000 0.681245
O O6 0.814056 0.912942 0.905252
O O7 0.764142 0.024371 0.764032
O O8 0.957290 0.750000 0.092019
O O9 0.799089 0.036007 0.001356
O O10 0.298709 0.750000 0.821629
O O11 0.478118 0.968331 0.871419
O O12 0.500000 0.000000 0.000000
O O13 0.509401 0.750000 0.164173
#
# Coordination Sequence:
#
# PCOD8074601 Si02
#       5
#     4   4   4   4   4
#     4  10  20  36  57  83 112 143 181 223 267 316
#     4   8  15  27  46  74 108 141 173 213 261 313
#     4   9  16  27  46  75 109 141 175 217 264 313
#     4  12  25  41  58  78 106 141 181 224 273 325
#     4  11  21  35  56  82 111 144 182 223 268 317
#
# _framework density 19.296104
#
# number of rings (size 3 to 8) (size 9 to 14) (size 15 to 20)
#    0.000    2.000    0.000    6.600    0.000    5.600 
#    0.000    0.000    0.000    1.200    0.000    0.000 
#    0.000    0.000    0.000    0.000    0.000    0.000 
#
# Total GULP energy -247954.152236 kJ/mol
# GULP energy per Si atom -12397.707612 kJ/mol
# Density = 1.925218 g / cm^3
# Si number density = 19.296104 Si / 1000 Ang^3
#
#
#
# Elastic Constant Matrix: (Units=GPa)
#
#
# Indices 1 2 3 4 5 6 
#
# 1 83.5355 15.7425 63.9238 0.0000 28.0394 0.0000
# 2 15.7425 80.0709 12.8052 0.0000 6.5095 0.0000
# 3 63.9238 12.8052 49.0932 0.0000 6.8186 0.0000
# 4 0.0000 0.0000 0.0000 23.5024 0.0000 4.9965
# 5 28.0394 6.5095 6.8186 0.0000 21.3008 0.0000
# 6 0.0000 0.0000 0.0000 4.9965 0.0000 32.9056
#
#
#
# Elastic Compliance Matrix: (Units=1/GPa)
#
#
# Indices 1 2 3 4 5 6 
#
# 1 -0.055186 -0.003929 0.065539 0.000000 0.052865 0.000000
# 2 -0.003929 0.012942 0.001644 0.000000 0.000691 0.000000
# 3 0.065539 0.001644 -0.055827 0.000000 -0.068904 0.000000
# 4 0.000000 0.000000 0.000000 0.043968 0.000000 -0.006676
# 5 0.052865 0.000691 -0.068904 0.000000 -0.000797 0.000000
# 6 0.000000 0.000000 0.000000 -0.006676 0.000000 0.031404
#
#
# Mechanical properties :
#
#
# Convention : Reuss Voigt Hill
#
# Bulk Modulus (GPa) = 35.16401 44.18253 39.67327
# Shear Modulus (GPa) = -35.58099 23.55696 -6.01202
#
# Velocity S-wave (km/s) = -4.29878 3.49781 -1.76704
# Velocity P-wave (km/s) = 2.52515 6.26576 4.05483
#
# Compressibility (1/GPa) = 0.02843817
#
# Stress axis : x y z
#
# Youngs Moduli (GPa) = -18.12066 77.26590 -17.91241
#
# Poissons Ratio (x) = 0.30359 1.17396
# Poissons Ratio (y) = -0.07120 0.02945
# Poissons Ratio (z) = 1.18761 -0.12705
#
# Static dielectric constant tensor:
#      x y z
#    x 3.600130 0.000000 0.434490 
#    y 0.000000 3.791320 0.000000 
#    z 0.434490 0.000000 3.348220 
# 
# 
# High freq. dielectric constant tensor:
#      x y z
#    x 1.746710 0.000000 0.039480 
#    y 0.000000 1.762810 0.000000 
#    z 0.039480 0.000000 1.719470 
# 
# From -- ./inp_files/25670.got.cif
#   From: 2010.06.25/outbox.cif.g09.slc.cpg/sg11_13_cif.got.tgz:25670.got - 2010.06.27 23:14:04.
