data_PCOD8074059
_publ_section_title
;
Structure prediction by ZEFSAII (Michael W. Deem and Ramdas Pophale) SiO2 
 PCOD8074059
Probable space group: P 21/M
;
_chemical_formula_sum "Si O2"
_cell_formula_units_Z 32
_cell_length_a 14.606233
_cell_length_b 8.820553
_cell_length_c 23.128044
_cell_angle_alpha 90.000000
_cell_angle_beta 35.935857
_cell_angle_gamma 90.000000
_cell_volume 1748.725524
_symmetry_space_group_name_H-M "P 21/M"
_symmetry_group_IT_number 11
_symmetry_cell_setting 'monoclinic'
loop_
_space_group_symop_operation_xyz
x,y,z
-x,1/2+y,-z
-x,-y,-z
x,1/2-y,z
loop_
_atom_site_type_symbol
_atom_site_label
_atom_site_fract_x
_atom_site_fract_y
_atom_site_fract_z
Si Si1 0.256264 0.072762 0.621136
Si Si2 0.556010 0.927912 0.678466
Si Si3 0.542597 0.929757 0.813465
Si Si4 0.929176 0.572257 0.787586
Si Si5 0.881430 0.421764 0.518326
Si Si6 0.516195 0.073037 0.580948
Si Si7 0.401563 0.427235 0.997787
Si Si8 0.141639 0.080746 0.298654
O O1 0.244585 0.250000 0.615920
O O2 0.368436 0.032789 0.617219
O O3 0.326974 0.999846 0.526433
O O4 0.087455 0.010016 0.725993
O O5 0.536159 0.750000 0.679747
O O6 0.488511 0.978619 0.776112
O O7 0.736612 0.969480 0.584909
O O8 0.474431 0.011490 0.666378
O O9 0.526479 0.750000 0.826973
O O10 0.722574 0.988641 0.729778
O O11 0.441371 0.007251 0.914661
O O12 0.967737 0.750000 0.762574
O O13 0.872845 0.498454 0.755532
O O14 0.784145 0.541121 0.904049
O O15 0.836215 0.250000 0.560594
O O16 0.000000 0.500000 0.500000
O O17 0.969667 0.418179 0.412442
O O18 0.548748 0.250000 0.569183
O O19 0.438276 0.250000 0.981269
O O20 0.500000 0.500000 0.000000
O O21 0.201221 0.250000 0.255095
#
# Coordination Sequence:
#
# PCOD8074059 Si02
#       8
#     4   4   4   4   4   4   4   4
#     4  10  21  37  59  87 114 143 184 228 274 333
#     4  11  22  36  55  79 108 147 190 229 274 331
#     4  10  20  37  54  73 108 147 183 226 271 321
#     4  10  20  35  56  79 109 145 180 227 283 328
#     4  11  20  31  48  72 106 146 183 221 266 321
#     4  10  21  38  59  84 116 148 179 226 281 331
#     4  11  22  36  56  82 110 145 188 232 278 329
#     4   9  17  32  49  69 104 144 177 215 266 319
#
# _framework density 18.299040999999999
#
# number of rings (size 3 to 8) (size 9 to 14) (size 15 to 20)
#    0.000    1.750    2.500    2.625    0.000    4.500 
#    0.000    0.625    0.000    0.750    0.000    0.000 
#    0.000    0.000    0.000    0.000    0.000    0.000 
#
# Total GULP energy -396594.396798 kJ/mol
# GULP energy per Si atom -12393.574900 kJ/mol
# Density = 1.825739 g / cm^3
# Si number density = 18.299041 Si / 1000 Ang^3
#
#
#
# Elastic Constant Matrix: (Units=GPa)
#
#
# Indices 1 2 3 4 5 6 
#
# 1 97.7189 43.0011 57.0066 0.0000 14.2383 0.0000
# 2 43.0011 65.8514 45.4077 0.0000 6.9075 0.0000
# 3 57.0066 45.4077 115.3002 0.0000 13.4453 0.0000
# 4 0.0000 0.0000 0.0000 31.2702 0.0000 0.8574
# 5 14.2383 6.9075 13.4453 0.0000 32.9631 0.0000
# 6 0.0000 0.0000 0.0000 0.8574 0.0000 30.2670
#
#
#
# Elastic Compliance Matrix: (Units=1/GPa)
#
#
# Indices 1 2 3 4 5 6 
#
# 1 0.016889 -0.007111 -0.005116 0.000000 -0.003718 0.000000
# 2 -0.007111 0.023877 -0.005945 0.000000 0.000493 0.000000
# 3 -0.005116 -0.005945 0.013797 0.000000 -0.002172 0.000000
# 4 0.000000 0.000000 0.000000 0.032004 0.000000 -0.000907
# 5 -0.003718 0.000493 -0.002172 0.000000 0.032726 0.000000
# 6 0.000000 0.000000 0.000000 -0.000907 0.000000 0.033065
#
#
# Mechanical properties :
#
#
# Convention : Reuss Voigt Hill
#
# Bulk Modulus (GPa) = 54.88802 63.30016 59.09409
# Shear Modulus (GPa) = 25.67075 27.79705 26.73390
#
# Velocity S-wave (km/s) = 3.74952 3.90172 3.82638
# Velocity P-wave (km/s) = 6.98608 7.41384 7.20314
#
# Compressibility (1/GPa) = 0.01821891
#
# Stress axis : x y z
#
# Youngs Moduli (GPa) = 59.21041 41.88211 72.47863
#
# Poissons Ratio (x) = 0.29780 0.37083
# Poissons Ratio (y) = 0.42102 0.43089
# Poissons Ratio (z) = 0.30294 0.24899
#
# Static dielectric constant tensor:
#      x y z
#    x 3.380470 0.000000 0.093690 
#    y 0.000000 3.355830 0.000000 
#    z 0.093690 0.000000 3.488950 
# 
# 
# High freq. dielectric constant tensor:
#      x y z
#    x 1.700380 0.000000 0.012360 
#    y 0.000000 1.706480 0.000000 
#    z 0.012360 0.000000 1.701490 
# 
# From -- ./inp_files/65206.got.cif
#   From: 2010.06.25/outbox.cif.g09.slc.cpg/sg11_33_cif.got.tgz:65206.got - 2010.06.27 23:14:04.
