data_PCOD8074267
_publ_section_title
;
Structure prediction by ZEFSAII (Michael W. Deem and Ramdas Pophale) SiO2 
 PCOD8074267
Probable space group: P 21/M
;
_chemical_formula_sum "Si O2"
_cell_formula_units_Z 32
_cell_length_a 26.003709
_cell_length_b 9.307691
_cell_length_c 20.755752
_cell_angle_alpha 90.000000
_cell_angle_beta 159.168164
_cell_angle_gamma 90.000000
_cell_volume 1786.527245
_symmetry_space_group_name_H-M "P 21/M"
_symmetry_group_IT_number 11
_symmetry_cell_setting 'monoclinic'
loop_
_space_group_symop_operation_xyz
x,y,z
-x,1/2+y,-z
-x,-y,-z
x,1/2-y,z
loop_
_atom_site_type_symbol
_atom_site_label
_atom_site_fract_x
_atom_site_fract_y
_atom_site_fract_z
Si Si1 0.939745 0.582737 0.989655
Si Si2 0.148052 0.582241 0.678160
Si Si3 0.642759 0.083217 0.334230
Si Si4 0.644570 0.421069 0.961524
Si Si5 0.367148 0.415439 0.315347
Si Si6 0.638000 0.086990 0.179988
Si Si7 0.945101 0.420379 0.741613
Si Si8 0.758404 0.580258 0.969732
O O1 0.970737 0.750000 0.016184
O O2 0.769965 0.553113 0.799779
O O3 0.000000 0.500000 0.000000
O O4 0.023759 0.522253 0.150382
O O5 0.114402 0.750000 0.640831
O O6 0.240768 0.535713 0.849106
O O7 0.229933 0.535157 0.709206
O O8 0.000000 0.500000 0.500000
O O9 0.611314 0.250000 0.314824
O O10 0.677421 0.064806 0.299944
O O11 0.787885 0.022471 0.537446
O O12 0.510224 0.986141 0.201194
O O13 0.629229 0.250000 0.937131
O O14 0.695075 0.487923 0.953617
O O15 0.500000 0.500000 0.500000
O O16 0.409535 0.250000 0.367218
O O17 0.332336 0.458400 0.200789
O O18 0.600943 0.250000 0.119563
O O19 0.500000 0.000000 0.000000
O O20 0.947417 0.250000 0.744865
O O21 0.074325 0.468037 0.844712
O O22 0.746934 0.750000 0.971755
#
# Coordination Sequence:
#
# PCOD8074267 Si02
#       8
#     4   4   4   4   4   4   4   4
#     4   9  18  34  54  78 108 138 172 217 264 311
#     4  10  23  39  55  80 110 140 178 222 269 321
#     4  10  20  35  58  82 102 138 184 219 262 320
#     4  11  23  38  53  78 115 144 172 221 275 319
#     4   9  19  35  55  81 110 143 182 222 265 315
#     4  10  20  36  57  80 107 139 177 220 266 318
#     4   8  17  35  57  79 103 134 178 225 260 302
#     4   9  19  37  59  79 105 144 186 223 262 316
#
# _framework density 17.911846000000001
#
# number of rings (size 3 to 8) (size 9 to 14) (size 15 to 20)
#    0.000    2.500    1.250    1.875    1.750    3.500 
#    0.000    6.875    0.000    0.000    0.000    0.000 
#    0.000    0.000    0.000    0.000    0.000    0.000 
#
# Total GULP energy -396730.843378 kJ/mol
# GULP energy per Si atom -12397.838856 kJ/mol
# Density = 1.787108 g / cm^3
# Si number density = 17.911846 Si / 1000 Ang^3
#
#
#
# Elastic Constant Matrix: (Units=GPa)
#
#
# Indices 1 2 3 4 5 6 
#
# 1 154.5555 64.1089 73.4732 0.0000 11.0432 0.0000
# 2 64.1089 65.7368 65.6363 0.0000 6.4643 0.0000
# 3 73.4732 65.6363 163.9403 0.0000 9.4344 0.0000
# 4 0.0000 0.0000 0.0000 31.8462 0.0000 1.9261
# 5 11.0432 6.4643 9.4344 0.0000 22.4283 0.0000
# 6 0.0000 0.0000 0.0000 1.9261 0.0000 31.8096
#
#
#
# Elastic Compliance Matrix: (Units=1/GPa)
#
#
# Indices 1 2 3 4 5 6 
#
# 1 0.011085 -0.009591 -0.000997 0.000000 -0.002274 0.000000
# 2 -0.009591 0.033856 -0.009189 0.000000 -0.001170 0.000000
# 3 -0.000997 -0.009189 0.010294 0.000000 -0.001191 0.000000
# 4 0.000000 0.000000 0.000000 0.031516 0.000000 -0.001908
# 5 -0.002274 -0.001170 -0.001191 0.000000 0.046544 0.000000
# 6 0.000000 0.000000 0.000000 -0.001908 0.000000 0.031553
#
#
# Mechanical properties :
#
#
# Convention : Reuss Voigt Hill
#
# Bulk Modulus (GPa) = 63.77374 87.85216 75.81295
# Shear Modulus (GPa) = 23.85152 29.28443 26.56797
#
# Velocity S-wave (km/s) = 3.65308 4.04780 3.85549
# Velocity P-wave (km/s) = 7.31265 8.42613 7.88906
#
# Compressibility (1/GPa) = 0.01568043
#
# Stress axis : x y z
#
# Youngs Moduli (GPa) = 90.21078 29.53685 97.14322
#
# Poissons Ratio (x) = 0.28330 0.09686
# Poissons Ratio (y) = 0.86525 0.89264
# Poissons Ratio (z) = 0.08994 0.27141
#
# Static dielectric constant tensor:
#      x y z
#    x 2.912540 0.000000 0.696950 
#    y 0.000000 3.149080 0.000000 
#    z 0.696950 0.000000 2.497470 
# 
# 
# High freq. dielectric constant tensor:
#      x y z
#    x 1.704690 0.000000 0.000490 
#    y 0.000000 1.676550 0.000000 
#    z 0.000490 0.000000 1.701520 
# 
# From -- ./inp_files/67157.got.cif
#   From: 2010.06.25/outbox.cif.g09.slc.cpg/sg11_34_cif.got.tgz:67157.got - 2010.06.27 23:14:04.
