data_PCOD8074312
_publ_section_title
;
Structure prediction by ZEFSAII (Michael W. Deem and Ramdas Pophale) SiO2 
 PCOD8074312
Probable space group: P 21/M
;
_chemical_formula_sum "Si O2"
_cell_formula_units_Z 32
_cell_length_a 19.742634
_cell_length_b 9.271234
_cell_length_c 25.162446
_cell_angle_alpha 90.000000
_cell_angle_beta 21.677200
_cell_angle_gamma 90.000000
_cell_volume 1701.239019
_symmetry_space_group_name_H-M "P 21/M"
_symmetry_group_IT_number 11
_symmetry_cell_setting 'monoclinic'
loop_
_space_group_symop_operation_xyz
x,y,z
-x,1/2+y,-z
-x,-y,-z
x,1/2-y,z
loop_
_atom_site_type_symbol
_atom_site_label
_atom_site_fract_x
_atom_site_fract_y
_atom_site_fract_z
Si Si1 0.515133 0.085466 0.633814
Si Si2 0.842756 0.416336 0.085285
Si Si3 0.433090 0.419164 0.100193
Si Si4 0.658843 0.415957 0.642623
Si Si5 0.030151 0.083050 0.424519
Si Si6 0.338224 0.581765 0.587488
Si Si7 0.397147 0.581302 0.913017
Si Si8 0.032878 0.584772 0.123198
O O1 0.441473 0.250000 0.688753
O O2 0.635813 0.049672 0.597338
O O3 0.640249 0.059239 0.491163
O O4 0.346342 0.977509 0.754772
O O5 0.854284 0.250000 0.092731
O O6 0.859950 0.440024 0.009928
O O7 0.000000 0.500000 0.000000
O O8 0.459707 0.250000 0.072227
O O9 0.221762 0.463904 0.259627
O O10 0.546539 0.472082 0.069287
O O11 0.500000 0.500000 0.000000
O O12 0.617776 0.250000 0.685641
O O13 0.520338 0.506443 0.778967
O O14 0.868799 0.456887 0.501439
O O15 0.032623 0.250000 0.437510
O O16 0.000000 0.000000 0.500000
O O17 0.500000 0.500000 0.500000
O O18 0.344733 0.750000 0.598418
O O19 0.141301 0.518930 0.747180
O O20 0.436423 0.750000 0.878136
O O21 0.181593 0.547026 0.060564
O O22 0.964504 0.750000 0.177857
#
# Coordination Sequence:
#
# PCOD8074312 Si02
#       8
#     4   4   4   4   4   4   4   4
#     4  10  22  39  57  83 117 148 189 241 289 342
#     4  11  22  36  58  86 114 148 189 236 287 342
#     4  10  22  38  58  85 121 158 196 242 290 344
#     4  10  20  35  59  88 116 149 192 244 295 345
#     4  10  20  35  58  86 115 153 196 241 291 345
#     4  11  24  41  61  85 117 156 195 238 291 348
#     4  10  20  38  60  85 118 154 192 242 294 343
#     4  10  22  39  59  84 116 152 194 238 289 348
#
# _framework density 18.809819000000001
#
# number of rings (size 3 to 8) (size 9 to 14) (size 15 to 20)
#    0.000    1.750    2.500    1.500    0.000    7.500 
#    0.000    1.250    0.000    0.000    0.000    0.000 
#    0.000    0.000    0.000    0.000    0.000    0.000 
#
# Total GULP energy -396877.986219 kJ/mol
# GULP energy per Si atom -12402.437069 kJ/mol
# Density = 1.876701 g / cm^3
# Si number density = 18.809819 Si / 1000 Ang^3
#
#
#
# Elastic Constant Matrix: (Units=GPa)
#
#
# Indices 1 2 3 4 5 6 
#
# 1 113.3056 40.7110 34.5253 0.0000 -9.2038 0.0000
# 2 40.7110 74.4692 46.1151 0.0000 -2.9719 0.0000
# 3 34.5253 46.1151 97.8720 0.0000 -9.2391 0.0000
# 4 0.0000 0.0000 0.0000 35.4624 0.0000 2.5814
# 5 -9.2038 -2.9719 -9.2391 0.0000 38.6589 0.0000
# 6 0.0000 0.0000 0.0000 2.5814 0.0000 30.0873
#
#
#
# Elastic Compliance Matrix: (Units=1/GPa)
#
#
# Indices 1 2 3 4 5 6 
#
# 1 0.011280 -0.005280 -0.001306 0.000000 0.001968 0.000000
# 2 -0.005280 0.021450 -0.008397 0.000000 -0.001615 0.000000
# 3 -0.001306 -0.008397 0.014880 0.000000 0.002600 0.000000
# 4 0.000000 0.000000 0.000000 0.028376 0.000000 -0.002435
# 5 0.001968 -0.001615 0.002600 0.000000 0.026833 0.000000
# 6 0.000000 0.000000 0.000000 -0.002435 0.000000 0.033445
#
#
# Mechanical properties :
#
#
# Convention : Reuss Voigt Hill
#
# Bulk Modulus (GPa) = 56.67094 58.70550 57.68822
# Shear Modulus (GPa) = 29.05106 31.79476 30.42291
#
# Velocity S-wave (km/s) = 3.93423 4.11582 4.02605
# Velocity P-wave (km/s) = 7.12961 7.33924 7.23518
#
# Compressibility (1/GPa) = 0.01764573
#
# Stress axis : x y z
#
# Youngs Moduli (GPa) = 88.64919 46.62043 67.20509
#
# Poissons Ratio (x) = 0.24614 0.08776
# Poissons Ratio (y) = 0.46803 0.56430
# Poissons Ratio (z) = 0.11577 0.39146
#
# Static dielectric constant tensor:
#      x y z
#    x 3.727110 0.000000 -0.269310 
#    y 0.000000 3.479900 0.000000 
#    z -0.269310 0.000000 3.452830 
# 
# 
# High freq. dielectric constant tensor:
#      x y z
#    x 1.744790 0.000000 -0.009130 
#    y 0.000000 1.731420 0.000000 
#    z -0.009130 0.000000 1.730190 
# 
# From -- ./inp_files/72054.got.cif
#   From: 2010.06.25/outbox.cif.g09.slc.cpg/sg11_37_cif.got.tgz:72054.got - 2010.06.27 23:14:04.
