data_PCOD8074441
_publ_section_title
;
Structure prediction by ZEFSAII (Michael W. Deem and Ramdas Pophale) SiO2 
 PCOD8074441
Probable space group: P 21/M
;
_chemical_formula_sum "Si O2"
_cell_formula_units_Z 28
_cell_length_a 19.683628
_cell_length_b 9.392149
_cell_length_c 18.160237
_cell_angle_alpha 90.000000
_cell_angle_beta 28.437701
_cell_angle_gamma 90.000000
_cell_volume 1598.761528
_symmetry_space_group_name_H-M "P 21/M"
_symmetry_group_IT_number 11
_symmetry_cell_setting 'monoclinic'
loop_
_space_group_symop_operation_xyz
x,y,z
-x,1/2+y,-z
-x,-y,-z
x,1/2-y,z
loop_
_atom_site_type_symbol
_atom_site_label
_atom_site_fract_x
_atom_site_fract_y
_atom_site_fract_z
Si Si1 0.931802 0.086884 0.170143
Si Si2 0.490803 0.911907 0.583233
Si Si3 0.625304 0.415476 0.731306
Si Si4 0.583802 0.082066 0.983100
Si Si5 0.680133 0.086362 0.511064
Si Si6 0.168435 0.908084 0.892188
Si Si7 0.148111 0.914681 0.360634
O O1 0.973904 0.250000 0.125370
O O2 0.839269 0.054489 0.330579
O O3 0.844588 0.037403 0.180145
O O4 0.079320 0.002233 0.034338
O O5 0.543543 0.750000 0.518851
O O6 0.329563 0.912838 0.764935
O O7 0.500000 0.000000 0.500000
O O8 0.574966 0.982395 0.569294
O O9 0.586358 0.250000 0.781093
O O10 0.678329 0.446565 0.598787
O O11 0.755433 0.460293 0.661062
O O12 0.480481 0.509413 0.881738
O O13 0.548555 0.250000 0.015565
O O14 0.754174 0.058849 0.806209
O O15 0.500000 0.000000 0.000000
O O16 0.637809 0.250000 0.533894
O O17 0.105362 0.750000 0.956777
O O18 0.105649 0.750000 0.407239
O O19 0.000000 0.000000 0.500000
#
# Coordination Sequence:
#
# PCOD8074441 Si02
#       7
#     4   4   4   4   4   4   4
#     4   9  17  31  50  71  96 129 166 207 258 308
#     4  11  21  34  52  75 102 132 171 217 261 308
#     4   9  19  35  54  76 105 138 173 213 260 310
#     4   9  17  31  52  77 106 136 172 209 248 299
#     4  10  20  36  54  75 104 135 171 218 266 312
#     4   9  18  32  48  70  97 125 165 214 258 303
#     4   9  18  32  52  80 106 135 170 209 252 298
#
# _framework density 17.513556000000001
#
# number of rings (size 3 to 8) (size 9 to 14) (size 15 to 20)
#    0.000    2.571    1.429    1.714    0.000    5.143 
#    0.000    1.429    0.000    5.143    0.000    0.000 
#    0.000    0.000    0.000    0.000    0.000    0.000 
#
# Total GULP energy -347018.610984 kJ/mol
# GULP energy per Si atom -12393.521821 kJ/mol
# Density = 1.747369 g / cm^3
# Si number density = 17.513556 Si / 1000 Ang^3
#
#
#
# Elastic Constant Matrix: (Units=GPa)
#
#
# Indices 1 2 3 4 5 6 
#
# 1 66.0367 44.6235 50.7645 0.0000 5.1885 0.0000
# 2 44.6235 97.5508 77.1344 0.0000 -0.4734 0.0000
# 3 50.7645 77.1344 146.5328 0.0000 7.1573 0.0000
# 4 0.0000 0.0000 0.0000 36.7252 0.0000 -3.8979
# 5 5.1885 -0.4734 7.1573 0.0000 26.9578 0.0000
# 6 0.0000 0.0000 0.0000 -3.8979 0.0000 25.2903
#
#
#
# Elastic Compliance Matrix: (Units=1/GPa)
#
#
# Indices 1 2 3 4 5 6 
#
# 1 0.023696 -0.007720 -0.003967 0.000000 -0.003643 0.000000
# 2 -0.007720 0.020286 -0.008200 0.000000 0.004019 0.000000
# 3 -0.003967 -0.008200 0.012649 0.000000 -0.002739 0.000000
# 4 0.000000 0.000000 0.000000 0.027682 0.000000 0.004267
# 5 -0.003643 0.004019 -0.002739 0.000000 0.038594 0.000000
# 6 0.000000 0.000000 0.000000 0.004267 0.000000 0.040198
#
#
# Mechanical properties :
#
#
# Convention : Reuss Voigt Hill
#
# Bulk Modulus (GPa) = 59.32711 72.79612 66.06161
# Shear Modulus (GPa) = 23.98083 26.96785 25.47434
#
# Velocity S-wave (km/s) = 3.70438 3.92832 3.81799
# Velocity P-wave (km/s) = 7.22808 7.88869 7.56560
#
# Compressibility (1/GPa) = 0.01685570
#
# Stress axis : x y z
#
# Youngs Moduli (GPa) = 42.20140 49.29484 79.05578
#
# Poissons Ratio (x) = 0.38056 0.31365
# Poissons Ratio (y) = 0.32579 0.64829
# Poissons Ratio (z) = 0.16743 0.40424
#
# Static dielectric constant tensor:
#      x y z
#    x 3.111720 0.000000 0.079650 
#    y 0.000000 3.455140 0.000000 
#    z 0.079650 0.000000 3.650000 
# 
# 
# High freq. dielectric constant tensor:
#      x y z
#    x 1.636880 0.000000 0.001060 
#    y 0.000000 1.683340 0.000000 
#    z 0.001060 0.000000 1.687910 
# 
# From -- ./inp_files/61235.got.cif
#   From: 2010.06.25/outbox.cif.g09.slc.cpg/sg11_31_cif.got.tgz:61235.got - 2010.06.27 23:14:04.
