data_PCOD8074259
_publ_section_title
;
Structure prediction by ZEFSAII (Michael W. Deem and Ramdas Pophale) SiO2 
 PCOD8074259
Probable space group: P 21/M
;
_chemical_formula_sum "Si O2"
_cell_formula_units_Z 32
_cell_length_a 19.496025
_cell_length_b 14.935298
_cell_length_c 10.926573
_cell_angle_alpha 90.000000
_cell_angle_beta 150.029969
_cell_angle_gamma 90.000000
_cell_volume 1589.352572
_symmetry_space_group_name_H-M "P 21/M"
_symmetry_group_IT_number 11
_symmetry_cell_setting 'monoclinic'
loop_
_space_group_symop_operation_xyz
x,y,z
-x,1/2+y,-z
-x,-y,-z
x,1/2-y,z
loop_
_atom_site_type_symbol
_atom_site_label
_atom_site_fract_x
_atom_site_fract_y
_atom_site_fract_z
Si Si1 0.596157 0.144165 0.833146
Si Si2 0.880880 0.645610 0.270711
Si Si3 0.744992 0.004961 0.919359
Si Si4 0.172829 0.851567 0.627620
Si Si5 0.309784 0.433454 0.433027
Si Si6 0.969835 0.847364 0.929230
Si Si7 0.186728 0.556971 0.420149
Si Si8 0.965133 0.911255 0.661958
O O1 0.610014 0.250000 0.819634
O O2 0.622921 0.075287 0.763038
O O3 0.445213 0.126388 0.653011
O O4 0.706797 0.108690 0.102800
O O5 0.850781 0.750000 0.192298
O O6 0.889961 0.635467 0.431350
O O7 0.021470 0.608560 0.423811
O O8 0.757781 0.583931 0.025459
O O9 0.710225 0.975209 0.729885
O O10 0.884970 0.059556 0.148257
O O11 0.159995 0.750000 0.645962
O O12 0.221666 0.858546 0.560131
O O13 0.313118 0.513000 0.541276
O O14 0.183760 0.369019 0.268086
O O15 0.008831 0.750000 0.042016
O O16 0.071448 0.921273 0.141410
O O17 0.981604 0.843211 0.800770
O O18 0.128603 0.492061 0.435783
#
# Coordination Sequence:
#
# PCOD8074259 Si02
#       8
#     4   4   4   4   4   4   4   4
#     4  11  25  41  61  86 117 163 209 245 297 365
#     4  11  22  36  62  95 124 157 199 254 311 358
#     4  12  21  40  64  88 122 158 198 260 302 356
#     4  10  20  35  57  88 119 152 199 247 298 358
#     4  11  23  41  58  83 121 162 204 237 301 365
#     4  11  21  35  60  89 120 153 195 251 302 357
#     4  11  20  37  60  86 118 151 197 249 305 358
#     4  11  19  35  57  90 121 151 193 247 308 354
#
# _framework density 20.133984000000002
#
# number of rings (size 3 to 8) (size 9 to 14) (size 15 to 20)
#    0.000    1.000    5.000    3.375    0.000    3.000 
#    0.000    0.000    0.000    4.500    0.000    0.000 
#    0.000    0.000    0.000    0.000    0.000    0.000 
#
# Total GULP energy -396605.821247 kJ/mol
# GULP energy per Si atom -12393.931914 kJ/mol
# Density = 2.008816 g / cm^3
# Si number density = 20.133984 Si / 1000 Ang^3
#
#
#
# Elastic Constant Matrix: (Units=GPa)
#
#
# Indices 1 2 3 4 5 6 
#
# 1 116.2532 48.0865 24.4715 0.0000 -13.2190 0.0000
# 2 48.0865 93.3520 28.8820 0.0000 6.3746 0.0000
# 3 24.4715 28.8820 37.0947 0.0000 9.4625 0.0000
# 4 0.0000 0.0000 0.0000 19.1285 0.0000 15.4651
# 5 -13.2190 6.3746 9.4625 0.0000 29.1628 0.0000
# 6 0.0000 0.0000 0.0000 15.4651 0.0000 5.5293
#
#
#
# Elastic Compliance Matrix: (Units=1/GPa)
#
#
# Indices 1 2 3 4 5 6 
#
# 1 0.013399 -0.005356 -0.007105 0.000000 0.009550 0.000000
# 2 -0.005356 0.016259 -0.008287 0.000000 -0.003293 0.000000
# 3 -0.007105 -0.008287 0.041927 0.000000 -0.015014 0.000000
# 4 0.000000 0.000000 0.000000 -0.041448 0.000000 0.115928
# 5 0.009550 -0.003293 -0.015014 0.000000 0.044210 0.000000
# 6 0.000000 0.000000 0.000000 0.115928 0.000000 -0.143389
#
#
# Mechanical properties :
#
#
# Convention : Reuss Voigt Hill
#
# Bulk Modulus (GPa) = 33.23315 49.95331 41.59323
# Shear Modulus (GPa) = -285.44614 20.44810 -132.49902
#
# Velocity S-wave (km/s) = -11.91978 3.19031 -8.12105
# Velocity P-wave (km/s) = 13.14913 6.19960 8.19953
#
# Compressibility (1/GPa) = 0.03009044
#
# Stress axis : x y z
#
# Youngs Moduli (GPa) = 74.63396 61.50252 23.85093
#
# Poissons Ratio (x) = 0.32938 0.16947
# Poissons Ratio (y) = 0.39971 0.19764
# Poissons Ratio (z) = 0.53030 0.50964
#
# Static dielectric constant tensor:
#      x y z
#    x 3.751590 0.000000 -0.066900 
#    y 0.000000 3.746490 0.000000 
#    z -0.066900 0.000000 3.502000 
# 
# 
# High freq. dielectric constant tensor:
#      x y z
#    x 1.791900 0.000000 -0.015470 
#    y 0.000000 1.794520 0.000000 
#    z -0.015470 0.000000 1.758210 
# 
# From -- ./inp_files/41738.got.cif
#   From: 2010.06.25/outbox.cif.g09.slc.cpg/sg11_21_cif.got.tgz:41738.got - 2010.06.27 23:14:04.
