data_PCOD8074682
_publ_section_title
;
Structure prediction by ZEFSAII (Michael W. Deem and Ramdas Pophale) SiO2 
 PCOD8074682
Probable space group: P 21/M
;
_chemical_formula_sum "Si O2"
_cell_formula_units_Z 32
_cell_length_a 16.505592
_cell_length_b 17.821727
_cell_length_c 12.504807
_cell_angle_alpha 90.000000
_cell_angle_beta 153.802690
_cell_angle_gamma 90.000000
_cell_volume 1623.876177
_symmetry_space_group_name_H-M "P 21/M"
_symmetry_group_IT_number 11
_symmetry_cell_setting 'monoclinic'
loop_
_space_group_symop_operation_xyz
x,y,z
-x,1/2+y,-z
-x,-y,-z
x,1/2-y,z
loop_
_atom_site_type_symbol
_atom_site_label
_atom_site_fract_x
_atom_site_fract_y
_atom_site_fract_z
Si Si1 0.459052 0.416802 0.828109
Si Si2 0.586040 0.408616 0.212420
Si Si3 0.327798 0.335676 0.076057
Si Si4 0.969606 0.087370 0.959170
Si Si5 0.389030 0.664591 0.411173
Si Si6 0.683995 0.335856 0.914478
Si Si7 0.004138 0.920363 0.243480
Si Si8 0.944476 0.903123 0.709289
O O1 0.462494 0.505889 0.818932
O O2 0.585805 0.386720 0.884614
O O3 0.251284 0.385899 0.575065
O O4 0.540330 0.389168 0.036157
O O5 0.467560 0.355177 0.147335
O O6 0.799561 0.391516 0.483571
O O7 0.265152 0.250000 0.987509
O O8 0.420983 0.348089 0.302257
O O9 0.149571 0.388942 0.858109
O O10 0.754151 0.106148 0.708633
O O11 0.040091 0.114802 0.926719
O O12 0.068686 0.122632 0.180895
O O13 0.000000 0.000000 0.000000
O O14 0.316948 0.750000 0.341809
O O15 0.414470 0.647709 0.315631
O O16 0.661835 0.250000 0.922610
O O17 0.900593 0.354580 0.166129
O O18 0.997932 0.010191 0.233865
#
# Coordination Sequence:
#
# PCOD8074682 Si02
#       8
#     4   4   4   4   4   4   4   4
#     4  10  22  39  64  83 109 157 197 233 286 340
#     4  10  22  42  59  83 117 150 195 244 279 334
#     4  11  23  37  58  87 118 156 193 233 291 349
#     4   9  17  33  56  86 114 144 190 238 285 335
#     4   9  19  36  55  82 123 156 183 233 293 345
#     4  10  21  38  58  85 117 149 188 235 288 344
#     4  10  20  36  58  84 115 149 193 235 286 342
#     4   9  20  37  56  86 115 146 188 239 289 334
#
# _framework density 19.705936000000001
#
# number of rings (size 3 to 8) (size 9 to 14) (size 15 to 20)
#    0.000    2.250    1.250    0.750    1.750    3.000 
#    0.000    7.500    0.000    0.000    0.000    0.000 
#    0.000    0.000    0.000    0.000    0.000    0.000 
#
# Total GULP energy -396765.098233 kJ/mol
# GULP energy per Si atom -12398.909320 kJ/mol
# Density = 1.966108 g / cm^3
# Si number density = 19.705936 Si / 1000 Ang^3
#
#
#
# Elastic Constant Matrix: (Units=GPa)
#
#
# Indices 1 2 3 4 5 6 
#
# 1 97.9814 33.4631 48.3616 0.0000 -1.0221 0.0000
# 2 33.4631 42.4233 36.4482 0.0000 0.5694 0.0000
# 3 48.3616 36.4482 100.4113 0.0000 -0.2851 0.0000
# 4 0.0000 0.0000 0.0000 18.6069 0.0000 -1.6427
# 5 -1.0221 0.5694 -0.2851 0.0000 26.1719 0.0000
# 6 0.0000 0.0000 0.0000 -1.6427 0.0000 22.5275
#
#
#
# Elastic Compliance Matrix: (Units=1/GPa)
#
#
# Indices 1 2 3 4 5 6 
#
# 1 0.015161 -0.008278 -0.004295 0.000000 0.000725 0.000000
# 2 -0.008278 0.038795 -0.010099 0.000000 -0.001277 0.000000
# 3 -0.004295 -0.010099 0.015694 0.000000 0.000223 0.000000
# 4 0.000000 0.000000 0.000000 0.054092 0.000000 0.003944
# 5 0.000725 -0.001277 0.000223 0.000000 0.038268 0.000000
# 6 0.000000 0.000000 0.000000 0.003944 0.000000 0.044678
#
#
# Mechanical properties :
#
#
# Convention : Reuss Voigt Hill
#
# Bulk Modulus (GPa) = 41.14210 53.04019 47.09115
# Shear Modulus (GPa) = 19.22092 21.63081 20.42587
#
# Velocity S-wave (km/s) = 3.12651 3.31672 3.22302
# Velocity P-wave (km/s) = 5.82724 6.45304 6.14811
#
# Compressibility (1/GPa) = 0.02430600
#
# Stress axis : x y z
#
# Youngs Moduli (GPa) = 65.95989 25.77625 63.71862
#
# Poissons Ratio (x) = 0.21338 0.27367
# Poissons Ratio (y) = 0.54604 0.64348
# Poissons Ratio (z) = 0.28329 0.26031
#
# Static dielectric constant tensor:
#      x y z
#    x 3.597060 0.000000 -0.209050 
#    y 0.000000 3.528390 0.000000 
#    z -0.209050 0.000000 3.695360 
# 
# 
# High freq. dielectric constant tensor:
#      x y z
#    x 1.767350 0.000000 -0.004280 
#    y 0.000000 1.755400 0.000000 
#    z -0.004280 0.000000 1.768620 
# 
# From -- ./inp_files/40007.got.cif
#   From: 2010.06.25/outbox.cif.g09.slc.cpg/sg11_21_cif.got.tgz:40007.got - 2010.06.27 23:14:04.
