data_PCOD8074777
_publ_section_title
;
Structure prediction by ZEFSAII (Michael W. Deem and Ramdas Pophale) SiO2 
 PCOD8074777
Probable space group: P 21/M
;
_chemical_formula_sum "Si O2"
_cell_formula_units_Z 28
_cell_length_a 18.877871
_cell_length_b 13.529485
_cell_length_c 9.202460
_cell_angle_alpha 90.000000
_cell_angle_beta 40.005633
_cell_angle_gamma 90.000000
_cell_volume 1510.972619
_symmetry_space_group_name_H-M "P 21/M"
_symmetry_group_IT_number 11
_symmetry_cell_setting 'monoclinic'
loop_
_space_group_symop_operation_xyz
x,y,z
-x,1/2+y,-z
-x,-y,-z
x,1/2-y,z
loop_
_atom_site_type_symbol
_atom_site_label
_atom_site_fract_x
_atom_site_fract_y
_atom_site_fract_z
Si Si1 0.835920 0.864212 0.448688
Si Si2 0.363290 0.459315 0.071938
Si Si3 0.414520 0.865110 0.190618
Si Si4 0.052179 0.964440 0.063841
Si Si5 0.729369 0.362502 0.311190
Si Si6 0.628338 0.983278 0.276819
Si Si7 0.200653 0.362569 0.836140
O O1 0.842243 0.750000 0.482641
O O2 0.746212 0.918764 0.684522
O O3 0.803089 0.875714 0.331360
O O4 0.953034 0.914392 0.309808
O O5 0.390707 0.569370 0.085937
O O6 0.461544 0.383200 0.950417
O O7 0.341922 0.463480 0.935284
O O8 0.398900 0.750000 0.174911
O O9 0.330653 0.900415 0.448328
O O10 0.140463 0.880432 0.882005
O O11 0.111446 0.060141 0.046577
O O12 0.000000 0.000000 0.000000
O O13 0.700350 0.250000 0.333279
O O14 0.685763 0.416373 0.236865
O O15 0.677577 0.892775 0.297087
O O16 0.500000 0.000000 0.500000
O O17 0.173149 0.250000 0.925223
#
# Coordination Sequence:
#
# PCOD8074777 Si02
#       7
#     4   4   4   4   4   4   4
#     4  10  20  36  59  87 113 149 189 234 285 332
#     4  11  22  36  56  79 117 143 188 231 283 338
#     4  10  21  36  56  80 108 146 187 233 282 329
#     4   9  17  33  59  84 113 142 188 234 284 320
#     4  10  20  37  58  83 111 144 188 230 275 334
#     4  11  22  37  55  79 112 151 186 226 281 332
#     4   9  20  36  57  84 115 149 193 234 278 332
#
# _framework density 18.531110999999999
#
# number of rings (size 3 to 8) (size 9 to 14) (size 15 to 20)
#    0.000    2.000    1.429    3.429    2.000    2.857 
#    0.000    3.571    0.000    1.714    0.000    0.000 
#    0.000    0.000    0.000    0.000    0.000    0.000 
#
# Total GULP energy -347089.617246 kJ/mol
# GULP energy per Si atom -12396.057759 kJ/mol
# Density = 1.848893 g / cm^3
# Si number density = 18.531111 Si / 1000 Ang^3
#
#
#
# Elastic Constant Matrix: (Units=GPa)
#
#
# Indices 1 2 3 4 5 6 
#
# 1 76.3353 31.3236 38.7326 0.0000 -13.1810 0.0000
# 2 31.3236 108.3332 30.6629 0.0000 -3.8810 0.0000
# 3 38.7326 30.6629 110.3063 0.0000 -21.2870 0.0000
# 4 0.0000 0.0000 0.0000 27.4202 0.0000 -2.5143
# 5 -13.1810 -3.8810 -21.2870 0.0000 31.7031 0.0000
# 6 0.0000 0.0000 0.0000 -2.5143 0.0000 21.5721
#
#
#
# Elastic Compliance Matrix: (Units=1/GPa)
#
#
# Indices 1 2 3 4 5 6 
#
# 1 0.017501 -0.003684 -0.004370 0.000000 0.003891 0.000000
# 2 -0.003684 0.010810 -0.002012 0.000000 -0.001559 0.000000
# 3 -0.004370 -0.002012 0.012363 0.000000 0.006238 0.000000
# 4 0.000000 0.000000 0.000000 0.036863 0.000000 0.004297
# 5 0.003891 -0.001559 0.006238 0.000000 0.037158 0.000000
# 6 0.000000 0.000000 0.000000 0.004297 0.000000 0.046857
#
#
# Mechanical properties :
#
#
# Convention : Reuss Voigt Hill
#
# Bulk Modulus (GPa) = 48.68276 55.15700 51.91988
# Shear Modulus (GPa) = 26.52060 29.08947 27.80503
#
# Velocity S-wave (km/s) = 3.78714 3.96632 3.87777
# Velocity P-wave (km/s) = 6.74175 7.12775 6.93743
#
# Compressibility (1/GPa) = 0.02054115
#
# Stress axis : x y z
#
# Youngs Moduli (GPa) = 57.13914 92.51011 80.88361
#
# Poissons Ratio (x) = 0.34080 0.35349
# Poissons Ratio (y) = 0.21049 0.16276
# Poissons Ratio (z) = 0.24972 0.18615
#
# Static dielectric constant tensor:
#      x y z
#    x 4.257900 0.000000 -0.041520 
#    y 0.000000 3.825600 0.000000 
#    z -0.041520 0.000000 3.691510 
# 
# 
# High freq. dielectric constant tensor:
#      x y z
#    x 1.710420 0.000000 -0.021720 
#    y 0.000000 1.730500 0.000000 
#    z -0.021720 0.000000 1.711250 
# 
# From -- ./inp_files/17716.got.cif
#   From: 2010.06.25/outbox.cif.g09.slc.cpg/sg11_9_cif.got.tgz:17716.got - 2010.06.27 23:14:04.
