data_PCOD8074249
_publ_section_title
;
Structure prediction by ZEFSAII (Michael W. Deem and Ramdas Pophale) SiO2 
 PCOD8074249
Probable space group: P 21/M
;
_chemical_formula_sum "Si O2"
_cell_formula_units_Z 32
_cell_length_a 25.933228
_cell_length_b 8.920311
_cell_length_c 20.532266
_cell_angle_alpha 90.000000
_cell_angle_beta 159.030420
_cell_angle_gamma 90.000000
_cell_volume 1699.814230
_symmetry_space_group_name_H-M "P 21/M"
_symmetry_group_IT_number 11
_symmetry_cell_setting 'monoclinic'
loop_
_space_group_symop_operation_xyz
x,y,z
-x,1/2+y,-z
-x,-y,-z
x,1/2-y,z
loop_
_atom_site_type_symbol
_atom_site_label
_atom_site_fract_x
_atom_site_fract_y
_atom_site_fract_z
Si Si1 0.142412 0.424486 0.694673
Si Si2 0.718801 0.574005 0.510036
Si Si3 0.652814 0.576698 0.183061
Si Si4 0.443388 0.421725 0.236697
Si Si5 0.855302 0.572036 0.536328
Si Si6 0.146324 0.074272 0.194311
Si Si7 0.417380 0.578181 0.460151
Si Si8 0.167713 0.928214 0.861058
O O1 0.111725 0.250000 0.670175
O O2 0.269836 0.450373 0.794048
O O3 0.192223 0.502744 0.819196
O O4 0.000000 0.500000 0.500000
O O5 0.684932 0.750000 0.466662
O O6 0.566940 0.488947 0.335857
O O7 0.800934 0.515784 0.542563
O O8 0.820570 0.535430 0.691341
O O9 0.627172 0.750000 0.167041
O O10 0.750074 0.507876 0.356083
O O11 0.500000 0.500000 0.000000
O O12 0.417781 0.250000 0.185736
O O13 0.487828 0.436299 0.363682
O O14 0.296826 0.515229 0.058506
O O15 0.856723 0.750000 0.535104
O O16 0.017260 0.513518 0.714310
O O17 0.137372 0.250000 0.172033
O O18 0.267869 0.007458 0.291341
O O19 0.000000 0.000000 0.000000
O O20 0.500000 0.500000 0.500000
O O21 0.385231 0.750000 0.404686
O O22 0.170488 0.750000 0.859033
#
# Coordination Sequence:
#
# PCOD8074249 Si02
#       8
#     4   4   4   4   4   4   4   4
#     4  11  22  39  60  84 114 147 187 236 287 341
#     4   9  19  37  60  83 110 149 192 233 278 336
#     4  10  22  39  57  82 113 143 184 234 281 335
#     4  10  22  39  57  85 119 149 186 235 285 336
#     4   9  19  38  58  80 110 143 186 235 277 327
#     4  10  20  35  57  86 117 152 195 238 287 344
#     4  10  21  38  60  85 118 154 191 239 290 342
#     4  11  22  38  60  84 113 153 192 232 283 339
#
# _framework density 18.825586000000001
#
# number of rings (size 3 to 8) (size 9 to 14) (size 15 to 20)
#    0.000    2.000    1.250    1.875    1.750    4.000 
#    0.000    2.500    0.000    0.000    0.000    0.000 
#    0.000    0.000    0.000    0.000    0.000    0.000 
#
# Total GULP energy -396904.515982 kJ/mol
# GULP energy per Si atom -12403.266124 kJ/mol
# Density = 1.878274 g / cm^3
# Si number density = 18.825586 Si / 1000 Ang^3
#
#
#
# Elastic Constant Matrix: (Units=GPa)
#
#
# Indices 1 2 3 4 5 6 
#
# 1 139.1885 57.6299 65.4994 0.0000 15.5877 0.0000
# 2 57.6299 93.0890 60.7354 0.0000 12.6198 0.0000
# 3 65.4994 60.7354 152.0368 0.0000 22.9650 0.0000
# 4 0.0000 0.0000 0.0000 38.8258 0.0000 1.3111
# 5 15.5877 12.6198 22.9650 0.0000 21.8759 0.0000
# 6 0.0000 0.0000 0.0000 1.3111 0.0000 29.5880
#
#
#
# Elastic Compliance Matrix: (Units=1/GPa)
#
#
# Indices 1 2 3 4 5 6 
#
# 1 0.010454 -0.004661 -0.002285 0.000000 -0.002361 0.000000
# 2 -0.004661 0.016745 -0.004426 0.000000 -0.001693 0.000000
# 3 -0.002285 -0.004426 0.010337 0.000000 -0.006671 0.000000
# 4 0.000000 0.000000 0.000000 0.025795 0.000000 -0.001143
# 5 -0.002361 -0.001693 -0.006671 0.000000 0.055374 0.000000
# 6 0.000000 0.000000 0.000000 -0.001143 0.000000 0.033848
#
#
# Mechanical properties :
#
#
# Convention : Reuss Voigt Hill
#
# Bulk Modulus (GPa) = 67.59915 83.56042 75.57979
# Shear Modulus (GPa) = 27.74270 31.42124 29.58197
#
# Velocity S-wave (km/s) = 3.84301 4.08986 3.96835
# Velocity P-wave (km/s) = 7.46175 8.17224 7.82506
#
# Compressibility (1/GPa) = 0.01479309
#
# Stress axis : x y z
#
# Youngs Moduli (GPa) = 95.65610 59.72009 96.73682
#
# Poissons Ratio (x) = 0.27835 0.22106
# Poissons Ratio (y) = 0.44585 0.42811
# Poissons Ratio (z) = 0.21859 0.26429
#
# Static dielectric constant tensor:
#      x y z
#    x 3.610220 0.000000 0.068800 
#    y 0.000000 3.457400 0.000000 
#    z 0.068800 0.000000 3.459080 
# 
# 
# High freq. dielectric constant tensor:
#      x y z
#    x 1.738480 0.000000 0.002330 
#    y 0.000000 1.728700 0.000000 
#    z 0.002330 0.000000 1.739540 
# 
# From -- ./inp_files/67195.got.cif
#   From: 2010.06.25/outbox.cif.g09.slc.cpg/sg11_34_cif.got.tgz:67195.got - 2010.06.27 23:14:04.
