data_PCOD8074757
_publ_section_title
;
Structure prediction by ZEFSAII (Michael W. Deem and Ramdas Pophale) SiO2 
 PCOD8074757
Probable space group: P 21/M
;
_chemical_formula_sum "Si O2"
_cell_formula_units_Z 32
_cell_length_a 31.122636
_cell_length_b 9.082154
_cell_length_c 12.006207
_cell_angle_alpha 90.000000
_cell_angle_beta 28.382136
_cell_angle_gamma 90.000000
_cell_volume 1613.186173
_symmetry_space_group_name_H-M "P 21/M"
_symmetry_group_IT_number 11
_symmetry_cell_setting 'monoclinic'
loop_
_space_group_symop_operation_xyz
x,y,z
-x,1/2+y,-z
-x,-y,-z
x,1/2-y,z
loop_
_atom_site_type_symbol
_atom_site_label
_atom_site_fract_x
_atom_site_fract_y
_atom_site_fract_z
Si Si1 0.978125 0.079436 0.229379
Si Si2 0.873437 0.582486 0.289032
Si Si3 0.059341 0.074554 0.460515
Si Si4 0.420437 0.076455 0.487477
Si Si5 0.568684 0.085756 0.766697
Si Si6 0.704197 0.410397 0.646677
Si Si7 0.619039 0.417425 0.071164
Si Si8 0.732339 0.923212 0.991732
O O1 0.963993 0.250000 0.293307
O O2 0.896327 0.024665 0.339053
O O3 0.983725 0.981058 0.326391
O O4 0.069030 0.051732 0.952719
O O5 0.884701 0.750000 0.303569
O O6 0.771623 0.547028 0.489994
O O7 0.050547 0.250000 0.471066
O O8 0.165205 0.024652 0.213896
O O9 0.000000 0.000000 0.500000
O O10 0.419578 0.250000 0.466300
O O11 0.515351 0.031981 0.331071
O O12 0.336004 0.026060 0.755415
O O13 0.409088 0.995210 0.397627
O O14 0.531560 0.250000 0.826517
O O15 0.660923 0.093655 0.624409
O O16 0.500000 0.000000 0.000000
O O17 0.751188 0.250000 0.560310
O O18 0.631038 0.437625 0.911013
O O19 0.632792 0.250000 0.078304
O O20 0.695068 0.510835 0.961475
O O21 0.731370 0.750000 0.978261
#
# Coordination Sequence:
#
# PCOD8074757 Si02
#       8
#     4   4   4   4   4   4   4   4
#     4  10  21  39  61  85 117 154 192 240 298 353
#     4  10  21  36  58  89 118 150 195 243 294 350
#     4  11  24  42  63  88 117 154 199 245 299 357
#     4  10  21  40  60  83 120 158 193 241 291 339
#     4  11  22  38  58  82 114 153 195 235 281 340
#     4  10  21  36  55  84 119 154 193 238 291 346
#     4  10  20  36  59  85 119 156 192 236 289 345
#     4  10  23  40  60  87 117 150 195 245 290 344
#
# _framework density 19.83652
#
# number of rings (size 3 to 8) (size 9 to 14) (size 15 to 20)
#    0.000    1.750    1.250    2.625    0.000    8.000 
#    0.000    3.750    0.000    0.000    0.000    0.000 
#    0.000    0.000    0.000    0.000    0.000    0.000 
#
# Total GULP energy -396778.393613 kJ/mol
# GULP energy per Si atom -12399.324800 kJ/mol
# Density = 1.979137 g / cm^3
# Si number density = 19.836520 Si / 1000 Ang^3
#
#
#
# Elastic Constant Matrix: (Units=GPa)
#
#
# Indices 1 2 3 4 5 6 
#
# 1 119.1159 45.1808 56.3416 0.0000 0.9872 0.0000
# 2 45.1808 66.6744 39.6563 0.0000 2.6989 0.0000
# 3 56.3416 39.6563 80.0656 0.0000 -7.0737 0.0000
# 4 0.0000 0.0000 0.0000 30.4589 0.0000 0.8220
# 5 0.9872 2.6989 -7.0737 0.0000 28.0709 0.0000
# 6 0.0000 0.0000 0.0000 0.8220 0.0000 38.5751
#
#
#
# Elastic Compliance Matrix: (Units=1/GPa)
#
#
# Indices 1 2 3 4 5 6 
#
# 1 0.013772 -0.004807 -0.007479 0.000000 -0.001907 0.000000
# 2 -0.004807 0.023593 -0.008682 0.000000 -0.004287 0.000000
# 3 -0.007479 -0.008682 0.022654 0.000000 0.006806 0.000000
# 4 0.000000 0.000000 0.000000 0.032850 0.000000 -0.000700
# 5 -0.001907 -0.004287 0.006806 0.000000 0.037819 0.000000
# 6 0.000000 0.000000 0.000000 -0.000700 0.000000 0.025938
#
#
# Mechanical properties :
#
#
# Convention : Reuss Voigt Hill
#
# Bulk Modulus (GPa) = 55.29789 60.91257 58.10523
# Shear Modulus (GPa) = 24.43949 27.73280 26.08615
#
# Velocity S-wave (km/s) = 3.51386 3.74313 3.63030
# Velocity P-wave (km/s) = 6.66335 7.03245 6.85039
#
# Compressibility (1/GPa) = 0.01808387
#
# Stress axis : x y z
#
# Youngs Moduli (GPa) = 72.61323 42.38612 44.14284
#
# Poissons Ratio (x) = 0.20374 0.33013
# Poissons Ratio (y) = 0.34904 0.38323
# Poissons Ratio (z) = 0.54305 0.36798
#
# Static dielectric constant tensor:
#      x y z
#    x 3.707850 0.000000 0.110070 
#    y 0.000000 3.699230 0.000000 
#    z 0.110070 0.000000 3.812080 
# 
# 
# High freq. dielectric constant tensor:
#      x y z
#    x 1.772380 0.000000 0.002140 
#    y 0.000000 1.777890 0.000000 
#    z 0.002140 0.000000 1.776440 
# 
# From -- ./inp_files/45196.got.cif
#   From: 2010.06.25/outbox.cif.g09.slc.cpg/sg11_23_cif.got.tgz:45196.got - 2010.06.27 23:14:04.
