data_PCOD8074618
_publ_section_title
;
Structure prediction by ZEFSAII (Michael W. Deem and Ramdas Pophale) SiO2 
 PCOD8074618
Probable space group: P 21/M
;
_chemical_formula_sum "Si O2"
_cell_formula_units_Z 32
_cell_length_a 8.695316
_cell_length_b 12.656046
_cell_length_c 18.067867
_cell_angle_alpha 90.000000
_cell_angle_beta 125.957134
_cell_angle_gamma 90.000000
_cell_volume 1609.473481
_symmetry_space_group_name_H-M "P 21/M"
_symmetry_group_IT_number 11
_symmetry_cell_setting 'monoclinic'
loop_
_space_group_symop_operation_xyz
x,y,z
-x,1/2+y,-z
-x,-y,-z
x,1/2-y,z
loop_
_atom_site_type_symbol
_atom_site_label
_atom_site_fract_x
_atom_site_fract_y
_atom_site_fract_z
Si Si1 0.044475 0.872692 0.679577
Si Si2 0.793980 0.536686 0.160649
Si Si3 0.714439 0.479068 0.540013
Si Si4 0.930124 0.056502 0.053599
Si Si5 0.682531 0.129975 0.380012
Si Si6 0.683637 0.525310 0.778224
Si Si7 0.418538 0.868783 0.118449
Si Si8 0.834598 0.364316 0.705176
O O1 0.021133 0.750000 0.694805
O O2 0.149746 0.930939 0.777490
O O3 0.166739 0.888579 0.641080
O O4 0.838740 0.920344 0.601311
O O5 0.818548 0.518962 0.079650
O O6 0.582104 0.576754 0.115869
O O7 0.937933 0.629615 0.223709
O O8 0.500000 0.500000 0.500000
O O9 0.734211 0.452903 0.458954
O O10 0.783926 0.376387 0.604593
O O11 0.774994 0.143248 0.985117
O O12 0.128347 0.094475 0.147199
O O13 0.000000 0.000000 0.000000
O O14 0.686216 0.250000 0.410613
O O15 0.476150 0.108920 0.286966
O O16 0.615602 0.443596 0.821352
O O17 0.729571 0.456276 0.719529
O O18 0.475706 0.750000 0.159289
O O19 0.766633 0.250000 0.714524
#
# Coordination Sequence:
#
# PCOD8074618 Si02
#       8
#     4   4   4   4   4   4   4   4
#     4  10  23  41  63  87 121 162 200 245 297 358
#     4  10  20  38  61  86 121 154 201 248 298 358
#     4  11  22  39  59  89 122 154 198 251 298 348
#     4   9  21  38  59  83 118 158 194 245 301 350
#     4  11  22  40  62  86 121 163 204 245 298 358
#     4  10  20  39  58  86 120 159 201 249 298 353
#     4  11  21  36  60  88 119 155 199 249 304 362
#     4  10  20  36  57  84 118 157 198 243 300 357
#
# _framework density 19.882277999999999
#
# number of rings (size 3 to 8) (size 9 to 14) (size 15 to 20)
#    0.000    1.750    2.500    1.875    0.000    2.000 
#    0.000    0.625    0.000    1.500    0.000    0.000 
#    0.000    0.000    0.000    0.000    0.000    0.000 
#
# Total GULP energy -396563.073476 kJ/mol
# GULP energy per Si atom -12392.596046 kJ/mol
# Density = 1.983703 g / cm^3
# Si number density = 19.882278 Si / 1000 Ang^3
#
#
#
# Elastic Constant Matrix: (Units=GPa)
#
#
# Indices 1 2 3 4 5 6 
#
# 1 118.4446 37.6525 41.6813 0.0000 4.4732 0.0000
# 2 37.6525 89.3495 28.3211 0.0000 1.4779 0.0000
# 3 41.6813 28.3211 90.3169 0.0000 1.3987 0.0000
# 4 0.0000 0.0000 0.0000 16.2241 0.0000 1.3593
# 5 4.4732 1.4779 1.3987 0.0000 38.5065 0.0000
# 6 0.0000 0.0000 0.0000 1.3593 0.0000 15.9298
#
#
#
# Elastic Compliance Matrix: (Units=1/GPa)
#
#
# Indices 1 2 3 4 5 6 
#
# 1 0.010943 -0.003330 -0.003991 0.000000 -0.000998 0.000000
# 2 -0.003330 0.013445 -0.002679 0.000000 -0.000032 0.000000
# 3 -0.003991 -0.002679 0.013753 0.000000 0.000067 0.000000
# 4 0.000000 0.000000 0.000000 0.062080 0.000000 -0.005297
# 5 -0.000998 -0.000032 0.000067 0.000000 0.026084 0.000000
# 6 0.000000 0.000000 0.000000 -0.005297 0.000000 0.063228
#
#
# Mechanical properties :
#
#
# Convention : Reuss Voigt Hill
#
# Bulk Modulus (GPa) = 55.12030 57.04677 56.08353
# Shear Modulus (GPa) = 23.19325 26.82914 25.01119
#
# Velocity S-wave (km/s) = 3.41915 3.67740 3.55063
# Velocity P-wave (km/s) = 6.58567 6.84000 6.71404
#
# Compressibility (1/GPa) = 0.01814214
#
# Stress axis : x y z
#
# Youngs Moduli (GPa) = 91.37872 74.37739 72.71278
#
# Poissons Ratio (x) = 0.24769 0.29017
# Poissons Ratio (y) = 0.30431 0.19477
# Poissons Ratio (z) = 0.36466 0.19923
#
# Static dielectric constant tensor:
#      x y z
#    x 3.821250 0.000000 0.144490 
#    y 0.000000 3.363930 0.000000 
#    z 0.144490 0.000000 4.152790 
# 
# 
# High freq. dielectric constant tensor:
#      x y z
#    x 1.792640 0.000000 0.000550 
#    y 0.000000 1.752320 0.000000 
#    z 0.000550 0.000000 1.786440 
# 
# From -- ./inp_files/63669.got.cif
#   From: 2010.06.25/outbox.cif.g09.slc.cpg/sg11_32_cif.got.tgz:63669.got - 2010.06.27 23:14:04.
