data_PCOD8074112
_publ_section_title
;
Structure prediction by ZEFSAII (Michael W. Deem and Ramdas Pophale) SiO2 
 PCOD8074112
Probable space group: P 21/M
;
_chemical_formula_sum "Si O2"
_cell_formula_units_Z 32
_cell_length_a 23.588236
_cell_length_b 9.136792
_cell_length_c 14.795969
_cell_angle_alpha 90.000000
_cell_angle_beta 149.942885
_cell_angle_gamma 90.000000
_cell_volume 1597.171692
_symmetry_space_group_name_H-M "P 21/M"
_symmetry_group_IT_number 11
_symmetry_cell_setting 'monoclinic'
loop_
_space_group_symop_operation_xyz
x,y,z
-x,1/2+y,-z
-x,-y,-z
x,1/2-y,z
loop_
_atom_site_type_symbol
_atom_site_label
_atom_site_fract_x
_atom_site_fract_y
_atom_site_fract_z
Si Si1 0.424180 0.920886 0.214657
Si Si2 0.023306 0.078357 0.294519
Si Si3 0.776590 0.922251 0.552116
Si Si4 0.303214 0.412816 0.903249
Si Si5 0.765653 0.421292 0.901387
Si Si6 0.680824 0.921916 0.608189
Si Si7 0.908340 0.076578 0.432911
Si Si8 0.390891 0.089546 0.827544
O O1 0.416938 0.750000 0.180018
O O2 0.325940 0.967225 0.149518
O O3 0.547554 0.960294 0.423585
O O4 0.408858 0.018271 0.103483
O O5 0.033454 0.250000 0.333157
O O6 0.093925 0.042638 0.299692
O O7 0.083729 0.983924 0.454869
O O8 0.892365 0.031557 0.104946
O O9 0.757527 0.750000 0.525878
O O10 0.745539 0.983972 0.608296
O O11 0.687461 0.988405 0.356248
O O12 0.274268 0.250000 0.902028
O O13 0.204305 0.531273 0.776214
O O14 0.321749 0.395963 0.823335
O O15 0.759641 0.250000 0.874236
O O16 0.737888 0.501762 0.771084
O O17 0.699772 0.750000 0.643872
O O18 0.921035 0.250000 0.450393
O O19 0.000000 0.000000 0.500000
O O20 0.428646 0.250000 0.845517
O O21 0.500000 0.000000 0.000000
#
# Coordination Sequence:
#
# PCOD8074112 Si02
#       8
#     4   4   4   4   4   4   4   4
#     4  10  21  38  58  85 119 154 196 246 304 362
#     4  10  20  39  61  82 116 156 197 244 298 357
#     4   9  18  36  58  80 113 156 194 236 295 354
#     4  11  22  37  59  88 119 156 195 238 293 351
#     4  10  22  38  59  84 112 150 193 248 309 357
#     4  10  21  37  60  84 113 155 198 246 300 359
#     4  12  24  38  59  87 120 157 197 243 291 351
#     4  10  20  35  56  82 116 155 194 236 286 349
#
# _framework density 20.035418
#
# number of rings (size 3 to 8) (size 9 to 14) (size 15 to 20)
#    0.000    1.750    1.250    3.375    0.000    5.000 
#    0.000    1.250    0.000    0.000    0.000    0.000 
#    0.000    0.000    0.000    0.000    0.000    0.000 
#
# Total GULP energy -396694.573422 kJ/mol
# GULP energy per Si atom -12396.705419 kJ/mol
# Density = 1.998982 g / cm^3
# Si number density = 20.035418 Si / 1000 Ang^3
#
#
#
# Elastic Constant Matrix: (Units=GPa)
#
#
# Indices 1 2 3 4 5 6 
#
# 1 85.4376 22.0620 19.8216 0.0000 4.0343 0.0000
# 2 22.0620 77.1249 35.9254 0.0000 -2.8390 0.0000
# 3 19.8216 35.9254 85.2416 0.0000 1.4998 0.0000
# 4 0.0000 0.0000 0.0000 32.7802 0.0000 -8.6671
# 5 4.0343 -2.8390 1.4998 0.0000 41.1525 0.0000
# 6 0.0000 0.0000 0.0000 -8.6671 0.0000 24.5710
#
#
#
# Elastic Compliance Matrix: (Units=1/GPa)
#
#
# Indices 1 2 3 4 5 6 
#
# 1 0.012935 -0.002939 -0.001744 0.000000 -0.001407 0.000000
# 2 -0.002939 0.016878 -0.006459 0.000000 0.001688 0.000000
# 3 -0.001744 -0.006459 0.014874 0.000000 -0.000817 0.000000
# 4 0.000000 0.000000 0.000000 0.033644 0.000000 0.011867
# 5 -0.001407 0.001688 -0.000817 0.000000 0.024584 0.000000
# 6 0.000000 0.000000 0.000000 0.011867 0.000000 0.044884
#
#
# Mechanical properties :
#
#
# Convention : Reuss Voigt Hill
#
# Bulk Modulus (GPa) = 44.64257 44.82466 44.73362
# Shear Modulus (GPa) = 28.16094 31.03376 29.59735
#
# Velocity S-wave (km/s) = 3.75314 3.93993 3.84767
# Velocity P-wave (km/s) = 6.41184 6.56648 6.48962
#
# Compressibility (1/GPa) = 0.02240014
#
# Stress axis : x y z
#
# Youngs Moduli (GPa) = 77.31225 59.24957 67.23302
#
# Poissons Ratio (x) = 0.17416 0.11727
# Poissons Ratio (y) = 0.22725 0.43428
# Poissons Ratio (z) = 0.13485 0.38272
#
# Static dielectric constant tensor:
#      x y z
#    x 4.245420 0.000000 -0.077640 
#    y 0.000000 3.638120 0.000000 
#    z -0.077640 0.000000 3.534130 
# 
# 
# High freq. dielectric constant tensor:
#      x y z
#    x 1.789740 0.000000 0.005100 
#    y 0.000000 1.762000 0.000000 
#    z 0.005100 0.000000 1.787640 
# 
# From -- ./inp_files/55587.got.cif
#   From: 2010.06.25/outbox.cif.g09.slc.cpg/sg11_28_cif.got.tgz:55587.got - 2010.06.27 23:14:04.
