data_PCOD8074641
_publ_section_title
;
Structure prediction by ZEFSAII (Michael W. Deem and Ramdas Pophale) SiO2 
 PCOD8074641
Probable space group: P 21/M
;
_chemical_formula_sum "Si O2"
_cell_formula_units_Z 26
_cell_length_a 13.904865
_cell_length_b 13.465293
_cell_length_c 7.661461
_cell_angle_alpha 90.000000
_cell_angle_beta 76.353636
_cell_angle_gamma 90.000000
_cell_volume 1393.984190
_symmetry_space_group_name_H-M "P 21/M"
_symmetry_group_IT_number 11
_symmetry_cell_setting 'monoclinic'
loop_
_space_group_symop_operation_xyz
x,y,z
-x,1/2+y,-z
-x,-y,-z
x,1/2-y,z
loop_
_atom_site_type_symbol
_atom_site_label
_atom_site_fract_x
_atom_site_fract_y
_atom_site_fract_z
Si Si1 0.723408 0.446104 0.760980
Si Si2 0.744430 0.444595 0.138132
Si Si3 0.615086 0.505904 0.484719
Si Si4 0.218670 0.135622 0.696313
Si Si5 0.999068 0.250000 0.299211
Si Si6 0.872222 0.250000 0.034708
Si Si7 0.832214 0.250000 0.661599
Si Si8 0.906490 0.570786 0.570687
O O1 0.631962 0.477316 0.679057
O O2 0.757286 0.339751 0.682116
O O3 0.818581 0.514728 0.702222
O O4 0.687895 0.448159 0.976696
O O5 0.665730 0.427917 0.328127
O O6 0.800415 0.551583 0.145185
O O7 0.816440 0.350765 0.111644
O O8 0.500000 0.500000 0.500000
O O9 0.670356 0.612611 0.429565
O O10 0.216225 0.250000 0.765319
O O11 0.131839 0.119845 0.592188
O O12 0.971722 0.250000 0.105906
O O13 0.904392 0.250000 0.466869
O O14 0.063975 0.153959 0.304836
O O15 0.894656 0.250000 0.817558
O O16 0.000000 0.500000 0.500000
#
# Coordination Sequence:
#
# PCOD8074641 Si02
#       8
#     4   4   4   4   2   2   2   4
#     4  10  20  38  57  82 112 148 184 227 284 331
#     4   9  20  37  59  79 114 145 184 234 280 332
#     4   9  20  38  59  84 108 144 187 230 280 337
#     4   9  19  39  54  79 119 149 181 233 285 336
#     4  12  20  34  54  78 107 150 189 230 272 316
#     4  10  20  38  54  85 108 144 194 233 276 329
#     4  10  20  36  58  79 111 146 183 239 280 317
#     4  11  20  34  55  80 109 148 193 224 269 335
#
# _framework density 18.651575999999999
#
# number of rings (size 3 to 8) (size 9 to 14) (size 15 to 20)
#    0.923    1.231    2.308    1.846    0.000    0.615 
#    6.923    2.308    0.000    0.000    0.000    0.000 
#    0.000    0.000    0.000    0.000    0.000    0.000 
#
# Total GULP energy -322094.024658 kJ/mol
# GULP energy per Si atom -12388.231718 kJ/mol
# Density = 1.860912 g / cm^3
# Si number density = 18.651576 Si / 1000 Ang^3
#
#
#
# Elastic Constant Matrix: (Units=GPa)
#
#
# Indices 1 2 3 4 5 6 
#
# 1 100.4571 29.2451 18.7994 0.0000 27.6546 0.0000
# 2 29.2451 130.9000 11.3754 0.0000 14.8865 0.0000
# 3 18.7994 11.3754 65.9095 0.0000 23.0398 0.0000
# 4 0.0000 0.0000 0.0000 28.5783 0.0000 2.0475
# 5 27.6546 14.8865 23.0398 0.0000 26.6007 0.0000
# 6 0.0000 0.0000 0.0000 2.0475 0.0000 12.6902
#
#
#
# Elastic Compliance Matrix: (Units=1/GPa)
#
#
# Indices 1 2 3 4 5 6 
#
# 1 0.014364 -0.001594 0.001558 0.000000 -0.015390 0.000000
# 2 -0.001594 0.008339 0.000097 0.000000 -0.003093 0.000000
# 3 0.001558 0.000097 0.021939 0.000000 -0.020676 0.000000
# 4 0.000000 0.000000 0.000000 0.035401 0.000000 -0.005712
# 5 -0.015390 -0.003093 -0.020676 0.000000 0.073232 0.000000
# 6 0.000000 0.000000 0.000000 -0.005712 0.000000 0.079722
#
#
# Mechanical properties :
#
#
# Convention : Reuss Voigt Hill
#
# Bulk Modulus (GPa) = 22.34009 46.23404 34.28706
# Shear Modulus (GPa) = 20.17786 29.43030 24.80408
#
# Velocity S-wave (km/s) = 3.29269 3.97659 3.65069
# Velocity P-wave (km/s) = 5.14386 6.77690 6.01605
#
# Compressibility (1/GPa) = 0.04476258
#
# Stress axis : x y z
#
# Youngs Moduli (GPa) = 69.61960 119.91919 45.58135
#
# Poissons Ratio (x) = 0.19118 -0.07102
# Poissons Ratio (y) = 0.11099 -0.00441
# Poissons Ratio (z) = -0.10847 -0.01160
#
# Static dielectric constant tensor:
#      x y z
#    x 3.132850 0.000000 0.233270 
#    y 0.000000 3.523210 0.000000 
#    z 0.233270 0.000000 3.494420 
# 
# 
# High freq. dielectric constant tensor:
#      x y z
#    x 1.696860 0.000000 0.020660 
#    y 0.000000 1.729920 0.000000 
#    z 0.020660 0.000000 1.724880 
# 
# From -- ./inp_files/17472.got.cif
#   From: 2010.06.25/outbox.cif.g09.slc.cpg/sg11_9_cif.got.tgz:17472.got - 2010.06.27 23:14:04.
