data_PCOD8074162
_publ_section_title
;
Structure prediction by ZEFSAII (Michael W. Deem and Ramdas Pophale) SiO2 
 PCOD8074162
Probable space group: P 21/M
;
_chemical_formula_sum "Si O2"
_cell_formula_units_Z 32
_cell_length_a 9.186551
_cell_length_b 15.170249
_cell_length_c 25.120144
_cell_angle_alpha 90.000000
_cell_angle_beta 28.211590
_cell_angle_gamma 90.000000
_cell_volume 1654.929874
_symmetry_space_group_name_H-M "P 21/M"
_symmetry_group_IT_number 11
_symmetry_cell_setting 'monoclinic'
loop_
_space_group_symop_operation_xyz
x,y,z
-x,1/2+y,-z
-x,-y,-z
x,1/2-y,z
loop_
_atom_site_type_symbol
_atom_site_label
_atom_site_fract_x
_atom_site_fract_y
_atom_site_fract_z
Si Si1 0.991045 0.903071 0.477603
Si Si2 0.747408 0.984614 0.765611
Si Si3 0.408319 0.848402 0.717071
Si Si4 0.356987 0.150111 0.865916
Si Si5 0.313921 0.348374 0.759108
Si Si6 0.713969 0.148976 0.123090
Si Si7 0.723138 0.003599 0.477332
Si Si8 0.188912 0.489856 0.721196
O O1 0.321560 0.859495 0.366506
O O2 0.772385 0.844840 0.585969
O O3 0.000000 0.000000 0.500000
O O4 0.840569 0.911730 0.466482
O O5 0.476192 0.913098 0.856170
O O6 0.971645 0.950057 0.645148
O O7 0.627047 0.082426 0.792016
O O8 0.917567 0.993519 0.767076
O O9 0.270241 0.750000 0.754153
O O10 0.359261 0.880534 0.793209
O O11 0.237954 0.915920 0.733062
O O12 0.486022 0.250000 0.830043
O O13 0.230710 0.134132 0.847172
O O14 0.074647 0.134208 0.996999
O O15 0.219608 0.250000 0.772355
O O16 0.106982 0.415758 0.791153
O O17 0.617854 0.250000 0.143430
O O18 0.508054 0.048745 0.591903
O O19 0.500000 0.000000 0.500000
#
# Coordination Sequence:
#
# PCOD8074162 Si02
#       8
#     4   4   4   4   4   4   4   4
#     4  11  17  32  56  80 111 142 181 230 270 323
#     4  11  20  37  60  80 110 152 186 219 278 333
#     4  10  20  35  57  81 110 144 182 226 277 328
#     4  10  22  39  59  82 108 143 191 235 270 319
#     4  11  21  35  56  81 111 146 186 229 274 325
#     4  10  22  39  59  83 108 142 189 236 272 319
#     4   9  18  32  53  81 114 146 173 217 275 326
#     4  10  22  36  54  83 120 147 175 228 277 331
#
# _framework density 19.336167
#
# number of rings (size 3 to 8) (size 9 to 14) (size 15 to 20)
#    0.000    1.750    3.750    2.250    0.000    1.000 
#    0.000    2.500    0.000    9.000    0.000    0.000 
#    0.000    0.000    0.000    0.000    0.000    0.000 
#
# Total GULP energy -396446.828982 kJ/mol
# GULP energy per Si atom -12388.963406 kJ/mol
# Density = 1.929216 g / cm^3
# Si number density = 19.336167 Si / 1000 Ang^3
#
#
#
# Elastic Constant Matrix: (Units=GPa)
#
#
# Indices 1 2 3 4 5 6 
#
# 1 112.6772 54.3831 28.9151 0.0000 4.7254 0.0000
# 2 54.3831 103.5192 16.2715 0.0000 -2.2027 0.0000
# 3 28.9151 16.2715 66.4930 0.0000 9.8227 0.0000
# 4 0.0000 0.0000 0.0000 21.4814 0.0000 4.6278
# 5 4.7254 -2.2027 9.8227 0.0000 23.8245 0.0000
# 6 0.0000 0.0000 0.0000 4.6278 0.0000 20.5562
#
#
#
# Elastic Compliance Matrix: (Units=1/GPa)
#
#
# Indices 1 2 3 4 5 6 
#
# 1 0.012936 -0.006219 -0.003875 0.000000 -0.001543 0.000000
# 2 -0.006219 0.013133 -0.000927 0.000000 0.002830 0.000000
# 3 -0.003875 -0.000927 0.017943 0.000000 -0.006715 0.000000
# 4 0.000000 0.000000 0.000000 0.048925 0.000000 -0.011015
# 5 -0.001543 0.002830 -0.006715 0.000000 0.045310 0.000000
# 6 0.000000 0.000000 0.000000 -0.011015 0.000000 0.051127
#
#
# Mechanical properties :
#
#
# Convention : Reuss Voigt Hill
#
# Bulk Modulus (GPa) = 45.52043 53.53655 49.52849
# Shear Modulus (GPa) = 22.85802 25.38039 24.11920
#
# Velocity S-wave (km/s) = 3.44195 3.62689 3.53563
# Velocity P-wave (km/s) = 6.27605 6.72952 6.50674
#
# Compressibility (1/GPa) = 0.02196816
#
# Stress axis : x y z
#
# Youngs Moduli (GPa) = 77.30408 76.14181 55.73098
#
# Poissons Ratio (x) = 0.47356 0.21598
# Poissons Ratio (y) = 0.48079 0.05168
# Poissons Ratio (z) = 0.29958 0.07061
#
# Static dielectric constant tensor:
#      x y z
#    x 3.806950 0.000000 0.406850 
#    y 0.000000 3.476390 0.000000 
#    z 0.406850 0.000000 3.885630 
# 
# 
# High freq. dielectric constant tensor:
#      x y z
#    x 1.747420 0.000000 0.016760 
#    y 0.000000 1.737300 0.000000 
#    z 0.016760 0.000000 1.757000 
# 
# From -- ./inp_files/68128.got.cif
#   From: 2010.06.25/outbox.cif.g09.slc.cpg/sg11_35_cif.got.tgz:68128.got - 2010.06.27 23:14:04.
