data_PCOD8074346
_publ_section_title
;
Structure prediction by ZEFSAII (Michael W. Deem and Ramdas Pophale) SiO2 
 PCOD8074346
Probable space group: P 21/M
;
_chemical_formula_sum "Si O2"
_cell_formula_units_Z 28
_cell_length_a 15.459771
_cell_length_b 8.583033
_cell_length_c 11.729738
_cell_angle_alpha 90.000000
_cell_angle_beta 123.026480
_cell_angle_gamma 90.000000
_cell_volume 1304.947805
_symmetry_space_group_name_H-M "P 21/M"
_symmetry_group_IT_number 11
_symmetry_cell_setting 'monoclinic'
loop_
_space_group_symop_operation_xyz
x,y,z
-x,1/2+y,-z
-x,-y,-z
x,1/2-y,z
loop_
_atom_site_type_symbol
_atom_site_label
_atom_site_fract_x
_atom_site_fract_y
_atom_site_fract_z
Si Si1 0.291861 0.932298 0.590630
Si Si2 0.270290 0.067229 0.343392
Si Si3 0.520945 0.932725 0.138881
Si Si4 0.334260 0.068601 0.137544
Si Si5 0.113582 0.433660 0.596575
Si Si6 0.956588 0.929125 0.855217
Si Si7 0.843863 0.069245 0.136308
O O1 0.273831 0.750000 0.588127
O O2 0.326998 0.978775 0.487813
O O3 0.378962 0.982750 0.741277
O O4 0.184428 0.020701 0.540079
O O5 0.271456 0.250000 0.370494
O O6 0.328320 0.029715 0.267308
O O7 0.153960 0.997677 0.255008
O O8 0.542525 0.750000 0.146694
O O9 0.423938 0.963701 0.150223
O O10 0.500000 0.000000 0.000000
O O11 0.358606 0.250000 0.134424
O O12 0.225980 0.027616 0.000945
O O13 0.105882 0.250000 0.603093
O O14 0.170848 0.505805 0.747379
O O15 0.000000 0.500000 0.500000
O O16 0.937973 0.750000 0.868489
O O17 0.036356 0.955831 0.809641
O O18 0.000000 0.000000 0.000000
O O19 0.811824 0.250000 0.107715
#
# Coordination Sequence:
#
# PCOD8074346 Si02
#       7
#     4   4   4   4   4   4   4
#     4  12  26  45  69  97 130 171 216 265 324 388
#     4  10  22  41  64  94 133 175 217 266 320 382
#     4  12  26  47  72  97 128 165 213 271 327 386
#     4  11  23  41  66  96 130 169 216 267 321 383
#     4  12  25  43  66  94 129 170 216 265 321 383
#     4  10  20  35  58  89 128 171 213 259 311 370
#     4  11  22  37  61  94 131 171 217 268 322 381
#
# _framework density 21.456795
#
# number of rings (size 3 to 8) (size 9 to 14) (size 15 to 20)
#    0.000    0.857    1.429    6.429    0.000    4.000 
#    0.000    0.000    0.000    0.000    0.000    0.000 
#    0.000    0.000    0.000    0.000    0.000    0.000 
#
# Total GULP energy -347382.933218 kJ/mol
# GULP energy per Si atom -12406.533329 kJ/mol
# Density = 2.140796 g / cm^3
# Si number density = 21.456795 Si / 1000 Ang^3
#
#
#
# Elastic Constant Matrix: (Units=GPa)
#
#
# Indices 1 2 3 4 5 6 
#
# 1 101.3342 21.6058 34.5056 0.0000 -4.5657 0.0000
# 2 21.6058 56.5686 26.2484 0.0000 -10.5834 0.0000
# 3 34.5056 26.2484 128.3447 0.0000 -13.1771 0.0000
# 4 0.0000 0.0000 0.0000 39.3865 0.0000 0.3126
# 5 -4.5657 -10.5834 -13.1771 0.0000 37.2798 0.0000
# 6 0.0000 0.0000 0.0000 0.3126 0.0000 35.7070
#
#
#
# Elastic Compliance Matrix: (Units=1/GPa)
#
#
# Indices 1 2 3 4 5 6 
#
# 1 0.011379 -0.003295 -0.002426 0.000000 -0.000399 0.000000
# 2 -0.003295 0.021169 -0.002976 0.000000 0.004554 0.000000
# 3 -0.002426 -0.002976 0.009272 0.000000 0.002135 0.000000
# 4 0.000000 0.000000 0.000000 0.025391 0.000000 -0.000222
# 5 -0.000399 0.004554 0.002135 0.000000 0.028823 0.000000
# 6 0.000000 0.000000 0.000000 -0.000222 0.000000 0.028008
#
#
# Mechanical properties :
#
#
# Convention : Reuss Voigt Hill
#
# Bulk Modulus (GPa) = 40.94136 50.10746 45.52441
# Shear Modulus (GPa) = 33.42737 36.06717 34.74727
#
# Velocity S-wave (km/s) = 3.95130 4.10435 4.02855
# Velocity P-wave (km/s) = 6.31975 6.77232 6.54995
#
# Compressibility (1/GPa) = 0.02442518
#
# Stress axis : x y z
#
# Youngs Moduli (GPa) = 87.88039 47.23874 107.85491
#
# Poissons Ratio (x) = 0.15565 0.26170
# Poissons Ratio (y) = 0.28956 0.32097
# Poissons Ratio (z) = 0.21324 0.14058
#
# Static dielectric constant tensor:
#      x y z
#    x 3.914070 0.000000 -0.066680 
#    y 0.000000 3.824290 0.000000 
#    z -0.066680 0.000000 3.949370 
# 
# 
# High freq. dielectric constant tensor:
#      x y z
#    x 1.850000 0.000000 -0.007250 
#    y 0.000000 1.845500 0.000000 
#    z -0.007250 0.000000 1.852570 
# 
# From -- ./inp_files/38409.got.cif
#   From: 2010.06.25/outbox.cif.g09.slc.cpg/sg11_20_cif.got.tgz:38409.got - 2010.06.27 23:14:04.
