data_PCOD8074149
_publ_section_title
;
Structure prediction by ZEFSAII (Michael W. Deem and Ramdas Pophale) SiO2 
 PCOD8074149
Probable space group: P 21/M
;
_chemical_formula_sum "Si O2"
_cell_formula_units_Z 28
_cell_length_a 14.654714
_cell_length_b 9.045054
_cell_length_c 19.741276
_cell_angle_alpha 90.000000
_cell_angle_beta 147.862093
_cell_angle_gamma 90.000000
_cell_volume 1392.008309
_symmetry_space_group_name_H-M "P 21/M"
_symmetry_group_IT_number 11
_symmetry_cell_setting 'monoclinic'
loop_
_space_group_symop_operation_xyz
x,y,z
-x,1/2+y,-z
-x,-y,-z
x,1/2-y,z
loop_
_atom_site_type_symbol
_atom_site_label
_atom_site_fract_x
_atom_site_fract_y
_atom_site_fract_z
Si Si1 0.391500 0.078212 0.797490
Si Si2 0.864609 0.422105 0.260685
Si Si3 0.307722 0.085721 0.070302
Si Si4 0.330670 0.926572 0.361938
Si Si5 0.016241 0.414811 0.789570
Si Si6 0.819694 0.574104 0.867061
Si Si7 0.122204 0.081686 0.527589
O O1 0.394087 0.250000 0.817456
O O2 0.314757 0.044804 0.673053
O O3 0.285749 0.999706 0.790886
O O4 0.583536 0.020406 0.910574
O O5 0.820046 0.250000 0.232158
O O6 0.876746 0.479288 0.192433
O O7 0.058391 0.456541 0.411715
O O8 0.382984 0.250000 0.107670
O O9 0.307464 0.044670 0.149365
O O10 0.110731 0.077669 0.921473
O O11 0.355535 0.750000 0.367660
O O12 0.180088 0.961538 0.321264
O O13 0.500000 0.000000 0.500000
O O14 0.277316 0.999867 0.257190
O O15 0.023252 0.250000 0.763228
O O16 0.846554 0.750000 0.871394
O O17 0.000000 0.500000 0.000000
O O18 0.083574 0.250000 0.518021
O O19 0.000000 0.000000 0.500000
#
# Coordination Sequence:
#
# PCOD8074149 Si02
#       7
#     4   4   4   4   4   4   4
#     4  10  20  35  56  85 117 154 199 248 300 359
#     4  10  20  35  57  84 116 157 199 245 301 363
#     4  10  22  40  60  85 118 157 203 252 303 365
#     4  11  24  44  67  97 131 166 209 266 324 383
#     4  10  22  41  60  82 118 160 202 250 307 369
#     4  11  22  41  68  95 124 165 210 260 320 382
#     4   8  16  31  50  74 106 141 184 234 287 344
#
# _framework density 20.114823000000001
#
# number of rings (size 3 to 8) (size 9 to 14) (size 15 to 20)
#    0.000    2.000    1.429    1.714    0.000    5.714 
#    0.000    2.857    0.000    0.000    0.000    0.000 
#    0.000    0.000    0.000    0.000    0.000    0.000 
#
# Total GULP energy -346871.599821 kJ/mol
# GULP energy per Si atom -12388.271422 kJ/mol
# Density = 2.006904 g / cm^3
# Si number density = 20.114823 Si / 1000 Ang^3
#
#
#
# Elastic Constant Matrix: (Units=GPa)
#
#
# Indices 1 2 3 4 5 6 
#
# 1 119.6391 66.1199 52.4406 0.0000 2.3421 0.0000
# 2 66.1199 113.6739 51.6318 0.0000 2.7536 0.0000
# 3 52.4406 51.6318 109.2703 0.0000 1.5558 0.0000
# 4 0.0000 0.0000 0.0000 32.7713 0.0000 0.3247
# 5 2.3421 2.7536 1.5558 0.0000 31.2031 0.0000
# 6 0.0000 0.0000 0.0000 0.3247 0.0000 35.1773
#
#
#
# Elastic Compliance Matrix: (Units=1/GPa)
#
#
# Indices 1 2 3 4 5 6 
#
# 1 0.013278 -0.006142 -0.003466 0.000000 -0.000282 0.000000
# 2 -0.006142 0.014059 -0.003687 0.000000 -0.000596 0.000000
# 3 -0.003466 -0.003687 0.012558 0.000000 -0.000041 0.000000
# 4 0.000000 0.000000 0.000000 0.030517 0.000000 -0.000282
# 5 -0.000282 -0.000596 -0.000041 0.000000 0.032124 0.000000
# 6 0.000000 0.000000 0.000000 -0.000282 0.000000 0.028430
#
#
# Mechanical properties :
#
#
# Convention : Reuss Voigt Hill
#
# Bulk Modulus (GPa) = 75.16296 75.88533 75.52414
# Shear Modulus (GPa) = 30.86620 31.32308 31.09464
#
# Velocity S-wave (km/s) = 3.92152 3.95044 3.93600
# Velocity P-wave (km/s) = 7.61265 7.65610 7.63441
#
# Compressibility (1/GPa) = 0.01330443
#
# Stress axis : x y z
#
# Youngs Moduli (GPa) = 75.31447 71.13031 79.63286
#
# Poissons Ratio (x) = 0.43688 0.27600
# Poissons Ratio (y) = 0.46258 0.29359
# Poissons Ratio (z) = 0.26104 0.26224
#
# Static dielectric constant tensor:
#      x y z
#    x 3.391870 0.000000 -0.150990 
#    y 0.000000 3.714370 0.000000 
#    z -0.150990 0.000000 3.879400 
# 
# 
# High freq. dielectric constant tensor:
#      x y z
#    x 1.772520 0.000000 -0.007720 
#    y 0.000000 1.794060 0.000000 
#    z -0.007720 0.000000 1.792650 
# 
# From -- ./inp_files/65471.got.cif
#   From: 2010.06.25/outbox.cif.g09.slc.cpg/sg11_33_cif.got.tgz:65471.got - 2010.06.27 23:14:04.
