data_PCOD8074488
_publ_section_title
;
Structure prediction by ZEFSAII (Michael W. Deem and Ramdas Pophale) SiO2 
 PCOD8074488
Probable space group: P 21/M
;
_chemical_formula_sum "Si O2"
_cell_formula_units_Z 32
_cell_length_a 19.987136
_cell_length_b 12.515569
_cell_length_c 7.966956
_cell_angle_alpha 90.000000
_cell_angle_beta 126.111631
_cell_angle_gamma 90.000000
_cell_volume 1610.034589
_symmetry_space_group_name_H-M "P 21/M"
_symmetry_group_IT_number 11
_symmetry_cell_setting 'monoclinic'
loop_
_space_group_symop_operation_xyz
x,y,z
-x,1/2+y,-z
-x,-y,-z
x,1/2-y,z
loop_
_atom_site_type_symbol
_atom_site_label
_atom_site_fract_x
_atom_site_fract_y
_atom_site_fract_z
Si Si1 0.509507 0.869503 0.684178
Si Si2 0.724409 0.625090 0.529797
Si Si3 0.112004 0.493769 0.313839
Si Si4 0.320770 0.627951 0.985666
Si Si5 0.592240 0.534727 0.098086
Si Si6 0.378795 0.488213 0.379430
Si Si7 0.944532 0.123955 0.080284
Si Si8 0.126148 0.871766 0.667884
O O1 0.477102 0.750000 0.632361
O O2 0.553348 0.899674 0.573162
O O3 0.426909 0.942340 0.594362
O O4 0.582429 0.885598 0.926495
O O5 0.742840 0.750000 0.580166
O O6 0.801658 0.569663 0.553074
O O7 0.639201 0.605773 0.304255
O O8 0.705232 0.568856 0.680472
O O9 0.099422 0.559660 0.466845
O O10 0.040018 0.406063 0.194117
O O11 0.110413 0.569374 0.147233
O O12 0.351432 0.750000 0.029409
O O13 0.354252 0.570107 0.868375
O O14 0.222861 0.620587 0.841607
O O15 0.356866 0.571026 0.201820
O O16 0.500000 0.500000 0.000000
O O17 0.931960 0.250000 0.043596
O O18 0.916781 0.084895 0.224861
O O19 0.098277 0.750000 0.591671
#
# Coordination Sequence:
#
# PCOD8074488 Si02
#       8
#     4   4   4   4   4   4   4   4
#     4  10  20  36  56  78 108 152 204 253 302 355
#     4  12  24  40  61  86 122 162 200 252 311 366
#     4  11  22  40  64  93 128 163 203 252 305 377
#     4  10  21  38  61  86 118 155 201 258 308 357
#     4  11  22  40  55  83 119 158 205 252 298 361
#     4  10  21  37  56  82 114 151 203 252 304 362
#     4  10  22  40  66  96 126 161 202 250 309 374
#     4  10  20  38  63  91 124 161 201 254 313 365
#
# _framework density 19.875350000000001
#
# number of rings (size 3 to 8) (size 9 to 14) (size 15 to 20)
#    0.000    1.500    2.500    3.000    0.000    1.000 
#    0.000    1.875    0.000    3.000    0.000    0.000 
#    0.000    0.000    0.000    0.000    0.000    0.000 
#
# Total GULP energy -396739.110973 kJ/mol
# GULP energy per Si atom -12398.097218 kJ/mol
# Density = 1.983011 g / cm^3
# Si number density = 19.875350 Si / 1000 Ang^3
#
#
#
# Elastic Constant Matrix: (Units=GPa)
#
#
# Indices 1 2 3 4 5 6 
#
# 1 100.8034 42.9966 14.6275 0.0000 -2.5868 0.0000
# 2 42.9966 117.7822 26.6642 0.0000 -5.2036 0.0000
# 3 14.6275 26.6642 66.9100 0.0000 -1.2420 0.0000
# 4 0.0000 0.0000 0.0000 24.6716 0.0000 0.8340
# 5 -2.5868 -5.2036 -1.2420 0.0000 30.4294 0.0000
# 6 0.0000 0.0000 0.0000 0.8340 0.0000 27.3082
#
#
#
# Elastic Compliance Matrix: (Units=1/GPa)
#
#
# Indices 1 2 3 4 5 6 
#
# 1 0.011807 -0.004083 -0.000949 0.000000 0.000267 0.000000
# 2 -0.004083 0.010808 -0.003389 0.000000 0.001363 0.000000
# 3 -0.000949 -0.003389 0.016504 0.000000 0.000013 0.000000
# 4 0.000000 0.000000 0.000000 0.040574 0.000000 -0.001239
# 5 0.000267 0.001363 0.000013 0.000000 0.033119 0.000000
# 6 0.000000 0.000000 0.000000 -0.001239 0.000000 0.036657
#
#
# Mechanical properties :
#
#
# Convention : Reuss Voigt Hill
#
# Bulk Modulus (GPa) = 44.89199 50.45247 47.67223
# Shear Modulus (GPa) = 28.77905 29.89565 29.33735
#
# Velocity S-wave (km/s) = 3.80936 3.88255 3.84613
# Velocity P-wave (km/s) = 6.47951 6.74822 6.61523
#
# Compressibility (1/GPa) = 0.02227569
#
# Stress axis : x y z
#
# Youngs Moduli (GPa) = 84.69862 92.52073 60.59217
#
# Poissons Ratio (x) = 0.37780 0.05749
# Poissons Ratio (y) = 0.34586 0.20536
# Poissons Ratio (z) = 0.08037 0.31357
#
# Static dielectric constant tensor:
#      x y z
#    x 3.683130 0.000000 -0.131150 
#    y 0.000000 3.611840 0.000000 
#    z -0.131150 0.000000 3.776410 
# 
# 
# High freq. dielectric constant tensor:
#      x y z
#    x 1.778820 0.000000 -0.003320 
#    y 0.000000 1.774670 0.000000 
#    z -0.003320 0.000000 1.777450 
# 
# From -- ./inp_files/26615.got.cif
#   From: 2010.06.25/outbox.cif.g09.slc.cpg/sg11_14_cif.got.tgz:26615.got - 2010.06.27 23:14:04.
