data_PCOD8074252
_publ_section_title
;
Structure prediction by ZEFSAII (Michael W. Deem and Ramdas Pophale) SiO2 
 PCOD8074252
Probable space group: P 21/M
;
_chemical_formula_sum "Si O2"
_cell_formula_units_Z 28
_cell_length_a 12.093276
_cell_length_b 21.886763
_cell_length_c 5.214072
_cell_angle_alpha 90.000000
_cell_angle_beta 79.251274
_cell_angle_gamma 90.000000
_cell_volume 1355.860441
_symmetry_space_group_name_H-M "P 21/M"
_symmetry_group_IT_number 11
_symmetry_cell_setting 'monoclinic'
loop_
_space_group_symop_operation_xyz
x,y,z
-x,1/2+y,-z
-x,-y,-z
x,1/2-y,z
loop_
_atom_site_type_symbol
_atom_site_label
_atom_site_fract_x
_atom_site_fract_y
_atom_site_fract_z
Si Si1 0.297335 0.922314 0.627864
Si Si2 0.470712 0.682157 0.018229
Si Si3 0.465352 0.117061 0.498858
Si Si4 0.104854 0.582681 0.063757
Si Si5 0.093873 0.448554 0.151979
Si Si6 0.226726 0.679308 0.287001
Si Si7 0.230554 0.050471 0.569812
O O1 0.431175 0.928860 0.610498
O O2 0.233986 0.928835 0.925530
O O3 0.264374 0.856385 0.526241
O O4 0.254097 0.979924 0.478504
O O5 0.502949 0.750000 0.088993
O O6 0.522111 0.639189 0.215056
O O7 0.334757 0.675740 0.049952
O O8 0.526377 0.670129 0.717764
O O9 0.347761 0.084709 0.520011
O O10 0.019712 0.590681 0.857743
O O11 0.061524 0.520349 0.222401
O O12 0.114317 0.644847 0.226965
O O13 0.151234 0.420893 0.381837
O O14 0.174539 0.441891 0.870933
O O15 0.195893 0.750000 0.363051
#
# Coordination Sequence:
#
# PCOD8074252 Si02
#       7
#     4   4   4   4   4   4   4
#     4  10  21  35  56  89 121 150 190 243 303 348
#     4  10  21  37  58  86 116 151 197 244 294 351
#     4  11  21  36  59  87 119 155 191 240 297 348
#     4  10  20  37  58  84 117 152 195 242 291 348
#     4  10  23  36  61  84 118 158 196 236 285 346
#     4  10  20  35  57  86 120 150 189 245 302 350
#     4  11  22  38  57  88 121 156 195 236 286 355
#
# _framework density 20.651092999999999
#
# number of rings (size 3 to 8) (size 9 to 14) (size 15 to 20)
#    0.000    1.714    2.857    1.714    2.000    2.857 
#    0.000    4.286    0.000    5.143    0.000    0.000 
#    0.000    0.000    0.000    0.000    0.000    0.000 
#
# Total GULP energy -346963.311217 kJ/mol
# GULP energy per Si atom -12391.546829 kJ/mol
# Density = 2.060409 g / cm^3
# Si number density = 20.651093 Si / 1000 Ang^3
#
#
#
# Elastic Constant Matrix: (Units=GPa)
#
#
# Indices 1 2 3 4 5 6 
#
# 1 73.4189 21.2591 4.1057 0.0000 20.1226 0.0000
# 2 21.2591 78.7358 11.3247 0.0000 7.3256 0.0000
# 3 4.1057 11.3247 63.1300 0.0000 14.6461 0.0000
# 4 0.0000 0.0000 0.0000 20.5120 0.0000 4.7783
# 5 20.1226 7.3256 14.6461 0.0000 35.4949 0.0000
# 6 0.0000 0.0000 0.0000 4.7783 0.0000 25.0478
#
#
#
# Elastic Compliance Matrix: (Units=1/GPa)
#
#
# Indices 1 2 3 4 5 6 
#
# 1 0.017369 -0.004048 0.001866 0.000000 -0.009781 0.000000
# 2 -0.004048 0.014098 -0.002348 0.000000 0.000354 0.000000
# 3 0.001866 -0.002348 0.017996 0.000000 -0.007999 0.000000
# 4 0.000000 0.000000 0.000000 0.051019 0.000000 -0.009733
# 5 -0.009781 0.000354 -0.007999 0.000000 0.036946 0.000000
# 6 0.000000 0.000000 0.000000 -0.009733 0.000000 0.041780
#
#
# Mechanical properties :
#
#
# Convention : Reuss Voigt Hill
#
# Bulk Modulus (GPa) = 24.75065 32.07374 28.41219
# Shear Modulus (GPa) = 24.78479 28.11729 26.45104
#
# Velocity S-wave (km/s) = 3.46810 3.69391 3.58278
# Velocity P-wave (km/s) = 5.29605 5.81018 5.55906
#
# Compressibility (1/GPa) = 0.04040298
#
# Stress axis : x y z
#
# Youngs Moduli (GPa) = 57.57352 70.92962 55.56830
#
# Poissons Ratio (x) = 0.28713 -0.10368
# Poissons Ratio (y) = 0.23306 0.13047
# Poissons Ratio (z) = -0.10742 0.16654
#
# Static dielectric constant tensor:
#      x y z
#    x 3.853840 0.000000 0.037520 
#    y 0.000000 3.670930 0.000000 
#    z 0.037520 0.000000 3.562960 
# 
# 
# High freq. dielectric constant tensor:
#      x y z
#    x 1.804670 0.000000 0.006990 
#    y 0.000000 1.777920 0.000000 
#    z 0.006990 0.000000 1.807910 
# 
# From -- ./inp_files/4876.got.cif
#   From: 2010.06.25/outbox.cif.g09.slc.cpg/sg11_3_cif.got.tgz:4876.got - 2010.06.27 23:14:04.
