data_PCOD8074317
_publ_section_title
;
Structure prediction by ZEFSAII (Michael W. Deem and Ramdas Pophale) SiO2 
 PCOD8074317
Probable space group: P 21/M
;
_chemical_formula_sum "Si O2"
_cell_formula_units_Z 32
_cell_length_a 10.411744
_cell_length_b 13.516369
_cell_length_c 11.225278
_cell_angle_alpha 90.000000
_cell_angle_beta 98.859879
_cell_angle_gamma 90.000000
_cell_volume 1560.872547
_symmetry_space_group_name_H-M "P 21/M"
_symmetry_group_IT_number 11
_symmetry_cell_setting 'monoclinic'
loop_
_space_group_symop_operation_xyz
x,y,z
-x,1/2+y,-z
-x,-y,-z
x,1/2-y,z
loop_
_atom_site_type_symbol
_atom_site_label
_atom_site_fract_x
_atom_site_fract_y
_atom_site_fract_z
Si Si1 0.813178 0.634599 0.944398
Si Si2 0.292349 0.636902 0.896365
Si Si3 0.375448 0.366082 0.689257
Si Si4 0.321340 0.136179 0.413731
Si Si5 0.651323 0.136891 0.818760
Si Si6 0.864754 0.503221 0.745347
Si Si7 0.855312 0.956045 0.197824
Si Si8 0.455836 0.135412 0.194023
O O1 0.826243 0.750000 0.914254
O O2 0.900199 0.571340 0.865419
O O3 0.666203 0.593724 0.899408
O O4 0.854057 0.617966 0.085453
O O5 0.256480 0.750000 0.858428
O O6 0.170545 0.567942 0.849704
O O7 0.409083 0.590870 0.832822
O O8 0.330198 0.627232 0.038639
O O9 0.362315 0.250000 0.715883
O O10 0.382262 0.388381 0.549778
O O11 0.509204 0.408502 0.765567
O O12 0.248716 0.420009 0.721311
O O13 0.276035 0.250000 0.399248
O O14 0.432765 0.114679 0.330708
O O15 0.194517 0.069508 0.369515
O O16 0.655696 0.250000 0.776763
O O17 0.763735 0.082793 0.762536
O O18 0.000872 0.454341 0.723318
O O19 0.465249 0.250000 0.164695
#
# Coordination Sequence:
#
# PCOD8074317 Si02
#       8
#     4   4   4   4   4   4   4   4
#     4  10  20  35  58  86 118 157 198 241 292 354
#     4  10  21  36  56  86 127 158 190 241 299 351
#     4  10  23  42  64  89 114 153 201 249 303 352
#     4   9  20  41  66  85 115 155 201 250 294 348
#     4  10  22  40  61  87 121 156 195 244 298 354
#     4  11  23  39  58  90 120 156 205 237 292 352
#     4  12  24  36  58  91 123 159 195 240 291 360
#     4   8  16  33  57  85 111 148 196 244 289 340
#
# _framework density 20.501353999999999
#
# number of rings (size 3 to 8) (size 9 to 14) (size 15 to 20)
#    0.000    2.000    1.250    2.625    3.500    6.000 
#    0.000    0.000    0.000    0.000    0.000    0.000 
#    0.000    0.000    0.000    0.000    0.000    0.000 
#
# Total GULP energy -396792.979227 kJ/mol
# GULP energy per Si atom -12399.780601 kJ/mol
# Density = 2.045469 g / cm^3
# Si number density = 20.501354 Si / 1000 Ang^3
#
#
#
# Elastic Constant Matrix: (Units=GPa)
#
#
# Indices 1 2 3 4 5 6 
#
# 1 146.3467 43.2176 34.8011 0.0000 -3.0551 0.0000
# 2 43.2176 67.7255 23.9673 0.0000 -5.3838 0.0000
# 3 34.8011 23.9673 67.9437 0.0000 7.6268 0.0000
# 4 0.0000 0.0000 0.0000 25.2787 0.0000 0.8839
# 5 -3.0551 -5.3838 7.6268 0.0000 13.7052 0.0000
# 6 0.0000 0.0000 0.0000 0.8839 0.0000 23.0746
#
#
#
# Elastic Compliance Matrix: (Units=1/GPa)
#
#
# Indices 1 2 3 4 5 6 
#
# 1 0.008950 -0.004387 -0.003272 0.000000 0.002092 0.000000
# 2 -0.004387 0.020602 -0.006206 0.000000 0.010569 0.000000
# 3 -0.003272 -0.006206 0.020201 0.000000 -0.014409 0.000000
# 4 0.000000 0.000000 0.000000 0.039612 0.000000 -0.001517
# 5 0.002092 0.010569 -0.014409 0.000000 0.085601 0.000000
# 6 0.000000 0.000000 0.000000 -0.001517 0.000000 0.043396
#
#
# Mechanical properties :
#
#
# Convention : Reuss Voigt Hill
#
# Bulk Modulus (GPa) = 45.40961 53.99867 49.70414
# Shear Modulus (GPa) = 19.72904 24.41370 22.07137
#
# Velocity S-wave (km/s) = 3.10551 3.45459 3.28469
# Velocity P-wave (km/s) = 5.92086 6.50450 6.21953
#
# Compressibility (1/GPa) = 0.02202177
#
# Stress axis : x y z
#
# Youngs Moduli (GPa) = 111.72691 48.53959 49.50351
#
# Poissons Ratio (x) = 0.21296 0.16196
# Poissons Ratio (y) = 0.49019 0.30724
# Poissons Ratio (z) = 0.36553 0.30126
#
# Static dielectric constant tensor:
#      x y z
#    x 3.659180 0.000000 -0.039180 
#    y 0.000000 3.899170 0.000000 
#    z -0.039180 0.000000 3.565830 
# 
# 
# High freq. dielectric constant tensor:
#      x y z
#    x 1.791250 0.000000 -0.002700 
#    y 0.000000 1.816730 0.000000 
#    z -0.002700 0.000000 1.781040 
# 
# From -- ./inp_files/31894.got.cif
#   From: 2010.06.25/outbox.cif.g09.slc.cpg/sg11_16_cif.got.tgz:31894.got - 2010.06.27 23:14:04.
