data_PCOD8074907
_publ_section_title
;
Structure prediction by ZEFSAII (Michael W. Deem and Ramdas Pophale) SiO2 
 PCOD8074907
Probable space group: P 21/M
;
_chemical_formula_sum "Si O2"
_cell_formula_units_Z 28
_cell_length_a 22.468323
_cell_length_b 8.913126
_cell_length_c 26.160762
_cell_angle_alpha 90.000000
_cell_angle_beta 16.045858
_cell_angle_gamma 90.000000
_cell_volume 1448.103352
_symmetry_space_group_name_H-M "P 21/M"
_symmetry_group_IT_number 11
_symmetry_cell_setting 'monoclinic'
loop_
_space_group_symop_operation_xyz
x,y,z
-x,1/2+y,-z
-x,-y,-z
x,1/2-y,z
loop_
_atom_site_type_symbol
_atom_site_label
_atom_site_fract_x
_atom_site_fract_y
_atom_site_fract_z
Si Si1 0.054418 0.924032 0.070196
Si Si2 0.183236 0.427128 0.169420
Si Si3 0.001466 0.925969 0.418750
Si Si4 0.686596 0.072286 0.313380
Si Si5 0.323907 0.574537 0.241859
Si Si6 0.937837 0.927310 0.281261
Si Si7 0.458084 0.575400 0.676314
O O1 0.998983 0.750000 0.106868
O O2 0.008690 0.970994 0.165709
O O3 0.305244 0.958124 0.850909
O O4 0.915770 0.019408 0.144969
O O5 0.160912 0.250000 0.191758
O O6 0.044636 0.499641 0.328792
O O7 0.095605 0.484111 0.187989
O O8 0.431670 0.477807 0.968232
O O9 0.978833 0.750000 0.429220
O O10 0.196359 0.968660 0.295721
O O11 0.777206 0.987086 0.626600
O O12 0.671845 0.250000 0.329484
O O13 0.654770 0.012736 0.281792
O O14 0.500000 0.000000 0.500000
O O15 0.306075 0.750000 0.268548
O O16 0.958392 0.750000 0.274523
O O17 0.695937 0.991325 0.489603
O O18 0.495087 0.750000 0.636909
#
# Coordination Sequence:
#
# PCOD8074907 Si02
#       7
#     4   4   4   4   4   4   4
#     4  10  20  37  59  80 107 142 181 230 281 326
#     4  11  23  38  57  83 118 154 189 234 287 338
#     4  10  20  36  61  89 115 149 192 234 282 340
#     4  11  20  34  57  84 113 142 178 225 280 335
#     4   9  20  38  59  86 120 152 185 234 289 337
#     4  10  21  38  55  77 110 149 192 231 272 331
#     4   9  19  36  57  81 109 142 181 227 278 331
#
# _framework density 19.335635
#
# number of rings (size 3 to 8) (size 9 to 14) (size 15 to 20)
#    0.000    2.000    1.429    2.143    0.000    3.429 
#    0.000    2.857    0.000    0.000    0.000    0.000 
#    0.000    0.000    0.000    0.000    0.000    0.000 
#
# Total GULP energy -347260.174307 kJ/mol
# GULP energy per Si atom -12402.149082 kJ/mol
# Density = 1.929163 g / cm^3
# Si number density = 19.335635 Si / 1000 Ang^3
#
#
#
# Elastic Constant Matrix: (Units=GPa)
#
#
# Indices 1 2 3 4 5 6 
#
# 1 75.0061 24.2619 34.3410 0.0000 1.3500 0.0000
# 2 24.2619 51.5726 27.3811 0.0000 2.9096 0.0000
# 3 34.3410 27.3811 104.8777 0.0000 15.6731 0.0000
# 4 0.0000 0.0000 0.0000 24.4828 0.0000 -2.9059
# 5 1.3500 2.9096 15.6731 0.0000 23.0361 0.0000
# 6 0.0000 0.0000 0.0000 -2.9059 0.0000 31.3546
#
#
#
# Elastic Compliance Matrix: (Units=1/GPa)
#
#
# Indices 1 2 3 4 5 6 
#
# 1 0.017258 -0.005867 -0.004540 0.000000 0.002819 0.000000
# 2 -0.005867 0.024539 -0.004535 0.000000 0.000330 0.000000
# 3 -0.004540 -0.004535 0.013447 0.000000 -0.008310 0.000000
# 4 0.000000 0.000000 0.000000 0.041299 0.000000 0.003828
# 5 0.002819 0.000330 -0.008310 0.000000 0.048857 0.000000
# 6 0.000000 0.000000 0.000000 0.003828 0.000000 0.032248
#
#
# Mechanical properties :
#
#
# Convention : Reuss Voigt Hill
#
# Bulk Modulus (GPa) = 39.43217 44.82494 42.12855
# Shear Modulus (GPa) = 23.14940 25.47285 24.31113
#
# Velocity S-wave (km/s) = 3.46387 3.63354 3.54972
# Velocity P-wave (km/s) = 6.03620 6.39034 6.21579
#
# Compressibility (1/GPa) = 0.02536000
#
# Stress axis : x y z
#
# Youngs Moduli (GPa) = 57.94338 40.75076 74.36352
#
# Poissons Ratio (x) = 0.23910 0.33764
# Poissons Ratio (y) = 0.33998 0.33722
# Poissons Ratio (z) = 0.26309 0.18479
#
# Static dielectric constant tensor:
#      x y z
#    x 3.650040 0.000000 -0.101620 
#    y 0.000000 3.416800 0.000000 
#    z -0.101620 0.000000 3.758660 
# 
# 
# High freq. dielectric constant tensor:
#      x y z
#    x 1.750140 0.000000 0.005590 
#    y 0.000000 1.737380 0.000000 
#    z 0.005590 0.000000 1.767020 
# 
# From -- ./inp_files/66759.got.cif
#   From: 2010.06.25/outbox.cif.g09.slc.cpg/sg11_34_cif.got.tgz:66759.got - 2010.06.27 23:14:04.
