data_PCOD8074128
_publ_section_title
;
Structure prediction by ZEFSAII (Michael W. Deem and Ramdas Pophale) SiO2 
 PCOD8074128
Probable space group: P 21/M
;
_chemical_formula_sum "Si O2"
_cell_formula_units_Z 32
_cell_length_a 12.228471
_cell_length_b 8.733859
_cell_length_c 15.183668
_cell_angle_alpha 90.000000
_cell_angle_beta 92.983359
_cell_angle_gamma 90.000000
_cell_volume 1619.444362
_symmetry_space_group_name_H-M "P 21/M"
_symmetry_group_IT_number 11
_symmetry_cell_setting 'monoclinic'
loop_
_space_group_symop_operation_xyz
x,y,z
-x,1/2+y,-z
-x,-y,-z
x,1/2-y,z
loop_
_atom_site_type_symbol
_atom_site_label
_atom_site_fract_x
_atom_site_fract_y
_atom_site_fract_z
Si Si1 0.553539 0.429657 0.088583
Si Si2 0.408116 0.068909 0.246495
Si Si3 0.592318 0.069377 0.566224
Si Si4 0.803392 0.931070 0.862289
Si Si5 0.823978 0.928644 0.524799
Si Si6 0.951409 0.073573 0.379071
Si Si7 0.041988 0.927940 0.822769
Si Si8 0.774028 0.929830 0.057928
O O1 0.544995 0.250000 0.077546
O O2 0.492620 0.482006 0.174567
O O3 0.677802 0.483138 0.104674
O O4 0.500000 0.500000 0.000000
O O5 0.411739 0.250000 0.264551
O O6 0.288419 0.013422 0.209815
O O7 0.437677 0.980992 0.336409
O O8 0.586819 0.250000 0.557898
O O9 0.500000 0.000000 0.500000
O O10 0.713964 0.016647 0.545192
O O11 0.801032 0.750000 0.868200
O O12 0.919182 0.988615 0.831337
O O13 0.780514 0.995486 0.958967
O O14 0.796771 0.750000 0.528489
O O15 0.922589 0.973862 0.595636
O O16 0.864133 0.972384 0.428640
O O17 0.935236 0.250000 0.405718
O O18 0.924441 0.045811 0.276408
O O19 0.054003 0.750000 0.849975
O O20 0.114213 0.033494 0.887959
O O21 0.750867 0.750000 0.058091
#
# Coordination Sequence:
#
# PCOD8074128 Si02
#       8
#     4   4   4   4   4   4   4   4
#     4  11  22  39  64  89 119 156 199 247 297 353
#     4  10  21  41  66  90 118 158 199 245 304 361
#     4  12  26  43  63  90 122 157 199 251 305 365
#     4   9  18  36  60  84 116 157 197 239 295 354
#     4  10  20  38  64  89 117 155 197 245 300 358
#     4   9  19  36  60  88 119 157 198 243 297 359
#     4  10  20  35  56  83 117 157 199 240 293 354
#     4  11  22  37  56  83 120 159 199 245 296 347
#
# _framework density 19.759864
#
# number of rings (size 3 to 8) (size 9 to 14) (size 15 to 20)
#    0.000    1.750    1.250    3.375    0.000    5.000 
#    0.000    3.750    0.000    0.000    0.000    0.000 
#    0.000    0.000    0.000    0.000    0.000    0.000 
#
# Total GULP energy -396891.387013 kJ/mol
# GULP energy per Si atom -12402.855844 kJ/mol
# Density = 1.971489 g / cm^3
# Si number density = 19.759864 Si / 1000 Ang^3
#
#
#
# Elastic Constant Matrix: (Units=GPa)
#
#
# Indices 1 2 3 4 5 6 
#
# 1 97.1327 37.1641 61.3382 0.0000 -8.6640 0.0000
# 2 37.1641 72.2894 49.5665 0.0000 -6.4602 0.0000
# 3 61.3382 49.5665 135.2703 0.0000 2.2136 0.0000
# 4 0.0000 0.0000 0.0000 32.6770 0.0000 0.8770
# 5 -8.6640 -6.4602 2.2136 0.0000 32.3599 0.0000
# 6 0.0000 0.0000 0.0000 0.8770 0.0000 34.2150
#
#
#
# Elastic Compliance Matrix: (Units=1/GPa)
#
#
# Indices 1 2 3 4 5 6 
#
# 1 0.015762 -0.003757 -0.005834 0.000000 0.003869 0.000000
# 2 -0.003757 0.019947 -0.005660 0.000000 0.003363 0.000000
# 3 -0.005834 -0.005660 0.012170 0.000000 -0.003524 0.000000
# 4 0.000000 0.000000 0.000000 0.030624 0.000000 -0.000785
# 5 0.003869 0.003363 -0.003524 0.000000 0.032851 0.000000
# 6 0.000000 0.000000 0.000000 -0.000785 0.000000 0.029247
#
#
# Mechanical properties :
#
#
# Convention : Reuss Voigt Hill
#
# Bulk Modulus (GPa) = 57.55264 66.75889 62.15576
# Shear Modulus (GPa) = 28.26555 30.29197 29.27876
#
# Velocity S-wave (km/s) = 3.78624 3.91961 3.85350
# Velocity P-wave (km/s) = 6.95006 7.37176 7.16402
#
# Compressibility (1/GPa) = 0.01737540
#
# Stress axis : x y z
#
# Youngs Moduli (GPa) = 63.44433 50.13399 82.17204
#
# Poissons Ratio (x) = 0.18838 0.47937
# Poissons Ratio (y) = 0.23839 0.46511
# Poissons Ratio (z) = 0.37011 0.28377
#
# Static dielectric constant tensor:
#      x y z
#    x 3.822070 0.000000 -0.088120 
#    y 0.000000 3.484660 0.000000 
#    z -0.088120 0.000000 3.673990 
# 
# 
# High freq. dielectric constant tensor:
#      x y z
#    x 1.779870 0.000000 -0.004770 
#    y 0.000000 1.756870 0.000000 
#    z -0.004770 0.000000 1.778570 
# 
# From -- ./inp_files/49335.got.cif
#   From: 2010.06.25/outbox.cif.g09.slc.cpg/sg11_25_cif.got.tgz:49335.got - 2010.06.27 23:14:04.
