data_PCOD8074113
_publ_section_title
;
Structure prediction by ZEFSAII (Michael W. Deem and Ramdas Pophale) SiO2 
 PCOD8074113
Probable space group: P 21/M
;
_chemical_formula_sum "Si O2"
_cell_formula_units_Z 32
_cell_length_a 14.307478
_cell_length_b 9.110359
_cell_length_c 12.375964
_cell_angle_alpha 90.000000
_cell_angle_beta 88.391955
_cell_angle_gamma 90.000000
_cell_volume 1612.525346
_symmetry_space_group_name_H-M "P 21/M"
_symmetry_group_IT_number 11
_symmetry_cell_setting 'monoclinic'
loop_
_space_group_symop_operation_xyz
x,y,z
-x,1/2+y,-z
-x,-y,-z
x,1/2-y,z
loop_
_atom_site_type_symbol
_atom_site_label
_atom_site_fract_x
_atom_site_fract_y
_atom_site_fract_z
Si Si1 0.491430 0.417669 0.685762
Si Si2 0.228034 0.423138 0.183561
Si Si3 0.025202 0.079529 0.109934
Si Si4 0.162475 0.918859 0.784408
Si Si5 0.525270 0.086441 0.104380
Si Si6 0.277245 0.913037 0.981000
Si Si7 0.710470 0.923881 0.390982
Si Si8 0.693665 0.079736 0.607975
O O1 0.479237 0.250000 0.722860
O O2 0.517468 0.511129 0.789639
O O3 0.395217 0.473486 0.635542
O O4 0.580672 0.437906 0.605044
O O5 0.237527 0.250000 0.201268
O O6 0.122961 0.474383 0.157767
O O7 0.262268 0.505409 0.288573
O O8 0.291069 0.472678 0.078808
O O9 0.030880 0.250000 0.080354
O O10 0.948765 0.051462 0.207835
O O11 0.000000 0.000000 0.000000
O O12 0.186243 0.750000 0.753324
O O13 0.190593 0.954434 0.907635
O O14 0.214156 0.026042 0.699903
O O15 0.483989 0.250000 0.100166
O O16 0.637230 0.084522 0.106232
O O17 0.500000 0.000000 0.000000
O O18 0.266245 0.750000 0.032110
O O19 0.717128 0.750000 0.404559
O O20 0.737278 0.000797 0.502398
O O21 0.722099 0.250000 0.606514
#
# Coordination Sequence:
#
# PCOD8074113 Si02
#       8
#     4   4   4   4   4   4   4   4
#     4  10  22  39  59  85 116 152 197 243 290 346
#     4  11  23  38  59  90 122 153 195 248 297 343
#     4  10  21  37  61  90 121 155 193 239 292 352
#     4  10  20  38  61  87 118 154 194 235 288 354
#     4  11  22  34  51  79 116 157 196 237 286 345
#     4  10  20  35  56  82 116 156 194 233 287 352
#     4  11  23  40  63  90 119 151 196 253 295 337
#     4  11  24  42  62  84 116 160 201 239 292 357
#
# _framework density 19.844650000000001
#
# number of rings (size 3 to 8) (size 9 to 14) (size 15 to 20)
#    0.000    1.500    2.500    2.625    0.000    7.000 
#    0.000    0.625    0.000    0.000    0.000    0.000 
#    0.000    0.000    0.000    0.000    0.000    0.000 
#
# Total GULP energy -396806.794324 kJ/mol
# GULP energy per Si atom -12400.212323 kJ/mol
# Density = 1.979948 g / cm^3
# Si number density = 19.844650 Si / 1000 Ang^3
#
#
#
# Elastic Constant Matrix: (Units=GPa)
#
#
# Indices 1 2 3 4 5 6 
#
# 1 66.7566 25.4837 26.4565 0.0000 -3.8194 0.0000
# 2 25.4837 96.0897 56.5973 0.0000 -4.1081 0.0000
# 3 26.4565 56.5973 110.6971 0.0000 -3.8792 0.0000
# 4 0.0000 0.0000 0.0000 39.9565 0.0000 -1.9102
# 5 -3.8194 -4.1081 -3.8792 0.0000 20.7553 0.0000
# 6 0.0000 0.0000 0.0000 -1.9102 0.0000 27.1219
#
#
#
# Elastic Compliance Matrix: (Units=1/GPa)
#
#
# Indices 1 2 3 4 5 6 
#
# 1 0.017242 -0.003003 -0.002511 0.000000 0.002109 0.000000
# 2 -0.003003 0.015463 -0.007147 0.000000 0.001172 0.000000
# 3 -0.002511 -0.007147 0.013310 0.000000 0.000611 0.000000
# 4 0.000000 0.000000 0.000000 0.025112 0.000000 0.001769
# 5 0.002109 0.001172 0.000611 0.000000 0.048915 0.000000
# 6 0.000000 0.000000 0.000000 0.001769 0.000000 0.036995
#
#
# Mechanical properties :
#
#
# Convention : Reuss Voigt Hill
#
# Bulk Modulus (GPa) = 48.32993 54.51316 51.42155
# Shear Modulus (GPa) = 26.41898 28.56713 27.49305
#
# Velocity S-wave (km/s) = 3.65264 3.79824 3.72615
# Velocity P-wave (km/s) = 6.49585 6.83850 6.66938
#
# Compressibility (1/GPa) = 0.02069111
#
# Stress axis : x y z
#
# Youngs Moduli (GPa) = 57.99699 64.66912 75.13409
#
# Poissons Ratio (x) = 0.19422 0.18869
# Poissons Ratio (y) = 0.17419 0.53700
# Poissons Ratio (z) = 0.14565 0.46221
#
# Static dielectric constant tensor:
#      x y z
#    x 3.920710 0.000000 -0.020860 
#    y 0.000000 3.640040 0.000000 
#    z -0.020860 0.000000 3.259660 
# 
# 
# High freq. dielectric constant tensor:
#      x y z
#    x 1.777160 0.000000 -0.003520 
#    y 0.000000 1.777890 0.000000 
#    z -0.003520 0.000000 1.762750 
# 
# From -- ./inp_files/38295.got.cif
#   From: 2010.06.25/outbox.cif.g09.slc.cpg/sg11_20_cif.got.tgz:38295.got - 2010.06.27 23:14:04.
