data_PCOD8074153
_publ_section_title
;
Structure prediction by ZEFSAII (Michael W. Deem and Ramdas Pophale) SiO2 
 PCOD8074153
Probable space group: P 21/M
;
_chemical_formula_sum "Si O2"
_cell_formula_units_Z 32
_cell_length_a 14.943614
_cell_length_b 8.713152
_cell_length_c 14.585824
_cell_angle_alpha 90.000000
_cell_angle_beta 120.477192
_cell_angle_gamma 90.000000
_cell_volume 1636.756512
_symmetry_space_group_name_H-M "P 21/M"
_symmetry_group_IT_number 11
_symmetry_cell_setting 'monoclinic'
loop_
_space_group_symop_operation_xyz
x,y,z
-x,1/2+y,-z
-x,-y,-z
x,1/2-y,z
loop_
_atom_site_type_symbol
_atom_site_label
_atom_site_fract_x
_atom_site_fract_y
_atom_site_fract_z
Si Si1 0.268958 0.927392 0.988594
Si Si2 0.811826 0.069062 0.243299
Si Si3 0.958825 0.071859 0.070764
Si Si4 0.557660 0.432607 0.789481
Si Si5 0.595888 0.067796 0.604774
Si Si6 0.324386 0.073525 0.676163
Si Si7 0.764112 0.572596 0.568427
Si Si8 0.019954 0.568596 0.291194
O O1 0.295356 0.750000 0.991868
O O2 0.164533 0.953395 0.992133
O O3 0.364264 0.004891 0.093717
O O4 0.254063 0.995632 0.878293
O O5 0.829406 0.250000 0.242025
O O6 0.752811 0.031273 0.305733
O O7 0.924582 0.991320 0.303005
O O8 0.988140 0.250000 0.091840
O O9 0.012883 0.987053 0.183188
O O10 0.000000 0.000000 0.000000
O O11 0.564658 0.250000 0.791557
O O12 0.589997 0.493069 0.706034
O O13 0.441410 0.484436 0.754940
O O14 0.589675 0.250000 0.596407
O O15 0.500000 0.000000 0.500000
O O16 0.704583 0.010889 0.620039
O O17 0.309328 0.250000 0.697990
O O18 0.302468 0.051447 0.557915
O O19 0.778239 0.750000 0.601108
O O20 0.875398 0.496114 0.609860
O O21 0.021797 0.750000 0.295284
#
# Coordination Sequence:
#
# PCOD8074153 Si02
#       8
#     4   4   4   4   4   4   4   4
#     4   8  17  34  56  81 114 151 190 236 289 342
#     4  10  21  39  61  86 116 150 190 248 301 347
#     4  10  20  35  56  85 120 157 197 244 293 347
#     4   9  18  35  57  84 116 154 195 233 284 349
#     4  11  21  36  59  85 119 160 198 241 291 347
#     4  10  21  38  60  84 114 155 195 238 294 356
#     4  11  23  40  59  87 121 154 196 246 296 354
#     4  11  23  40  61  85 114 155 199 243 299 358
#
# _framework density 19.550861000000001
#
# number of rings (size 3 to 8) (size 9 to 14) (size 15 to 20)
#    0.000    2.000    1.250    3.375    1.750    2.000 
#    0.000    0.000    0.000    6.000    0.000    0.000 
#    0.000    0.000    0.000    0.000    0.000    0.000 
#
# Total GULP energy -396851.757447 kJ/mol
# GULP energy per Si atom -12401.617420 kJ/mol
# Density = 1.950636 g / cm^3
# Si number density = 19.550861 Si / 1000 Ang^3
#
#
#
# Elastic Constant Matrix: (Units=GPa)
#
#
# Indices 1 2 3 4 5 6 
#
# 1 104.9960 28.5771 29.8882 0.0000 3.9021 0.0000
# 2 28.5771 83.5481 24.5902 0.0000 5.5973 0.0000
# 3 29.8882 24.5902 55.3805 0.0000 20.4893 0.0000
# 4 0.0000 0.0000 0.0000 24.0394 0.0000 -0.4798
# 5 3.9021 5.5973 20.4893 0.0000 39.1263 0.0000
# 6 0.0000 0.0000 0.0000 -0.4798 0.0000 32.9983
#
#
#
# Elastic Compliance Matrix: (Units=1/GPa)
#
#
# Indices 1 2 3 4 5 6 
#
# 1 0.011859 -0.002382 -0.006240 0.000000 0.002426 0.000000
# 2 -0.002382 0.014321 -0.005461 0.000000 0.001049 0.000000
# 3 -0.006240 -0.005461 0.028936 0.000000 -0.013749 0.000000
# 4 0.000000 0.000000 0.000000 0.041610 0.000000 0.000605
# 5 0.002426 0.001049 -0.013749 0.000000 0.032367 0.000000
# 6 0.000000 0.000000 0.000000 0.000605 0.000000 0.030313
#
#
# Mechanical properties :
#
#
# Convention : Reuss Voigt Hill
#
# Bulk Modulus (GPa) = 37.10610 45.55953 41.33282
# Shear Modulus (GPa) = 25.43811 29.95740 27.69776
#
# Velocity S-wave (km/s) = 3.61102 3.91868 3.76799
# Velocity P-wave (km/s) = 6.03378 6.62030 6.33383
#
# Compressibility (1/GPa) = 0.02694974
#
# Stress axis : x y z
#
# Youngs Moduli (GPa) = 84.32719 69.82719 34.55883
#
# Poissons Ratio (x) = 0.16634 0.21563
# Poissons Ratio (y) = 0.20088 0.18873
# Poissons Ratio (z) = 0.52617 0.38134
#
# Static dielectric constant tensor:
#      x y z
#    x 3.708660 0.000000 0.139780 
#    y 0.000000 3.422870 0.000000 
#    z 0.139780 0.000000 3.797670 
# 
# 
# High freq. dielectric constant tensor:
#      x y z
#    x 1.768420 0.000000 0.004560 
#    y 0.000000 1.745150 0.000000 
#    z 0.004560 0.000000 1.766520 
# 
# From -- ./inp_files/51774.got.cif
#   From: 2010.06.25/outbox.cif.g09.slc.cpg/sg11_26_cif.got.tgz:51774.got - 2010.06.27 23:14:04.
