data_PCOD8074937
_publ_section_title
;
Structure prediction by ZEFSAII (Michael W. Deem and Ramdas Pophale) SiO2 
 PCOD8074937
Probable space group: P 21/M
;
_chemical_formula_sum "Si O2"
_cell_formula_units_Z 24
_cell_length_a 22.599092
_cell_length_b 8.684770
_cell_length_c 10.909008
_cell_angle_alpha 90.000000
_cell_angle_beta 148.443382
_cell_angle_gamma 90.000000
_cell_volume 1120.518983
_symmetry_space_group_name_H-M "P 21/M"
_symmetry_group_IT_number 11
_symmetry_cell_setting 'monoclinic'
loop_
_space_group_symop_operation_xyz
x,y,z
-x,1/2+y,-z
-x,-y,-z
x,1/2-y,z
loop_
_atom_site_type_symbol
_atom_site_label
_atom_site_fract_x
_atom_site_fract_y
_atom_site_fract_z
Si Si1 0.989550 0.425098 0.110254
Si Si2 0.474904 0.431270 0.591963
Si Si3 0.428297 0.432033 0.986653
Si Si4 0.880417 0.078034 0.275128
Si Si5 0.242671 0.927074 0.173655
Si Si6 0.803949 0.423133 0.403901
O O1 0.029430 0.250000 0.178919
O O2 0.071942 0.513817 0.347170
O O3 0.000000 0.500000 0.000000
O O4 0.858094 0.441671 0.908301
O O5 0.500000 0.500000 0.500000
O O6 0.498566 0.250000 0.629054
O O7 0.544947 0.500033 0.830689
O O8 0.345434 0.466817 0.398208
O O9 0.446767 0.250000 0.022611
O O10 0.500000 0.500000 0.000000
O O11 0.297675 0.471987 0.725185
O O12 0.909201 0.250000 0.280614
O O13 0.800827 0.077187 0.252092
O O14 0.803334 0.001306 0.034822
O O15 0.000000 0.000000 0.500000
O O16 0.284385 0.750000 0.234219
O O17 0.789679 0.250000 0.431098
#
# Coordination Sequence:
#
# PCOD8074937 Si02
#       6
#     4   4   4   4   4   4
#     4  11  24  41  63  92 131 175 221 271 328 393
#     4  12  26  46  72 102 137 181 231 284 341 406
#     4  12  27  48  73 101 135 179 229 284 343 408
#     4  10  20  36  61  93 129 165 206 258 317 383
#     4  10  22  41  65  95 132 174 218 271 328 393
#     4  11  23  41  67  98 133 171 215 270 330 399
#
# _framework density 21.418645999999999
#
# number of rings (size 3 to 8) (size 9 to 14) (size 15 to 20)
#    0.000    1.000    1.667    5.000    2.333    4.000 
#    0.000    0.000    0.000    0.000    0.000    0.000 
#    0.000    0.000    0.000    0.000    0.000    0.000 
#
# Total GULP energy -297535.105387 kJ/mol
# GULP energy per Si atom -12397.296058 kJ/mol
# Density = 2.136990 g / cm^3
# Si number density = 21.418646 Si / 1000 Ang^3
#
#
#
# Elastic Constant Matrix: (Units=GPa)
#
#
# Indices 1 2 3 4 5 6 
#
# 1 105.0701 47.2686 21.6764 0.0000 -2.9110 0.0000
# 2 47.2686 141.5210 34.8585 0.0000 1.8326 0.0000
# 3 21.6764 34.8585 84.5829 0.0000 10.9815 0.0000
# 4 0.0000 0.0000 0.0000 41.0866 0.0000 2.1844
# 5 -2.9110 1.8326 10.9815 0.0000 39.4482 0.0000
# 6 0.0000 0.0000 0.0000 2.1844 0.0000 35.2685
#
#
#
# Elastic Compliance Matrix: (Units=1/GPa)
#
#
# Indices 1 2 3 4 5 6 
#
# 1 0.011452 -0.003421 -0.001717 0.000000 0.001482 0.000000
# 2 -0.003421 0.008898 -0.002805 0.000000 0.000115 0.000000
# 3 -0.001717 -0.002805 0.013922 0.000000 -0.003872 0.000000
# 4 0.000000 0.000000 0.000000 0.024419 0.000000 -0.001512
# 5 0.001482 0.000115 -0.003872 0.000000 0.026532 0.000000
# 6 0.000000 0.000000 0.000000 -0.001512 0.000000 0.028448
#
#
# Mechanical properties :
#
#
# Convention : Reuss Voigt Hill
#
# Bulk Modulus (GPa) = 54.39462 59.86454 57.12958
# Shear Modulus (GPa) = 36.84977 38.31867 37.58422
#
# Velocity S-wave (km/s) = 4.15233 4.23429 4.19351
# Velocity P-wave (km/s) = 6.95990 7.20527 7.08365
#
# Compressibility (1/GPa) = 0.01838417
#
# Stress axis : x y z
#
# Youngs Moduli (GPa) = 87.32166 112.38119 71.83049
#
# Poissons Ratio (x) = 0.38448 0.12335
# Poissons Ratio (y) = 0.29874 0.20151
# Poissons Ratio (z) = 0.14996 0.31527
#
# Static dielectric constant tensor:
#      x y z
#    x 3.977150 0.000000 0.109010 
#    y 0.000000 3.819740 0.000000 
#    z 0.109010 0.000000 8.199840 
# 
# 
# High freq. dielectric constant tensor:
#      x y z
#    x 1.852370 0.000000 0.001240 
#    y 0.000000 1.839990 0.000000 
#    z 0.001240 0.000000 1.852000 
# 
# From -- ./inp_files/44026.got.cif
#   From: 2010.06.25/outbox.cif.g09.slc.cpg/sg11_23_cif.got.tgz:44026.got - 2010.06.27 23:14:04.
