data_PCOD8074189
_publ_section_title
;
Structure prediction by ZEFSAII (Michael W. Deem and Ramdas Pophale) SiO2 
 PCOD8074189
Probable space group: P 21/M
;
_chemical_formula_sum "Si O2"
_cell_formula_units_Z 28
_cell_length_a 16.480451
_cell_length_b 9.021904
_cell_length_c 11.086636
_cell_angle_alpha 90.000000
_cell_angle_beta 59.986235
_cell_angle_gamma 90.000000
_cell_volume 1427.372939
_symmetry_space_group_name_H-M "P 21/M"
_symmetry_group_IT_number 11
_symmetry_cell_setting 'monoclinic'
loop_
_space_group_symop_operation_xyz
x,y,z
-x,1/2+y,-z
-x,-y,-z
x,1/2-y,z
loop_
_atom_site_type_symbol
_atom_site_label
_atom_site_fract_x
_atom_site_fract_y
_atom_site_fract_z
Si Si1 0.747806 0.580407 0.680282
Si Si2 0.385907 0.576675 0.827017
Si Si3 0.321237 0.922005 0.612316
Si Si4 0.016979 0.075290 0.114984
Si Si5 0.216285 0.419906 0.076000
Si Si6 0.576497 0.077575 0.707654
Si Si7 0.851248 0.923906 0.363381
O O1 0.716859 0.750000 0.684486
O O2 0.797618 0.554235 0.770949
O O3 0.654249 0.482418 0.742228
O O4 0.821735 0.535213 0.521742
O O5 0.399000 0.750000 0.834247
O O6 0.372032 0.533307 0.697773
O O7 0.478085 0.498416 0.809354
O O8 0.297316 0.525810 0.969284
O O9 0.291172 0.750000 0.632776
O O10 0.392852 0.959356 0.451717
O O11 0.228241 0.020851 0.670229
O O12 0.001004 0.250000 0.115611
O O13 0.121050 0.035839 0.080458
O O14 0.947006 0.009466 0.266366
O O15 0.000000 0.000000 0.000000
O O16 0.243607 0.250000 0.028631
O O17 0.564526 0.250000 0.739732
O O18 0.866510 0.750000 0.331916
#
# Coordination Sequence:
#
# PCOD8074189 Si02
#       7
#     4   4   4   4   4   4   4
#     4   9  20  40  60  80 109 144 186 230 271 321
#     4  11  22  35  54  81 112 147 185 228 278 327
#     4   9  19  35  55  82 114 146 184 228 273 326
#     4  11  23  39  60  86 115 146 181 223 273 328
#     4  10  23  41  58  78 108 147 188 229 271 321
#     4  10  20  35  57  83 111 145 184 227 276 330
#     4  10  20  35  59  86 112 145 181 224 278 328
#
# _framework density 19.616455999999999
#
# number of rings (size 3 to 8) (size 9 to 14) (size 15 to 20)
#    0.000    2.000    0.000    3.000    0.000    7.429 
#    0.000    0.000    0.000    0.000    0.000    0.000 
#    0.000    0.000    0.000    0.000    0.000    0.000 
#
# Total GULP energy -347355.625272 kJ/mol
# GULP energy per Si atom -12405.558045 kJ/mol
# Density = 1.957181 g / cm^3
# Si number density = 19.616456 Si / 1000 Ang^3
#
#
#
# Elastic Constant Matrix: (Units=GPa)
#
#
# Indices 1 2 3 4 5 6 
#
# 1 107.8216 50.3552 68.1397 0.0000 -1.9879 0.0000
# 2 50.3552 85.5869 50.9613 0.0000 -8.5123 0.0000
# 3 68.1397 50.9613 87.1210 0.0000 -10.9264 0.0000
# 4 0.0000 0.0000 0.0000 34.9945 0.0000 -5.3859
# 5 -1.9879 -8.5123 -10.9264 0.0000 35.0535 0.0000
# 6 0.0000 0.0000 0.0000 -5.3859 0.0000 30.5259
#
#
#
# Elastic Compliance Matrix: (Units=1/GPa)
#
#
# Indices 1 2 3 4 5 6 
#
# 1 0.019565 -0.003836 -0.013566 0.000000 -0.004051 0.000000
# 2 -0.003836 0.018724 -0.007711 0.000000 0.001926 0.000000
# 3 -0.013566 -0.007711 0.027337 0.000000 0.005879 0.000000
# 4 0.000000 0.000000 0.000000 0.029374 0.000000 0.005183
# 5 -0.004051 0.001926 0.005879 0.000000 0.030598 0.000000
# 6 0.000000 0.000000 0.000000 0.005183 0.000000 0.033674
#
#
# Mechanical properties :
#
#
# Convention : Reuss Voigt Hill
#
# Bulk Modulus (GPa) = 64.93877 68.82690 66.88284
# Shear Modulus (GPa) = 23.29594 27.51966 25.40780
#
# Velocity S-wave (km/s) = 3.44985 3.74958 3.60283
# Velocity P-wave (km/s) = 7.00320 7.34222 7.17471
#
# Compressibility (1/GPa) = 0.01539912
#
# Stress axis : x y z
#
# Youngs Moduli (GPa) = 51.11183 53.40842 36.58103
#
# Poissons Ratio (x) = 0.20488 0.49627
# Poissons Ratio (y) = 0.19607 0.28206
# Poissons Ratio (z) = 0.69340 0.41181
#
# Static dielectric constant tensor:
#      x y z
#    x 3.526150 0.000000 0.011130 
#    y 0.000000 3.601840 0.000000 
#    z 0.011130 0.000000 3.607270 
# 
# 
# High freq. dielectric constant tensor:
#      x y z
#    x 1.763540 0.000000 -0.000810 
#    y 0.000000 1.770520 0.000000 
#    z -0.000810 0.000000 1.767250 
# 
# From -- ./inp_files/37875.got.cif
#   From: 2010.06.25/outbox.cif.g09.slc.cpg/sg11_19_cif.got.tgz:37875.got - 2010.06.27 23:14:04.
