data_PCOD8074837
_publ_section_title
;
Structure prediction by ZEFSAII (Michael W. Deem and Ramdas Pophale) SiO2 
 PCOD8074837
Probable space group: P 21/M
;
_chemical_formula_sum "Si O2"
_cell_formula_units_Z 28
_cell_length_a 19.780299
_cell_length_b 8.813762
_cell_length_c 14.544925
_cell_angle_alpha 90.000000
_cell_angle_beta 147.497954
_cell_angle_gamma 90.000000
_cell_volume 1362.531413
_symmetry_space_group_name_H-M "P 21/M"
_symmetry_group_IT_number 11
_symmetry_cell_setting 'monoclinic'
loop_
_space_group_symop_operation_xyz
x,y,z
-x,1/2+y,-z
-x,-y,-z
x,1/2-y,z
loop_
_atom_site_type_symbol
_atom_site_label
_atom_site_fract_x
_atom_site_fract_y
_atom_site_fract_z
Si Si1 0.434478 0.073593 0.688598
Si Si2 0.601254 0.070405 0.547860
Si Si3 0.291050 0.925627 0.013847
Si Si4 0.229395 0.071506 0.121857
Si Si5 0.179406 0.425294 0.465963
Si Si6 0.026148 0.569128 0.628166
Si Si7 0.990168 0.573662 0.889888
O O1 0.411192 0.250000 0.637850
O O2 0.326539 0.020336 0.638877
O O3 0.417899 0.977294 0.578116
O O4 0.577297 0.051116 0.892018
O O5 0.595530 0.250000 0.548559
O O6 0.500000 0.000000 0.500000
O O7 0.733010 0.006542 0.738181
O O8 0.273290 0.750000 0.020572
O O9 0.167541 0.984744 0.818730
O O10 0.315430 0.021866 0.134774
O O11 0.232007 0.250000 0.138359
O O12 0.091750 0.007279 0.940341
O O13 0.170826 0.250000 0.480223
O O14 0.082224 0.499840 0.427779
O O15 0.139300 0.455430 0.313557
O O16 0.022505 0.750000 0.619360
O O17 0.000000 0.500000 0.500000
O O18 0.019971 0.750000 0.933676
O O19 0.000000 0.500000 0.000000
#
# Coordination Sequence:
#
# PCOD8074837 Si02
#       7
#     4   4   4   4   4   4   4
#     4  10  20  36  60  87 116 158 202 247 302 362
#     4  12  23  35  52  80 120 165 209 254 298 353
#     4  10  20  37  61  85 115 150 193 245 303 363
#     4  12  23  35  54  81 115 157 208 253 297 351
#     4   9  19  37  60  85 119 156 196 244 305 367
#     4  10  21  41  65  90 117 153 197 251 311 372
#     4  11  21  36  56  82 120 162 204 250 300 358
#
# _framework density 20.549986000000001
#
# number of rings (size 3 to 8) (size 9 to 14) (size 15 to 20)
#    0.000    1.429    2.857    3.857    0.000    1.714 
#    0.000    2.143    0.000    0.000    0.000    0.000 
#    0.000    0.000    0.000    0.000    0.000    0.000 
#
# Total GULP energy -346937.803099 kJ/mol
# GULP energy per Si atom -12390.635825 kJ/mol
# Density = 2.050321 g / cm^3
# Si number density = 20.549986 Si / 1000 Ang^3
#
#
#
# Elastic Constant Matrix: (Units=GPa)
#
#
# Indices 1 2 3 4 5 6 
#
# 1 125.3717 26.4542 74.2047 0.0000 19.3819 0.0000
# 2 26.4542 92.6627 31.5618 0.0000 4.7099 0.0000
# 3 74.2047 31.5618 120.5516 0.0000 22.0779 0.0000
# 4 0.0000 0.0000 0.0000 22.7199 0.0000 -4.9830
# 5 19.3819 4.7099 22.0779 0.0000 39.2840 0.0000
# 6 0.0000 0.0000 0.0000 -4.9830 0.0000 24.6354
#
#
#
# Elastic Compliance Matrix: (Units=1/GPa)
#
#
# Indices 1 2 3 4 5 6 
#
# 1 0.012799 -0.001093 -0.007201 0.000000 -0.002137 0.000000
# 2 -0.001093 0.011946 -0.002554 0.000000 0.000542 0.000000
# 3 -0.007201 -0.002554 0.014146 0.000000 -0.004091 0.000000
# 4 0.000000 0.000000 0.000000 0.046057 0.000000 0.009316
# 5 -0.002137 0.000542 -0.004091 0.000000 0.028744 0.000000
# 6 0.000000 0.000000 0.000000 0.009316 0.000000 0.042476
#
#
# Mechanical properties :
#
#
# Convention : Reuss Voigt Hill
#
# Bulk Modulus (GPa) = 58.15663 67.00304 62.57984
# Shear Modulus (GPa) = 27.23351 31.08556 29.15953
#
# Velocity S-wave (km/s) = 3.64432 3.89354 3.77099
# Velocity P-wave (km/s) = 6.78746 7.27245 7.03414
#
# Compressibility (1/GPa) = 0.01719494
#
# Stress axis : x y z
#
# Youngs Moduli (GPa) = 78.12873 83.70813 70.69233
#
# Poissons Ratio (x) = 0.09147 0.50907
# Poissons Ratio (y) = 0.08537 0.18058
# Poissons Ratio (z) = 0.56262 0.21383
#
# Static dielectric constant tensor:
#      x y z
#    x 3.943640 0.000000 0.493340 
#    y 0.000000 3.499740 0.000000 
#    z 0.493340 0.000000 4.079610 
# 
# 
# High freq. dielectric constant tensor:
#      x y z
#    x 1.794680 0.000000 0.034680 
#    y 0.000000 1.782320 0.000000 
#    z 0.034680 0.000000 1.804520 
# 
# From -- ./inp_files/54626.got.cif
#   From: 2010.06.25/outbox.cif.g09.slc.cpg/sg11_28_cif.got.tgz:54626.got - 2010.06.27 23:14:04.
