data_PCOD8074240
_publ_section_title
;
Structure prediction by ZEFSAII (Michael W. Deem and Ramdas Pophale) SiO2 
 PCOD8074240
Probable space group: P 21/M
;
_chemical_formula_sum "Si O2"
_cell_formula_units_Z 28
_cell_length_a 14.225663
_cell_length_b 12.612980
_cell_length_c 9.127588
_cell_angle_alpha 90.000000
_cell_angle_beta 116.746004
_cell_angle_gamma 90.000000
_cell_volume 1462.523106
_symmetry_space_group_name_H-M "P 21/M"
_symmetry_group_IT_number 11
_symmetry_cell_setting 'monoclinic'
loop_
_space_group_symop_operation_xyz
x,y,z
-x,1/2+y,-z
-x,-y,-z
x,1/2-y,z
loop_
_atom_site_type_symbol
_atom_site_label
_atom_site_fract_x
_atom_site_fract_y
_atom_site_fract_z
Si Si1 0.774727 0.498848 0.838040
Si Si2 0.353000 0.628144 0.025211
Si Si3 0.544743 0.537054 0.298967
Si Si4 0.426857 0.129424 0.382517
Si Si5 0.121611 0.872511 0.351014
Si Si6 0.244682 0.982617 0.693389
Si Si7 0.125717 0.127923 0.837958
O O1 0.724435 0.406790 0.899945
O O2 0.683889 0.569006 0.701943
O O3 0.842635 0.442825 0.760876
O O4 0.848341 0.573954 0.988377
O O5 0.375934 0.750000 0.056734
O O6 0.465351 0.568768 0.113242
O O7 0.300155 0.604680 0.833149
O O8 0.529288 0.619727 0.421803
O O9 0.513339 0.419440 0.332788
O O10 0.664781 0.542820 0.332633
O O11 0.410673 0.250000 0.324781
O O12 0.157643 0.750000 0.357533
O O13 0.166522 0.920876 0.531925
O O14 0.997194 0.880508 0.276989
O O15 0.184442 0.070377 0.745806
O O16 0.163074 0.250000 0.868624
#
# Coordination Sequence:
#
# PCOD8074240 Si02
#       7
#     4   4   4   4   4   4   4
#     4  10  20  39  60  86 118 148 195 245 289 349
#     4  10  21  36  57  84 115 154 191 236 291 348
#     4  10  21  37  54  85 117 149 195 236 286 345
#     4  10  20  35  57  85 117 149 187 238 291 346
#     4  11  22  39  62  88 116 155 201 248 298 347
#     4  11  22  40  58  85 121 154 195 242 290 353
#     4  10  23  40  61  86 118 157 197 245 300 350
#
# _framework density 19.144995000000002
#
# number of rings (size 3 to 8) (size 9 to 14) (size 15 to 20)
#    0.000    1.714    1.429    3.000    0.000    2.286 
#    0.000    0.000    0.000    6.000    0.000    0.000 
#    0.000    0.000    0.000    0.000    0.000    0.000 
#
# Total GULP energy -347271.346700 kJ/mol
# GULP energy per Si atom -12402.548096 kJ/mol
# Density = 1.910142 g / cm^3
# Si number density = 19.144995 Si / 1000 Ang^3
#
#
#
# Elastic Constant Matrix: (Units=GPa)
#
#
# Indices 1 2 3 4 5 6 
#
# 1 91.1146 49.2538 43.7497 0.0000 -0.5701 0.0000
# 2 49.2538 124.2209 53.7964 0.0000 -14.6874 0.0000
# 3 43.7497 53.7964 124.0939 0.0000 0.7736 0.0000
# 4 0.0000 0.0000 0.0000 13.5321 0.0000 -0.7520
# 5 -0.5701 -14.6874 0.7736 0.0000 25.6095 0.0000
# 6 0.0000 0.0000 0.0000 -0.7520 0.0000 20.4729
#
#
#
# Elastic Compliance Matrix: (Units=1/GPa)
#
#
# Indices 1 2 3 4 5 6 
#
# 1 0.015146 -0.004900 -0.003201 0.000000 -0.002377 0.000000
# 2 -0.004900 0.012445 -0.003712 0.000000 0.007140 0.000000
# 3 -0.003201 -0.003712 0.010812 0.000000 -0.002527 0.000000
# 4 0.000000 0.000000 0.000000 0.074049 0.000000 0.002720
# 5 -0.002377 0.007140 -0.002527 0.000000 0.043167 0.000000
# 6 0.000000 0.000000 0.000000 0.002720 0.000000 0.048945
#
#
# Mechanical properties :
#
#
# Convention : Reuss Voigt Hill
#
# Bulk Modulus (GPa) = 67.67288 70.33658 69.00473
# Shear Modulus (GPa) = 21.44861 24.76487 23.10674
#
# Velocity S-wave (km/s) = 3.35076 3.60049 3.47786
# Velocity P-wave (km/s) = 7.09890 7.35550 7.22834
#
# Compressibility (1/GPa) = 0.01477697
#
# Stress axis : x y z
#
# Youngs Moduli (GPa) = 66.02347 80.35370 92.49219
#
# Poissons Ratio (x) = 0.39376 0.29603
# Poissons Ratio (y) = 0.32354 0.34333
# Poissons Ratio (z) = 0.21132 0.29827
#
# Static dielectric constant tensor:
#      x y z
#    x 3.421370 0.000000 0.044270 
#    y 0.000000 3.463570 0.000000 
#    z 0.044270 0.000000 3.676400 
# 
# 
# High freq. dielectric constant tensor:
#      x y z
#    x 1.743760 0.000000 0.005470 
#    y 0.000000 1.744370 0.000000 
#    z 0.005470 0.000000 1.762040 
# 
# From -- ./inp_files/21280.got.cif
#   From: 2010.06.25/outbox.cif.g09.slc.cpg/sg11_11_cif.got.tgz:21280.got - 2010.06.27 23:14:04.
