data_PCOD8074409
_publ_section_title
;
Structure prediction by ZEFSAII (Michael W. Deem and Ramdas Pophale) SiO2 
 PCOD8074409
Probable space group: P 21/M
;
_chemical_formula_sum "Si O2"
_cell_formula_units_Z 24
_cell_length_a 8.429964
_cell_length_b 25.634372
_cell_length_c 5.265080
_cell_angle_alpha 90.000000
_cell_angle_beta 98.236855
_cell_angle_gamma 90.000000
_cell_volume 1126.030229
_symmetry_space_group_name_H-M "P 21/M"
_symmetry_group_IT_number 11
_symmetry_cell_setting 'monoclinic'
loop_
_space_group_symop_operation_xyz
x,y,z
-x,1/2+y,-z
-x,-y,-z
x,1/2-y,z
loop_
_atom_site_type_symbol
_atom_site_label
_atom_site_fract_x
_atom_site_fract_y
_atom_site_fract_z
Si Si1 0.759042 0.855099 0.438085
Si Si2 0.867097 0.100697 0.967668
Si Si3 0.449233 0.579733 0.340466
Si Si4 0.639486 0.031386 0.179772
Si Si5 0.106372 0.309853 0.041619
Si Si6 0.093896 0.456088 0.668021
O O1 0.577637 0.874187 0.356343
O O2 0.804926 0.821544 0.201969
O O3 0.881046 0.904083 0.496391
O O4 0.772767 0.821374 0.697197
O O5 0.726047 0.106417 0.722883
O O6 0.943429 0.156985 0.039386
O O7 0.001930 0.059777 0.903445
O O8 0.784480 0.074608 0.195727
O O9 0.467932 0.547636 0.604509
O O10 0.464611 0.536214 0.110277
O O11 0.726058 0.975334 0.227994
O O12 0.054128 0.250000 0.036269
O O13 0.000000 0.500000 0.500000
#
# Coordination Sequence:
#
# PCOD8074409 Si02
#       6
#     4   4   4   4   4   4
#     4  11  25  41  63  90 126 161 201 255 305 362
#     4   9  22  37  64  88 124 156 205 254 297 355
#     4  10  22  38  59  87 129 158 196 245 302 354
#     4  10  20  35  60  90 128 162 200 235 297 360
#     4  11  24  44  67  87 112 155 209 258 310 363
#     4  11  19  37  60  93 128 169 205 242 295 364
#
# _framework density 21.313817
#
# number of rings (size 3 to 8) (size 9 to 14) (size 15 to 20)
#    1.000    0.667    1.667    3.000    2.333    5.333 
#    0.000    1.667    0.000    0.000    0.000    0.000 
#    0.000    0.000    0.000    0.000    0.000    0.000 
#
# Total GULP energy -297589.190164 kJ/mol
# GULP energy per Si atom -12399.549590 kJ/mol
# Density = 2.126531 g / cm^3
# Si number density = 21.313817 Si / 1000 Ang^3
#
#
#
# Elastic Constant Matrix: (Units=GPa)
#
#
# Indices 1 2 3 4 5 6 
#
# 1 69.2328 32.7852 17.6274 0.0000 6.8165 0.0000
# 2 32.7852 136.9733 51.5013 0.0000 3.7945 0.0000
# 3 17.6274 51.5013 134.0249 0.0000 -0.3127 0.0000
# 4 0.0000 0.0000 0.0000 28.5315 0.0000 1.0673
# 5 6.8165 3.7945 -0.3127 0.0000 30.3739 0.0000
# 6 0.0000 0.0000 0.0000 1.0673 0.0000 25.5415
#
#
#
# Elastic Compliance Matrix: (Units=1/GPa)
#
#
# Indices 1 2 3 4 5 6 
#
# 1 0.016679 -0.003592 -0.000821 0.000000 -0.003303 0.000000
# 2 -0.003592 0.009344 -0.003119 0.000000 -0.000393 0.000000
# 3 -0.000821 -0.003119 0.008769 0.000000 0.000664 0.000000
# 4 0.000000 0.000000 0.000000 0.035104 0.000000 -0.001467
# 5 -0.003303 -0.000393 0.000664 0.000000 0.033720 0.000000
# 6 0.000000 0.000000 0.000000 -0.001467 0.000000 0.039213
#
#
# Mechanical properties :
#
#
# Convention : Reuss Voigt Hill
#
# Bulk Modulus (GPa) = 50.68866 60.45101 55.56983
# Shear Modulus (GPa) = 30.40052 32.77718 31.58885
#
# Velocity S-wave (km/s) = 3.78077 3.92578 3.85396
# Velocity P-wave (km/s) = 6.54925 6.99807 6.77738
#
# Compressibility (1/GPa) = 0.01972828
#
# Stress axis : x y z
#
# Youngs Moduli (GPa) = 59.95465 107.01903 114.03263
#
# Poissons Ratio (x) = 0.38442 0.09364
# Poissons Ratio (y) = 0.21536 0.35568
# Poissons Ratio (z) = 0.04923 0.33381
#
# Static dielectric constant tensor:
#      x y z
#    x 4.056930 0.000000 0.008550 
#    y 0.000000 3.684060 0.000000 
#    z 0.008550 0.000000 3.815270 
# 
# 
# High freq. dielectric constant tensor:
#      x y z
#    x 1.853810 0.000000 0.002280 
#    y 0.000000 1.811950 0.000000 
#    z 0.002280 0.000000 1.843520 
# 
# From -- ./inp_files/2725.got.cif
#   From: 2010.06.25/outbox.cif.g09.slc.cpg/sg11_2_cif.got.tgz:2725.got - 2010.06.27 23:14:04.
