data_PCOD8074310
_publ_section_title
;
Structure prediction by ZEFSAII (Michael W. Deem and Ramdas Pophale) SiO2 
 PCOD8074310
Probable space group: P 21/M
;
_chemical_formula_sum "Si O2"
_cell_formula_units_Z 28
_cell_length_a 9.525888
_cell_length_b 8.718290
_cell_length_c 26.482296
_cell_angle_alpha 90.000000
_cell_angle_beta 137.737109
_cell_angle_gamma 90.000000
_cell_volume 1479.129611
_symmetry_space_group_name_H-M "P 21/M"
_symmetry_group_IT_number 11
_symmetry_cell_setting 'monoclinic'
loop_
_space_group_symop_operation_xyz
x,y,z
-x,1/2+y,-z
-x,-y,-z
x,1/2-y,z
loop_
_atom_site_type_symbol
_atom_site_label
_atom_site_fract_x
_atom_site_fract_y
_atom_site_fract_z
Si Si1 0.335370 0.068992 0.918166
Si Si2 0.640952 0.574509 0.189630
Si Si3 0.942543 0.568183 0.430152
Si Si4 0.285871 0.080182 0.453113
Si Si5 0.041656 0.415361 0.289635
Si Si6 0.460132 0.568569 0.734346
Si Si7 0.891284 0.574388 0.803406
O O1 0.338750 0.250000 0.922351
O O2 0.404722 0.016774 0.879888
O O3 0.104397 0.014981 0.872982
O O4 0.500000 0.000000 0.000000
O O5 0.575284 0.750000 0.180162
O O6 0.535952 0.473130 0.205206
O O7 0.889004 0.555200 0.262434
O O8 0.922790 0.750000 0.429362
O O9 0.726712 0.505897 0.348191
O O10 0.000000 0.500000 0.500000
O O11 0.133799 0.524998 0.445152
O O12 0.308018 0.250000 0.484094
O O13 0.210767 0.099780 0.376767
O O14 0.500000 0.000000 0.500000
O O15 0.919613 0.250000 0.253037
O O16 0.161120 0.446267 0.269388
O O17 0.435979 0.750000 0.721190
O O18 0.685868 0.507761 0.776018
O O19 0.926696 0.750000 0.829053
#
# Coordination Sequence:
#
# PCOD8074310 Si02
#       7
#     4   4   4   4   4   4   4
#     4  10  21  38  62  91 121 153 192 238 288 347
#     4  10  20  35  58  86 115 151 193 236 284 344
#     4  12  26  43  61  84 118 159 204 255 308 360
#     4  11  23  38  58  85 115 152 198 247 302 356
#     4   9  18  35  57  79 108 148 191 237 289 347
#     4  11  22  38  61  88 120 157 198 243 297 357
#     4   9  20  37  59  87 117 152 193 238 288 344
#
# _framework density 18.930050999999999
#
# number of rings (size 3 to 8) (size 9 to 14) (size 15 to 20)
#    0.000    1.714    1.429    3.000    2.000    3.429 
#    0.000    0.714    0.000    0.000    0.000    0.000 
#    0.000    0.000    0.000    0.000    0.000    0.000 
#
# Total GULP energy -346954.605245 kJ/mol
# GULP energy per Si atom -12391.235902 kJ/mol
# Density = 1.888697 g / cm^3
# Si number density = 18.930051 Si / 1000 Ang^3
#
#
#
# Elastic Constant Matrix: (Units=GPa)
#
#
# Indices 1 2 3 4 5 6 
#
# 1 153.6324 50.4779 81.0250 0.0000 7.7650 0.0000
# 2 50.4779 97.1564 51.9538 0.0000 0.7062 0.0000
# 3 81.0250 51.9538 120.4148 0.0000 -1.5506 0.0000
# 4 0.0000 0.0000 0.0000 30.4252 0.0000 0.7704
# 5 7.7650 0.7062 -1.5506 0.0000 24.6319 0.0000
# 6 0.0000 0.0000 0.0000 0.7704 0.0000 31.1297
#
#
#
# Elastic Compliance Matrix: (Units=1/GPa)
#
#
# Indices 1 2 3 4 5 6 
#
# 1 0.010760 -0.002166 -0.006354 0.000000 -0.003730 0.000000
# 2 -0.002166 0.013829 -0.004509 0.000000 0.000002 0.000000
# 3 -0.006354 -0.004509 0.014565 0.000000 0.003049 0.000000
# 4 0.000000 0.000000 0.000000 0.032888 0.000000 -0.000814
# 5 -0.003730 0.000002 0.003049 0.000000 0.041966 0.000000
# 6 0.000000 0.000000 0.000000 -0.000814 0.000000 0.032144
#
#
# Mechanical properties :
#
#
# Convention : Reuss Voigt Hill
#
# Bulk Modulus (GPa) = 76.35768 82.01299 79.18534
# Shear Modulus (GPa) = 28.31652 29.75383 29.03517
#
# Velocity S-wave (km/s) = 3.87182 3.96887 3.92064
# Velocity P-wave (km/s) = 7.77253 8.02626 7.90041
#
# Compressibility (1/GPa) = 0.01309626
#
# Stress axis : x y z
#
# Youngs Moduli (GPa) = 92.93535 72.31055 68.65763
#
# Poissons Ratio (x) = 0.15660 0.43625
# Poissons Ratio (y) = 0.20126 0.30961
# Poissons Ratio (z) = 0.59051 0.32608
#
# Static dielectric constant tensor:
#      x y z
#    x 7.814480 0.000000 0.382040 
#    y 0.000000 3.011480 0.000000 
#    z 0.382040 0.000000 3.234400 
# 
# 
# High freq. dielectric constant tensor:
#      x y z
#    x 1.742780 0.000000 -0.009570 
#    y 0.000000 1.745160 0.000000 
#    z -0.009570 0.000000 1.724140 
# 
# From -- ./inp_files/28324.got.cif
#   From: 2010.06.25/outbox.cif.g09.slc.cpg/sg11_15_cif.got.tgz:28324.got - 2010.06.27 23:14:04.
