data_PCOD8074523
_publ_section_title
;
Structure prediction by ZEFSAII (Michael W. Deem and Ramdas Pophale) SiO2 
 PCOD8074523
Probable space group: P 21/M
;
_chemical_formula_sum "Si O2"
_cell_formula_units_Z 32
_cell_length_a 29.179481
_cell_length_b 8.832576
_cell_length_c 12.422484
_cell_angle_alpha 90.000000
_cell_angle_beta 30.248369
_cell_angle_gamma 90.000000
_cell_volume 1612.827510
_symmetry_space_group_name_H-M "P 21/M"
_symmetry_group_IT_number 11
_symmetry_cell_setting 'monoclinic'
loop_
_space_group_symop_operation_xyz
x,y,z
-x,1/2+y,-z
-x,-y,-z
x,1/2-y,z
loop_
_atom_site_type_symbol
_atom_site_label
_atom_site_fract_x
_atom_site_fract_y
_atom_site_fract_z
Si Si1 0.730888 0.071369 0.080665
Si Si2 0.019109 0.428218 0.577534
Si Si3 0.294950 0.427629 0.529969
Si Si4 0.223530 0.071806 0.224181
Si Si5 0.321997 0.073699 0.237950
Si Si6 0.506767 0.921571 0.816288
Si Si7 0.148081 0.070249 0.997715
Si Si8 0.447180 0.422645 0.512182
O O1 0.743990 0.250000 0.062385
O O2 0.816392 0.984253 0.957779
O O3 0.643963 0.017330 0.324923
O O4 0.718746 0.019016 0.982030
O O5 0.004830 0.250000 0.596032
O O6 0.000000 0.500000 0.500000
O O7 0.118181 0.469689 0.422513
O O8 0.951790 0.496204 0.805854
O O9 0.299858 0.250000 0.545249
O O10 0.271025 0.463035 0.453970
O O11 0.395046 0.495566 0.353594
O O12 0.214095 0.494353 0.769100
O O13 0.240750 0.250000 0.175434
O O14 0.259694 0.011955 0.266699
O O15 0.335760 0.250000 0.194983
O O16 0.423425 0.007539 0.039752
O O17 0.504027 0.750000 0.864370
O O18 0.491984 0.929165 0.717950
O O19 0.139852 0.250000 0.010981
O O20 0.500000 0.500000 0.500000
O O21 0.422520 0.250000 0.592352
#
# Coordination Sequence:
#
# PCOD8074523 Si02
#       8
#     4   4   4   4   4   4   4   4
#     4  12  23  35  56  84 115 151 193 237 287 348
#     4  11  22  37  59  88 118 151 190 238 291 348
#     4   9  19  38  61  83 113 153 195 235 287 342
#     4  10  22  39  59  83 118 154 187 236 295 347
#     4  10  21  38  60  85 111 150 198 238 281 343
#     4  10  20  36  56  81 114 152 190 237 287 334
#     4  11  21  38  61  85 115 150 188 238 291 343
#     4  11  22  36  53  78 117 157 194 235 289 347
#
# _framework density 19.840931999999999
#
# number of rings (size 3 to 8) (size 9 to 14) (size 15 to 20)
#    0.000    1.500    2.500    3.375    0.000    4.000 
#    0.000    1.875    0.000    0.000    0.000    0.000 
#    0.000    0.000    0.000    0.000    0.000    0.000 
#
# Total GULP energy -396774.322977 kJ/mol
# GULP energy per Si atom -12399.197593 kJ/mol
# Density = 1.979577 g / cm^3
# Si number density = 19.840932 Si / 1000 Ang^3
#
#
#
# Elastic Constant Matrix: (Units=GPa)
#
#
# Indices 1 2 3 4 5 6 
#
# 1 78.8349 19.5910 38.1251 0.0000 8.5663 0.0000
# 2 19.5910 57.0148 29.9660 0.0000 0.4331 0.0000
# 3 38.1251 29.9660 119.6705 0.0000 1.3305 0.0000
# 4 0.0000 0.0000 0.0000 33.0662 0.0000 -4.4247
# 5 8.5663 0.4331 1.3305 0.0000 28.5308 0.0000
# 6 0.0000 0.0000 0.0000 -4.4247 0.0000 19.2652
#
#
#
# Elastic Compliance Matrix: (Units=1/GPa)
#
#
# Indices 1 2 3 4 5 6 
#
# 1 0.016042 -0.003245 -0.004247 0.000000 -0.004569 0.000000
# 2 -0.003245 0.020854 -0.004198 0.000000 0.000854 0.000000
# 3 -0.004247 -0.004198 0.010751 0.000000 0.000838 0.000000
# 4 0.000000 0.000000 0.000000 0.031201 0.000000 0.007166
# 5 -0.004569 0.000854 0.000838 0.000000 0.036370 0.000000
# 6 0.000000 0.000000 0.000000 0.007166 0.000000 0.053553
#
#
# Mechanical properties :
#
#
# Convention : Reuss Voigt Hill
#
# Bulk Modulus (GPa) = 41.20824 47.87604 44.54214
# Shear Modulus (GPa) = 24.97009 27.36166 26.16588
#
# Velocity S-wave (km/s) = 3.55140 3.71759 3.63544
# Velocity P-wave (km/s) = 6.13441 6.52760 6.33406
#
# Compressibility (1/GPa) = 0.02426699
#
# Stress axis : x y z
#
# Youngs Moduli (GPa) = 62.33780 47.95228 93.01330
#
# Poissons Ratio (x) = 0.15561 0.39505
# Poissons Ratio (y) = 0.20229 0.39043
# Poissons Ratio (z) = 0.26476 0.20128
#
# Static dielectric constant tensor:
#      x y z
#    x 3.670140 0.000000 -0.023400 
#    y 0.000000 3.415530 0.000000 
#    z -0.023400 0.000000 3.854620 
# 
# 
# High freq. dielectric constant tensor:
#      x y z
#    x 1.766760 0.000000 0.001370 
#    y 0.000000 1.757420 0.000000 
#    z 0.001370 0.000000 1.780530 
# 
# From -- ./inp_files/38121.got.cif
#   From: 2010.06.25/outbox.cif.g09.slc.cpg/sg11_20_cif.got.tgz:38121.got - 2010.06.27 23:14:04.
