data_PCOD8074888
_publ_section_title
;
Structure prediction by ZEFSAII (Michael W. Deem and Ramdas Pophale) SiO2 
 PCOD8074888
Probable space group: P 21/M
;
_chemical_formula_sum "Si O2"
_cell_formula_units_Z 28
_cell_length_a 9.690280
_cell_length_b 8.661156
_cell_length_c 26.776737
_cell_angle_alpha 90.000000
_cell_angle_beta 38.257055
_cell_angle_gamma 90.000000
_cell_volume 1391.535291
_symmetry_space_group_name_H-M "P 21/M"
_symmetry_group_IT_number 11
_symmetry_cell_setting 'monoclinic'
loop_
_space_group_symop_operation_xyz
x,y,z
-x,1/2+y,-z
-x,-y,-z
x,1/2-y,z
loop_
_atom_site_type_symbol
_atom_site_label
_atom_site_fract_x
_atom_site_fract_y
_atom_site_fract_z
Si Si1 0.897139 0.931780 0.187868
Si Si2 0.516495 0.431003 0.235350
Si Si3 0.243846 0.931510 0.934968
Si Si4 0.956405 0.432729 0.647131
Si Si5 0.842900 0.432932 0.308325
Si Si6 0.684313 0.932364 0.983471
Si Si7 0.404050 0.071424 0.478467
O O1 0.930553 0.750000 0.175317
O O2 0.651058 0.979807 0.240129
O O3 0.943939 0.987819 0.230747
O O4 0.070443 0.013042 0.101641
O O5 0.533450 0.250000 0.241409
O O6 0.613721 0.475075 0.153864
O O7 0.263003 0.484741 0.310220
O O8 0.225915 0.750000 0.948077
O O9 0.370455 0.007708 0.945596
O O10 0.000000 0.000000 0.000000
O O11 0.918702 0.250000 0.663466
O O12 0.030337 0.500443 0.679543
O O13 0.141433 0.472292 0.550972
O O14 0.885099 0.250000 0.293857
O O15 0.574639 0.474527 0.385307
O O16 0.674115 0.750000 0.985219
O O17 0.500000 0.000000 0.000000
O O18 0.425188 0.250000 0.481178
O O19 0.500000 0.000000 0.500000
#
# Coordination Sequence:
#
# PCOD8074888 Si02
#       7
#     4   4   4   4   4   4   4
#     4  12  25  42  62  87 120 157 198 245 299 353
#     4  11  24  41  61  87 120 158 198 243 296 353
#     4  11  23  41  65  89 118 157 201 242 292 351
#     4  10  20  36  60  91 122 154 199 246 291 349
#     4  10  20  37  61  88 121 158 197 243 298 353
#     4  12  26  44  65  90 122 157 197 245 296 349
#     4   8  16  32  56  85 117 154 194 240 291 347
#
# _framework density 20.121659999999999
#
# number of rings (size 3 to 8) (size 9 to 14) (size 15 to 20)
#    0.000    1.429    1.429    4.286    2.000    2.857 
#    0.000    0.714    0.000    0.000    0.000    0.000 
#    0.000    0.000    0.000    0.000    0.000    0.000 
#
# Total GULP energy -347113.180910 kJ/mol
# GULP energy per Si atom -12396.899318 kJ/mol
# Density = 2.007586 g / cm^3
# Si number density = 20.121660 Si / 1000 Ang^3
#
#
#
# Elastic Constant Matrix: (Units=GPa)
#
#
# Indices 1 2 3 4 5 6 
#
# 1 76.8549 13.9543 -1.5700 0.0000 -10.2511 0.0000
# 2 13.9543 89.0822 12.9496 0.0000 0.2844 0.0000
# 3 -1.5700 12.9496 49.3289 0.0000 -14.5784 0.0000
# 4 0.0000 0.0000 0.0000 30.7588 0.0000 -3.6098
# 5 -10.2511 0.2844 -14.5784 0.0000 33.4623 0.0000
# 6 0.0000 0.0000 0.0000 -3.6098 0.0000 36.8690
#
#
#
# Elastic Compliance Matrix: (Units=1/GPa)
#
#
# Indices 1 2 3 4 5 6 
#
# 1 0.014305 -0.002669 0.002821 0.000000 0.005634 0.000000
# 2 -0.002669 0.012248 -0.004101 0.000000 -0.002708 0.000000
# 3 0.002821 -0.004101 0.024912 0.000000 0.011752 0.000000
# 4 0.000000 0.000000 0.000000 0.032889 0.000000 0.003220
# 5 0.005634 -0.002708 0.011752 0.000000 0.036753 0.000000
# 6 0.000000 0.000000 0.000000 0.003220 0.000000 0.027438
#
#
# Mechanical properties :
#
#
# Convention : Reuss Voigt Hill
#
# Bulk Modulus (GPa) = 22.95265 29.54819 26.25042
# Shear Modulus (GPa) = 29.24560 32.88016 31.06288
#
# Velocity S-wave (km/s) = 3.81653 4.04675 3.93332
# Velocity P-wave (km/s) = 5.55454 6.04579 5.80536
#
# Compressibility (1/GPa) = 0.04356795
#
# Stress axis : x y z
#
# Youngs Moduli (GPa) = 69.90449 81.64322 40.14194
#
# Poissons Ratio (x) = 0.21790 -0.11324
# Poissons Ratio (y) = 0.18657 0.16461
# Poissons Ratio (z) = -0.19720 0.33480
#
# Static dielectric constant tensor:
#      x y z
#    x 3.551130 0.000000 -0.006180 
#    y 0.000000 3.766920 0.000000 
#    z -0.006180 0.000000 4.234080 
# 
# 
# High freq. dielectric constant tensor:
#      x y z
#    x 1.772790 0.000000 -0.007320 
#    y 0.000000 1.800080 0.000000 
#    z -0.007320 0.000000 1.797490 
# 
# From -- ./inp_files/70818.got.cif
#   From: 2010.06.25/outbox.cif.g09.slc.cpg/sg11_36_cif.got.tgz:70818.got - 2010.06.27 23:14:04.
