data_PCOD8074749
_publ_section_title
;
Structure prediction by ZEFSAII (Michael W. Deem and Ramdas Pophale) SiO2 
 PCOD8074749
Probable space group: P 21/M
;
_chemical_formula_sum "Si O2"
_cell_formula_units_Z 32
_cell_length_a 27.578739
_cell_length_b 8.934905
_cell_length_c 21.246810
_cell_angle_alpha 90.000000
_cell_angle_beta 18.984605
_cell_angle_gamma 90.000000
_cell_volume 1703.181572
_symmetry_space_group_name_H-M "P 21/M"
_symmetry_group_IT_number 11
_symmetry_cell_setting 'monoclinic'
loop_
_space_group_symop_operation_xyz
x,y,z
-x,1/2+y,-z
-x,-y,-z
x,1/2-y,z
loop_
_atom_site_type_symbol
_atom_site_label
_atom_site_fract_x
_atom_site_fract_y
_atom_site_fract_z
Si Si1 0.150076 0.575418 0.182582
Si Si2 0.568536 0.075922 0.476569
Si Si3 0.676531 0.574984 0.534428
Si Si4 0.681279 0.423891 0.897276
Si Si5 0.404948 0.422935 0.804993
Si Si6 0.364715 0.924250 0.291833
Si Si7 0.839225 0.076254 0.574674
Si Si8 0.841849 0.573375 0.205814
O O1 0.160538 0.750000 0.155052
O O2 0.215804 0.534670 0.170032
O O3 0.980661 0.524988 0.386946
O O4 0.239945 0.487341 0.017975
O O5 0.600113 0.250000 0.425177
O O6 0.449404 0.051980 0.678176
O O7 0.500000 0.000000 0.500000
O O8 0.724154 0.996801 0.301945
O O9 0.659821 0.750000 0.564136
O O10 0.514222 0.512654 0.716721
O O11 0.726181 0.502136 0.539403
O O12 0.795233 0.534778 0.334593
O O13 0.636957 0.250000 0.950775
O O14 0.773398 0.469568 0.722677
O O15 0.532408 0.519148 0.082045
O O16 0.412547 0.250000 0.814520
O O17 0.366035 0.750000 0.304306
O O18 0.284033 0.962846 0.325928
O O19 0.885501 0.250000 0.516065
O O20 0.849065 0.750000 0.185155
O O21 0.000000 0.500000 0.000000
#
# Coordination Sequence:
#
# PCOD8074749 Si02
#       8
#     4   4   4   4   4   4   4   4
#     4  11  22  36  58  86 113 149 192 235 287 339
#     4  10  21  38  61  89 119 153 192 235 285 341
#     4  10  20  36  59  85 114 149 191 235 280 334
#     4  10  21  38  60  83 111 147 191 239 285 342
#     4  10  20  36  60  86 114 150 191 234 279 333
#     4  11  22  36  58  85 112 150 193 234 285 339
#     4  10  23  40  55  80 117 152 189 237 289 340
#     4  10  21  38  61  88 118 153 192 238 288 340
#
# _framework density 18.788367999999998
#
# number of rings (size 3 to 8) (size 9 to 14) (size 15 to 20)
#    0.000    1.750    1.250    3.000    0.000    5.000 
#    2.250    0.000    0.000    0.000    0.000    0.000 
#    0.000    0.000    0.000    0.000    0.000    0.000 
#
# Total GULP energy -396960.670153 kJ/mol
# GULP energy per Si atom -12405.020942 kJ/mol
# Density = 1.874560 g / cm^3
# Si number density = 18.788368 Si / 1000 Ang^3
#
#
#
# Elastic Constant Matrix: (Units=GPa)
#
#
# Indices 1 2 3 4 5 6 
#
# 1 74.8988 42.6351 37.7460 0.0000 3.8697 0.0000
# 2 42.6351 91.4698 52.7719 0.0000 -0.1715 0.0000
# 3 37.7460 52.7719 115.9768 0.0000 3.0497 0.0000
# 4 0.0000 0.0000 0.0000 36.2540 0.0000 -0.9988
# 5 3.8697 -0.1715 3.0497 0.0000 23.0411 0.0000
# 6 0.0000 0.0000 0.0000 -0.9988 0.0000 31.8171
#
#
#
# Elastic Compliance Matrix: (Units=1/GPa)
#
#
# Indices 1 2 3 4 5 6 
#
# 1 0.019055 -0.007258 -0.002823 0.000000 -0.002880 0.000000
# 2 -0.007258 0.017612 -0.005707 0.000000 0.002105 0.000000
# 3 -0.002823 -0.005707 0.012169 0.000000 -0.001179 0.000000
# 4 0.000000 0.000000 0.000000 0.027607 0.000000 0.000867
# 5 -0.002880 0.002105 -0.001179 0.000000 0.044056 0.000000
# 6 0.000000 0.000000 0.000000 0.000867 0.000000 0.031457
#
#
# Mechanical properties :
#
#
# Convention : Reuss Voigt Hill
#
# Bulk Modulus (GPa) = 57.94045 60.96127 59.45086
# Shear Modulus (GPa) = 26.41512 28.16861 27.29187
#
# Velocity S-wave (km/s) = 3.75364 3.87623 3.81543
# Velocity P-wave (km/s) = 7.04924 7.24915 7.14990
#
# Compressibility (1/GPa) = 0.01725910
#
# Stress axis : x y z
#
# Youngs Moduli (GPa) = 52.48088 56.77886 82.17555
#
# Poissons Ratio (x) = 0.41211 0.23200
# Poissons Ratio (y) = 0.38091 0.46898
# Poissons Ratio (z) = 0.14816 0.32404
#
# Static dielectric constant tensor:
#      x y z
#    x 3.595520 0.000000 0.194180 
#    y 0.000000 3.551830 0.000000 
#    z 0.194180 0.000000 3.435270 
# 
# 
# High freq. dielectric constant tensor:
#      x y z
#    x 1.730560 0.000000 0.011190 
#    y 0.000000 1.742710 0.000000 
#    z 0.011190 0.000000 1.730720 
# 
# From -- ./inp_files/66990.got.cif
#   From: 2010.06.25/outbox.cif.g09.slc.cpg/sg11_34_cif.got.tgz:66990.got - 2010.06.27 23:14:04.
