data_PCOD8074812
_publ_section_title
;
Structure prediction by ZEFSAII (Michael W. Deem and Ramdas Pophale) SiO2 
 PCOD8074812
Probable space group: P 21/M
;
_chemical_formula_sum "Si O2"
_cell_formula_units_Z 32
_cell_length_a 17.744884
_cell_length_b 14.937669
_cell_length_c 12.521768
_cell_angle_alpha 90.000000
_cell_angle_beta 151.067627
_cell_angle_gamma 90.000000
_cell_volume 1605.708950
_symmetry_space_group_name_H-M "P 21/M"
_symmetry_group_IT_number 11
_symmetry_cell_setting 'monoclinic'
loop_
_space_group_symop_operation_xyz
x,y,z
-x,1/2+y,-z
-x,-y,-z
x,1/2-y,z
loop_
_atom_site_type_symbol
_atom_site_label
_atom_site_fract_x
_atom_site_fract_y
_atom_site_fract_z
Si Si1 0.339958 0.846729 0.474543
Si Si2 0.884696 0.852062 0.086415
Si Si3 0.250882 0.995685 0.765207
Si Si4 0.016439 0.141485 0.551611
Si Si5 0.594184 0.495312 0.270495
Si Si6 0.983075 0.103846 0.964669
Si Si7 0.296318 0.152550 0.453376
Si Si8 0.580699 0.906280 0.615743
O O1 0.328010 0.750000 0.515322
O O2 0.364040 0.917408 0.596939
O O3 0.478489 0.842252 0.561891
O O4 0.189250 0.867778 0.213989
O O5 0.824174 0.750000 0.008772
O O6 0.952092 0.876251 0.284873
O O7 0.014781 0.867241 0.157550
O O8 0.744202 0.918430 0.880430
O O9 0.152480 0.089208 0.654280
O O10 0.311097 0.979464 0.720275
O O11 0.406843 0.001967 0.029492
O O12 0.147850 0.909354 0.675388
O O13 0.011154 0.250000 0.518789
O O14 0.657426 0.587590 0.394848
O O15 0.113051 0.150910 0.197694
O O16 0.000000 0.000000 0.000000
O O17 0.336500 0.250000 0.547874
O O18 0.395447 0.135820 0.470280
O O19 0.500000 0.000000 0.500000
#
# Coordination Sequence:
#
# PCOD8074812 Si02
#       8
#     4   4   4   4   4   4   4   4
#     4  12  22  36  61  94 122 151 200 256 297 346
#     4  10  20  36  60  85 115 155 197 238 294 357
#     4  10  24  42  64  90 124 154 204 268 306 358
#     4  10  22  42  67  92 116 156 205 257 314 361
#     4  11  23  42  61  91 122 163 206 250 312 360
#     4  11  20  36  56  88 125 157 192 242 289 359
#     4  11  23  40  58  83 123 169 199 230 296 371
#     4  11  20  36  56  88 125 157 192 242 289 359
#
# _framework density 19.928892000000001
#
# number of rings (size 3 to 8) (size 9 to 14) (size 15 to 20)
#    0.000    1.250    2.500    5.250    0.000    4.000 
#    0.000    2.500    0.000    1.500    0.000    0.000 
#    0.000    0.000    0.000    0.000    0.000    0.000 
#
# Total GULP energy -396658.828908 kJ/mol
# GULP energy per Si atom -12395.588403 kJ/mol
# Density = 1.988353 g / cm^3
# Si number density = 19.928892 Si / 1000 Ang^3
#
#
#
# Elastic Constant Matrix: (Units=GPa)
#
#
# Indices 1 2 3 4 5 6 
#
# 1 50.4845 7.3554 28.0886 0.0000 12.5572 0.0000
# 2 7.3554 144.5450 40.9691 0.0000 1.5387 0.0000
# 3 28.0886 40.9691 90.5937 0.0000 15.2189 0.0000
# 4 0.0000 0.0000 0.0000 -7.9026 0.0000 27.1254
# 5 12.5572 1.5387 15.2189 0.0000 21.1257 0.0000
# 6 0.0000 0.0000 0.0000 27.1254 0.0000 4.0262
#
#
#
# Elastic Compliance Matrix: (Units=1/GPa)
#
#
# Indices 1 2 3 4 5 6 
#
# 1 0.026048 0.000647 -0.006553 0.000000 -0.010810 0.000000
# 2 0.000647 0.008049 -0.004184 0.000000 0.002043 0.000000
# 3 -0.006553 -0.004184 0.016220 0.000000 -0.007485 0.000000
# 4 0.000000 0.000000 0.000000 -0.005245 0.000000 0.035338
# 5 -0.010810 0.002043 -0.007485 0.000000 0.059004 0.000000
# 6 0.000000 0.000000 0.000000 0.035338 0.000000 0.010295
#
#
# Mechanical properties :
#
#
# Convention : Reuss Voigt Hill
#
# Bulk Modulus (GPa) = 33.18147 48.71661 40.94904
# Shear Modulus (GPa) = 34.57865 17.39719 25.98792
#
# Velocity S-wave (km/s) = 4.16997 2.95780 3.61506
# Velocity P-wave (km/s) = 6.31435 6.01357 6.16579
#
# Compressibility (1/GPa) = 0.03013730
#
# Stress axis : x y z
#
# Youngs Moduli (GPa) = 38.38995 124.23142 61.65398
#
# Poissons Ratio (x) = -0.08036 0.40401
# Poissons Ratio (y) = -0.02483 0.25796
# Poissons Ratio (z) = 0.25157 0.51979
#
# Static dielectric constant tensor:
#      x y z
#    x 3.507170 0.000000 0.025710 
#    y 0.000000 3.607760 0.000000 
#    z 0.025710 0.000000 3.590140 
# 
# 
# High freq. dielectric constant tensor:
#      x y z
#    x 1.776690 0.000000 0.017700 
#    y 0.000000 1.786230 0.000000 
#    z 0.017700 0.000000 1.779000 
# 
# From -- ./inp_files/41703.got.cif
#   From: 2010.06.25/outbox.cif.g09.slc.cpg/sg11_21_cif.got.tgz:41703.got - 2010.06.27 23:14:04.
