data_PCOD8074656
_publ_section_title
;
Structure prediction by ZEFSAII (Michael W. Deem and Ramdas Pophale) SiO2 
 PCOD8074656
Probable space group: P 21/M
;
_chemical_formula_sum "Si O2"
_cell_formula_units_Z 28
_cell_length_a 18.264536
_cell_length_b 9.024494
_cell_length_c 18.261370
_cell_angle_alpha 90.000000
_cell_angle_beta 150.785447
_cell_angle_gamma 90.000000
_cell_volume 1469.119372
_symmetry_space_group_name_H-M "P 21/M"
_symmetry_group_IT_number 11
_symmetry_cell_setting 'monoclinic'
loop_
_space_group_symop_operation_xyz
x,y,z
-x,1/2+y,-z
-x,-y,-z
x,1/2-y,z
loop_
_atom_site_type_symbol
_atom_site_label
_atom_site_fract_x
_atom_site_fract_y
_atom_site_fract_z
Si Si1 0.994125 0.921309 0.215522
Si Si2 0.736738 0.919193 0.103666
Si Si3 0.614971 0.584727 0.550647
Si Si4 0.046302 0.418516 0.113367
Si Si5 0.285459 0.073457 0.518155
Si Si6 0.592619 0.077110 0.235319
Si Si7 0.847931 0.423599 0.342914
O O1 0.037823 0.750000 0.242563
O O2 0.835820 0.938598 0.117665
O O3 0.975041 0.998805 0.120575
O O4 0.121541 0.998666 0.376370
O O5 0.742498 0.750000 0.136952
O O6 0.799922 0.024935 0.221055
O O7 0.567745 0.966826 0.937639
O O8 0.500000 0.500000 0.500000
O O9 0.553161 0.750000 0.491732
O O10 0.775319 0.577551 0.728692
O O11 0.627612 0.520220 0.479311
O O12 0.986665 0.250000 0.061082
O O13 0.000000 0.500000 0.000000
O O14 0.263014 0.250000 0.498673
O O15 0.382385 0.020783 0.671079
O O16 0.599664 0.250000 0.262505
O O17 0.717667 0.033331 0.285640
O O18 0.876883 0.250000 0.366386
O O19 0.000000 0.500000 0.500000
#
# Coordination Sequence:
#
# PCOD8074656 Si02
#       7
#     4   4   4   4   4   4   4
#     4  10  20  36  58  82 108 143 184 226 273 326
#     4  10  22  39  58  82 113 144 181 228 275 323
#     4   9  20  36  54  79 109 141 181 225 270 320
#     4  10  21  37  56  81 112 145 183 227 273 326
#     4  10  21  37  56  81 111 144 184 227 269 324
#     4  10  22  39  57  81 112 146 181 223 275 326
#     4  11  23  38  59  84 111 145 185 224 269 325
#
# _framework density 19.059035999999999
#
# number of rings (size 3 to 8) (size 9 to 14) (size 15 to 20)
#    0.000    2.000    0.000    3.857    0.000   10.857 
#    0.000    4.286    0.000    0.000    0.000    0.000 
#    0.000    0.000    0.000    0.000    0.000    0.000 
#
# Total GULP energy -347298.141258 kJ/mol
# GULP energy per Si atom -12403.505045 kJ/mol
# Density = 1.901566 g / cm^3
# Si number density = 19.059036 Si / 1000 Ang^3
#
#
#
# Elastic Constant Matrix: (Units=GPa)
#
#
# Indices 1 2 3 4 5 6 
#
# 1 118.7539 61.9685 71.2248 0.0000 3.4637 0.0000
# 2 61.9685 104.3276 58.7026 0.0000 -2.5692 0.0000
# 3 71.2248 58.7026 122.5320 0.0000 -4.8730 0.0000
# 4 0.0000 0.0000 0.0000 36.8207 0.0000 -5.4618
# 5 3.4637 -2.5692 -4.8730 0.0000 38.7461 0.0000
# 6 0.0000 0.0000 0.0000 -5.4618 0.0000 34.7251
#
#
#
# Elastic Compliance Matrix: (Units=1/GPa)
#
#
# Indices 1 2 3 4 5 6 
#
# 1 0.015124 -0.005534 -0.006239 0.000000 -0.002504 0.000000
# 2 -0.005534 0.015148 -0.004001 0.000000 0.000996 0.000000
# 3 -0.006239 -0.004001 0.013785 0.000000 0.002026 0.000000
# 4 0.000000 0.000000 0.000000 0.027807 0.000000 0.004374
# 5 -0.002504 0.000996 0.002026 0.000000 0.026354 0.000000
# 6 0.000000 0.000000 0.000000 0.004374 0.000000 0.029486
#
#
# Mechanical properties :
#
#
# Convention : Reuss Voigt Hill
#
# Bulk Modulus (GPa) = 79.94482 81.04505 80.49493
# Shear Modulus (GPa) = 30.59574 32.30621 31.45097
#
# Velocity S-wave (km/s) = 4.01098 4.12158 4.06666
# Velocity P-wave (km/s) = 7.96791 8.07870 8.02349
#
# Compressibility (1/GPa) = 0.01250863
#
# Stress axis : x y z
#
# Youngs Moduli (GPa) = 66.12072 66.01554 72.54213
#
# Poissons Ratio (x) = 0.36534 0.45262
# Poissons Ratio (y) = 0.36592 0.29021
# Poissons Ratio (z) = 0.41255 0.26410
#
# Static dielectric constant tensor:
#      x y z
#    x 5.370180 0.000000 -1.924060 
#    y 0.000000 3.707970 0.000000 
#    z -1.924060 0.000000 5.576880 
# 
# 
# High freq. dielectric constant tensor:
#      x y z
#    x 1.751570 0.000000 -0.002070 
#    y 0.000000 1.749070 0.000000 
#    z -0.002070 0.000000 1.741520 
# 
# From -- ./inp_files/28642.got.cif
#   From: 2010.06.25/outbox.cif.g09.slc.cpg/sg11_15_cif.got.tgz:28642.got - 2010.06.27 23:14:04.
