data_PCOD8074588
_publ_section_title
;
Structure prediction by ZEFSAII (Michael W. Deem and Ramdas Pophale) SiO2 
 PCOD8074588
Probable space group: P 21/M
;
_chemical_formula_sum "Si O2"
_cell_formula_units_Z 28
_cell_length_a 23.057850
_cell_length_b 8.996340
_cell_length_c 20.083215
_cell_angle_alpha 90.000000
_cell_angle_beta 20.145622
_cell_angle_gamma 90.000000
_cell_volume 1434.796505
_symmetry_space_group_name_H-M "P 21/M"
_symmetry_group_IT_number 11
_symmetry_cell_setting 'monoclinic'
loop_
_space_group_symop_operation_xyz
x,y,z
-x,1/2+y,-z
-x,-y,-z
x,1/2-y,z
loop_
_atom_site_type_symbol
_atom_site_label
_atom_site_fract_x
_atom_site_fract_y
_atom_site_fract_z
Si Si1 0.259114 0.926073 0.080256
Si Si2 0.320786 0.425522 0.879895
Si Si3 0.468026 0.073150 0.104749
Si Si4 0.984684 0.577114 0.204633
Si Si5 0.091825 0.585970 0.842724
Si Si6 0.530357 0.410497 0.533082
Si Si7 0.884240 0.921121 0.458677
O O1 0.254697 0.750000 0.075226
O O2 0.063203 0.986099 0.295168
O O3 0.372894 0.973562 0.020511
O O4 0.352672 0.993891 0.915546
O O5 0.328110 0.250000 0.884515
O O6 0.458938 0.483555 0.677849
O O7 0.145899 0.474208 0.037052
O O8 0.461415 0.250000 0.105703
O O9 0.287463 0.008608 0.325791
O O10 0.500000 0.000000 0.000000
O O11 0.033647 0.750000 0.142833
O O12 0.890110 0.515926 0.242159
O O13 0.872302 0.555682 0.391996
O O14 0.009778 0.750000 0.917313
O O15 0.274878 0.614020 0.671674
O O16 0.000000 0.500000 0.000000
O O17 0.500000 0.500000 0.500000
O O18 0.440067 0.250000 0.622174
O O19 0.882754 0.750000 0.479651
#
# Coordination Sequence:
#
# PCOD8074588 Si02
#       7
#     4   4   4   4   4   4   4
#     4   9  19  36  58  82 111 149 191 231 280 342
#     4  10  20  36  57  82 111 143 181 231 285 333
#     4  10  21  37  57  83 115 150 188 234 285 340
#     4  10  20  36  58  83 109 143 185 230 281 337
#     4  11  23  38  54  78 110 145 186 233 281 334
#     4  10  23  38  53  76 108 144 183 229 279 332
#     4   8  17  35  56  80 112 146 185 231 279 336
#
# _framework density 19.514963999999999
#
# number of rings (size 3 to 8) (size 9 to 14) (size 15 to 20)
#    0.000    2.286    0.000    3.000    2.000    5.714 
#    0.000    3.571    0.000    0.000    0.000    0.000 
#    0.000    0.000    0.000    0.000    0.000    0.000 
#
# Total GULP energy -346959.149798 kJ/mol
# GULP energy per Si atom -12391.398207 kJ/mol
# Density = 1.947055 g / cm^3
# Si number density = 19.514964 Si / 1000 Ang^3
#
#
#
# Elastic Constant Matrix: (Units=GPa)
#
#
# Indices 1 2 3 4 5 6 
#
# 1 155.9404 44.9030 68.8276 0.0000 7.1590 0.0000
# 2 44.9030 40.5088 28.1825 0.0000 7.9217 0.0000
# 3 68.8276 28.1825 131.1799 0.0000 16.1880 0.0000
# 4 0.0000 0.0000 0.0000 22.2151 0.0000 5.7036
# 5 7.1590 7.9217 16.1880 0.0000 29.7354 0.0000
# 6 0.0000 0.0000 0.0000 5.7036 0.0000 34.2764
#
#
#
# Elastic Compliance Matrix: (Units=1/GPa)
#
#
# Indices 1 2 3 4 5 6 
#
# 1 0.010811 -0.009718 -0.003841 0.000000 0.002077 0.000000
# 2 -0.009718 0.038371 -0.002329 0.000000 -0.006615 0.000000
# 3 -0.003841 -0.002329 0.010664 0.000000 -0.004261 0.000000
# 4 0.000000 0.000000 0.000000 0.047023 0.000000 -0.007825
# 5 0.002077 -0.006615 -0.004261 0.000000 0.037212 0.000000
# 6 0.000000 0.000000 0.000000 -0.007825 0.000000 0.030477
#
#
# Mechanical properties :
#
#
# Convention : Reuss Voigt Hill
#
# Bulk Modulus (GPa) = 35.62215 67.93948 51.78081
# Shear Modulus (GPa) = 23.18144 29.62643 26.40394
#
# Velocity S-wave (km/s) = 3.45030 3.90056 3.68232
# Velocity P-wave (km/s) = 5.84518 7.42802 6.68362
#
# Compressibility (1/GPa) = 0.02807242
#
# Stress axis : x y z
#
# Youngs Moduli (GPa) = 92.50075 26.06108 93.77009
#
# Poissons Ratio (x) = 0.25325 0.36015
# Poissons Ratio (y) = 0.89888 0.21837
# Poissons Ratio (z) = 0.35528 0.06069
#
# Static dielectric constant tensor:
#      x y z
#    x 3.674570 0.000000 0.050210 
#    y 0.000000 3.363910 0.000000 
#    z 0.050210 0.000000 3.939060 
# 
# 
# High freq. dielectric constant tensor:
#      x y z
#    x 1.762080 0.000000 0.001560 
#    y 0.000000 1.746900 0.000000 
#    z 0.001560 0.000000 1.764900 
# 
# From -- ./inp_files/66660.got.cif
#   From: 2010.06.25/outbox.cif.g09.slc.cpg/sg11_34_cif.got.tgz:66660.got - 2010.06.27 23:14:04.
