data_PCOD8074975
_publ_section_title
;
Structure prediction by ZEFSAII (Michael W. Deem and Ramdas Pophale) SiO2 
 PCOD8074975
Probable space group: P 21/M
;
_chemical_formula_sum "Si O2"
_cell_formula_units_Z 20
_cell_length_a 8.826815
_cell_length_b 9.742519
_cell_length_c 12.823303
_cell_angle_alpha 90.000000
_cell_angle_beta 65.385939
_cell_angle_gamma 90.000000
_cell_volume 1002.543101
_symmetry_space_group_name_H-M "P 21/M"
_symmetry_group_IT_number 11
_symmetry_cell_setting 'monoclinic'
loop_
_space_group_symop_operation_xyz
x,y,z
-x,1/2+y,-z
-x,-y,-z
x,1/2-y,z
loop_
_atom_site_type_symbol
_atom_site_label
_atom_site_fract_x
_atom_site_fract_y
_atom_site_fract_z
Si Si1 0.423830 0.469859 0.631672
Si Si2 0.590418 0.250000 0.091308
Si Si3 0.782716 0.750000 0.403617
Si Si4 0.880829 0.250000 0.781031
Si Si5 0.550012 0.250000 0.741518
Si Si6 0.327343 0.250000 0.994022
Si Si7 0.848681 0.029884 0.965250
Si Si8 0.483554 0.250000 0.335400
O O1 0.500000 0.500000 0.500000
O O2 0.259381 0.381711 0.656313
O O3 0.551841 0.385197 0.668175
O O4 0.393478 0.620445 0.686229
O O5 0.445876 0.250000 0.222136
O O6 0.499943 0.250000 0.006994
O O7 0.705489 0.114310 0.067121
O O8 0.684194 0.750000 0.543962
O O9 0.982457 0.750000 0.352595
O O10 0.706914 0.250000 0.771929
O O11 0.903034 0.115922 0.847498
O O12 0.379083 0.250000 0.857468
O O13 0.221591 0.384157 0.052762
O O14 0.000000 0.000000 0.000000
#
# Coordination Sequence:
#
# PCOD8074975 Si02
#       8
#     4   2   2   2   2   2   4   2
#     4   9  20  38  65  90 116 163 216 259 310 378
#     4  11  23  38  65  95 130 168 217 262 321 394
#     4   9  21  42  61  88 124 167 207 263 323 390
#     4  11  25  42  62  93 133 170 217 258 341 380
#     4  11  22  39  69  90 128 173 208 266 322 389
#     4  12  23  41  65  94 132 165 223 264 321 386
#     4  11  25  41  62  96 131 171 213 266 328 383
#     4  10  20  36  64  92 121 155 218 261 316 365
#
# _framework density 19.949266000000001
#
# number of rings (size 3 to 8) (size 9 to 14) (size 15 to 20)
#    0.000    1.600    2.000    3.600   11.200    0.000 
#    0.000    4.000    0.000    0.000    0.000    0.000 
#    0.000    0.000    0.000    0.000    0.000    0.000 
#
# Total GULP energy -247766.870546 kJ/mol
# GULP energy per Si atom -12388.343527 kJ/mol
# Density = 1.990386 g / cm^3
# Si number density = 19.949266 Si / 1000 Ang^3
#
#
#
# Elastic Constant Matrix: (Units=GPa)
#
#
# Indices 1 2 3 4 5 6 
#
# 1 103.4207 43.9268 36.7343 0.0000 7.6040 0.0000
# 2 43.9268 175.4627 36.5278 0.0000 2.8525 0.0000
# 3 36.7343 36.5278 121.8786 0.0000 -5.7398 0.0000
# 4 0.0000 0.0000 0.0000 27.2966 0.0000 12.1443
# 5 7.6040 2.8525 -5.7398 0.0000 35.2868 0.0000
# 6 0.0000 0.0000 0.0000 12.1443 0.0000 9.5627
#
#
#
# Elastic Compliance Matrix: (Units=1/GPa)
#
#
# Indices 1 2 3 4 5 6 
#
# 1 0.011943 -0.002310 -0.003043 0.000000 -0.002882 0.000000
# 2 -0.002310 0.006547 -0.001277 0.000000 -0.000239 0.000000
# 3 -0.003043 -0.001277 0.009614 0.000000 0.002323 0.000000
# 4 0.000000 0.000000 0.000000 0.084219 0.000000 -0.106955
# 5 -0.002882 -0.000239 0.002323 0.000000 0.029357 0.000000
# 6 0.000000 0.000000 0.000000 -0.106955 0.000000 0.240402
#
#
# Mechanical properties :
#
#
# Convention : Reuss Voigt Hill
#
# Bulk Modulus (GPa) = 67.36581 70.57108 68.96844
# Shear Modulus (GPa) = 12.49091 33.33410 22.91250
#
# Velocity S-wave (km/s) = 2.50498 4.09215 3.39269
# Velocity P-wave (km/s) = 6.49680 7.60130 7.07065
#
# Compressibility (1/GPa) = 0.01484433
#
# Stress axis : x y z
#
# Youngs Moduli (GPa) = 83.73112 152.73636 104.01120
#
# Poissons Ratio (x) = 0.35275 0.31652
# Poissons Ratio (y) = 0.19338 0.13287
# Poissons Ratio (z) = 0.25481 0.19511
#
# Static dielectric constant tensor:
#      x y z
#    x 3.318380 0.000000 -0.302180 
#    y 0.000000 -0.291760 0.000000 
#    z -0.302180 0.000000 2.505640 
# 
# 
# High freq. dielectric constant tensor:
#      x y z
#    x 1.748720 0.000000 0.008090 
#    y 0.000000 1.799550 0.000000 
#    z 0.008090 0.000000 1.786900 
# 
# From -- ./inp_files/27375.got.cif
#   From: 2010.06.25/outbox.cif.g09.slc.cpg/sg11_14_cif.got.tgz:27375.got - 2010.06.27 23:14:04.
