data_PCOD8074649
_publ_section_title
;
Structure prediction by ZEFSAII (Michael W. Deem and Ramdas Pophale) SiO2 
 PCOD8074649
Probable space group: P 21/M
;
_chemical_formula_sum "Si O2"
_cell_formula_units_Z 28
_cell_length_a 15.415310
_cell_length_b 9.109522
_cell_length_c 12.335509
_cell_angle_alpha 90.000000
_cell_angle_beta 53.771761
_cell_angle_gamma 90.000000
_cell_volume 1397.334435
_symmetry_space_group_name_H-M "P 21/M"
_symmetry_group_IT_number 11
_symmetry_cell_setting 'monoclinic'
loop_
_space_group_symop_operation_xyz
x,y,z
-x,1/2+y,-z
-x,-y,-z
x,1/2-y,z
loop_
_atom_site_type_symbol
_atom_site_label
_atom_site_fract_x
_atom_site_fract_y
_atom_site_fract_z
Si Si1 0.904326 0.411079 0.522148
Si Si2 0.038055 0.590487 0.765697
Si Si3 0.198960 0.424652 0.073172
Si Si4 0.358758 0.078342 0.767309
Si Si5 0.731470 0.425111 0.369924
Si Si6 0.715017 0.575664 0.758603
Si Si7 0.593677 0.078472 0.679069
O O1 0.890172 0.250000 0.588230
O O2 0.927788 0.382913 0.381343
O O3 0.801391 0.512162 0.611466
O O4 0.000000 0.500000 0.500000
O O5 0.022526 0.750000 0.833481
O O6 0.144865 0.512297 0.737529
O O7 0.922059 0.506928 0.855846
O O8 0.188139 0.250000 0.091566
O O9 0.255804 0.481677 0.141983
O O10 0.271554 0.474864 0.919747
O O11 0.346694 0.250000 0.752710
O O12 0.475632 0.038790 0.724824
O O13 0.342249 0.991609 0.668913
O O14 0.732123 0.250000 0.359329
O O15 0.679594 0.470240 0.523563
O O16 0.709797 0.750000 0.759162
O O17 0.607003 0.508268 0.784321
O O18 0.605621 0.250000 0.696022
#
# Coordination Sequence:
#
# PCOD8074649 Si02
#       7
#     4   4   4   4   4   4   4
#     4  11  19  32  54  83 117 150 183 227 282 333
#     4   9  17  32  55  79 110 147 175 213 279 336
#     4   9  19  36  55  80 114 151 183 218 278 341
#     4  10  22  39  58  78 108 149 192 233 274 330
#     4  10  20  36  58  81 108 143 184 231 287 333
#     4  11  21  34  57  86 113 147 187 229 278 336
#     4  10  21  38  58  82 111 145 183 234 292 331
#
# _framework density 20.038153000000001
#
# number of rings (size 3 to 8) (size 9 to 14) (size 15 to 20)
#    0.000    2.000    2.857    1.286    0.000    2.286 
#    0.000    1.429    0.000    0.000    0.000    0.000 
#    0.000    0.000    0.000    0.000    0.000    0.000 
#
# Total GULP energy -346883.625061 kJ/mol
# GULP energy per Si atom -12388.700895 kJ/mol
# Density = 1.999254 g / cm^3
# Si number density = 20.038153 Si / 1000 Ang^3
#
#
#
# Elastic Constant Matrix: (Units=GPa)
#
#
# Indices 1 2 3 4 5 6 
#
# 1 105.3123 25.5057 20.4571 0.0000 -16.9336 0.0000
# 2 25.5057 35.9290 4.5930 0.0000 0.2531 0.0000
# 3 20.4571 4.5930 55.2051 0.0000 -12.6091 0.0000
# 4 0.0000 0.0000 0.0000 14.3039 0.0000 2.7902
# 5 -16.9336 0.2531 -12.6091 0.0000 21.5354 0.0000
# 6 0.0000 0.0000 0.0000 2.7902 0.0000 24.3425
#
#
#
# Elastic Compliance Matrix: (Units=1/GPa)
#
#
# Indices 1 2 3 4 5 6 
#
# 1 0.013789 -0.009590 -0.002089 0.000000 0.009732 0.000000
# 2 -0.009590 0.034874 -0.001343 0.000000 -0.008737 0.000000
# 3 -0.002089 -0.001343 0.021504 0.000000 0.010964 0.000000
# 4 0.000000 0.000000 0.000000 0.071510 0.000000 -0.008197
# 5 0.009732 -0.008737 0.010964 0.000000 0.060610 0.000000
# 6 0.000000 0.000000 0.000000 -0.008197 0.000000 0.042020
#
#
# Mechanical properties :
#
#
# Convention : Reuss Voigt Hill
#
# Bulk Modulus (GPa) = 22.66426 33.06200 27.86313
# Shear Modulus (GPa) = 17.54023 21.76240 19.65131
#
# Velocity S-wave (km/s) = 2.96183 3.29910 3.13500
# Velocity P-wave (km/s) = 4.79913 5.57202 5.19996
#
# Compressibility (1/GPa) = 0.04412232
#
# Stress axis : x y z
#
# Youngs Moduli (GPa) = 72.52257 28.67476 46.50221
#
# Poissons Ratio (x) = 0.27499 0.09714
# Poissons Ratio (y) = 0.69550 0.06247
# Poissons Ratio (z) = 0.15150 0.03852
#
# Static dielectric constant tensor:
#      x y z
#    x 3.843190 0.000000 -0.171070 
#    y 0.000000 3.309190 0.000000 
#    z -0.171070 0.000000 3.536750 
# 
# 
# High freq. dielectric constant tensor:
#      x y z
#    x 1.807650 0.000000 -0.006050 
#    y 0.000000 1.744370 0.000000 
#    z -0.006050 0.000000 1.766550 
# 
# From -- ./inp_files/37887.got.cif
#   From: 2010.06.25/outbox.cif.g09.slc.cpg/sg11_19_cif.got.tgz:37887.got - 2010.06.27 23:14:04.
