data_PCOD8074539
_publ_section_title
;
Structure prediction by ZEFSAII (Michael W. Deem and Ramdas Pophale) SiO2 
 PCOD8074539
Probable space group: P 21/M
;
_chemical_formula_sum "Si O2"
_cell_formula_units_Z 32
_cell_length_a 13.901209
_cell_length_b 18.856562
_cell_length_c 8.476950
_cell_angle_alpha 90.000000
_cell_angle_beta 136.450784
_cell_angle_gamma 90.000000
_cell_volume 1530.945347
_symmetry_space_group_name_H-M "P 21/M"
_symmetry_group_IT_number 11
_symmetry_cell_setting 'monoclinic'
loop_
_space_group_symop_operation_xyz
x,y,z
-x,1/2+y,-z
-x,-y,-z
x,1/2-y,z
loop_
_atom_site_type_symbol
_atom_site_label
_atom_site_fract_x
_atom_site_fract_y
_atom_site_fract_z
Si Si1 0.403129 0.593047 0.581157
Si Si2 0.139581 0.544222 0.678916
Si Si3 0.378973 0.330735 0.354642
Si Si4 0.512160 0.671816 0.174454
Si Si5 0.872109 0.583747 0.830846
Si Si6 0.750693 0.171735 0.338216
Si Si7 0.840750 0.062441 0.940136
Si Si8 0.322312 0.037863 0.674173
O O1 0.554676 0.618590 0.700406
O O2 0.337571 0.654582 0.610577
O O3 0.303679 0.583171 0.312146
O O4 0.419762 0.519273 0.697294
O O5 0.129387 0.612928 0.549802
O O6 0.268628 0.495799 0.773447
O O7 0.000000 0.500000 0.500000
O O8 0.171151 0.574765 0.888351
O O9 0.377387 0.250000 0.292512
O O10 0.474615 0.339957 0.622992
O O11 0.219974 0.353014 0.205124
O O12 0.574618 0.750000 0.204121
O O13 0.593464 0.608873 0.180394
O O14 0.351140 0.668925 0.934536
O O15 0.876078 0.520369 0.960918
O O16 0.809510 0.556255 0.591261
O O17 0.030861 0.608582 0.982220
O O18 0.817469 0.250000 0.435468
#
# Coordination Sequence:
#
# PCOD8074539 Si02
#       8
#     4   4   4   4   4   4   4   4
#     4  10  21  35  60  86 116 154 196 240 289 346
#     4  11  21  36  61  84 111 150 194 240 281 342
#     4  10  20  36  56  83 116 154 195 241 291 347
#     4   9  19  36  58  82 117 151 188 237 291 346
#     4   9  19  35  56  81 118 149 187 240 292 340
#     4  10  22  39  57  83 117 150 189 241 292 344
#     4  10  20  36  60  86 113 149 192 244 285 344
#     4   9  19  35  57  87 113 148 194 236 293 338
#
# _framework density 20.902118000000002
#
# number of rings (size 3 to 8) (size 9 to 14) (size 15 to 20)
#    0.000    2.250    1.250    1.125    1.750    8.500 
#    0.000    3.125    0.000    0.000    0.000    0.000 
#    0.000    0.000    0.000    0.000    0.000    0.000 
#
# Total GULP energy -396733.157229 kJ/mol
# GULP energy per Si atom -12397.911163 kJ/mol
# Density = 2.085454 g / cm^3
# Si number density = 20.902118 Si / 1000 Ang^3
#
#
#
# Elastic Constant Matrix: (Units=GPa)
#
#
# Indices 1 2 3 4 5 6 
#
# 1 128.0227 63.4656 21.8172 0.0000 3.8581 0.0000
# 2 63.4656 143.8367 18.4038 0.0000 13.6916 0.0000
# 3 21.8172 18.4038 29.0926 0.0000 3.8033 0.0000
# 4 0.0000 0.0000 0.0000 24.3786 0.0000 4.2893
# 5 3.8581 13.6916 3.8033 0.0000 22.4556 0.0000
# 6 0.0000 0.0000 0.0000 4.2893 0.0000 28.0278
#
#
#
# Elastic Compliance Matrix: (Units=1/GPa)
#
#
# Indices 1 2 3 4 5 6 
#
# 1 0.010810 -0.004203 -0.005665 0.000000 0.001665 0.000000
# 2 -0.004203 0.009546 -0.002270 0.000000 -0.004714 0.000000
# 3 -0.005665 -0.002270 0.040650 0.000000 -0.004527 0.000000
# 4 0.000000 0.000000 0.000000 0.042155 0.000000 -0.006451
# 5 0.001665 -0.004714 -0.004527 0.000000 0.047887 0.000000
# 6 0.000000 0.000000 0.000000 -0.006451 0.000000 0.036666
#
#
# Mechanical properties :
#
#
# Convention : Reuss Voigt Hill
#
# Bulk Modulus (GPa) = 27.22745 56.48058 41.85402
# Shear Modulus (GPa) = 22.29802 28.12343 25.21073
#
# Velocity S-wave (km/s) = 3.26971 3.67206 3.47671
# Velocity P-wave (km/s) = 5.22581 6.71259 6.01531
#
# Compressibility (1/GPa) = 0.03672763
#
# Stress axis : x y z
#
# Youngs Moduli (GPa) = 92.50497 104.75345 24.60037
#
# Poissons Ratio (x) = 0.44033 0.13937
# Poissons Ratio (y) = 0.38884 0.05585
# Poissons Ratio (z) = 0.52408 0.23783
#
# Static dielectric constant tensor:
#      x y z
#    x 3.691130 0.000000 -0.070590 
#    y 0.000000 3.880890 0.000000 
#    z -0.070590 0.000000 3.625670 
# 
# 
# High freq. dielectric constant tensor:
#      x y z
#    x 1.812100 0.000000 -0.009700 
#    y 0.000000 1.812330 0.000000 
#    z -0.009700 0.000000 1.803700 
# 
# From -- ./inp_files/19408.got.cif
#   From: 2010.06.25/outbox.cif.g09.slc.cpg/sg11_10_cif.got.tgz:19408.got - 2010.06.27 23:14:04.
