data_PCOD8074555
_publ_section_title
;
Structure prediction by ZEFSAII (Michael W. Deem and Ramdas Pophale) SiO2 
 PCOD8074555
Probable space group: P 21/M
;
_chemical_formula_sum "Si O2"
_cell_formula_units_Z 24
_cell_length_a 16.211211
_cell_length_b 9.257521
_cell_length_c 14.627678
_cell_angle_alpha 90.000000
_cell_angle_beta 36.258453
_cell_angle_gamma 90.000000
_cell_volume 1298.338370
_symmetry_space_group_name_H-M "P 21/M"
_symmetry_group_IT_number 11
_symmetry_cell_setting 'monoclinic'
loop_
_space_group_symop_operation_xyz
x,y,z
-x,1/2+y,-z
-x,-y,-z
x,1/2-y,z
loop_
_atom_site_type_symbol
_atom_site_label
_atom_site_fract_x
_atom_site_fract_y
_atom_site_fract_z
Si Si1 0.886603 0.415819 0.044742
Si Si2 0.927548 0.080659 0.806739
Si Si3 0.245577 0.081311 0.530253
Si Si4 0.393492 0.417349 0.213380
Si Si5 0.697791 0.419318 0.875798
Si Si6 0.639269 0.417029 0.399354
O O1 0.935563 0.250000 0.998341
O O2 0.735486 0.432641 0.224343
O O3 0.882802 0.481119 0.945810
O O4 0.000000 0.500000 0.000000
O O5 0.900052 0.250000 0.831810
O O6 0.826654 0.015103 0.818933
O O7 0.087761 0.042996 0.641795
O O8 0.259507 0.250000 0.543787
O O9 0.347043 0.038706 0.356597
O O10 0.285224 0.986555 0.581560
O O11 0.363452 0.250000 0.222153
O O12 0.301409 0.504571 0.223026
O O13 0.556340 0.455125 0.057588
O O14 0.713257 0.250000 0.844098
O O15 0.500000 0.500000 0.500000
O O16 0.607035 0.250000 0.449574
#
# Coordination Sequence:
#
# PCOD8074555 Si02
#       6
#     4   4   4   4   4   4
#     4  10  20  36  58  81 110 145 183 223 270 326
#     4   9  18  33  55  80 105 140 179 217 269 325
#     4  10  20  36  57  79 109 144 180 224 274 326
#     4   9  19  34  54  78 106 140 178 222 271 321
#     4   9  18  34  55  76 103 140 180 221 269 325
#     4  11  24  38  56  83 114 148 186 226 273 325
#
# _framework density 18.485164999999999
#
# number of rings (size 3 to 8) (size 9 to 14) (size 15 to 20)
#    0.000    2.333    1.667    0.500    2.333    2.000 
#    0.000    1.667    0.000    0.000    0.000    0.000 
#    0.000    0.000    0.000    0.000    0.000    0.000 
#
# Total GULP energy -297623.841681 kJ/mol
# GULP energy per Si atom -12400.993403 kJ/mol
# Density = 1.844309 g / cm^3
# Si number density = 18.485165 Si / 1000 Ang^3
#
#
#
# Elastic Constant Matrix: (Units=GPa)
#
#
# Indices 1 2 3 4 5 6 
#
# 1 95.5693 32.9912 16.9849 0.0000 -14.4308 0.0000
# 2 32.9912 54.5258 27.1708 0.0000 -4.7044 0.0000
# 3 16.9849 27.1708 73.9524 0.0000 2.5797 0.0000
# 4 0.0000 0.0000 0.0000 21.4906 0.0000 0.7596
# 5 -14.4308 -4.7044 2.5797 0.0000 32.6014 0.0000
# 6 0.0000 0.0000 0.0000 0.7596 0.0000 33.7437
#
#
#
# Elastic Compliance Matrix: (Units=1/GPa)
#
#
# Indices 1 2 3 4 5 6 
#
# 1 0.014016 -0.007767 -0.000544 0.000000 0.005126 0.000000
# 2 -0.007767 0.027261 -0.008272 0.000000 0.001150 0.000000
# 3 -0.000544 -0.008272 0.016783 0.000000 -0.002763 0.000000
# 4 0.000000 0.000000 0.000000 0.046569 0.000000 -0.001048
# 5 0.005126 0.001150 -0.002763 0.000000 0.033327 0.000000
# 6 0.000000 0.000000 0.000000 -0.001048 0.000000 0.029659
#
#
# Mechanical properties :
#
#
# Convention : Reuss Voigt Hill
#
# Bulk Modulus (GPa) = 40.17228 42.03794 41.10511
# Shear Modulus (GPa) = 23.91455 27.36050 25.63752
#
# Velocity S-wave (km/s) = 3.60073 3.85142 3.72818
# Velocity P-wave (km/s) = 6.25031 6.52447 6.38886
#
# Compressibility (1/GPa) = 0.02489279
#
# Stress axis : x y z
#
# Youngs Moduli (GPa) = 71.34955 36.68299 59.58470
#
# Poissons Ratio (x) = 0.28491 0.03243
# Poissons Ratio (y) = 0.55415 0.49289
# Poissons Ratio (z) = 0.03883 0.30345
#
# Static dielectric constant tensor:
#      x y z
#    x 3.702120 0.000000 0.061350 
#    y 0.000000 3.252810 0.000000 
#    z 0.061350 0.000000 3.603020 
# 
# 
# High freq. dielectric constant tensor:
#      x y z
#    x 1.723270 0.000000 0.000750 
#    y 0.000000 1.695680 0.000000 
#    z 0.000750 0.000000 1.725580 
# 
# From -- ./inp_files/23744.got.cif
#   From: 2010.06.25/outbox.cif.g09.slc.cpg/sg11_12_cif.got.tgz:23744.got - 2010.06.27 23:14:04.
