data_PCOD8074877
_publ_section_title
;
Structure prediction by ZEFSAII (Michael W. Deem and Ramdas Pophale) SiO2 
 PCOD8074877
Probable space group: P 21/M
;
_chemical_formula_sum "Si O2"
_cell_formula_units_Z 32
_cell_length_a 11.786280
_cell_length_b 16.793466
_cell_length_c 14.197230
_cell_angle_alpha 90.000000
_cell_angle_beta 147.703402
_cell_angle_gamma 90.000000
_cell_volume 1501.438824
_symmetry_space_group_name_H-M "P 21/M"
_symmetry_group_IT_number 11
_symmetry_cell_setting 'monoclinic'
loop_
_space_group_symop_operation_xyz
x,y,z
-x,1/2+y,-z
-x,-y,-z
x,1/2-y,z
loop_
_atom_site_type_symbol
_atom_site_label
_atom_site_fract_x
_atom_site_fract_y
_atom_site_fract_z
Si Si1 0.994286 0.600532 0.204996
Si Si2 0.595653 0.098481 0.977980
Si Si3 0.353197 0.344617 0.521160
Si Si4 0.164113 0.840564 0.137061
Si Si5 0.513913 0.917669 0.891350
Si Si6 0.990005 0.581920 0.837139
Si Si7 0.199061 0.160238 0.608739
Si Si8 0.825678 0.154449 0.475773
O O1 0.061318 0.658854 0.168190
O O2 0.025866 0.511582 0.190151
O O3 0.142542 0.617957 0.398586
O O4 0.751085 0.617730 0.062705
O O5 0.420652 0.160720 0.820601
O O6 0.520726 0.012670 0.886711
O O7 0.613323 0.103999 0.103001
O O8 0.823940 0.121021 0.095888
O O9 0.347091 0.250000 0.514601
O O10 0.595900 0.373881 0.690254
O O11 0.234333 0.379032 0.347050
O O12 0.235663 0.379758 0.532084
O O13 0.158674 0.750000 0.095238
O O14 0.031856 0.898090 0.975421
O O15 0.396240 0.878457 0.719887
O O16 0.126869 0.250000 0.541467
O O17 0.012408 0.119609 0.538904
O O18 0.823976 0.250000 0.480468
#
# Coordination Sequence:
#
# PCOD8074877 Si02
#       8
#     4   4   4   4   4   4   4   4
#     4  11  25  42  62  92 125 164 206 258 305 365
#     4  10  20  39  62  95 127 159 201 251 307 364
#     4  10  22  39  61  92 122 157 203 256 313 364
#     4  11  24  43  63  85 122 163 206 260 310 366
#     4  10  23  40  62  93 126 166 204 245 305 371
#     4  11  23  39  67  94 120 160 206 258 312 369
#     4  10  20  36  60  89 124 160 198 250 306 360
#     4  11  24  40  61  90 124 167 209 249 305 369
#
# _framework density 21.312889999999999
#
# number of rings (size 3 to 8) (size 9 to 14) (size 15 to 20)
#    0.000    1.500    2.500    1.875    1.750    4.000 
#    0.000    0.000    0.000    0.000    0.000    0.000 
#    0.000    0.000    0.000    0.000    0.000    0.000 
#
# Total GULP energy -396905.987196 kJ/mol
# GULP energy per Si atom -12403.312100 kJ/mol
# Density = 2.126438 g / cm^3
# Si number density = 21.312890 Si / 1000 Ang^3
#
#
#
# Elastic Constant Matrix: (Units=GPa)
#
#
# Indices 1 2 3 4 5 6 
#
# 1 99.7722 23.5059 29.3922 0.0000 -19.7392 0.0000
# 2 23.5059 53.5219 40.9862 0.0000 -5.7313 0.0000
# 3 29.3922 40.9862 136.1691 0.0000 -30.6460 0.0000
# 4 0.0000 0.0000 0.0000 33.0828 0.0000 -4.6600
# 5 -19.7392 -5.7313 -30.6460 0.0000 26.4110 0.0000
# 6 0.0000 0.0000 0.0000 -4.6600 0.0000 26.3934
#
#
#
# Elastic Compliance Matrix: (Units=1/GPa)
#
#
# Indices 1 2 3 4 5 6 
#
# 1 0.012908 -0.005413 0.001015 0.000000 0.009651 0.000000
# 2 -0.005413 0.026925 -0.008840 0.000000 -0.008460 0.000000
# 3 0.001015 -0.008840 0.012891 0.000000 0.013798 0.000000
# 4 0.000000 0.000000 0.000000 0.030998 0.000000 0.005473
# 5 0.009651 -0.008460 0.013798 0.000000 0.059251 0.000000
# 6 0.000000 0.000000 0.000000 0.005473 0.000000 0.038854
#
#
# Mechanical properties :
#
#
# Convention : Reuss Voigt Hill
#
# Bulk Modulus (GPa) = 38.09770 53.02575 45.56172
# Shear Modulus (GPa) = 23.03591 30.21603 26.62597
#
# Velocity S-wave (km/s) = 3.29119 3.76937 3.53836
# Velocity P-wave (km/s) = 5.68830 6.62404 6.17392
#
# Compressibility (1/GPa) = 0.02624831
#
# Stress axis : x y z
#
# Youngs Moduli (GPa) = 77.46886 37.14063 77.57423
#
# Poissons Ratio (x) = 0.20104 -0.07873
# Poissons Ratio (y) = 0.41934 0.68574
# Poissons Ratio (z) = -0.07863 0.32832
#
# Static dielectric constant tensor:
#      x y z
#    x 3.928120 0.000000 0.048780 
#    y 0.000000 3.561560 0.000000 
#    z 0.048780 0.000000 3.793700 
# 
# 
# High freq. dielectric constant tensor:
#      x y z
#    x 1.837360 0.000000 -0.002870 
#    y 0.000000 1.820770 0.000000 
#    z -0.002870 0.000000 1.840010 
# 
# From -- ./inp_files/50744.got.cif
#   From: 2010.06.25/outbox.cif.g09.slc.cpg/sg11_26_cif.got.tgz:50744.got - 2010.06.27 23:14:04.
