data_PCOD8074354
_publ_section_title
;
Structure prediction by ZEFSAII (Michael W. Deem and Ramdas Pophale) SiO2 
 PCOD8074354
Probable space group: P 21/M
;
_chemical_formula_sum "Si O2"
_cell_formula_units_Z 32
_cell_length_a 12.662181
_cell_length_b 17.771471
_cell_length_c 16.810646
_cell_angle_alpha 90.000000
_cell_angle_beta 154.002830
_cell_angle_gamma 90.000000
_cell_volume 1658.113575
_symmetry_space_group_name_H-M "P 21/M"
_symmetry_group_IT_number 11
_symmetry_cell_setting 'monoclinic'
loop_
_space_group_symop_operation_xyz
x,y,z
-x,1/2+y,-z
-x,-y,-z
x,1/2-y,z
loop_
_atom_site_type_symbol
_atom_site_label
_atom_site_fract_x
_atom_site_fract_y
_atom_site_fract_z
Si Si1 0.342815 0.160807 0.844849
Si Si2 0.874157 0.839605 0.994542
Si Si3 0.831285 0.163856 0.106525
Si Si4 0.407572 0.839533 0.379685
Si Si5 0.498668 0.161213 0.125515
Si Si6 0.229186 0.163906 0.506371
Si Si7 0.989349 0.911469 0.496990
Si Si8 0.205385 0.340065 0.236060
O O1 0.316035 0.250000 0.818014
O O2 0.101748 0.121120 0.649265
O O3 0.570614 0.128033 0.948527
O O4 0.376141 0.138746 0.959425
O O5 0.885208 0.750000 0.000551
O O6 0.136888 0.872016 0.196453
O O7 0.679840 0.867808 0.926418
O O8 0.799518 0.870730 0.857080
O O9 0.786146 0.250000 0.054961
O O10 0.987281 0.156641 0.291667
O O11 0.972194 0.127690 0.126522
O O12 0.407428 0.750000 0.380959
O O13 0.543611 0.865407 0.391278
O O14 0.551166 0.868744 0.555087
O O15 0.545735 0.250000 0.162334
O O16 0.750347 0.120407 0.306546
O O17 0.268662 0.250000 0.560360
O O18 0.203999 0.113110 0.567269
O O19 0.000000 0.000000 0.500000
O O20 0.198271 0.250000 0.233787
#
# Coordination Sequence:
#
# PCOD8074354 Si02
#       8
#     4   4   4   4   4   4   4   4
#     4  10  20  35  59  84 105 141 187 226 274 329
#     4   9  17  28  48  77 109 141 169 211 270 324
#     4   8  14  27  50  80 110 133 166 223 279 321
#     4   8  15  26  45  76 105 130 167 218 274 324
#     4  10  21  39  57  79 114 148 184 226 268 325
#     4   9  16  32  55  78 109 138 172 229 280 319
#     4  12  25  37  53  80 113 148 187 229 278 330
#     4   8  14  24  41  74 112 134 156 208 274 322
#
# _framework density 19.299040999999999
#
# number of rings (size 3 to 8) (size 9 to 14) (size 15 to 20)
#    0.000    2.750    1.250    2.625    1.750    1.500 
#    0.000    3.750    0.000    0.750    0.000    2.625 
#    0.000    0.000    0.000    0.000    0.000    0.000 
#
# Total GULP energy -396644.601830 kJ/mol
# GULP energy per Si atom -12395.143807 kJ/mol
# Density = 1.925512 g / cm^3
# Si number density = 19.299041 Si / 1000 Ang^3
#
#
#
# Elastic Constant Matrix: (Units=GPa)
#
#
# Indices 1 2 3 4 5 6 
#
# 1 144.2938 31.8620 73.5288 0.0000 -13.8002 0.0000
# 2 31.8620 38.4019 35.3853 0.0000 -3.7603 0.0000
# 3 73.5288 35.3853 120.6202 0.0000 -16.0750 0.0000
# 4 0.0000 0.0000 0.0000 7.2292 0.0000 0.6958
# 5 -13.8002 -3.7603 -16.0750 0.0000 28.6612 0.0000
# 6 0.0000 0.0000 0.0000 0.6958 0.0000 3.4764
#
#
#
# Elastic Compliance Matrix: (Units=1/GPa)
#
#
# Indices 1 2 3 4 5 6 
#
# 1 0.010529 -0.003926 -0.005036 0.000000 0.001730 0.000000
# 2 -0.003926 0.037195 -0.008776 0.000000 -0.001932 0.000000
# 3 -0.005036 -0.008776 0.014546 0.000000 0.004582 0.000000
# 4 0.000000 0.000000 0.000000 0.141044 0.000000 -0.028228
# 5 0.001730 -0.001932 0.004582 0.000000 0.038040 0.000000
# 6 0.000000 0.000000 0.000000 -0.028228 0.000000 0.293304
#
#
# Mechanical properties :
#
#
# Convention : Reuss Voigt Hill
#
# Bulk Modulus (GPa) = 37.32226 64.98535 51.15381
# Shear Modulus (GPa) = 8.63463 18.70936 13.67199
#
# Velocity S-wave (km/s) = 2.11751 3.11697 2.66452
# Velocity P-wave (km/s) = 5.03581 6.83374 6.00247
#
# Compressibility (1/GPa) = 0.02679366
#
# Stress axis : x y z
#
# Youngs Moduli (GPa) = 94.97654 26.88533 68.74973
#
# Poissons Ratio (x) = 0.10555 0.34623
# Poissons Ratio (y) = 0.37288 0.60334
# Poissons Ratio (z) = 0.47830 0.23594
#
# Static dielectric constant tensor:
#      x y z
#    x 3.784150 0.000000 0.006690 
#    y 0.000000 2.850630 0.000000 
#    z 0.006690 0.000000 3.733550 
# 
# 
# High freq. dielectric constant tensor:
#      x y z
#    x 1.759150 0.000000 -0.002650 
#    y 0.000000 1.672230 0.000000 
#    z -0.002650 0.000000 1.763840 
# 
# From -- ./inp_files/40017.got.cif
#   From: 2010.06.25/outbox.cif.g09.slc.cpg/sg11_21_cif.got.tgz:40017.got - 2010.06.27 23:14:04.
