data_PCOD8074524
_publ_section_title
;
Structure prediction by ZEFSAII (Michael W. Deem and Ramdas Pophale) SiO2 
 PCOD8074524
Probable space group: P 21/M
;
_chemical_formula_sum "Si O2"
_cell_formula_units_Z 32
_cell_length_a 28.461732
_cell_length_b 8.594818
_cell_length_c 22.424663
_cell_angle_alpha 90.000000
_cell_angle_beta 161.501454
_cell_angle_gamma 90.000000
_cell_volume 1740.473600
_symmetry_space_group_name_H-M "P 21/M"
_symmetry_group_IT_number 11
_symmetry_cell_setting 'monoclinic'
loop_
_space_group_symop_operation_xyz
x,y,z
-x,1/2+y,-z
-x,-y,-z
x,1/2-y,z
loop_
_atom_site_type_symbol
_atom_site_label
_atom_site_fract_x
_atom_site_fract_y
_atom_site_fract_z
Si Si1 0.842017 0.434812 0.792947
Si Si2 0.789710 0.066254 0.482808
Si Si3 0.403514 0.433735 0.210421
Si Si4 0.303785 0.568014 0.502140
Si Si5 0.657457 0.566546 0.206590
Si Si6 0.059843 0.934810 0.510773
Si Si7 0.907066 0.931983 0.208711
Si Si8 0.559198 0.566548 0.510068
O O1 0.842334 0.250000 0.795403
O O2 0.798900 0.496963 0.674938
O O3 0.721391 0.495599 0.694469
O O4 0.000000 0.500000 0.000000
O O5 0.758900 0.250000 0.439769
O O6 0.742859 0.995478 0.490516
O O7 0.963587 0.029639 0.682892
O O8 0.692606 0.980109 0.316618
O O9 0.397171 0.250000 0.216322
O O10 0.524971 0.470364 0.305668
O O11 0.444586 0.519921 0.320571
O O12 0.247549 0.504530 0.999892
O O13 0.276811 0.750000 0.474310
O O14 0.658046 0.750000 0.200410
O O15 0.775241 0.495629 0.302164
O O16 0.500000 0.500000 0.000000
O O17 0.063814 0.750000 0.516883
O O18 0.953173 0.996967 0.329211
O O19 0.000000 0.000000 0.500000
O O20 0.881805 0.750000 0.184302
O O21 0.500000 0.500000 0.500000
O O22 0.573328 0.750000 0.530970
#
# Coordination Sequence:
#
# PCOD8074524 Si02
#       8
#     4   4   4   4   4   4   4   4
#     4  10  20  36  56  82 111 143 180 220 264 318
#     4   9  17  33  53  75 102 136 175 216 259 315
#     4   9  17  33  53  75 102 136 175 216 259 315
#     4   8  16  30  51  75 103 137 174 211 256 313
#     4  11  22  37  55  78 107 142 180 225 272 318
#     4  10  20  36  56  82 111 143 180 220 264 318
#     4   8  16  30  51  75 103 137 174 211 256 313
#     4  11  22  37  55  78 107 142 180 225 272 318
#
# _framework density 18.385801000000001
#
# number of rings (size 3 to 8) (size 9 to 14) (size 15 to 20)
#    0.000    2.500    0.000    4.500    0.000    2.000 
#    0.000   11.250    0.000    0.000    0.000    0.000 
#    0.000    0.000    0.000    0.000    0.000    0.000 
#
# Total GULP energy -396759.375857 kJ/mol
# GULP energy per Si atom -12398.730496 kJ/mol
# Density = 1.834395 g / cm^3
# Si number density = 18.385801 Si / 1000 Ang^3
#
#
#
# Elastic Constant Matrix: (Units=GPa)
#
#
# Indices 1 2 3 4 5 6 
#
# 1 169.3704 40.4189 71.1052 0.0000 8.9280 0.0000
# 2 40.4189 81.3505 39.9781 0.0000 3.0039 0.0000
# 3 71.1052 39.9781 165.9700 0.0000 13.9285 0.0000
# 4 0.0000 0.0000 0.0000 27.1433 0.0000 -0.6011
# 5 8.9280 3.0039 13.9285 0.0000 14.9391 0.0000
# 6 0.0000 0.0000 0.0000 -0.6011 0.0000 27.0477
#
#
#
# Elastic Compliance Matrix: (Units=1/GPa)
#
#
# Indices 1 2 3 4 5 6 
#
# 1 0.007654 -0.002494 -0.002535 0.000000 -0.001709 0.000000
# 2 -0.002494 0.014757 -0.002563 0.000000 0.000913 0.000000
# 3 -0.002535 -0.002563 0.008200 0.000000 -0.005615 0.000000
# 4 0.000000 0.000000 0.000000 0.036860 0.000000 0.000819
# 5 -0.001709 0.000913 -0.005615 0.000000 0.073012 0.000000
# 6 0.000000 0.000000 0.000000 0.000819 0.000000 0.036990
#
#
# Mechanical properties :
#
#
# Convention : Reuss Voigt Hill
#
# Bulk Modulus (GPa) = 64.81907 79.96613 72.39260
# Shear Modulus (GPa) = 25.27841 31.50528 28.39185
#
# Velocity S-wave (km/s) = 3.71197 4.14401 3.93393
# Velocity P-wave (km/s) = 7.32824 8.15383 7.75204
#
# Compressibility (1/GPa) = 0.01542756
#
# Stress axis : x y z
#
# Youngs Moduli (GPa) = 130.65681 67.76299 121.95596
#
# Poissons Ratio (x) = 0.16899 0.30914
# Poissons Ratio (y) = 0.32584 0.31255
# Poissons Ratio (z) = 0.33119 0.17366
#
# Static dielectric constant tensor:
#      x y z
#    x 3.395320 0.000000 -0.237360 
#    y 0.000000 88.930080 0.000000 
#    z -0.237360 0.000000 3.431250 
# 
# 
# High freq. dielectric constant tensor:
#      x y z
#    x 1.719140 0.000000 0.002120 
#    y 0.000000 1.695380 0.000000 
#    z 0.002120 0.000000 1.718810 
# 
# From -- ./inp_files/67200.got.cif
#   From: 2010.06.25/outbox.cif.g09.slc.cpg/sg11_34_cif.got.tgz:67200.got - 2010.06.27 23:14:04.
