data_PCOD8074635
_publ_section_title
;
Structure prediction by ZEFSAII (Michael W. Deem and Ramdas Pophale) SiO2 
 PCOD8074635
Probable space group: P 21/M
;
_chemical_formula_sum "Si O2"
_cell_formula_units_Z 28
_cell_length_a 18.385482
_cell_length_b 8.728860
_cell_length_c 14.625771
_cell_angle_alpha 90.000000
_cell_angle_beta 146.492481
_cell_angle_gamma 90.000000
_cell_volume 1295.766982
_symmetry_space_group_name_H-M "P 21/M"
_symmetry_group_IT_number 11
_symmetry_cell_setting 'monoclinic'
loop_
_space_group_symop_operation_xyz
x,y,z
-x,1/2+y,-z
-x,-y,-z
x,1/2-y,z
loop_
_atom_site_type_symbol
_atom_site_label
_atom_site_fract_x
_atom_site_fract_y
_atom_site_fract_z
Si Si1 0.978522 0.428273 0.803837
Si Si2 0.917314 0.423891 0.537131
Si Si3 0.801981 0.574850 0.252102
Si Si4 0.540922 0.428707 0.946881
Si Si5 0.503147 0.431644 0.284847
Si Si6 0.258400 0.569366 0.126749
Si Si7 0.268401 0.931504 0.343711
O O1 0.017032 0.250000 0.855980
O O2 0.902217 0.454668 0.628412
O O3 0.875197 0.486913 0.771792
O O4 0.109284 0.528860 0.944471
O O5 0.879578 0.250000 0.472033
O O6 0.067261 0.458166 0.667311
O O7 0.821047 0.534738 0.379469
O O8 0.754876 0.750000 0.195215
O O9 0.694806 0.465120 0.093672
O O10 0.512611 0.250000 0.918360
O O11 0.462673 0.503015 0.779798
O O12 0.500000 0.500000 0.000000
O O13 0.506447 0.250000 0.283395
O O14 0.358740 0.484801 0.164888
O O15 0.612772 0.497401 0.469919
O O16 0.278862 0.750000 0.138731
O O17 0.287493 0.511310 0.260308
O O18 0.270972 0.750000 0.352565
#
# Coordination Sequence:
#
# PCOD8074635 Si02
#       7
#     4   4   4   4   4   4   4
#     4  10  20  37  61  89 122 163 209 258 317 375
#     4   9  19  34  57  85 117 159 204 251 305 364
#     4  10  20  36  57  86 121 158 203 250 301 363
#     4  12  26  43  63  90 124 161 202 252 306 367
#     4  11  23  42  66  92 123 166 212 259 313 372
#     4  11  22  39  62  92 127 166 211 260 311 373
#     4   9  21  39  62  92 126 163 209 262 318 372
#
# _framework density 21.608823999999998
#
# number of rings (size 3 to 8) (size 9 to 14) (size 15 to 20)
#    0.000    1.714    0.000    4.286    2.000    2.286 
#    0.000    4.286    0.000    0.000    0.000    0.000 
#    0.000    0.000    0.000    0.000    0.000    0.000 
#
# Total GULP energy -347295.134403 kJ/mol
# GULP energy per Si atom -12403.397657 kJ/mol
# Density = 2.155964 g / cm^3
# Si number density = 21.608824 Si / 1000 Ang^3
#
#
#
# Elastic Constant Matrix: (Units=GPa)
#
#
# Indices 1 2 3 4 5 6 
#
# 1 89.6446 21.2574 11.1656 0.0000 -15.8014 0.0000
# 2 21.2574 78.0717 20.1094 0.0000 -6.7459 0.0000
# 3 11.1656 20.1094 78.3018 0.0000 -8.2788 0.0000
# 4 0.0000 0.0000 0.0000 32.8484 0.0000 -4.3518
# 5 -15.8014 -6.7459 -8.2788 0.0000 35.7813 0.0000
# 6 0.0000 0.0000 0.0000 -4.3518 0.0000 24.5278
#
#
#
# Elastic Compliance Matrix: (Units=1/GPa)
#
#
# Indices 1 2 3 4 5 6 
#
# 1 0.012790 -0.002911 -0.000551 0.000000 0.004972 0.000000
# 2 -0.002911 0.014495 -0.003233 0.000000 0.000699 0.000000
# 3 -0.000551 -0.003233 0.013931 0.000000 0.002370 0.000000
# 4 0.000000 0.000000 0.000000 0.031176 0.000000 0.005531
# 5 0.004972 0.000699 0.002370 0.000000 0.030824 0.000000
# 6 0.000000 0.000000 0.000000 0.005531 0.000000 0.041751
#
#
# Mechanical properties :
#
#
# Convention : Reuss Voigt Hill
#
# Bulk Modulus (GPa) = 35.93832 39.00919 37.47376
# Shear Modulus (GPa) = 29.82725 31.53054 30.67889
#
# Velocity S-wave (km/s) = 3.71931 3.82403 3.77203
# Velocity P-wave (km/s) = 5.92552 6.13100 6.02914
#
# Compressibility (1/GPa) = 0.02782545
#
# Stress axis : x y z
#
# Youngs Moduli (GPa) = 78.18311 68.99094 71.78419
#
# Poissons Ratio (x) = 0.20084 0.03952
# Poissons Ratio (y) = 0.22760 0.23211
# Poissons Ratio (z) = 0.04304 0.22308
#
# Static dielectric constant tensor:
#      x y z
#    x 4.018930 0.000000 -0.132350 
#    y 0.000000 3.736660 0.000000 
#    z -0.132350 0.000000 4.091890 
# 
# 
# High freq. dielectric constant tensor:
#      x y z
#    x 1.858380 0.000000 -0.006500 
#    y 0.000000 1.829720 0.000000 
#    z -0.006500 0.000000 1.857820 
# 
# From -- ./inp_files/54614.got.cif
#   From: 2010.06.25/outbox.cif.g09.slc.cpg/sg11_28_cif.got.tgz:54614.got - 2010.06.27 23:14:04.
