data_PCOD8074158
_publ_section_title
;
Structure prediction by ZEFSAII (Michael W. Deem and Ramdas Pophale) SiO2 
 PCOD8074158
Probable space group: P 21/M
;
_chemical_formula_sum "Si O2"
_cell_formula_units_Z 28
_cell_length_a 7.800480
_cell_length_b 15.869889
_cell_length_c 19.265308
_cell_angle_alpha 90.000000
_cell_angle_beta 146.053708
_cell_angle_gamma 90.000000
_cell_volume 1331.768272
_symmetry_space_group_name_H-M "P 21/M"
_symmetry_group_IT_number 11
_symmetry_cell_setting 'monoclinic'
loop_
_space_group_symop_operation_xyz
x,y,z
-x,1/2+y,-z
-x,-y,-z
x,1/2-y,z
loop_
_atom_site_type_symbol
_atom_site_label
_atom_site_fract_x
_atom_site_fract_y
_atom_site_fract_z
Si Si1 0.759426 0.657669 0.111155
Si Si2 0.297152 0.654942 0.836805
Si Si3 0.347551 0.845215 0.104622
Si Si4 0.894101 0.005658 0.715350
Si Si5 0.301152 0.152854 0.154430
Si Si6 0.121801 0.440359 0.644271
Si Si7 0.370281 0.932267 0.619113
O O1 0.923550 0.750000 0.174245
O O2 0.493160 0.649973 0.077957
O O3 0.989663 0.580082 0.195332
O O4 0.607653 0.651684 0.985211
O O5 0.152587 0.750000 0.791966
O O6 0.405706 0.632871 0.795275
O O7 0.063601 0.583814 0.783873
O O8 0.325069 0.750000 0.125249
O O9 0.560353 0.893961 0.231280
O O10 0.011896 0.889047 0.982020
O O11 0.929044 0.035402 0.648053
O O12 0.544900 0.993477 0.622972
O O13 0.217881 0.250000 0.128645
O O14 0.381728 0.128120 0.260729
O O15 0.204293 0.521453 0.626985
O O16 0.889835 0.386044 0.516283
#
# Coordination Sequence:
#
# PCOD8074158 Si02
#       7
#     4   4   4   4   4   4   4
#     4   9  19  35  55  85 123 155 197 252 306 364
#     4  10  20  35  56  88 128 158 196 256 308 362
#     4   9  19  37  60  85 115 154 197 248 303 356
#     4  11  21  38  62  87 115 165 204 250 304 364
#     4  10  21  37  60  90 121 155 202 254 302 360
#     4  10  23  41  57  86 122 153 201 249 295 365
#     4  11  23  39  61  85 118 161 198 246 304 359
#
# _framework density 21.024677000000001
#
# number of rings (size 3 to 8) (size 9 to 14) (size 15 to 20)
#    0.000    2.000    1.429    1.714    2.000    4.000 
#    0.000    0.000    0.000    3.429    0.000    0.000 
#    0.000    0.000    0.000    0.000    0.000    0.000 
#
# Total GULP energy -346910.995842 kJ/mol
# GULP energy per Si atom -12389.678423 kJ/mol
# Density = 2.097682 g / cm^3
# Si number density = 21.024677 Si / 1000 Ang^3
#
#
#
# Elastic Constant Matrix: (Units=GPa)
#
#
# Indices 1 2 3 4 5 6 
#
# 1 57.7149 11.0581 20.7655 0.0000 -12.2045 0.0000
# 2 11.0581 67.2907 36.7518 0.0000 -9.7507 0.0000
# 3 20.7655 36.7518 149.2114 0.0000 -19.1986 0.0000
# 4 0.0000 0.0000 0.0000 11.7819 0.0000 1.9909
# 5 -12.2045 -9.7507 -19.1986 0.0000 22.4926 0.0000
# 6 0.0000 0.0000 0.0000 1.9909 0.0000 10.5532
#
#
#
# Elastic Compliance Matrix: (Units=1/GPa)
#
#
# Indices 1 2 3 4 5 6 
#
# 1 0.019974 -0.001245 -0.001290 0.000000 0.009197 0.000000
# 2 -0.001245 0.017628 -0.003676 0.000000 0.003828 0.000000
# 3 -0.001290 -0.003676 0.008416 0.000000 0.004890 0.000000
# 4 0.000000 0.000000 0.000000 0.087671 0.000000 -0.016539
# 5 0.009197 0.003828 0.004890 0.000000 0.055283 0.000000
# 6 0.000000 0.000000 0.000000 -0.016539 0.000000 0.097878
#
#
# Mechanical properties :
#
#
# Convention : Reuss Voigt Hill
#
# Bulk Modulus (GPa) = 29.76530 45.70753 37.73642
# Shear Modulus (GPa) = 16.10456 22.67497 19.38976
#
# Velocity S-wave (km/s) = 2.77064 3.28760 3.04013
# Velocity P-wave (km/s) = 4.94200 6.01650 5.50552
#
# Compressibility (1/GPa) = 0.03359617
#
# Stress axis : x y z
#
# Youngs Moduli (GPa) = 50.06494 56.72788 118.82126
#
# Poissons Ratio (x) = 0.07065 0.15323
# Poissons Ratio (y) = 0.06235 0.43679
# Poissons Ratio (z) = 0.06456 0.20853
#
# Static dielectric constant tensor:
#      x y z
#    x 3.751820 0.000000 -0.144630 
#    y 0.000000 3.777070 0.000000 
#    z -0.144630 0.000000 4.051890 
# 
# 
# High freq. dielectric constant tensor:
#      x y z
#    x 1.832060 0.000000 -0.011850 
#    y 0.000000 1.802140 0.000000 
#    z -0.011850 0.000000 1.821110 
# 
# From -- ./inp_files/27039.got.cif
#   From: 2010.06.25/outbox.cif.g09.slc.cpg/sg11_14_cif.got.tgz:27039.got - 2010.06.27 23:14:04.
