data_PCOD8074226
_publ_section_title
;
Structure prediction by ZEFSAII (Michael W. Deem and Ramdas Pophale) SiO2 
 PCOD8074226
Probable space group: P 21/M
;
_chemical_formula_sum "Si O2"
_cell_formula_units_Z 28
_cell_length_a 9.475447
_cell_length_b 13.315438
_cell_length_c 15.863036
_cell_angle_alpha 90.000000
_cell_angle_beta 48.174274
_cell_angle_gamma 90.000000
_cell_volume 1491.422569
_symmetry_space_group_name_H-M "P 21/M"
_symmetry_group_IT_number 11
_symmetry_cell_setting 'monoclinic'
loop_
_space_group_symop_operation_xyz
x,y,z
-x,1/2+y,-z
-x,-y,-z
x,1/2-y,z
loop_
_atom_site_type_symbol
_atom_site_label
_atom_site_fract_x
_atom_site_fract_y
_atom_site_fract_z
Si Si1 0.811006 0.470318 0.623586
Si Si2 0.500331 0.869578 0.361041
Si Si3 0.996238 0.864890 0.304599
Si Si4 0.885439 0.139190 0.078918
Si Si5 0.566554 0.864465 0.517283
Si Si6 0.908823 0.940622 0.159624
Si Si7 0.530031 0.635274 0.716097
O O1 0.688097 0.395441 0.614694
O O2 0.851059 0.415077 0.695200
O O3 0.694131 0.570359 0.694120
O O4 0.000000 0.500000 0.500000
O O5 0.531636 0.750000 0.353014
O O6 0.481779 0.913777 0.464970
O O7 0.685540 0.916366 0.242984
O O8 0.053439 0.750000 0.265907
O O9 0.997218 0.922050 0.215552
O O10 0.792670 0.873026 0.429051
O O11 0.928032 0.250000 0.099578
O O12 0.659994 0.126766 0.153916
O O13 0.986678 0.130020 0.949077
O O14 0.954399 0.056260 0.118181
O O15 0.497907 0.750000 0.544164
O O16 0.493730 0.911292 0.635206
O O17 0.602506 0.750000 0.680214
#
# Coordination Sequence:
#
# PCOD8074226 Si02
#       7
#     4   4   4   4   4   4   4
#     4  12  23  34  52  84 116 153 190 231 285 343
#     4  10  20  35  57  85 112 142 193 245 281 326
#     4  10  20  36  57  83 116 151 189 235 286 337
#     4  10  20  36  62  89 115 146 186 239 290 338
#     4   8  16  32  55  79 107 145 184 229 281 335
#     4  10  20  38  64  89 109 146 195 237 285 338
#     4  10  20  36  54  78 115 154 187 226 288 348
#
# _framework density 18.774023
#
# number of rings (size 3 to 8) (size 9 to 14) (size 15 to 20)
#    0.000    2.000    2.857    2.571    0.000    2.286 
#    0.000    1.429    0.000    0.000    0.000    0.000 
#    0.000    0.000    0.000    0.000    0.000    0.000 
#
# Total GULP energy -347177.138968 kJ/mol
# GULP energy per Si atom -12399.183535 kJ/mol
# Density = 1.873129 g / cm^3
# Si number density = 18.774023 Si / 1000 Ang^3
#
#
#
# Elastic Constant Matrix: (Units=GPa)
#
#
# Indices 1 2 3 4 5 6 
#
# 1 125.3468 42.9738 44.2801 0.0000 10.8787 0.0000
# 2 42.9738 89.4025 32.6254 0.0000 2.7320 0.0000
# 3 44.2801 32.6254 111.1000 0.0000 -1.7516 0.0000
# 4 0.0000 0.0000 0.0000 23.5489 0.0000 -0.9974
# 5 10.8787 2.7320 -1.7516 0.0000 18.6202 0.0000
# 6 0.0000 0.0000 0.0000 -0.9974 0.0000 31.0443
#
#
#
# Elastic Compliance Matrix: (Units=1/GPa)
#
#
# Indices 1 2 3 4 5 6 
#
# 1 0.011033 -0.003891 -0.003352 0.000000 -0.006191 0.000000
# 2 -0.003891 0.013990 -0.002558 0.000000 -0.000020 0.000000
# 3 -0.003352 -0.002558 0.011141 0.000000 0.003382 0.000000
# 4 0.000000 0.000000 0.000000 0.042523 0.000000 0.001366
# 5 -0.006191 -0.000020 0.003382 0.000000 0.057643 0.000000
# 6 0.000000 0.000000 0.000000 0.001366 0.000000 0.032256
#
#
# Mechanical properties :
#
#
# Convention : Reuss Voigt Hill
#
# Bulk Modulus (GPa) = 60.37815 62.84533 61.61174
# Shear Modulus (GPa) = 25.81189 28.37402 27.09296
#
# Velocity S-wave (km/s) = 3.71195 3.89182 3.80295
# Velocity P-wave (km/s) = 7.11349 7.33091 7.22302
#
# Compressibility (1/GPa) = 0.01656228
#
# Stress axis : x y z
#
# Youngs Moduli (GPa) = 90.63374 71.48140 89.75469
#
# Poissons Ratio (x) = 0.27813 0.30090
# Poissons Ratio (y) = 0.35265 0.22957
# Poissons Ratio (z) = 0.30385 0.18283
#
# Static dielectric constant tensor:
#      x y z
#    x 3.250720 0.000000 0.054590 
#    y 0.000000 3.673390 0.000000 
#    z 0.054590 0.000000 3.459130 
# 
# 
# High freq. dielectric constant tensor:
#      x y z
#    x 1.700280 0.000000 0.002660 
#    y 0.000000 1.753870 0.000000 
#    z 0.002660 0.000000 1.725570 
# 
# From -- ./inp_files/21811.got.cif
#   From: 2010.06.25/outbox.cif.g09.slc.cpg/sg11_11_cif.got.tgz:21811.got - 2010.06.27 23:14:04.
