data_PCOD8074038
_publ_section_title
;
Structure prediction by ZEFSAII (Michael W. Deem and Ramdas Pophale) SiO2 
 PCOD8074038
Probable space group: P 21/M
;
_chemical_formula_sum "Si O2"
_cell_formula_units_Z 20
_cell_length_a 7.843504
_cell_length_b 8.729736
_cell_length_c 24.454233
_cell_angle_alpha 90.000000
_cell_angle_beta 142.789905
_cell_angle_gamma 90.000000
_cell_volume 1012.589866
_symmetry_space_group_name_H-M "P 21/M"
_symmetry_group_IT_number 11
_symmetry_cell_setting 'monoclinic'
loop_
_space_group_symop_operation_xyz
x,y,z
-x,1/2+y,-z
-x,-y,-z
x,1/2-y,z
loop_
_atom_site_type_symbol
_atom_site_label
_atom_site_fract_x
_atom_site_fract_y
_atom_site_fract_z
Si Si1 0.253200 0.568044 0.401197
Si Si2 0.801580 0.926544 0.084005
Si Si3 0.175931 0.427417 0.093238
Si Si4 0.268501 0.924750 0.283223
Si Si5 0.366169 0.431205 0.724514
O O1 0.500000 0.500000 0.500000
O O2 0.272904 0.750000 0.404777
O O3 0.282785 0.498568 0.347069
O O4 0.959217 0.518546 0.354560
O O5 0.799169 0.750000 0.062316
O O6 0.939492 0.934132 0.179685
O O7 0.001245 0.039191 0.102385
O O8 0.500000 0.000000 0.000000
O O9 0.214143 0.250000 0.091070
O O10 0.482554 0.501272 0.182405
O O11 0.000000 0.500000 0.000000
O O12 0.360029 0.750000 0.313285
O O13 0.490512 0.995874 0.295373
O O14 0.408424 0.250000 0.737959
#
# Coordination Sequence:
#
# PCOD8074038 Si02
#       5
#     4   4   4   4   4
#     4  10  21  37  58  83 110 146 188 236 291 346
#     4  10  20  35  55  83 115 152 194 236 287 347
#     4  11  22  36  55  82 115 152 192 237 290 347
#     4   8  17  35  55  77 110 148 185 229 284 341
#     4   9  19  37  58  79 110 149 189 234 289 347
#
# _framework density 19.751332999999999
#
# number of rings (size 3 to 8) (size 9 to 14) (size 15 to 20)
#    0.000    2.400    0.000    3.600    2.800    1.600 
#    0.000    5.000    0.000    0.000    0.000    0.000 
#    0.000    0.000    0.000    0.000    0.000    0.000 
#
# Total GULP energy -247768.647931 kJ/mol
# GULP energy per Si atom -12388.432397 kJ/mol
# Density = 1.970638 g / cm^3
# Si number density = 19.751333 Si / 1000 Ang^3
#
#
#
# Elastic Constant Matrix: (Units=GPa)
#
#
# Indices 1 2 3 4 5 6 
#
# 1 112.7072 27.8412 84.9060 0.0000 0.7656 0.0000
# 2 27.8412 48.1225 39.9187 0.0000 3.9012 0.0000
# 3 84.9060 39.9187 181.1525 0.0000 6.7614 0.0000
# 4 0.0000 0.0000 0.0000 37.0042 0.0000 1.4389
# 5 0.7656 3.9012 6.7614 0.0000 38.8420 0.0000
# 6 0.0000 0.0000 0.0000 1.4389 0.0000 18.6234
#
#
#
# Elastic Compliance Matrix: (Units=1/GPa)
#
#
# Indices 1 2 3 4 5 6 
#
# 1 0.014172 -0.003358 -0.005943 0.000000 0.001092 0.000000
# 2 -0.003358 0.026322 -0.004157 0.000000 -0.001854 0.000000
# 3 -0.005943 -0.004157 0.009262 0.000000 -0.001078 0.000000
# 4 0.000000 0.000000 0.000000 0.027105 0.000000 -0.002094
# 5 0.001092 -0.001854 -0.001078 0.000000 0.026098 0.000000
# 6 0.000000 0.000000 0.000000 -0.002094 0.000000 0.053858
#
#
# Mechanical properties :
#
#
# Convention : Reuss Voigt Hill
#
# Bulk Modulus (GPa) = 43.78415 71.92377 57.85396
# Shear Modulus (GPa) = 26.13073 31.51500 28.82287
#
# Velocity S-wave (km/s) = 3.64123 3.99882 3.82421
# Velocity P-wave (km/s) = 6.31616 7.60358 6.98958
#
# Compressibility (1/GPa) = 0.02283931
#
# Stress axis : x y z
#
# Youngs Moduli (GPa) = 70.56311 37.99140 107.96695
#
# Poissons Ratio (x) = 0.12756 0.64166
# Poissons Ratio (y) = 0.23692 0.44886
# Poissons Ratio (z) = 0.41937 0.15794
#
# Static dielectric constant tensor:
#      x y z
#    x 4.722320 0.000000 0.263390 
#    y 0.000000 3.126460 0.000000 
#    z 0.263390 0.000000 2.477740 
# 
# 
# High freq. dielectric constant tensor:
#      x y z
#    x 1.766470 0.000000 -0.000310 
#    y 0.000000 1.742860 0.000000 
#    z -0.000310 0.000000 1.778840 
# 
# From -- ./inp_files/20184.got.cif
#   From: 2010.06.25/outbox.cif.g09.slc.cpg/sg11_11_cif.got.tgz:20184.got - 2010.06.27 23:14:04.
