data_PCOD8074098
_publ_section_title
;
Structure prediction by ZEFSAII (Michael W. Deem and Ramdas Pophale) SiO2 
 PCOD8074098
Probable space group: P 21/M
;
_chemical_formula_sum "Si O2"
_cell_formula_units_Z 32
_cell_length_a 25.098241
_cell_length_b 9.031611
_cell_length_c 20.053131
_cell_angle_alpha 90.000000
_cell_angle_beta 22.727428
_cell_angle_gamma 90.000000
_cell_volume 1756.179677
_symmetry_space_group_name_H-M "P 21/M"
_symmetry_group_IT_number 11
_symmetry_cell_setting 'monoclinic'
loop_
_space_group_symop_operation_xyz
x,y,z
-x,1/2+y,-z
-x,-y,-z
x,1/2-y,z
loop_
_atom_site_type_symbol
_atom_site_label
_atom_site_fract_x
_atom_site_fract_y
_atom_site_fract_z
Si Si1 0.616631 0.075900 0.151407
Si Si2 0.322032 0.426191 0.545081
Si Si3 0.884745 0.423166 0.315240
Si Si4 0.409906 0.420378 0.950199
Si Si5 0.286216 0.578289 0.359460
Si Si6 0.644295 0.578598 0.843126
Si Si7 0.829692 0.080276 0.017650
Si Si8 0.362421 0.920866 0.634785
O O1 0.614066 0.250000 0.147873
O O2 0.466775 0.018386 0.347399
O O3 0.657181 0.009923 0.032950
O O4 0.728459 0.024634 0.076197
O O5 0.316863 0.250000 0.558581
O O6 0.198823 0.480317 0.640984
O O7 0.301333 0.499323 0.640757
O O8 0.868355 0.250000 0.317100
O O9 0.830870 0.458011 0.451732
O O10 0.042488 0.470150 0.129807
O O11 0.413916 0.250000 0.924341
O O12 0.566159 0.476707 0.782753
O O13 0.314749 0.444080 0.126237
O O14 0.294464 0.750000 0.332039
O O15 0.249066 0.492909 0.333108
O O16 0.627843 0.750000 0.845324
O O17 0.500000 0.500000 0.000000
O O18 0.876651 0.250000 0.951356
O O19 0.753721 0.065538 0.175361
O O20 0.396716 0.750000 0.579893
O O21 0.500000 0.000000 0.500000
#
# Coordination Sequence:
#
# PCOD8074098 Si02
#       8
#     4   4   4   4   4   4   4   4
#     4  10  20  35  56  82 111 144 186 229 275 330
#     4  11  22  38  60  87 114 147 189 233 281 336
#     4  11  23  39  58  85 115 149 190 232 282 337
#     4   9  17  30  49  78 112 141 177 230 277 321
#     4   9  18  32  50  76 111 144 181 228 275 330
#     4   9  17  28  45  74 110 145 182 224 274 327
#     4  10  23  42  58  81 114 147 186 231 278 339
#     4  11  22  39  62  86 115 148 186 235 284 335
#
# _framework density 18.22137
#
# number of rings (size 3 to 8) (size 9 to 14) (size 15 to 20)
#    0.000    2.000    2.500    2.250    0.000    6.000 
#    0.000    0.000    0.000    0.750    0.000    0.000 
#    0.000    0.000    0.000    0.000    0.000    0.000 
#
# Total GULP energy -396800.569003 kJ/mol
# GULP energy per Si atom -12400.017781 kJ/mol
# Density = 1.817990 g / cm^3
# Si number density = 18.221370 Si / 1000 Ang^3
#
#
#
# Elastic Constant Matrix: (Units=GPa)
#
#
# Indices 1 2 3 4 5 6 
#
# 1 126.4407 56.0157 51.5884 0.0000 15.1449 0.0000
# 2 56.0157 81.1325 42.2004 0.0000 10.2731 0.0000
# 3 51.5884 42.2004 77.9298 0.0000 4.2082 0.0000
# 4 0.0000 0.0000 0.0000 27.9488 0.0000 5.6313
# 5 15.1449 10.2731 4.2082 0.0000 27.9084 0.0000
# 6 0.0000 0.0000 0.0000 5.6313 0.0000 33.9709
#
#
#
# Elastic Compliance Matrix: (Units=1/GPa)
#
#
# Indices 1 2 3 4 5 6 
#
# 1 0.013151 -0.005759 -0.005360 0.000000 -0.004209 0.000000
# 2 -0.005759 0.020388 -0.007049 0.000000 -0.003317 0.000000
# 3 -0.005360 -0.007049 0.020064 0.000000 0.002478 0.000000
# 4 0.000000 0.000000 0.000000 0.037016 0.000000 -0.006136
# 5 -0.004209 -0.003317 0.002478 0.000000 0.038963 0.000000
# 6 0.000000 0.000000 0.000000 -0.006136 0.000000 0.030454
#
#
# Mechanical properties :
#
#
# Convention : Reuss Voigt Hill
#
# Bulk Modulus (GPa) = 57.91449 65.01244 61.46346
# Shear Modulus (GPa) = 24.73684 27.01220 25.87452
#
# Velocity S-wave (km/s) = 3.68852 3.85443 3.77239
# Velocity P-wave (km/s) = 7.07058 7.45423 7.26494
#
# Compressibility (1/GPa) = 0.01726684
#
# Stress axis : x y z
#
# Youngs Moduli (GPa) = 76.03849 49.04801 49.84119
#
# Poissons Ratio (x) = 0.28247 0.26715
# Poissons Ratio (y) = 0.43791 0.35133
# Poissons Ratio (z) = 0.40757 0.34574
#
# Static dielectric constant tensor:
#      x y z
#    x 3.650610 0.000000 0.457440 
#    y 0.000000 3.424490 0.000000 
#    z 0.457440 0.000000 3.297840 
# 
# 
# High freq. dielectric constant tensor:
#      x y z
#    x 1.709170 0.000000 0.025890 
#    y 0.000000 1.712720 0.000000 
#    z 0.025890 0.000000 1.684160 
# 
# From -- ./inp_files/66928.got.cif
#   From: 2010.06.25/outbox.cif.g09.slc.cpg/sg11_34_cif.got.tgz:66928.got - 2010.06.27 23:14:04.
