data_PCOD8074738
_publ_section_title
;
Structure prediction by ZEFSAII (Michael W. Deem and Ramdas Pophale) SiO2 
 PCOD8074738
Probable space group: P 21/M
;
_chemical_formula_sum "Si O2"
_cell_formula_units_Z 32
_cell_length_a 8.652427
_cell_length_b 12.515681
_cell_length_c 14.103632
_cell_angle_alpha 90.000000
_cell_angle_beta 88.926459
_cell_angle_gamma 90.000000
_cell_volume 1527.028556
_symmetry_space_group_name_H-M "P 21/M"
_symmetry_group_IT_number 11
_symmetry_cell_setting 'monoclinic'
loop_
_space_group_symop_operation_xyz
x,y,z
-x,1/2+y,-z
-x,-y,-z
x,1/2-y,z
loop_
_atom_site_type_symbol
_atom_site_label
_atom_site_fract_x
_atom_site_fract_y
_atom_site_fract_z
Si Si1 0.185047 0.631308 0.198434
Si Si2 0.279310 0.372321 0.575786
Si Si3 0.719472 0.626383 0.640114
Si Si4 0.630671 0.978266 0.073894
Si Si5 0.129232 0.448124 0.060174
Si Si6 0.028242 0.002547 0.676070
Si Si7 0.522406 0.052874 0.726089
Si Si8 0.144509 0.868738 0.833950
O O1 0.161900 0.750000 0.155254
O O2 0.216445 0.541677 0.118295
O O3 0.332086 0.632643 0.267562
O O4 0.032296 0.600008 0.258522
O O5 0.236903 0.250000 0.600035
O O6 0.336919 0.383104 0.467456
O O7 0.125831 0.445306 0.589697
O O8 0.418087 0.411105 0.640444
O O9 0.729329 0.750000 0.672848
O O10 0.592930 0.566417 0.707527
O O11 0.889211 0.573273 0.643752
O O12 0.571288 0.935006 0.174446
O O13 0.734501 0.083948 0.091588
O O14 0.745596 0.896218 0.014427
O O15 0.500000 0.000000 0.000000
O O16 0.037058 0.366528 0.129409
O O17 0.000000 0.500000 0.000000
O O18 0.152022 0.935356 0.736474
O O19 0.198777 0.750000 0.811238
#
# Coordination Sequence:
#
# PCOD8074738 Si02
#       8
#     4   4   4   4   4   4   4   4
#     4  10  20  36  59  84 114 160 201 240 301 362
#     4  11  22  40  64  94 124 158 205 256 309 369
#     4  10  23  41  65  92 123 162 203 249 312 373
#     4  11  21  40  60  84 125 157 200 254 298 354
#     4   9  20  36  56  80 116 152 194 252 291 345
#     4  10  20  39  63  89 122 156 200 259 304 358
#     4  11  22  40  62  87 128 161 199 252 304 363
#     4  10  21  39  62  86 119 163 205 249 304 360
#
# _framework density 20.955729999999999
#
# number of rings (size 3 to 8) (size 9 to 14) (size 15 to 20)
#    0.000    1.750    2.500    1.875    0.000    2.500 
#    0.000    1.875    0.000    5.250    0.000    0.000 
#    0.000    0.000    0.000    0.000    0.000    0.000 
#
# Total GULP energy -396489.578625 kJ/mol
# GULP energy per Si atom -12390.299332 kJ/mol
# Density = 2.090803 g / cm^3
# Si number density = 20.955730 Si / 1000 Ang^3
#
#
#
# Elastic Constant Matrix: (Units=GPa)
#
#
# Indices 1 2 3 4 5 6 
#
# 1 71.6091 22.3027 25.2147 0.0000 10.1725 0.0000
# 2 22.3027 105.6976 23.2996 0.0000 0.6283 0.0000
# 3 25.2147 23.2996 83.3509 0.0000 4.7812 0.0000
# 4 0.0000 0.0000 0.0000 13.8984 0.0000 2.4369
# 5 10.1725 0.6283 4.7812 0.0000 44.9708 0.0000
# 6 0.0000 0.0000 0.0000 2.4369 0.0000 20.2711
#
#
#
# Elastic Compliance Matrix: (Units=1/GPa)
#
#
# Indices 1 2 3 4 5 6 
#
# 1 0.016698 -0.002592 -0.004137 0.000000 -0.003301 0.000000
# 2 -0.002592 0.010486 -0.002186 0.000000 0.000672 0.000000
# 3 -0.004137 -0.002186 0.013889 0.000000 -0.000510 0.000000
# 4 0.000000 0.000000 0.000000 0.073500 0.000000 -0.008836
# 5 -0.003301 0.000672 -0.000510 0.000000 0.023028 0.000000
# 6 0.000000 0.000000 0.000000 -0.008836 0.000000 0.050394
#
#
# Mechanical properties :
#
#
# Convention : Reuss Voigt Hill
#
# Bulk Modulus (GPa) = 43.02347 44.69907 43.86127
# Shear Modulus (GPa) = 23.41135 28.48410 25.94773
#
# Velocity S-wave (km/s) = 3.34605 3.69080 3.52265
# Velocity P-wave (km/s) = 5.95847 6.28802 6.12546
#
# Compressibility (1/GPa) = 0.02324313
#
# Stress axis : x y z
#
# Youngs Moduli (GPa) = 59.88873 95.36881 71.99768
#
# Poissons Ratio (x) = 0.24716 0.29789
# Poissons Ratio (y) = 0.15521 0.15736
# Poissons Ratio (z) = 0.24779 0.20844
#
# Static dielectric constant tensor:
#      x y z
#    x 4.354220 0.000000 -0.245830 
#    y 0.000000 3.592680 0.000000 
#    z -0.245830 0.000000 3.979400 
# 
# 
# High freq. dielectric constant tensor:
#      x y z
#    x 1.831210 0.000000 0.006670 
#    y 0.000000 1.791850 0.000000 
#    z 0.006670 0.000000 1.827110 
# 
# From -- ./inp_files/47196.got.cif
#   From: 2010.06.25/outbox.cif.g09.slc.cpg/sg11_24_cif.got.tgz:47196.got - 2010.06.27 23:14:04.
