data_PCOD8074725
_publ_section_title
;
Structure prediction by ZEFSAII (Michael W. Deem and Ramdas Pophale) SiO2 
 PCOD8074725
Probable space group: P 21/M
;
_chemical_formula_sum "Si O2"
_cell_formula_units_Z 32
_cell_length_a 11.880895
_cell_length_b 13.757502
_cell_length_c 11.655355
_cell_angle_alpha 90.000000
_cell_angle_beta 115.903568
_cell_angle_gamma 90.000000
_cell_volume 1713.681776
_symmetry_space_group_name_H-M "P 21/M"
_symmetry_group_IT_number 11
_symmetry_cell_setting 'monoclinic'
loop_
_space_group_symop_operation_xyz
x,y,z
-x,1/2+y,-z
-x,-y,-z
x,1/2-y,z
loop_
_atom_site_type_symbol
_atom_site_label
_atom_site_fract_x
_atom_site_fract_y
_atom_site_fract_z
Si Si1 0.196233 0.519392 0.301746
Si Si2 0.413136 0.361606 0.762278
Si Si3 0.310660 0.965387 0.599265
Si Si4 0.453933 0.139307 0.041623
Si Si5 0.582273 0.982678 0.764682
Si Si6 0.972197 0.359133 0.911372
Si Si7 0.738786 0.137009 0.203288
Si Si8 0.058871 0.949232 0.868334
O O1 0.240095 0.540977 0.448747
O O2 0.307532 0.473444 0.277068
O O3 0.150022 0.620137 0.222492
O O4 0.079839 0.443385 0.251054
O O5 0.405009 0.250000 0.719802
O O6 0.305035 0.424735 0.650599
O O7 0.548951 0.405386 0.784995
O O8 0.393620 0.374052 0.889823
O O9 0.457333 0.934979 0.651527
O O10 0.243486 0.889956 0.655095
O O11 0.445142 0.250000 0.079015
O O12 0.380871 0.074580 0.102499
O O13 0.599525 0.106994 0.101376
O O14 0.021901 0.250000 0.911277
O O15 0.078210 0.440449 0.928059
O O16 0.931361 0.371023 0.025356
O O17 0.767298 0.250000 0.196296
O O18 0.835399 0.072190 0.175930
#
# Coordination Sequence:
#
# PCOD8074725 Si02
#       8
#     4   4   4   4   4   4   4   4
#     4  10  20  37  57  78 114 149 179 228 273 325
#     4   9  19  33  51  82 114 144 183 224 275 334
#     4   9  21  35  56  79 113 144 186 223 274 323
#     4   9  18  33  55  83 108 141 185 230 277 322
#     4   9  19  33  58  78 114 145 181 223 272 327
#     4   9  20  38  58  85 110 141 188 230 279 331
#     4  10  20  36  59  82 107 143 191 237 276 322
#     4   9  21  36  57  82 111 139 182 235 278 322
#
# _framework density 18.673245999999999
#
# number of rings (size 3 to 8) (size 9 to 14) (size 15 to 20)
#    1.500    1.250    0.000    1.125    1.750    1.500 
#    0.000    3.750    0.000    0.000    0.000    0.000 
#    0.000    0.000    0.000    0.000    0.000    0.000 
#
# Total GULP energy -396480.064993 kJ/mol
# GULP energy per Si atom -12390.002031 kJ/mol
# Density = 1.863074 g / cm^3
# Si number density = 18.673246 Si / 1000 Ang^3
#
#
#
# Elastic Constant Matrix: (Units=GPa)
#
#
# Indices 1 2 3 4 5 6 
#
# 1 68.7894 24.6302 19.6120 0.0000 -19.8264 0.0000
# 2 24.6302 76.4347 6.3603 0.0000 -5.8665 0.0000
# 3 19.6120 6.3603 80.6312 0.0000 -6.4523 0.0000
# 4 0.0000 0.0000 0.0000 10.4042 0.0000 1.7270
# 5 -19.8264 -5.8665 -6.4523 0.0000 20.3944 0.0000
# 6 0.0000 0.0000 0.0000 1.7270 0.0000 15.7600
#
#
#
# Elastic Compliance Matrix: (Units=1/GPa)
#
#
# Indices 1 2 3 4 5 6 
#
# 1 0.023352 -0.005694 -0.003637 0.000000 0.019913 0.000000
# 2 -0.005694 0.014813 0.000117 0.000000 -0.001237 0.000000
# 3 -0.003637 0.000117 0.013335 0.000000 0.000717 0.000000
# 4 0.000000 0.000000 0.000000 0.097896 0.000000 -0.010728
# 5 0.019913 -0.001237 0.000717 0.000000 0.068262 0.000000
# 6 0.000000 0.000000 0.000000 -0.010728 0.000000 0.064627
#
#
# Mechanical properties :
#
#
# Convention : Reuss Voigt Hill
#
# Bulk Modulus (GPa) = 30.23646 36.34004 33.28825
# Shear Modulus (GPa) = 16.03910 20.99523 18.51717
#
# Velocity S-wave (km/s) = 2.93394 3.35677 3.15245
# Velocity P-wave (km/s) = 5.26354 5.87598 5.57817
#
# Compressibility (1/GPa) = 0.03307265
#
# Stress axis : x y z
#
# Youngs Moduli (GPa) = 42.82248 67.50765 74.99092
#
# Poissons Ratio (x) = 0.38438 0.27277
# Poissons Ratio (y) = 0.24383 -0.00881
# Poissons Ratio (z) = 0.15576 -0.00793
#
# Static dielectric constant tensor:
#      x y z
#    x 3.105970 0.000000 -0.033760 
#    y 0.000000 3.316240 0.000000 
#    z -0.033760 0.000000 3.280240 
# 
# 
# High freq. dielectric constant tensor:
#      x y z
#    x 1.702300 0.000000 -0.009620 
#    y 0.000000 1.713160 0.000000 
#    z -0.009620 0.000000 1.717600 
# 
# From -- ./inp_files/35533.got.cif
#   From: 2010.06.25/outbox.cif.g09.slc.cpg/sg11_18_cif.got.tgz:35533.got - 2010.06.27 23:14:04.
