data_PCOD8074726
_publ_section_title
;
Structure prediction by ZEFSAII (Michael W. Deem and Ramdas Pophale) SiO2 
 PCOD8074726
Probable space group: P 21/M
;
_chemical_formula_sum "Si O2"
_cell_formula_units_Z 28
_cell_length_a 8.964278
_cell_length_b 9.134052
_cell_length_c 25.192237
_cell_angle_alpha 90.000000
_cell_angle_beta 45.129774
_cell_angle_gamma 90.000000
_cell_volume 1461.880849
_symmetry_space_group_name_H-M "P 21/M"
_symmetry_group_IT_number 11
_symmetry_cell_setting 'monoclinic'
loop_
_space_group_symop_operation_xyz
x,y,z
-x,1/2+y,-z
-x,-y,-z
x,1/2-y,z
loop_
_atom_site_type_symbol
_atom_site_label
_atom_site_fract_x
_atom_site_fract_y
_atom_site_fract_z
Si Si1 0.098466 0.079434 0.776083
Si Si2 0.995878 0.081354 0.922570
Si Si3 0.671897 0.422158 0.492215
Si Si4 0.424056 0.578639 0.364697
Si Si5 0.858396 0.921337 0.650126
Si Si6 0.328273 0.420670 0.927769
Si Si7 0.752545 0.577345 0.795671
O O1 0.060657 0.250000 0.772934
O O2 0.336323 0.032033 0.705118
O O3 0.046257 0.042090 0.849782
O O4 0.957031 0.981281 0.773893
O O5 0.929635 0.250000 0.946746
O O6 0.203980 0.046793 0.904596
O O7 0.803896 0.980027 0.989189
O O8 0.500000 0.500000 0.500000
O O9 0.638122 0.250000 0.494709
O O10 0.644983 0.472180 0.559659
O O11 0.900325 0.472851 0.414788
O O12 0.393640 0.750000 0.364012
O O13 0.277774 0.500215 0.359518
O O14 0.841644 0.750000 0.643739
O O15 0.770138 0.965353 0.729671
O O16 0.371055 0.250000 0.925660
O O17 0.548607 0.502843 0.871731
O O18 0.737409 0.750000 0.807696
#
# Coordination Sequence:
#
# PCOD8074726 Si02
#       7
#     4   4   4   4   4   4   4
#     4  10  21  37  56  80 110 143 181 226 274 323
#     4   9  19  36  57  81 109 140 178 224 272 326
#     4  10  21  37  57  84 116 148 184 226 272 322
#     4  10  21  37  59  85 111 143 186 230 271 321
#     4  10  22  38  56  81 113 147 184 226 272 324
#     4  10  20  36  59  83 108 141 180 224 274 325
#     4  11  23  37  54  79 111 146 184 225 271 325
#
# _framework density 19.153406
#
# number of rings (size 3 to 8) (size 9 to 14) (size 15 to 20)
#    0.000    2.000    0.000    3.000    0.000    5.714 
#    0.000    0.000    0.000    0.000    0.000    0.000 
#    0.000    0.000    0.000    0.000    0.000    0.000 
#
# Total GULP energy -347352.366772 kJ/mol
# GULP energy per Si atom -12405.441670 kJ/mol
# Density = 1.910981 g / cm^3
# Si number density = 19.153406 Si / 1000 Ang^3
#
#
#
# Elastic Constant Matrix: (Units=GPa)
#
#
# Indices 1 2 3 4 5 6 
#
# 1 68.7629 35.4809 25.3776 0.0000 -18.2737 0.0000
# 2 35.4809 59.4348 43.0060 0.0000 -7.7228 0.0000
# 3 25.3776 43.0060 95.2554 0.0000 -19.0391 0.0000
# 4 0.0000 0.0000 0.0000 18.9235 0.0000 -3.0046
# 5 -18.2737 -7.7228 -19.0391 0.0000 30.2789 0.0000
# 6 0.0000 0.0000 0.0000 -3.0046 0.0000 40.4769
#
#
#
# Elastic Compliance Matrix: (Units=1/GPa)
#
#
# Indices 1 2 3 4 5 6 
#
# 1 0.024716 -0.015117 0.002803 0.000000 0.012824 0.000000
# 2 -0.015117 0.034253 -0.013169 0.000000 -0.008668 0.000000
# 3 0.002803 -0.013169 0.017572 0.000000 0.009382 0.000000
# 4 0.000000 0.000000 0.000000 0.053475 0.000000 0.003969
# 5 0.012824 -0.008668 0.009382 0.000000 0.044454 0.000000
# 6 0.000000 0.000000 0.000000 0.003969 0.000000 0.025000
#
#
# Mechanical properties :
#
#
# Convention : Reuss Voigt Hill
#
# Bulk Modulus (GPa) = 39.10108 47.90910 43.50509
# Shear Modulus (GPa) = 19.30793 25.90844 22.60819
#
# Velocity S-wave (km/s) = 3.17845 3.68187 3.43938
# Velocity P-wave (km/s) = 5.82487 6.56830 6.20772
#
# Compressibility (1/GPa) = 0.02557474
#
# Stress axis : x y z
#
# Youngs Moduli (GPa) = 40.45920 29.19492 56.90812
#
# Poissons Ratio (x) = 0.44134 -0.15954
# Poissons Ratio (y) = 0.61163 0.74944
# Poissons Ratio (z) = -0.11342 0.38448
#
# Static dielectric constant tensor:
#      x y z
#    x 3.432210 0.000000 0.004670 
#    y 0.000000 3.472790 0.000000 
#    z 0.004670 0.000000 3.670580 
# 
# 
# High freq. dielectric constant tensor:
#      x y z
#    x 1.751080 0.000000 -0.000390 
#    y 0.000000 1.742130 0.000000 
#    z -0.000390 0.000000 1.762550 
# 
# From -- ./inp_files/28338.got.cif
#   From: 2010.06.25/outbox.cif.g09.slc.cpg/sg11_15_cif.got.tgz:28338.got - 2010.06.27 23:14:04.
