data_PCOD8074790
_publ_section_title
;
Structure prediction by ZEFSAII (Michael W. Deem and Ramdas Pophale) SiO2 
 PCOD8074790
Probable space group: P 21/M
;
_chemical_formula_sum "Si O2"
_cell_formula_units_Z 32
_cell_length_a 26.018495
_cell_length_b 8.894920
_cell_length_c 20.100863
_cell_angle_alpha 90.000000
_cell_angle_beta 20.815364
_cell_angle_gamma 90.000000
_cell_volume 1653.120688
_symmetry_space_group_name_H-M "P 21/M"
_symmetry_group_IT_number 11
_symmetry_cell_setting 'monoclinic'
loop_
_space_group_symop_operation_xyz
x,y,z
-x,1/2+y,-z
-x,-y,-z
x,1/2-y,z
loop_
_atom_site_type_symbol
_atom_site_label
_atom_site_fract_x
_atom_site_fract_y
_atom_site_fract_z
Si Si1 0.121130 0.424433 0.239837
Si Si2 0.648702 0.574462 0.300711
Si Si3 0.635374 0.572979 0.553332
Si Si4 0.664280 0.572350 0.906003
Si Si5 0.347951 0.422565 0.854128
Si Si6 0.349165 0.928680 0.326334
Si Si7 0.819299 0.927344 0.585845
Si Si8 0.845425 0.573024 0.180656
O O1 0.079193 0.250000 0.301459
O O2 0.222246 0.487109 0.176709
O O3 0.980267 0.526679 0.410793
O O4 0.202661 0.447372 0.071505
O O5 0.500000 0.500000 0.500000
O O6 0.626712 0.750000 0.337811
O O7 0.691182 0.533312 0.173998
O O8 0.774730 0.516144 0.197077
O O9 0.640777 0.750000 0.558722
O O10 0.473085 0.527868 0.730775
O O11 0.687483 0.489523 0.556512
O O12 0.742835 0.520829 0.365016
O O13 0.658663 0.750000 0.919023
O O14 0.712607 0.520840 0.774303
O O15 0.505131 0.507360 0.113999
O O16 0.401199 0.250000 0.795527
O O17 0.345639 0.750000 0.331671
O O18 0.226399 0.987681 0.425470
O O19 0.811890 0.750000 0.583311
O O20 0.865730 0.750000 0.156524
O O21 0.000000 0.500000 0.000000
#
# Coordination Sequence:
#
# PCOD8074790 Si02
#       8
#     4   4   4   4   4   4   4   4
#     4  10  20  38  59  85 118 157 200 242 288 351
#     4  10  20  36  59  88 116 149 192 237 284 337
#     4  11  22  38  60  88 121 152 191 246 297 345
#     4   9  19  37  61  85 116 153 199 246 290 350
#     4  10  20  36  62  88 115 153 201 243 285 347
#     4  11  22  40  63  86 114 157 201 241 292 356
#     4  11  23  38  56  87 123 154 192 248 302 347
#     4  10  23  40  58  87 125 158 193 238 288 345
#
# _framework density 19.357327000000002
#
# number of rings (size 3 to 8) (size 9 to 14) (size 15 to 20)
#    0.000    1.750    2.500    1.875    0.000    3.000 
#    0.000    3.750    0.000    0.000    0.000    0.000 
#    0.000    0.000    0.000    0.000    0.000    0.000 
#
# Total GULP energy -396927.878631 kJ/mol
# GULP energy per Si atom -12403.996207 kJ/mol
# Density = 1.931327 g / cm^3
# Si number density = 19.357327 Si / 1000 Ang^3
#
#
#
# Elastic Constant Matrix: (Units=GPa)
#
#
# Indices 1 2 3 4 5 6 
#
# 1 129.3125 29.8237 14.7452 0.0000 1.8447 0.0000
# 2 29.8237 48.7888 17.1131 0.0000 4.3132 0.0000
# 3 14.7452 17.1131 47.9912 0.0000 -2.4802 0.0000
# 4 0.0000 0.0000 0.0000 31.6273 0.0000 -4.1172
# 5 1.8447 4.3132 -2.4802 0.0000 36.8462 0.0000
# 6 0.0000 0.0000 0.0000 -4.1172 0.0000 30.0744
#
#
#
# Elastic Compliance Matrix: (Units=1/GPa)
#
#
# Indices 1 2 3 4 5 6 
#
# 1 0.009038 -0.005213 -0.000913 0.000000 0.000096 0.000000
# 2 -0.005213 0.026844 -0.008148 0.000000 -0.003430 0.000000
# 3 -0.000913 -0.008148 0.024159 0.000000 0.002626 0.000000
# 4 0.000000 0.000000 0.000000 0.032192 0.000000 0.004407
# 5 0.000096 -0.003430 0.002626 0.000000 0.027713 0.000000
# 6 0.000000 0.000000 0.000000 0.004407 0.000000 0.033854
#
#
# Mechanical properties :
#
#
# Convention : Reuss Voigt Hill
#
# Bulk Modulus (GPa) = 31.75287 38.82849 35.29068
# Shear Modulus (GPa) = 25.92729 30.67028 28.29878
#
# Velocity S-wave (km/s) = 3.66376 3.98481 3.82765
# Velocity P-wave (km/s) = 5.85975 6.42448 6.14860
#
# Compressibility (1/GPa) = 0.03149322
#
# Stress axis : x y z
#
# Youngs Moduli (GPa) = 110.64064 37.25170 41.39272
#
# Poissons Ratio (x) = 0.19420 0.03779
# Poissons Ratio (y) = 0.57679 0.33726
# Poissons Ratio (z) = 0.10102 0.30352
#
# Static dielectric constant tensor:
#      x y z
#    x 3.080220 0.000000 -0.287300 
#    y 0.000000 3.385990 0.000000 
#    z -0.287300 0.000000 3.269150 
# 
# 
# High freq. dielectric constant tensor:
#      x y z
#    x 1.771560 0.000000 0.005520 
#    y 0.000000 1.739660 0.000000 
#    z 0.005520 0.000000 1.753560 
# 
# From -- ./inp_files/66988.got.cif
#   From: 2010.06.25/outbox.cif.g09.slc.cpg/sg11_34_cif.got.tgz:66988.got - 2010.06.27 23:14:04.
