data_PCOD8074783
_publ_section_title
;
Structure prediction by ZEFSAII (Michael W. Deem and Ramdas Pophale) SiO2 
 PCOD8074783
Probable space group: P 21/M
;
_chemical_formula_sum "Si O2"
_cell_formula_units_Z 32
_cell_length_a 22.661825
_cell_length_b 9.065115
_cell_length_c 15.235231
_cell_angle_alpha 90.000000
_cell_angle_beta 147.743367
_cell_angle_gamma 90.000000
_cell_volume 1670.415659
_symmetry_space_group_name_H-M "P 21/M"
_symmetry_group_IT_number 11
_symmetry_cell_setting 'monoclinic'
loop_
_space_group_symop_operation_xyz
x,y,z
-x,1/2+y,-z
-x,-y,-z
x,1/2-y,z
loop_
_atom_site_type_symbol
_atom_site_label
_atom_site_fract_x
_atom_site_fract_y
_atom_site_fract_z
Si Si1 0.106156 0.079299 0.094832
Si Si2 0.094032 0.925119 0.902641
Si Si3 0.761579 0.917184 0.251888
Si Si4 0.545210 0.079329 0.974476
Si Si5 0.236234 0.083427 0.941973
Si Si6 0.508233 0.922938 0.757936
Si Si7 0.148568 0.422505 0.446728
Si Si8 0.702426 0.919930 0.524050
O O1 0.078044 0.250000 0.043589
O O2 0.205931 0.059764 0.286951
O O3 0.142041 0.003142 0.049172
O O4 0.000000 0.000000 0.000000
O O5 0.096532 0.750000 0.917775
O O6 0.970351 0.987425 0.730160
O O7 0.170158 0.967252 0.916330
O O8 0.712180 0.750000 0.202363
O O9 0.836327 0.957275 0.430162
O O10 0.674257 0.047509 0.134675
O O11 0.815418 0.922780 0.222222
O O12 0.518182 0.250000 0.942254
O O13 0.500000 0.000000 0.000000
O O14 0.481687 0.005963 0.814623
O O15 0.222154 0.250000 0.960372
O O16 0.366790 0.038799 0.114577
O O17 0.495459 0.750000 0.753223
O O18 0.404296 0.988113 0.572610
O O19 0.143424 0.250000 0.423833
O O20 0.245606 0.481786 0.503696
O O21 0.666845 0.750000 0.469318
#
# Coordination Sequence:
#
# PCOD8074783 Si02
#       8
#     4   4   4   4   4   4   4   4
#     4  11  22  39  62  89 119 151 186 232 291 348
#     4  11  22  38  60  85 113 152 197 239 288 345
#     4   9  18  34  55  77 110 153 191 235 288 337
#     4  11  20  31  49  75 109 148 193 238 285 337
#     4   9  20  38  56  80 115 154 194 237 285 338
#     4  10  21  37  57  82 113 149 191 236 287 342
#     4   9  18  34  55  83 116 149 187 235 290 340
#     4  10  20  36  59  87 119 149 185 234 293 348
#
# _framework density 19.156908000000001
#
# number of rings (size 3 to 8) (size 9 to 14) (size 15 to 20)
#    0.000    2.000    1.250    3.750    0.000    5.000 
#    0.000    1.875    0.000    0.000    0.000    0.000 
#    0.000    0.000    0.000    0.000    0.000    0.000 
#
# Total GULP energy -396480.429494 kJ/mol
# GULP energy per Si atom -12390.013422 kJ/mol
# Density = 1.911331 g / cm^3
# Si number density = 19.156908 Si / 1000 Ang^3
#
#
#
# Elastic Constant Matrix: (Units=GPa)
#
#
# Indices 1 2 3 4 5 6 
#
# 1 85.1066 33.8696 36.9152 0.0000 -8.0036 0.0000
# 2 33.8696 83.7898 40.0397 0.0000 -1.1878 0.0000
# 3 36.9152 40.0397 87.8600 0.0000 -0.7662 0.0000
# 4 0.0000 0.0000 0.0000 29.2634 0.0000 1.0688
# 5 -8.0036 -1.1878 -0.7662 0.0000 28.7919 0.0000
# 6 0.0000 0.0000 0.0000 1.0688 0.0000 34.6264
#
#
#
# Elastic Compliance Matrix: (Units=1/GPa)
#
#
# Indices 1 2 3 4 5 6 
#
# 1 0.015816 -0.004061 -0.004759 0.000000 0.004102 0.000000
# 2 -0.004061 0.016306 -0.005730 0.000000 -0.000609 0.000000
# 3 -0.004759 -0.005730 0.015983 0.000000 -0.001134 0.000000
# 4 0.000000 0.000000 0.000000 0.034211 0.000000 -0.001056
# 5 0.004102 -0.000609 -0.001134 0.000000 0.035817 0.000000
# 6 0.000000 0.000000 0.000000 -0.001056 0.000000 0.028912
#
#
# Mechanical properties :
#
#
# Convention : Reuss Voigt Hill
#
# Bulk Modulus (GPa) = 52.61806 53.15614 52.88710
# Shear Modulus (GPa) = 27.40046 28.26515 27.83281
#
# Velocity S-wave (km/s) = 3.78606 3.84533 3.81581
# Velocity P-wave (km/s) = 6.82926 6.89372 6.86157
#
# Compressibility (1/GPa) = 0.01900488
#
# Stress axis : x y z
#
# Youngs Moduli (GPa) = 63.22692 61.32868 62.56833
#
# Poissons Ratio (x) = 0.24905 0.29775
# Poissons Ratio (y) = 0.25676 0.35851
# Poissons Ratio (z) = 0.30088 0.35140
#
# Static dielectric constant tensor:
#      x y z
#    x 3.389240 0.000000 -0.110860 
#    y 0.000000 2.287300 0.000000 
#    z -0.110860 0.000000 3.729160 
# 
# 
# High freq. dielectric constant tensor:
#      x y z
#    x 1.733570 0.000000 -0.004490 
#    y 0.000000 1.737780 0.000000 
#    z -0.004490 0.000000 1.748460 
# 
# From -- ./inp_files/55663.got.cif
#   From: 2010.06.25/outbox.cif.g09.slc.cpg/sg11_28_cif.got.tgz:55663.got - 2010.06.27 23:14:04.
