data_PCOD8074473
_publ_section_title
;
Structure prediction by ZEFSAII (Michael W. Deem and Ramdas Pophale) SiO2 
 PCOD8074473
Probable space group: P 21/M
;
_chemical_formula_sum "Si O2"
_cell_formula_units_Z 24
_cell_length_a 8.801000
_cell_length_b 21.145974
_cell_length_c 7.959458
_cell_angle_alpha 90.000000
_cell_angle_beta 127.581489
_cell_angle_gamma 90.000000
_cell_volume 1173.911095
_symmetry_space_group_name_H-M "P 21/M"
_symmetry_group_IT_number 11
_symmetry_cell_setting 'monoclinic'
loop_
_space_group_symop_operation_xyz
x,y,z
-x,1/2+y,-z
-x,-y,-z
x,1/2-y,z
loop_
_atom_site_type_symbol
_atom_site_label
_atom_site_fract_x
_atom_site_fract_y
_atom_site_fract_z
Si Si1 0.473740 0.493246 0.239223
Si Si2 0.757110 0.434632 0.653474
Si Si3 0.814144 0.902816 0.081121
Si Si4 0.851527 0.675819 0.769992
Si Si5 0.727031 0.179950 0.863774
Si Si6 0.647257 0.627863 0.297816
O O1 0.639617 0.443592 0.403059
O O2 0.316118 0.508289 0.277569
O O3 0.575732 0.556038 0.245985
O O4 0.349140 0.456922 0.015984
O O5 0.702984 0.366251 0.689792
O O6 0.983540 0.439010 0.777626
O O7 0.788961 0.861263 0.234766
O O8 0.787778 0.858380 0.899842
O O9 0.796947 0.750000 0.742326
O O10 0.752404 0.643609 0.543467
O O11 0.080229 0.665720 0.900892
O O12 0.737661 0.250000 0.794733
O O13 0.539595 0.172279 0.854198
#
# Coordination Sequence:
#
# PCOD8074473 Si02
#       6
#     4   4   4   4   4   4
#     4  10  20  36  55  84 119 151 186 230 283 336
#     4   9  19  35  59  84 112 151 191 231 280 334
#     4  11  22  37  60  86 112 150 192 232 278 336
#     4  10  22  40  59  81 112 148 189 236 283 333
#     4   9  19  37  58  80 111 149 187 233 285 334
#     4  11  23  36  58  87 116 148 187 233 284 338
#
# _framework density 20.444478
#
# number of rings (size 3 to 8) (size 9 to 14) (size 15 to 20)
#    0.000    2.000    0.000    4.500    0.000    6.000 
#    0.000    0.000    0.000    4.000    0.000    0.000 
#    0.000    0.000    0.000    0.000    0.000    0.000 
#
# Total GULP energy -297469.567430 kJ/mol
# GULP energy per Si atom -12394.565310 kJ/mol
# Density = 2.039795 g / cm^3
# Si number density = 20.444478 Si / 1000 Ang^3
#
#
#
# Elastic Constant Matrix: (Units=GPa)
#
#
# Indices 1 2 3 4 5 6 
#
# 1 93.5666 31.7023 80.6779 0.0000 -6.0687 0.0000
# 2 31.7023 102.4885 58.5986 0.0000 8.1769 0.0000
# 3 80.6779 58.5986 122.8501 0.0000 9.3198 0.0000
# 4 0.0000 0.0000 0.0000 28.9201 0.0000 10.9328
# 5 -6.0687 8.1769 9.3198 0.0000 29.0906 0.0000
# 6 0.0000 0.0000 0.0000 10.9328 0.0000 17.0400
#
#
#
# Elastic Compliance Matrix: (Units=1/GPa)
#
#
# Indices 1 2 3 4 5 6 
#
# 1 0.028582 0.001999 -0.020635 0.000000 0.012011 0.000000
# 2 0.001999 0.013645 -0.007750 0.000000 -0.000935 0.000000
# 3 -0.020635 -0.007750 0.026186 0.000000 -0.010515 0.000000
# 4 0.000000 0.000000 0.000000 0.045650 0.000000 -0.029289
# 5 0.012011 -0.000935 -0.010515 0.000000 0.040513 0.000000
# 6 0.000000 0.000000 0.000000 -0.029289 0.000000 0.077477
#
#
# Mechanical properties :
#
#
# Convention : Reuss Voigt Hill
#
# Bulk Modulus (GPa) = 63.93880 73.42918 68.68399
# Shear Modulus (GPa) = 17.23911 24.87189 21.05550
#
# Velocity S-wave (km/s) = 2.90697 3.49170 3.21267
# Velocity P-wave (km/s) = 6.52760 7.22844 6.88694
#
# Compressibility (1/GPa) = 0.01563996
#
# Stress axis : x y z
#
# Youngs Moduli (GPa) = 34.98731 73.28829 38.18878
#
# Poissons Ratio (x) = -0.14648 0.78802
# Poissons Ratio (y) = -0.06993 0.29597
# Poissons Ratio (z) = 0.72196 0.56799
#
# Static dielectric constant tensor:
#      x y z
#    x 3.777440 0.000000 0.262490 
#    y 0.000000 3.692920 0.000000 
#    z 0.262490 0.000000 3.744910 
# 
# 
# High freq. dielectric constant tensor:
#      x y z
#    x 1.791670 0.000000 0.021270 
#    y 0.000000 1.798040 0.000000 
#    z 0.021270 0.000000 1.799750 
# 
# From -- ./inp_files/14849.got.cif
#   From: 2010.06.25/outbox.cif.g09.slc.cpg/sg11_8_cif.got.tgz:14849.got - 2010.06.27 23:14:04.
