data_PCOD8074493
_publ_section_title
;
Structure prediction by ZEFSAII (Michael W. Deem and Ramdas Pophale) SiO2 
 PCOD8074493
Probable space group: P 21/M
;
_chemical_formula_sum "Si O2"
_cell_formula_units_Z 32
_cell_length_a 20.961340
_cell_length_b 8.786048
_cell_length_c 11.588366
_cell_angle_alpha 90.000000
_cell_angle_beta 46.955341
_cell_angle_gamma 90.000000
_cell_volume 1559.719024
_symmetry_space_group_name_H-M "P 21/M"
_symmetry_group_IT_number 11
_symmetry_cell_setting 'monoclinic'
loop_
_space_group_symop_operation_xyz
x,y,z
-x,1/2+y,-z
-x,-y,-z
x,1/2-y,z
loop_
_atom_site_type_symbol
_atom_site_label
_atom_site_fract_x
_atom_site_fract_y
_atom_site_fract_z
Si Si1 0.740572 0.569075 0.859729
Si Si2 0.963063 0.571156 0.863470
Si Si3 0.426570 0.922332 0.015309
Si Si4 0.507185 0.921388 0.664729
Si Si5 0.881667 0.930867 0.208447
Si Si6 0.078299 0.931125 0.329326
Si Si7 0.655240 0.920960 0.196704
Si Si8 0.694822 0.923066 0.401306
O O1 0.751976 0.750000 0.835325
O O2 0.665550 0.512716 0.863119
O O3 0.832490 0.488522 0.720407
O O4 0.712507 0.510622 0.022127
O O5 0.960046 0.750000 0.842030
O O6 0.925101 0.486303 0.798971
O O7 0.062229 0.517639 0.764611
O O8 0.908829 0.525469 0.044365
O O9 0.411202 0.750000 0.076322
O O10 0.462685 0.927407 0.842597
O O11 0.500000 0.000000 0.000000
O O12 0.521246 0.750000 0.601512
O O13 0.602984 0.003252 0.549915
O O14 0.438559 0.000652 0.663636
O O15 0.890613 0.750000 0.215083
O O16 0.782208 0.991677 0.350838
O O17 0.073745 0.750000 0.339240
O O18 0.000000 0.000000 0.500000
O O19 0.633020 0.750000 0.188196
O O20 0.710911 0.932899 0.244029
O O21 0.689071 0.750000 0.450503
#
# Coordination Sequence:
#
# PCOD8074493 Si02
#       8
#     4   4   4   4   4   4   4   4
#     4  10  20  37  60  86 112 144 187 232 281 343
#     4  10  20  37  59  83 114 149 190 239 289 346
#     4  10  20  36  56  79 108 148 193 240 285 336
#     4   9  18  31  48  73 105 139 179 226 275 327
#     4   9  18  34  57  82 111 152 195 235 286 348
#     4  12  25  42  63  88 117 151 191 241 298 354
#     4   9  17  30  52  78 108 144 179 218 269 328
#     4   9  16  29  49  76 108 142 179 220 272 331
#
# _framework density 20.516517
#
# number of rings (size 3 to 8) (size 9 to 14) (size 15 to 20)
#    0.000    2.250    0.000    3.375    0.000    3.500 
#    2.250    1.250    0.000    0.000    0.000    0.000 
#    0.000    0.000    0.000    0.000    0.000    0.000 
#
# Total GULP energy -396631.609524 kJ/mol
# GULP energy per Si atom -12394.737798 kJ/mol
# Density = 2.046982 g / cm^3
# Si number density = 20.516517 Si / 1000 Ang^3
#
#
#
# Elastic Constant Matrix: (Units=GPa)
#
#
# Indices 1 2 3 4 5 6 
#
# 1 126.7782 43.5113 28.7670 0.0000 -37.2392 0.0000
# 2 43.5113 93.9727 25.3540 0.0000 -12.4028 0.0000
# 3 28.7670 25.3540 56.6890 0.0000 -30.4664 0.0000
# 4 0.0000 0.0000 0.0000 22.4992 0.0000 -3.1514
# 5 -37.2392 -12.4028 -30.4664 0.0000 39.8136 0.0000
# 6 0.0000 0.0000 0.0000 -3.1514 0.0000 36.8388
#
#
#
# Elastic Compliance Matrix: (Units=1/GPa)
#
#
# Indices 1 2 3 4 5 6 
#
# 1 0.012545 -0.004829 0.002193 0.000000 0.011908 0.000000
# 2 -0.004829 0.013970 -0.006600 0.000000 -0.005216 0.000000
# 3 0.002193 -0.006600 0.033082 0.000000 0.025310 0.000000
# 4 0.000000 0.000000 0.000000 0.044985 0.000000 0.003848
# 5 0.011908 -0.005216 0.025310 0.000000 0.053998 0.000000
# 6 0.000000 0.000000 0.000000 0.003848 0.000000 0.027474
#
#
# Mechanical properties :
#
#
# Convention : Reuss Voigt Hill
#
# Bulk Modulus (GPa) = 24.31636 52.52271 38.41953
# Shear Modulus (GPa) = 22.91114 31.81750 27.36432
#
# Velocity S-wave (km/s) = 3.34536 3.94232 3.65604
# Velocity P-wave (km/s) = 5.17684 6.81016 6.04889
#
# Compressibility (1/GPa) = 0.04112458
#
# Stress axis : x y z
#
# Youngs Moduli (GPa) = 79.71161 71.58371 30.22832
#
# Poissons Ratio (x) = 0.34566 -0.06630
# Poissons Ratio (y) = 0.38491 0.19952
# Poissons Ratio (z) = -0.17483 0.47249
#
# Static dielectric constant tensor:
#      x y z
#    x 3.543480 0.000000 -0.463530 
#    y 0.000000 3.671220 0.000000 
#    z -0.463530 0.000000 3.605920 
# 
# 
# High freq. dielectric constant tensor:
#      x y z
#    x 1.811210 0.000000 -0.021330 
#    y 0.000000 1.783360 0.000000 
#    z -0.021330 0.000000 1.792130 
# 
# From -- ./inp_files/42757.got.cif
#   From: 2010.06.25/outbox.cif.g09.slc.cpg/sg11_22_cif.got.tgz:42757.got - 2010.06.27 23:14:04.
