data_PCOD8074479
_publ_section_title
;
Structure prediction by ZEFSAII (Michael W. Deem and Ramdas Pophale) SiO2 
 PCOD8074479
Probable space group: P 21/M
;
_chemical_formula_sum "Si O2"
_cell_formula_units_Z 32
_cell_length_a 25.342174
_cell_length_b 8.959187
_cell_length_c 21.207938
_cell_angle_alpha 90.000000
_cell_angle_beta 158.419969
_cell_angle_gamma 90.000000
_cell_volume 1771.018945
_symmetry_space_group_name_H-M "P 21/M"
_symmetry_group_IT_number 11
_symmetry_cell_setting 'monoclinic'
loop_
_space_group_symop_operation_xyz
x,y,z
-x,1/2+y,-z
-x,-y,-z
x,1/2-y,z
loop_
_atom_site_type_symbol
_atom_site_label
_atom_site_fract_x
_atom_site_fract_y
_atom_site_fract_z
Si Si1 0.642588 0.914772 0.586410
Si Si2 0.692897 0.415476 0.760102
Si Si3 0.619284 0.423205 0.174237
Si Si4 0.256945 0.427132 0.058397
Si Si5 0.983256 0.424263 0.292056
Si Si6 0.056944 0.925531 0.500402
Si Si7 0.307971 0.078258 0.621196
Si Si8 0.448789 0.073581 0.647343
O O1 0.710433 0.750000 0.667381
O O2 0.476579 0.908643 0.420304
O O3 0.650770 0.972761 0.523177
O O4 0.729021 0.020918 0.730498
O O5 0.759882 0.250000 0.840021
O O6 0.760919 0.519824 0.889276
O O7 0.585511 0.250000 0.138586
O O8 0.774005 0.458303 0.316426
O O9 0.609900 0.483395 0.234914
O O10 0.500000 0.500000 0.000000
O O11 0.255429 0.250000 0.054806
O O12 0.402281 0.486017 0.188300
O O13 0.125709 0.491547 0.873690
O O14 0.944280 0.250000 0.253881
O O15 0.973881 0.497038 0.350599
O O16 0.138906 0.450522 0.434987
O O17 0.023607 0.750000 0.462958
O O18 0.000000 0.000000 0.500000
O O19 0.344868 0.250000 0.675249
O O20 0.364036 0.026635 0.615526
O O21 0.482666 0.250000 0.681553
#
# Coordination Sequence:
#
# PCOD8074479 Si02
#       8
#     4   4   4   4   4   4   4   4
#     4   8  14  25  43  68  98 129 160 200 252 302
#     4   9  16  27  44  67  97 131 166 207 253 298
#     4  10  21  36  55  78 104 133 167 206 248 296
#     4  11  21  32  49  75 104 134 170 211 252 297
#     4  10  20  36  56  76 101 135 170 206 251 302
#     4  10  21  37  56  79 104 133 169 208 250 297
#     4   9  19  36  57  77 100 133 169 204 249 302
#     4   9  18  33  52  76 104 132 166 209 253 299
#
# _framework density 18.068694000000001
#
# number of rings (size 3 to 8) (size 9 to 14) (size 15 to 20)
#    0.000    2.500    0.000    3.375    0.000    6.500 
#    0.000    1.250    0.000    0.750    0.000    0.000 
#    0.000    0.000    0.000    0.000    0.000    0.000 
#
# Total GULP energy -396789.214319 kJ/mol
# GULP energy per Si atom -12399.662947 kJ/mol
# Density = 1.802757 g / cm^3
# Si number density = 18.068694 Si / 1000 Ang^3
#
#
#
# Elastic Constant Matrix: (Units=GPa)
#
#
# Indices 1 2 3 4 5 6 
#
# 1 144.4507 67.3905 66.1718 0.0000 -33.2808 0.0000
# 2 67.3905 121.8580 64.3304 0.0000 -18.9059 0.0000
# 3 66.1718 64.3304 96.6152 0.0000 -28.1780 0.0000
# 4 0.0000 0.0000 0.0000 30.3952 0.0000 -8.6753
# 5 -33.2808 -18.9059 -28.1780 0.0000 22.1142 0.0000
# 6 0.0000 0.0000 0.0000 -8.6753 0.0000 29.0429
#
#
#
# Elastic Compliance Matrix: (Units=1/GPa)
#
#
# Indices 1 2 3 4 5 6 
#
# 1 0.012778 -0.003749 -0.002517 0.000000 0.012818 0.000000
# 2 -0.003749 0.013755 -0.007649 0.000000 -0.003630 0.000000
# 3 -0.002517 -0.007649 0.022527 0.000000 0.018377 0.000000
# 4 0.000000 0.000000 0.000000 0.035966 0.000000 0.010743
# 5 0.012818 -0.003630 0.018377 0.000000 0.084823 0.000000
# 6 0.000000 0.000000 0.000000 0.010743 0.000000 0.037641
#
#
# Mechanical properties :
#
#
# Convention : Reuss Voigt Hill
#
# Bulk Modulus (GPa) = 47.10564 84.30102 65.70333
# Shear Modulus (GPa) = 20.62733 27.31253 23.96993
#
# Velocity S-wave (km/s) = 3.38243 3.89214 3.64620
# Velocity P-wave (km/s) = 6.43283 8.18263 7.35992
#
# Compressibility (1/GPa) = 0.02122888
#
# Stress axis : x y z
#
# Youngs Moduli (GPa) = 78.25891 72.70275 44.39121
#
# Poissons Ratio (x) = 0.27258 0.11173
# Poissons Ratio (y) = 0.29341 0.33956
# Poissons Ratio (z) = 0.19697 0.55612
#
# Static dielectric constant tensor:
#      x y z
#    x 3.488170 0.000000 -0.256860 
#    y 0.000000 3.558940 0.000000 
#    z -0.256860 0.000000 3.048580 
# 
# 
# High freq. dielectric constant tensor:
#      x y z
#    x 1.696190 0.000000 -0.026520 
#    y 0.000000 1.709080 0.000000 
#    z -0.026520 0.000000 1.683060 
# 
# From -- ./inp_files/67226.got.cif
#   From: 2010.06.25/outbox.cif.g09.slc.cpg/sg11_34_cif.got.tgz:67226.got - 2010.06.27 23:14:04.
