data_PCOD8074824
_publ_section_title
;
Structure prediction by ZEFSAII (Michael W. Deem and Ramdas Pophale) SiO2 
 PCOD8074824
Probable space group: P 21/M
;
_chemical_formula_sum "Si O2"
_cell_formula_units_Z 32
_cell_length_a 27.467041
_cell_length_b 8.812845
_cell_length_c 21.392042
_cell_angle_alpha 90.000000
_cell_angle_beta 161.328704
_cell_angle_gamma 90.000000
_cell_volume 1657.746212
_symmetry_space_group_name_H-M "P 21/M"
_symmetry_group_IT_number 11
_symmetry_cell_setting 'monoclinic'
loop_
_space_group_symop_operation_xyz
x,y,z
-x,1/2+y,-z
-x,-y,-z
x,1/2-y,z
loop_
_atom_site_type_symbol
_atom_site_label
_atom_site_fract_x
_atom_site_fract_y
_atom_site_fract_z
Si Si1 0.528671 0.069148 0.347864
Si Si2 0.607998 0.073688 0.581237
Si Si3 0.337735 0.930728 0.815387
Si Si4 0.208950 0.429333 0.911046
Si Si5 0.187363 0.930168 0.386366
Si Si6 0.044358 0.572969 0.988902
Si Si7 0.838579 0.929777 0.288885
Si Si8 0.888562 0.430235 0.568044
O O1 0.526797 0.250000 0.344969
O O2 0.575683 0.005542 0.472987
O O3 0.653235 0.012393 0.448831
O O4 0.362611 0.002562 0.128465
O O5 0.571680 0.250000 0.535391
O O6 0.779528 0.039757 0.810134
O O7 0.500000 0.000000 0.500000
O O8 0.345386 0.750000 0.826913
O O9 0.222387 0.988820 0.621478
O O10 0.286764 0.995695 0.819676
O O11 0.500000 0.000000 0.000000
O O12 0.209777 0.250000 0.919466
O O13 0.207218 0.475082 0.836683
O O14 0.058784 0.495356 0.762952
O O15 0.174059 0.750000 0.365789
O O16 0.175285 0.987644 0.443113
O O17 0.046783 0.999157 0.178269
O O18 0.008939 0.750000 0.949739
O O19 0.000000 0.500000 0.000000
O O20 0.844302 0.750000 0.305478
O O21 0.000000 0.000000 0.500000
O O22 0.893456 0.250000 0.572265
#
# Coordination Sequence:
#
# PCOD8074824 Si02
#       8
#     4   4   4   4   4   4   4   4
#     4   9  18  34  55  82 113 144 186 237 279 334
#     4  10  22  38  57  84 114 145 186 234 284 335
#     4  11  23  40  60  88 121 155 201 250 297 356
#     4   9  18  33  56  85 113 146 193 239 282 340
#     4  10  20  36  60  86 113 149 194 239 287 341
#     4  11  22  39  60  84 116 152 192 237 287 345
#     4  11  21  37  62  88 117 156 197 245 298 352
#     4   9  19  35  57  85 114 149 194 237 282 349
#
# _framework density 19.303318000000001
#
# number of rings (size 3 to 8) (size 9 to 14) (size 15 to 20)
#    0.000    2.000    2.500    1.125    3.500    1.000 
#    0.000    1.250    0.000    1.500    0.000    0.000 
#    0.000    0.000    0.000    0.000    0.000    0.000 
#
# Total GULP energy -396821.114648 kJ/mol
# GULP energy per Si atom -12400.659833 kJ/mol
# Density = 1.925938 g / cm^3
# Si number density = 19.303318 Si / 1000 Ang^3
#
#
#
# Elastic Constant Matrix: (Units=GPa)
#
#
# Indices 1 2 3 4 5 6 
#
# 1 169.9643 29.7836 75.6189 0.0000 17.9154 0.0000
# 2 29.7836 36.8942 24.1203 0.0000 4.9728 0.0000
# 3 75.6189 24.1203 150.0471 0.0000 9.3832 0.0000
# 4 0.0000 0.0000 0.0000 29.1373 0.0000 1.4491
# 5 17.9154 4.9728 9.3832 0.0000 37.5015 0.0000
# 6 0.0000 0.0000 0.0000 1.4491 0.0000 29.6722
#
#
#
# Elastic Compliance Matrix: (Units=1/GPa)
#
#
# Indices 1 2 3 4 5 6 
#
# 1 0.008409 -0.004216 -0.003397 0.000000 -0.002608 0.000000
# 2 -0.004216 0.032702 -0.003035 0.000000 -0.001563 0.000000
# 3 -0.003397 -0.003035 0.008877 0.000000 -0.000196 0.000000
# 4 0.000000 0.000000 0.000000 0.034404 0.000000 -0.001680
# 5 -0.002608 -0.001563 -0.000196 0.000000 0.028168 0.000000
# 6 0.000000 0.000000 0.000000 -0.001680 0.000000 0.033784
#
#
# Mechanical properties :
#
#
# Convention : Reuss Voigt Hill
#
# Bulk Modulus (GPa) = 34.85156 68.43903 51.64530
# Shear Modulus (GPa) = 28.21646 34.42104 31.31875
#
# Velocity S-wave (km/s) = 3.82742 4.22734 4.03234
# Velocity P-wave (km/s) = 6.13401 7.70446 6.96365
#
# Compressibility (1/GPa) = 0.02869312
#
# Stress axis : x y z
#
# Youngs Moduli (GPa) = 118.92691 30.57880 112.65645
#
# Poissons Ratio (x) = 0.12891 0.38268
# Poissons Ratio (y) = 0.50136 0.34187
# Poissons Ratio (z) = 0.40398 0.09280
#
# Static dielectric constant tensor:
#      x y z
#    x 3.666220 0.000000 0.054140 
#    y 0.000000 3.314330 0.000000 
#    z 0.054140 0.000000 3.814050 
# 
# 
# High freq. dielectric constant tensor:
#      x y z
#    x 1.766840 0.000000 0.003630 
#    y 0.000000 1.713330 0.000000 
#    z 0.003630 0.000000 1.766470 
# 
# From -- ./inp_files/67136.got.cif
#   From: 2010.06.25/outbox.cif.g09.slc.cpg/sg11_34_cif.got.tgz:67136.got - 2010.06.27 23:14:04.
