data_PCOD8074948
_publ_section_title
;
Structure prediction by ZEFSAII (Michael W. Deem and Ramdas Pophale) SiO2 
 PCOD8074948
Probable space group: P 21/M
;
_chemical_formula_sum "Si O2"
_cell_formula_units_Z 32
_cell_length_a 9.800058
_cell_length_b 13.414060
_cell_length_c 12.241756
_cell_angle_alpha 90.000000
_cell_angle_beta 90.574222
_cell_angle_gamma 90.000000
_cell_volume 1609.202870
_symmetry_space_group_name_H-M "P 21/M"
_symmetry_group_IT_number 11
_symmetry_cell_setting 'monoclinic'
loop_
_space_group_symop_operation_xyz
x,y,z
-x,1/2+y,-z
-x,-y,-z
x,1/2-y,z
loop_
_atom_site_type_symbol
_atom_site_label
_atom_site_fract_x
_atom_site_fract_y
_atom_site_fract_z
Si Si1 0.350090 0.518502 0.544164
Si Si2 0.399767 0.631738 0.949126
Si Si3 0.504243 0.132860 0.282028
Si Si4 0.511704 0.863917 0.173893
Si Si5 0.087001 0.634444 0.956148
Si Si6 0.778749 0.865396 0.301295
Si Si7 0.977790 0.459899 0.822234
Si Si8 0.297721 0.975917 0.312185
O O1 0.500000 0.500000 0.500000
O O2 0.368867 0.602225 0.638056
O O3 0.279023 0.419686 0.591620
O O4 0.262267 0.555135 0.437695
O O5 0.412766 0.750000 0.941122
O O6 0.459782 0.586845 0.837287
O O7 0.243332 0.599895 0.961801
O O8 0.484149 0.589119 0.053619
O O9 0.490952 0.250000 0.282073
O O10 0.356112 0.089365 0.314566
O O11 0.463802 0.750000 0.169840
O O12 0.671260 0.874667 0.201306
O O13 0.424702 0.911736 0.270089
O O14 0.068742 0.750000 0.926195
O O15 0.012643 0.571823 0.860805
O O16 0.021157 0.613630 0.073851
O O17 0.806095 0.750000 0.331356
O O18 0.917148 0.918644 0.265578
O O19 0.830844 0.461989 0.765391
#
# Coordination Sequence:
#
# PCOD8074948 Si02
#       8
#     4   4   4   4   4   4   4   4
#     4  10  21  40  62  89 119 159 208 263 312 366
#     4   9  18  34  59  88 119 154 204 258 305 365
#     4  10  21  37  59  91 124 161 206 262 319 370
#     4  10  20  36  62  91 117 155 203 257 311 364
#     4  10  21  38  59  88 130 173 209 255 320 383
#     4  11  23  41  64  92 125 163 212 264 317 375
#     4  11  24  39  61  92 127 173 210 258 315 383
#     4  11  23  40  61  91 124 163 210 261 307 375
#
# _framework density 19.885622000000001
#
# number of rings (size 3 to 8) (size 9 to 14) (size 15 to 20)
#    0.000    1.750    3.750    1.125    0.000    6.500 
#    0.000    1.250    0.000    1.500    0.000    0.000 
#    0.000    0.000    0.000    0.000    0.000    0.000 
#
# Total GULP energy -396777.560481 kJ/mol
# GULP energy per Si atom -12399.298765 kJ/mol
# Density = 1.984036 g / cm^3
# Si number density = 19.885622 Si / 1000 Ang^3
#
#
#
# Elastic Constant Matrix: (Units=GPa)
#
#
# Indices 1 2 3 4 5 6 
#
# 1 70.7910 27.5660 18.3262 0.0000 -8.6958 0.0000
# 2 27.5660 80.7302 34.1894 0.0000 -3.5168 0.0000
# 3 18.3262 34.1894 120.1591 0.0000 -7.1032 0.0000
# 4 0.0000 0.0000 0.0000 23.2628 0.0000 -2.0722
# 5 -8.6958 -3.5168 -7.1032 0.0000 31.7727 0.0000
# 6 0.0000 0.0000 0.0000 -2.0722 0.0000 24.8991
#
#
#
# Elastic Compliance Matrix: (Units=1/GPa)
#
#
# Indices 1 2 3 4 5 6 
#
# 1 0.016855 -0.005225 -0.000857 0.000000 0.003843 0.000000
# 2 -0.005225 0.015718 -0.003706 0.000000 -0.000519 0.000000
# 3 -0.000857 -0.003706 0.009596 0.000000 0.001501 0.000000
# 4 0.000000 0.000000 0.000000 0.043308 0.000000 0.003604
# 5 0.003843 -0.000519 0.001501 0.000000 0.032803 0.000000
# 6 0.000000 0.000000 0.000000 0.003604 0.000000 0.040462
#
#
# Mechanical properties :
#
#
# Convention : Reuss Voigt Hill
#
# Bulk Modulus (GPa) = 44.26103 47.98263 46.12183
# Shear Modulus (GPa) = 26.90358 28.76015 27.83187
#
# Velocity S-wave (km/s) = 3.68219 3.80712 3.74518
# Velocity P-wave (km/s) = 6.35485 6.59600 6.47655
#
# Compressibility (1/GPa) = 0.02259324
#
# Stress axis : x y z
#
# Youngs Moduli (GPa) = 59.33120 63.62145 104.20796
#
# Poissons Ratio (x) = 0.33241 0.08928
# Poissons Ratio (y) = 0.31000 0.38620
# Poissons Ratio (z) = 0.05083 0.23579
#
# Static dielectric constant tensor:
#      x y z
#    x 3.493690 0.000000 0.090690 
#    y 0.000000 3.580370 0.000000 
#    z 0.090690 0.000000 4.139340 
# 
# 
# High freq. dielectric constant tensor:
#      x y z
#    x 1.757870 0.000000 -0.000630 
#    y 0.000000 1.776790 0.000000 
#    z -0.000630 0.000000 1.787330 
# 
# From -- ./inp_files/31875.got.cif
#   From: 2010.06.25/outbox.cif.g09.slc.cpg/sg11_16_cif.got.tgz:31875.got - 2010.06.27 23:14:04.
