data_PCOD8074678
_publ_section_title
;
Structure prediction by ZEFSAII (Michael W. Deem and Ramdas Pophale) SiO2 
 PCOD8074678
Probable space group: P 21/M
;
_chemical_formula_sum "Si O2"
_cell_formula_units_Z 28
_cell_length_a 17.570775
_cell_length_b 8.720171
_cell_length_c 9.451805
_cell_angle_alpha 90.000000
_cell_angle_beta 84.980718
_cell_angle_gamma 90.000000
_cell_volume 1442.653675
_symmetry_space_group_name_H-M "P 21/M"
_symmetry_group_IT_number 11
_symmetry_cell_setting 'monoclinic'
loop_
_space_group_symop_operation_xyz
x,y,z
-x,1/2+y,-z
-x,-y,-z
x,1/2-y,z
loop_
_atom_site_type_symbol
_atom_site_label
_atom_site_fract_x
_atom_site_fract_y
_atom_site_fract_z
Si Si1 0.556882 0.928195 0.380333
Si Si2 0.217301 0.426735 0.299108
Si Si3 0.174858 0.580732 0.739522
Si Si4 0.569144 0.431290 0.078198
Si Si5 0.919491 0.929841 0.475315
Si Si6 0.263992 0.428483 0.980663
Si Si7 0.689780 0.082337 0.497208
O O1 0.541150 0.750000 0.352870
O O2 0.500000 0.000000 0.500000
O O3 0.549303 0.026215 0.240822
O O4 0.640205 0.951042 0.431837
O O5 0.234969 0.250000 0.329208
O O6 0.138136 0.475039 0.387390
O O7 0.286992 0.526087 0.350728
O O8 0.216136 0.458081 0.131860
O O9 0.147308 0.750000 0.793554
O O10 0.105606 0.490219 0.676077
O O11 0.210401 0.492812 0.866428
O O12 0.236409 0.600755 0.608619
O O13 0.570949 0.250000 0.058598
O O14 0.652622 0.494495 0.022683
O O15 0.500000 0.500000 0.000000
O O16 0.927785 0.750000 0.460816
O O17 0.000000 0.000000 0.500000
O O18 0.278477 0.250000 0.949884
O O19 0.648698 0.250000 0.516110
#
# Coordination Sequence:
#
# PCOD8074678 Si02
#       7
#     4   4   4   4   4   4   4
#     4  12  25  41  61  84 115 153 199 252 306 361
#     4   9  21  38  59  87 120 156 198 242 295 356
#     4  10  20  36  60  88 118 154 196 241 292 354
#     4  12  26  44  62  86 120 161 206 254 310 364
#     4  10  20  38  63  91 123 157 196 244 296 355
#     4  11  22  39  62  88 120 159 202 248 301 361
#     4  10  20  36  58  84 114 149 196 245 295 352
#
# _framework density 19.408676
#
# number of rings (size 3 to 8) (size 9 to 14) (size 15 to 20)
#    0.000    1.429    1.429    4.286    2.000    2.857 
#    0.000    0.714    0.000    0.000    0.000    0.000 
#    0.000    0.000    0.000    0.000    0.000    0.000 
#
# Total GULP energy -347127.875681 kJ/mol
# GULP energy per Si atom -12397.424131 kJ/mol
# Density = 1.936450 g / cm^3
# Si number density = 19.408676 Si / 1000 Ang^3
#
#
#
# Elastic Constant Matrix: (Units=GPa)
#
#
# Indices 1 2 3 4 5 6 
#
# 1 117.6367 58.5950 65.3280 0.0000 28.7322 0.0000
# 2 58.5950 139.8610 59.6502 0.0000 13.4134 0.0000
# 3 65.3280 59.6502 131.3121 0.0000 17.1979 0.0000
# 4 0.0000 0.0000 0.0000 30.8357 0.0000 6.2698
# 5 28.7322 13.4134 17.1979 0.0000 32.0645 0.0000
# 6 0.0000 0.0000 0.0000 6.2698 0.0000 35.5153
#
#
#
# Elastic Compliance Matrix: (Units=1/GPa)
#
#
# Indices 1 2 3 4 5 6 
#
# 1 0.015191 -0.003417 -0.004743 0.000000 -0.009639 0.000000
# 2 -0.003417 0.009720 -0.002779 0.000000 0.000486 0.000000
# 3 -0.004743 -0.002779 0.011324 0.000000 -0.000661 0.000000
# 4 0.000000 0.000000 0.000000 0.033637 0.000000 -0.005938
# 5 -0.009639 0.000486 -0.000661 0.000000 0.039975 0.000000
# 6 0.000000 0.000000 0.000000 -0.005938 0.000000 0.029205
#
#
# Mechanical properties :
#
#
# Convention : Reuss Voigt Hill
#
# Bulk Modulus (GPa) = 69.65259 83.99514 76.82386
# Shear Modulus (GPa) = 30.17187 33.36555 31.76871
#
# Velocity S-wave (km/s) = 3.94706 4.15071 4.05017
# Velocity P-wave (km/s) = 7.53244 8.14507 7.84474
#
# Compressibility (1/GPa) = 0.01435697
#
# Stress axis : x y z
#
# Youngs Moduli (GPa) = 65.82875 102.87834 88.30693
#
# Poissons Ratio (x) = 0.35154 0.41883
# Poissons Ratio (y) = 0.22494 0.24543
# Poissons Ratio (z) = 0.31222 0.28593
#
# Static dielectric constant tensor:
#      x y z
#    x 3.450150 0.000000 0.052250 
#    y 0.000000 4.043580 0.000000 
#    z 0.052250 0.000000 3.613660 
# 
# 
# High freq. dielectric constant tensor:
#      x y z
#    x 1.743670 0.000000 0.011260 
#    y 0.000000 1.774400 0.000000 
#    z 0.011260 0.000000 1.759490 
# 
# From -- ./inp_files/24106.got.cif
#   From: 2010.06.25/outbox.cif.g09.slc.cpg/sg11_13_cif.got.tgz:24106.got - 2010.06.27 23:14:04.
