data_PCOD8074049
_publ_section_title
;
Structure prediction by ZEFSAII (Michael W. Deem and Ramdas Pophale) SiO2 
 PCOD8074049
Probable space group: P 21/M
;
_chemical_formula_sum "Si O2"
_cell_formula_units_Z 28
_cell_length_a 9.350560
_cell_length_b 26.042776
_cell_length_c 5.297893
_cell_angle_alpha 90.000000
_cell_angle_beta 101.349327
_cell_angle_gamma 90.000000
_cell_volume 1264.886572
_symmetry_space_group_name_H-M "P 21/M"
_symmetry_group_IT_number 11
_symmetry_cell_setting 'monoclinic'
loop_
_space_group_symop_operation_xyz
x,y,z
-x,1/2+y,-z
-x,-y,-z
x,1/2-y,z
loop_
_atom_site_type_symbol
_atom_site_label
_atom_site_fract_x
_atom_site_fract_y
_atom_site_fract_z
Si Si1 0.296412 0.848283 0.460263
Si Si2 0.751736 0.991382 0.920315
Si Si3 0.997018 0.392756 0.752461
Si Si4 0.672141 0.890245 0.123506
Si Si5 0.992503 0.455827 0.259466
Si Si6 0.460291 0.943008 0.393229
Si Si7 0.563231 0.308732 0.006630
O O1 0.123171 0.848775 0.341092
O O2 0.363840 0.905478 0.536582
O O3 0.371058 0.823488 0.240831
O O4 0.322413 0.815872 0.723899
O O5 0.847847 0.982312 0.700274
O O6 0.649353 0.041765 0.874784
O O7 0.660672 0.938732 0.928745
O O8 0.869030 0.999747 0.185635
O O9 0.968515 0.434289 0.526347
O O10 0.161764 0.371063 0.779765
O O11 0.973167 0.414604 0.025753
O O12 0.602693 0.911402 0.359605
O O13 0.579974 0.842783 0.983458
O O14 0.500000 0.000000 0.500000
O O15 0.513054 0.250000 0.980151
#
# Coordination Sequence:
#
# PCOD8074049 Si02
#       7
#     4   4   4   4   4   4   4
#     4  11  24  42  70  95 124 167 214 262 325 386
#     4  10  20  35  55  92 135 181 219 250 303 379
#     4  11  22  41  62  94 133 166 216 261 311 378
#     4  10  24  38  64  95 132 173 216 269 321 378
#     4  10  22  35  58  89 136 182 211 254 298 360
#     4  11  21  34  57  96 135 180 213 259 301 390
#     4  11  25  49  70  93 122 162 214 278 339 393
#
# _framework density 22.136372000000001
#
# number of rings (size 3 to 8) (size 9 to 14) (size 15 to 20)
#    0.000    1.429    1.429    3.429    4.000    8.571 
#    0.000    1.429    0.000    0.000    0.000    0.000 
#    0.000    0.000    0.000    0.000    0.000    0.000 
#
# Total GULP energy -346900.208793 kJ/mol
# GULP energy per Si atom -12389.293171 kJ/mol
# Density = 2.208599 g / cm^3
# Si number density = 22.136372 Si / 1000 Ang^3
#
#
#
# Elastic Constant Matrix: (Units=GPa)
#
#
# Indices 1 2 3 4 5 6 
#
# 1 115.8803 45.0890 16.5323 0.0000 15.0824 0.0000
# 2 45.0890 104.2670 27.5770 0.0000 9.2490 0.0000
# 3 16.5323 27.5770 93.9577 0.0000 -4.1596 0.0000
# 4 0.0000 0.0000 0.0000 27.1028 0.0000 1.0467
# 5 15.0824 9.2490 -4.1596 0.0000 19.7907 0.0000
# 6 0.0000 0.0000 0.0000 1.0467 0.0000 23.0744
#
#
#
# Elastic Compliance Matrix: (Units=1/GPa)
#
#
# Indices 1 2 3 4 5 6 
#
# 1 0.011229 -0.003941 -0.001127 0.000000 -0.006952 0.000000
# 2 -0.003941 0.012423 -0.003106 0.000000 -0.003455 0.000000
# 3 -0.001127 -0.003106 0.011967 0.000000 0.004825 0.000000
# 4 0.000000 0.000000 0.000000 0.036961 0.000000 -0.001677
# 5 -0.006952 -0.003455 0.004825 0.000000 0.058456 0.000000
# 6 0.000000 0.000000 0.000000 -0.001677 0.000000 0.043414
#
#
# Mechanical properties :
#
#
# Convention : Reuss Voigt Hill
#
# Bulk Modulus (GPa) = 51.89124 54.72239 53.30681
# Shear Modulus (GPa) = 25.35237 28.98736 27.16986
#
# Velocity S-wave (km/s) = 3.38787 3.62261 3.50721
# Velocity P-wave (km/s) = 6.22865 6.50169 6.36664
#
# Compressibility (1/GPa) = 0.01927108
#
# Stress axis : x y z
#
# Youngs Moduli (GPa) = 89.05776 80.49663 83.56647
#
# Poissons Ratio (x) = 0.31723 0.09416
# Poissons Ratio (y) = 0.35097 0.25953
# Poissons Ratio (z) = 0.10035 0.25000
#
# Static dielectric constant tensor:
#      x y z
#    x 4.582830 0.000000 0.234190 
#    y 0.000000 3.785310 0.000000 
#    z 0.234190 0.000000 3.939240 
# 
# 
# High freq. dielectric constant tensor:
#      x y z
#    x 1.887400 0.000000 0.006980 
#    y 0.000000 1.828160 0.000000 
#    z 0.006980 0.000000 1.875790 
# 
# From -- ./inp_files/3042.got.cif
#   From: 2010.06.25/outbox.cif.g09.slc.cpg/sg11_2_cif.got.tgz:3042.got - 2010.06.27 23:14:04.
