data_PCOD8074892
_publ_section_title
;
Structure prediction by ZEFSAII (Michael W. Deem and Ramdas Pophale) SiO2 
 PCOD8074892
Probable space group: P 21/M
;
_chemical_formula_sum "Si O2"
_cell_formula_units_Z 32
_cell_length_a 21.426236
_cell_length_b 13.912092
_cell_length_c 9.420286
_cell_angle_alpha 90.000000
_cell_angle_beta 33.234419
_cell_angle_gamma 90.000000
_cell_volume 1538.987554
_symmetry_space_group_name_H-M "P 21/M"
_symmetry_group_IT_number 11
_symmetry_cell_setting 'monoclinic'
loop_
_space_group_symop_operation_xyz
x,y,z
-x,1/2+y,-z
-x,-y,-z
x,1/2-y,z
loop_
_atom_site_type_symbol
_atom_site_label
_atom_site_fract_x
_atom_site_fract_y
_atom_site_fract_z
Si Si1 0.425673 0.856889 0.113314
Si Si2 0.104067 0.358399 0.332669
Si Si3 0.646201 0.544935 0.619634
Si Si4 0.815269 0.142444 0.545222
Si Si5 0.189324 0.359220 0.477921
Si Si6 0.188922 0.499227 0.933428
Si Si7 0.156127 0.857898 0.204385
Si Si8 0.936940 0.138200 0.035163
O O1 0.435643 0.750000 0.162532
O O2 0.321063 0.859796 0.203928
O O3 0.401695 0.935902 0.280785
O O4 0.540994 0.881686 0.809119
O O5 0.140277 0.250000 0.226189
O O6 0.170177 0.391073 0.350502
O O7 0.970017 0.361969 0.623224
O O8 0.127689 0.420687 0.148214
O O9 0.720338 0.569691 0.619529
O O10 0.716165 0.553959 0.340903
O O11 0.863645 0.250000 0.458991
O O12 0.849442 0.093268 0.628745
O O13 0.879199 0.096030 0.289012
O O14 0.235895 0.250000 0.395776
O O15 0.072665 0.364670 0.789650
O O16 0.240108 0.578558 0.945881
O O17 0.101558 0.560122 0.005419
O O18 0.205092 0.750000 0.118391
O O19 0.897225 0.250000 0.077710
#
# Coordination Sequence:
#
# PCOD8074892 Si02
#       8
#     4   4   4   4   4   4   4   4
#     4  10  22  44  66  87 121 157 205 267 311 354
#     4  10  23  39  55  83 130 176 204 236 298 368
#     4  11  25  39  65  98 114 158 214 255 311 363
#     4   9  19  36  63  89 120 162 203 248 299 359
#     4  10  22  41  62  88 129 168 200 248 302 368
#     4  12  23  35  59  91 125 158 197 255 300 361
#     4  10  21  38  59  89 126 168 204 237 300 372
#     4  10  20  36  60  95 129 161 200 250 307 359
#
# _framework density 20.792888999999999
#
# number of rings (size 3 to 8) (size 9 to 14) (size 15 to 20)
#    0.000    1.750    2.500    1.125    3.500    2.000 
#    0.000    0.625    0.000    0.000    0.000    0.000 
#    0.000    0.000    0.000    0.000    0.000    0.000 
#
# Total GULP energy -396537.283820 kJ/mol
# GULP energy per Si atom -12391.790119 kJ/mol
# Density = 2.074556 g / cm^3
# Si number density = 20.792889 Si / 1000 Ang^3
#
#
#
# Elastic Constant Matrix: (Units=GPa)
#
#
# Indices 1 2 3 4 5 6 
#
# 1 82.0821 39.1391 52.2523 0.0000 21.7230 0.0000
# 2 39.1391 103.2435 31.7482 0.0000 4.8321 0.0000
# 3 52.2523 31.7482 89.7145 0.0000 7.7760 0.0000
# 4 0.0000 0.0000 0.0000 30.8843 0.0000 3.6226
# 5 21.7230 4.8321 7.7760 0.0000 31.8843 0.0000
# 6 0.0000 0.0000 0.0000 3.6226 0.0000 21.6712
#
#
#
# Elastic Compliance Matrix: (Units=1/GPa)
#
#
# Indices 1 2 3 4 5 6 
#
# 1 0.026290 -0.005581 -0.012114 0.000000 -0.014112 0.000000
# 2 -0.005581 0.012070 -0.001218 0.000000 0.002270 0.000000
# 3 -0.012114 -0.001218 0.018288 0.000000 0.003978 0.000000
# 4 0.000000 0.000000 0.000000 0.033027 0.000000 -0.005521
# 5 -0.014112 0.002270 0.003978 0.000000 0.039664 0.000000
# 6 0.000000 0.000000 0.000000 -0.005521 0.000000 0.047067
#
#
# Mechanical properties :
#
#
# Convention : Reuss Voigt Hill
#
# Bulk Modulus (GPa) = 53.12619 57.92435 55.52527
# Shear Modulus (GPa) = 22.67521 27.01466 24.84493
#
# Velocity S-wave (km/s) = 3.30590 3.60839 3.46045
# Velocity P-wave (km/s) = 6.33858 6.72896 6.53668
#
# Compressibility (1/GPa) = 0.01882311
#
# Stress axis : x y z
#
# Youngs Moduli (GPa) = 38.03661 82.85233 54.68000
#
# Poissons Ratio (x) = 0.46239 0.66241
# Poissons Ratio (y) = 0.21228 0.06657
# Poissons Ratio (z) = 0.46078 0.10087
#
# Static dielectric constant tensor:
#      x y z
#    x 3.662240 0.000000 0.175760 
#    y 0.000000 4.080550 0.000000 
#    z 0.175760 0.000000 3.715430 
# 
# 
# High freq. dielectric constant tensor:
#      x y z
#    x 1.792080 0.000000 0.016550 
#    y 0.000000 1.835760 0.000000 
#    z 0.016550 0.000000 1.791980 
# 
# From -- ./inp_files/26811.got.cif
#   From: 2010.06.25/outbox.cif.g09.slc.cpg/sg11_14_cif.got.tgz:26811.got - 2010.06.27 23:14:04.
