data_PCOD8074619
_publ_section_title
;
Structure prediction by ZEFSAII (Michael W. Deem and Ramdas Pophale) SiO2 
 PCOD8074619
Probable space group: P 21/M
;
_chemical_formula_sum "Si O2"
_cell_formula_units_Z 28
_cell_length_a 16.152938
_cell_length_b 8.906803
_cell_length_c 22.316159
_cell_angle_alpha 90.000000
_cell_angle_beta 25.845517
_cell_angle_gamma 90.000000
_cell_volume 1399.670183
_symmetry_space_group_name_H-M "P 21/M"
_symmetry_group_IT_number 11
_symmetry_cell_setting 'monoclinic'
loop_
_space_group_symop_operation_xyz
x,y,z
-x,1/2+y,-z
-x,-y,-z
x,1/2-y,z
loop_
_atom_site_type_symbol
_atom_site_label
_atom_site_fract_x
_atom_site_fract_y
_atom_site_fract_z
Si Si1 0.198977 0.426914 0.390636
Si Si2 0.241106 0.420255 0.153494
Si Si3 0.582828 0.421279 0.852572
Si Si4 0.194027 0.427095 0.851988
Si Si5 0.595611 0.076889 0.634506
Si Si6 0.159658 0.580138 0.637080
Si Si7 0.691789 0.574414 0.352896
O O1 0.168801 0.250000 0.411040
O O2 0.364261 0.471384 0.236634
O O3 0.273574 0.478260 0.406980
O O4 0.000000 0.500000 0.500000
O O5 0.274760 0.250000 0.155133
O O6 0.294130 0.539190 0.169395
O O7 0.024129 0.451971 0.282310
O O8 0.362472 0.445461 0.013595
O O9 0.625579 0.250000 0.806163
O O10 0.164295 0.250000 0.870118
O O11 0.371609 0.468194 0.780460
O O12 0.238441 0.488272 0.756411
O O13 0.000000 0.500000 0.000000
O O14 0.622466 0.250000 0.636208
O O15 0.661149 0.052710 0.523137
O O16 0.161330 0.750000 0.660733
O O17 0.154093 0.467816 0.696943
O O18 0.500000 0.500000 0.500000
O O19 0.658241 0.750000 0.370539
#
# Coordination Sequence:
#
# PCOD8074619 Si02
#       7
#     4   4   4   4   4   4   4
#     4  12  25  40  60  87 118 157 203 248 305 365
#     4   9  19  35  58  86 117 156 197 241 296 354
#     4  10  20  36  57  84 119 155 197 243 295 355
#     4  10  23  42  63  91 126 166 207 254 311 367
#     4  10  21  40  62  86 122 160 200 253 307 363
#     4  10  20  37  61  88 118 153 196 245 300 355
#     4  11  22  39  62  89 119 153 197 246 300 358
#
# _framework density 20.004712999999999
#
# number of rings (size 3 to 8) (size 9 to 14) (size 15 to 20)
#    0.000    1.714    1.429    3.000    0.000    5.714 
#    0.000    4.286    0.000    0.000    0.000    0.000 
#    0.000    0.000    0.000    0.000    0.000    0.000 
#
# Total GULP energy -347192.472723 kJ/mol
# GULP energy per Si atom -12399.731169 kJ/mol
# Density = 1.995918 g / cm^3
# Si number density = 20.004713 Si / 1000 Ang^3
#
#
#
# Elastic Constant Matrix: (Units=GPa)
#
#
# Indices 1 2 3 4 5 6 
#
# 1 89.9826 43.1026 40.1050 0.0000 1.6774 0.0000
# 2 43.1026 89.4735 39.0550 0.0000 0.4513 0.0000
# 3 40.1050 39.0550 110.1362 0.0000 -4.6926 0.0000
# 4 0.0000 0.0000 0.0000 32.9171 0.0000 1.4189
# 5 1.6774 0.4513 -4.6926 0.0000 32.4204 0.0000
# 6 0.0000 0.0000 0.0000 1.4189 0.0000 37.6744
#
#
#
# Elastic Compliance Matrix: (Units=1/GPa)
#
#
# Indices 1 2 3 4 5 6 
#
# 1 0.015590 -0.005919 -0.003631 0.000000 -0.001250 0.000000
# 2 -0.005919 0.015495 -0.003356 0.000000 -0.000395 0.000000
# 3 -0.003631 -0.003356 0.011674 0.000000 0.001924 0.000000
# 4 0.000000 0.000000 0.000000 0.030429 0.000000 -0.001146
# 5 -0.001250 -0.000395 0.001924 0.000000 0.031193 0.000000
# 6 0.000000 0.000000 0.000000 -0.001146 0.000000 0.026586
#
#
# Mechanical properties :
#
#
# Convention : Reuss Voigt Hill
#
# Bulk Modulus (GPa) = 59.00999 59.34639 59.17819
# Shear Modulus (GPa) = 30.78260 31.75771 31.27015
#
# Velocity S-wave (km/s) = 3.92697 3.98868 3.95794
# Velocity P-wave (km/s) = 7.07980 7.13746 7.10869
#
# Compressibility (1/GPa) = 0.01694628
#
# Stress axis : x y z
#
# Youngs Moduli (GPa) = 64.14223 64.53780 85.66000
#
# Poissons Ratio (x) = 0.38200 0.31107
# Poissons Ratio (y) = 0.37966 0.28748
# Poissons Ratio (z) = 0.23293 0.21659
#
# Static dielectric constant tensor:
#      x y z
#    x 3.824600 0.000000 0.058110 
#    y 0.000000 3.766030 0.000000 
#    z 0.058110 0.000000 3.832060 
# 
# 
# High freq. dielectric constant tensor:
#      x y z
#    x 1.780380 0.000000 -0.002920 
#    y 0.000000 1.773450 0.000000 
#    z -0.002920 0.000000 1.788590 
# 
# From -- ./inp_files/65391.got.cif
#   From: 2010.06.25/outbox.cif.g09.slc.cpg/sg11_33_cif.got.tgz:65391.got - 2010.06.27 23:14:04.
