data_PCOD8074807
_publ_section_title
;
Structure prediction by ZEFSAII (Michael W. Deem and Ramdas Pophale) SiO2 
 PCOD8074807
Probable space group: P 21/M
;
_chemical_formula_sum "Si O2"
_cell_formula_units_Z 32
_cell_length_a 22.212825
_cell_length_b 8.889967
_cell_length_c 29.128713
_cell_angle_alpha 90.000000
_cell_angle_beta 16.874620
_cell_angle_gamma 90.000000
_cell_volume 1669.705421
_symmetry_space_group_name_H-M "P 21/M"
_symmetry_group_IT_number 11
_symmetry_cell_setting 'monoclinic'
loop_
_space_group_symop_operation_xyz
x,y,z
-x,1/2+y,-z
-x,-y,-z
x,1/2-y,z
loop_
_atom_site_type_symbol
_atom_site_label
_atom_site_fract_x
_atom_site_fract_y
_atom_site_fract_z
Si Si1 0.033961 0.927891 0.878417
Si Si2 0.074910 0.572371 0.398733
Si Si3 0.592557 0.927926 0.237511
Si Si4 0.800085 0.572936 0.512520
Si Si5 0.856510 0.924961 0.296324
Si Si6 0.481225 0.072086 0.063233
Si Si7 0.072066 0.926929 0.230022
Si Si8 0.580948 0.074949 0.343440
O O1 0.043007 0.750000 0.869062
O O2 0.215309 0.987162 0.779607
O O3 0.064455 0.989130 0.805525
O O4 0.816765 0.986146 0.057220
O O5 0.103096 0.750000 0.383355
O O6 0.293976 0.499778 0.227273
O O7 0.000000 0.500000 0.500000
O O8 0.907625 0.532224 0.481967
O O9 0.582085 0.750000 0.244514
O O10 0.422305 0.992604 0.326707
O O11 0.546294 0.984832 0.322196
O O12 0.765686 0.750000 0.532516
O O13 0.944659 0.507307 0.366252
O O14 0.904655 0.750000 0.254351
O O15 0.612706 0.953765 0.481675
O O16 0.982625 0.991969 0.247769
O O17 0.451700 0.250000 0.079563
O O18 0.687089 0.031429 0.941625
O O19 0.500000 0.000000 0.000000
O O20 0.037104 0.750000 0.256266
O O21 0.600049 0.250000 0.316681
#
# Coordination Sequence:
#
# PCOD8074807 Si02
#       8
#     4   4   4   4   4   4   4   4
#     4  10  23  39  54  82 123 154 186 239 297 347
#     4  11  24  42  63  90 122 159 199 246 300 357
#     4  11  23  37  57  88 120 151 193 245 291 340
#     4  10  20  40  64  83 114 158 197 236 289 353
#     4  10  20  36  60  85 109 147 198 241 284 341
#     4  11  21  37  62  91 122 156 197 246 295 353
#     4   9  18  36  60  86 115 148 195 243 282 344
#     4  10  20  38  62  83 111 156 198 236 287 351
#
# _framework density 19.165056
#
# number of rings (size 3 to 8) (size 9 to 14) (size 15 to 20)
#    0.000    1.750    2.500    1.875    0.000    4.000 
#    0.000    5.000    0.000    0.000    0.000    0.000 
#    0.000    0.000    0.000    0.000    0.000    0.000 
#
# Total GULP energy -396910.212659 kJ/mol
# GULP energy per Si atom -12403.444146 kJ/mol
# Density = 1.912144 g / cm^3
# Si number density = 19.165056 Si / 1000 Ang^3
#
#
#
# Elastic Constant Matrix: (Units=GPa)
#
#
# Indices 1 2 3 4 5 6 
#
# 1 121.9200 34.5950 57.6240 0.0000 -10.2197 0.0000
# 2 34.5950 46.5727 36.7957 0.0000 -5.7011 0.0000
# 3 57.6240 36.7957 118.0093 0.0000 -7.7403 0.0000
# 4 0.0000 0.0000 0.0000 32.6884 0.0000 2.1442
# 5 -10.2197 -5.7011 -7.7403 0.0000 38.8232 0.0000
# 6 0.0000 0.0000 0.0000 2.1442 0.0000 35.3281
#
#
#
# Elastic Compliance Matrix: (Units=1/GPa)
#
#
# Indices 1 2 3 4 5 6 
#
# 1 0.011726 -0.005414 -0.003939 0.000000 0.001506 0.000000
# 2 -0.005414 0.031221 -0.006975 0.000000 0.001769 0.000000
# 3 -0.003939 -0.006975 0.012602 0.000000 0.000451 0.000000
# 4 0.000000 0.000000 0.000000 0.030714 0.000000 -0.001864
# 5 0.001506 0.001769 0.000451 0.000000 0.026504 0.000000
# 6 0.000000 0.000000 0.000000 -0.001864 0.000000 0.028419
#
#
# Mechanical properties :
#
#
# Convention : Reuss Voigt Hill
#
# Bulk Modulus (GPa) = 43.68210 60.50349 52.09279
# Shear Modulus (GPa) = 27.55222 31.86710 29.70966
#
# Velocity S-wave (km/s) = 3.79572 4.08213 3.94153
# Velocity P-wave (km/s) = 6.48475 7.33871 6.92491
#
# Compressibility (1/GPa) = 0.02289267
#
# Stress axis : x y z
#
# Youngs Moduli (GPa) = 85.27793 32.02996 79.35364
#
# Poissons Ratio (x) = 0.17341 0.31258
# Poissons Ratio (y) = 0.46169 0.55350
# Poissons Ratio (z) = 0.33592 0.22341
#
# Static dielectric constant tensor:
#      x y z
#    x 3.676590 0.000000 -0.164030 
#    y 0.000000 3.361900 0.000000 
#    z -0.164030 0.000000 3.635100 
# 
# 
# High freq. dielectric constant tensor:
#      x y z
#    x 1.755710 0.000000 -0.008120 
#    y 0.000000 1.730780 0.000000 
#    z -0.008120 0.000000 1.757630 
# 
# From -- ./inp_files/72074.got.cif
#   From: 2010.06.25/outbox.cif.g09.slc.cpg/sg11_37_cif.got.tgz:72074.got - 2010.06.27 23:14:04.
