data_PCOD8074918
_publ_section_title
;
Structure prediction by ZEFSAII (Michael W. Deem and Ramdas Pophale) SiO2 
 PCOD8074918
Probable space group: P 21/M
;
_chemical_formula_sum "Si O2"
_cell_formula_units_Z 24
_cell_length_a 14.797777
_cell_length_b 8.648737
_cell_length_c 10.115338
_cell_angle_alpha 90.000000
_cell_angle_beta 80.520695
_cell_angle_gamma 90.000000
_cell_volume 1276.904691
_symmetry_space_group_name_H-M "P 21/M"
_symmetry_group_IT_number 11
_symmetry_cell_setting 'monoclinic'
loop_
_space_group_symop_operation_xyz
x,y,z
-x,1/2+y,-z
-x,-y,-z
x,1/2-y,z
loop_
_atom_site_type_symbol
_atom_site_label
_atom_site_fract_x
_atom_site_fract_y
_atom_site_fract_z
Si Si1 0.074354 0.068204 0.883744
Si Si2 0.925715 0.932673 0.419296
Si Si3 0.269305 0.929827 0.836408
Si Si4 0.268902 0.570156 0.529386
Si Si5 0.547236 0.932588 0.116066
Si Si6 0.552736 0.567841 0.610675
O O1 0.077297 0.250000 0.900542
O O2 0.050069 0.022496 0.738128
O O3 0.172628 0.001735 0.901434
O O4 0.000000 0.000000 0.000000
O O5 0.917915 0.750000 0.438027
O O6 0.830943 0.010411 0.484774
O O7 0.000000 0.000000 0.500000
O O8 0.266644 0.750000 0.870366
O O9 0.290093 0.960791 0.677782
O O10 0.348470 0.008978 0.902438
O O11 0.277225 0.750000 0.491917
O O12 0.340164 0.472660 0.425394
O O13 0.548129 0.750000 0.110196
O O14 0.487450 0.988949 0.251698
O O15 0.500000 0.000000 0.000000
O O16 0.500000 0.500000 0.500000
O O17 0.537218 0.750000 0.622271
#
# Coordination Sequence:
#
# PCOD8074918 Si02
#       6
#     4   4   4   4   4   4
#     4  10  21  38  61  88 117 152 198 244 294 353
#     4  10  21  38  60  87 120 154 193 243 300 354
#     4  10  20  37  62  88 118 155 198 243 296 355
#     4  10  20  36  61  90 119 154 198 244 295 351
#     4  12  25  42  62  87 123 160 198 246 301 356
#     4  12  23  38  62  91 121 156 201 246 293 351
#
# _framework density 18.795452000000001
#
# number of rings (size 3 to 8) (size 9 to 14) (size 15 to 20)
#    0.000    1.333    1.667    5.000    0.000    3.333 
#    3.000    0.000    0.000    0.000    0.000    0.000 
#    0.000    0.000    0.000    0.000    0.000    0.000 
#
# Total GULP energy -297714.107756 kJ/mol
# GULP energy per Si atom -12404.754490 kJ/mol
# Density = 1.875267 g / cm^3
# Si number density = 18.795452 Si / 1000 Ang^3
#
#
#
# Elastic Constant Matrix: (Units=GPa)
#
#
# Indices 1 2 3 4 5 6 
#
# 1 168.4444 71.7561 83.0997 0.0000 4.6767 0.0000
# 2 71.7561 107.1412 43.1788 0.0000 5.7067 0.0000
# 3 83.0997 43.1788 108.0375 0.0000 0.0252 0.0000
# 4 0.0000 0.0000 0.0000 32.0928 0.0000 -1.9363
# 5 4.6767 5.7067 0.0252 0.0000 37.5253 0.0000
# 6 0.0000 0.0000 0.0000 -1.9363 0.0000 42.5839
#
#
#
# Elastic Compliance Matrix: (Units=1/GPa)
#
#
# Indices 1 2 3 4 5 6 
#
# 1 0.011381 -0.004837 -0.006820 0.000000 -0.000678 0.000000
# 2 -0.004837 0.013290 -0.001590 0.000000 -0.001417 0.000000
# 3 -0.006820 -0.001590 0.015137 0.000000 0.001082 0.000000
# 4 0.000000 0.000000 0.000000 0.031245 0.000000 0.001421
# 5 -0.000678 -0.001417 0.001082 0.000000 0.026948 0.000000
# 6 0.000000 0.000000 0.000000 0.001421 0.000000 0.023548
#
#
# Mechanical properties :
#
#
# Convention : Reuss Voigt Hill
#
# Bulk Modulus (GPa) = 75.12110 86.63250 80.87680
# Shear Modulus (GPa) = 32.79061 34.81296 33.80179
#
# Velocity S-wave (km/s) = 4.18138 4.30839 4.24536
# Velocity P-wave (km/s) = 7.96030 8.42270 8.19476
#
# Compressibility (1/GPa) = 0.01331184
#
# Stress axis : x y z
#
# Youngs Moduli (GPa) = 87.86577 75.24669 66.06115
#
# Poissons Ratio (x) = 0.36400 0.45057
# Poissons Ratio (y) = 0.42504 0.10505
# Poissons Ratio (z) = 0.59929 0.11966
#
# Static dielectric constant tensor:
#      x y z
#    x 3.660650 0.000000 -0.023520 
#    y 0.000000 3.669810 0.000000 
#    z -0.023520 0.000000 3.255780 
# 
# 
# High freq. dielectric constant tensor:
#      x y z
#    x 1.744260 0.000000 -0.006430 
#    y 0.000000 1.751960 0.000000 
#    z -0.006430 0.000000 1.717610 
# 
# From -- ./inp_files/20389.got.cif
#   From: 2010.06.25/outbox.cif.g09.slc.cpg/sg11_11_cif.got.tgz:20389.got - 2010.06.27 23:14:04.
