data_PCOD8075054
_publ_section_title
;
Structure prediction by ZEFSAII (Michael W. Deem and Ramdas Pophale) SiO2 
 PCOD8075054
Probable space group: P 21/M
;
_chemical_formula_sum "Si O2"
_cell_formula_units_Z 20
_cell_length_a 10.091232
_cell_length_b 16.108346
_cell_length_c 9.803701
_cell_angle_alpha 90.000000
_cell_angle_beta 139.018186
_cell_angle_gamma 90.000000
_cell_volume 1045.128013
_symmetry_space_group_name_H-M "P 21/M"
_symmetry_group_IT_number 11
_symmetry_cell_setting 'monoclinic'
loop_
_space_group_symop_operation_xyz
x,y,z
-x,1/2+y,-z
-x,-y,-z
x,1/2-y,z
loop_
_atom_site_type_symbol
_atom_site_label
_atom_site_fract_x
_atom_site_fract_y
_atom_site_fract_z
Si Si1 0.622657 0.571360 0.854280
Si Si2 0.671134 0.577634 0.408660
Si Si3 0.810196 0.653030 0.239656
Si Si4 0.059394 0.549665 0.247370
Si Si5 0.578931 0.154638 0.555039
O O1 0.470641 0.495607 0.757819
O O2 0.556882 0.629054 0.678895
O O3 0.625665 0.625891 0.995729
O O4 0.850834 0.537195 0.000487
O O5 0.761460 0.629945 0.355970
O O6 0.546580 0.640765 0.405117
O O7 0.854104 0.538951 0.638733
O O8 0.850482 0.750000 0.259569
O O9 0.012828 0.605172 0.347118
O O10 0.221643 0.598052 0.281173
O O11 0.642493 0.250000 0.592989
#
# Coordination Sequence:
#
# PCOD8075054 Si02
#       5
#     4   4   4   4   4
#     4   9  21  37  61  77 109 150 190 216 268 342
#     4  11  21  37  58  85 112 144 184 233 278 319
#     4  10  20  37  59  82 112 146 184 232 275 321
#     4   9  21  37  61  77 109 150 190 216 268 342
#     4  11  22  36  57  85 114 144 184 233 277 320
#
# _framework density 19.136412
#
# number of rings (size 3 to 8) (size 9 to 14) (size 15 to 20)
#    1.200    0.800    0.000    5.400    0.000    3.200 
#    0.000    0.000    0.000    2.400    0.000    0.000 
#    0.000    0.000    0.000    0.000    0.000    0.000 
#
# Total GULP energy -247947.741687 kJ/mol
# GULP energy per Si atom -12397.387084 kJ/mol
# Density = 1.909286 g / cm^3
# Si number density = 19.136412 Si / 1000 Ang^3
#
#
#
# Elastic Constant Matrix: (Units=GPa)
#
#
# Indices 1 2 3 4 5 6 
#
# 1 65.9529 -1.1589 -2.5521 0.0000 -3.8974 0.0000
# 2 -1.1589 46.7222 7.1351 0.0000 -2.7184 0.0000
# 3 -2.5521 7.1351 43.2227 0.0000 14.1292 0.0000
# 4 0.0000 0.0000 0.0000 14.3824 0.0000 -5.7102
# 5 -3.8974 -2.7184 14.1292 0.0000 28.7423 0.0000
# 6 0.0000 0.0000 0.0000 -5.7102 0.0000 33.4290
#
#
#
# Elastic Compliance Matrix: (Units=1/GPa)
#
#
# Indices 1 2 3 4 5 6 
#
# 1 0.015297 0.000474 0.000158 0.000000 0.002042 0.000000
# 2 0.000474 0.022493 -0.005244 0.000000 0.004770 0.000000
# 3 0.000158 -0.005244 0.028793 0.000000 -0.014629 0.000000
# 4 0.000000 0.000000 0.000000 0.074588 0.000000 0.012741
# 5 0.002042 0.004770 -0.014629 0.000000 0.042711 0.000000
# 6 0.000000 0.000000 0.000000 0.012741 0.000000 0.032090
#
#
# Mechanical properties :
#
#
# Convention : Reuss Voigt Hill
#
# Bulk Modulus (GPa) = 17.43419 18.08288 17.75854
# Shear Modulus (GPa) = 20.46514 25.47565 22.97039
#
# Velocity S-wave (km/s) = 3.27377 3.65261 3.46837
# Velocity P-wave (km/s) = 4.83946 5.22099 5.03384
#
# Compressibility (1/GPa) = 0.05735857
#
# Stress axis : x y z
#
# Youngs Moduli (GPa) = 65.37054 44.45777 34.73059
#
# Poissons Ratio (x) = -0.02108 -0.00547
# Poissons Ratio (y) = -0.03100 0.18214
# Poissons Ratio (z) = -0.01030 0.23315
#
# Static dielectric constant tensor:
#      x y z
#    x 3.434530 0.000000 0.065070 
#    y 0.000000 3.366930 0.000000 
#    z 0.065070 0.000000 3.385650 
# 
# 
# High freq. dielectric constant tensor:
#      x y z
#    x 1.748750 0.000000 -0.000190 
#    y 0.000000 1.739350 0.000000 
#    z -0.000190 0.000000 1.735640 
# 
# From -- ./inp_files/4533.got.cif
#   From: 2010.06.25/outbox.cif.g09.slc.cpg/sg11_3_cif.got.tgz:4533.got - 2010.06.27 23:14:04.
