data_PCOD8075042
_publ_section_title
;
Structure prediction by ZEFSAII (Michael W. Deem and Ramdas Pophale) SiO2 
 PCOD8075042
Probable space group: P 21/M
;
_chemical_formula_sum "Si O2"
_cell_formula_units_Z 28
_cell_length_a 9.845764
_cell_length_b 27.441312
_cell_length_c 5.558716
_cell_angle_alpha 90.000000
_cell_angle_beta 122.318348
_cell_angle_gamma 90.000000
_cell_volume 1269.205916
_symmetry_space_group_name_H-M "P 21/M"
_symmetry_group_IT_number 11
_symmetry_cell_setting 'monoclinic'
loop_
_space_group_symop_operation_xyz
x,y,z
-x,1/2+y,-z
-x,-y,-z
x,1/2-y,z
loop_
_atom_site_type_symbol
_atom_site_label
_atom_site_fract_x
_atom_site_fract_y
_atom_site_fract_z
Si Si1 0.251552 0.878738 0.735313
Si Si2 0.436265 0.389148 0.251658
Si Si3 0.978384 0.693700 0.517585
Si Si4 0.365268 0.556781 0.223333
Si Si5 0.243138 0.469653 0.862894
Si Si6 0.895056 0.033227 0.649807
Si Si7 0.798486 0.807132 0.844773
O O1 0.390069 0.870569 0.669178
O O2 0.153439 0.829733 0.678987
O O3 0.128790 0.922693 0.562325
O O4 0.343621 0.892233 0.065794
O O5 0.471977 0.434304 0.470537
O O6 0.324867 0.415833 0.943698
O O7 0.355990 0.342106 0.296171
O O8 0.012485 0.750000 0.562577
O O9 0.891087 0.680777 0.182148
O O10 0.888601 0.678376 0.681283
O O11 0.201507 0.547069 0.208259
O O12 0.380314 0.509827 0.063401
O O13 0.173775 0.482964 0.533231
O O14 0.085563 0.470444 0.891195
O O15 0.748537 0.750000 0.791880
#
# Coordination Sequence:
#
# PCOD8075042 Si02
#       7
#     4   4   4   4   4   4   4
#     4  10  23  38  60  90 128 165 213 264 328 390
#     4  11  24  37  61  94 131 170 208 268 330 387
#     4  10  23  45  72  96 125 167 217 271 323 389
#     4  10  22  37  55  89 128 171 213 261 323 384
#     4  10  20  37  58  86 123 171 220 268 315 376
#     4   9  20  38  58  85 121 168 225 269 310 375
#     4  10  24  46  71  99 127 165 218 270 324 387
#
# _framework density 22.061039999999998
#
# number of rings (size 3 to 8) (size 9 to 14) (size 15 to 20)
#    0.000    2.000    0.000    1.714    8.000    6.857 
#    0.000    0.714    0.000    0.000    0.000    0.000 
#    0.000    0.000    0.000    0.000    0.000    0.000 
#
# Total GULP energy -346942.835831 kJ/mol
# GULP energy per Si atom -12390.815565 kJ/mol
# Density = 2.201083 g / cm^3
# Si number density = 22.061040 Si / 1000 Ang^3
#
#
#
# Elastic Constant Matrix: (Units=GPa)
#
#
# Indices 1 2 3 4 5 6 
#
# 1 108.8943 59.4618 43.5172 0.0000 7.3654 0.0000
# 2 59.4618 75.7656 33.6039 0.0000 15.9224 0.0000
# 3 43.5172 33.6039 87.4180 0.0000 -3.4762 0.0000
# 4 0.0000 0.0000 0.0000 28.5006 0.0000 10.1732
# 5 7.3654 15.9224 -3.4762 0.0000 33.3659 0.0000
# 6 0.0000 0.0000 0.0000 10.1732 0.0000 36.1975
#
#
#
# Elastic Compliance Matrix: (Units=1/GPa)
#
#
# Indices 1 2 3 4 5 6 
#
# 1 0.017262 -0.012177 -0.003849 0.000000 0.001599 0.000000
# 2 -0.012177 0.027148 -0.004802 0.000000 -0.010767 0.000000
# 3 -0.003849 -0.004802 0.015390 0.000000 0.004745 0.000000
# 4 0.000000 0.000000 0.000000 0.038999 0.000000 -0.010961
# 5 0.001599 -0.010767 0.004745 0.000000 0.035250 0.000000
# 6 0.000000 0.000000 0.000000 -0.010961 0.000000 0.030707
#
#
# Mechanical properties :
#
#
# Convention : Reuss Voigt Hill
#
# Bulk Modulus (GPa) = 55.11365 60.58263 57.84814
# Shear Modulus (GPa) = 23.53387 28.64582 26.08984
#
# Velocity S-wave (km/s) = 3.26967 3.60735 3.44266
# Velocity P-wave (km/s) = 6.26825 6.69863 6.48701
#
# Compressibility (1/GPa) = 0.01814433
#
# Stress axis : x y z
#
# Youngs Moduli (GPa) = 57.92999 36.83560 64.97730
#
# Poissons Ratio (x) = 0.44853 0.25009
# Poissons Ratio (y) = 0.70539 0.31204
# Poissons Ratio (z) = 0.22297 0.17689
#
# Static dielectric constant tensor:
#      x y z
#    x 3.891310 0.000000 -0.078930 
#    y 0.000000 3.857300 0.000000 
#    z -0.078930 0.000000 4.197680 
# 
# 
# High freq. dielectric constant tensor:
#      x y z
#    x 1.866190 0.000000 -0.004780 
#    y 0.000000 1.855930 0.000000 
#    z -0.004780 0.000000 1.872710 
# 
# From -- ./inp_files/3447.got.cif
#   From: 2010.06.25/outbox.cif.g09.slc.cpg/sg11_2_cif.got.tgz:3447.got - 2010.06.27 23:14:04.
