data_PCOD8075690
_publ_section_title
;
Structure prediction by ZEFSAII (Michael W. Deem and Ramdas Pophale) SiO2 
 PCOD8075690
Probable space group: P 21/M
;
_chemical_formula_sum "Si O2"
_cell_formula_units_Z 32
_cell_length_a 24.367389
_cell_length_b 9.319202
_cell_length_c 24.367364
_cell_angle_alpha 90.000000
_cell_angle_beta 17.858328
_cell_angle_gamma 90.000000
_cell_volume 1696.913389
_symmetry_space_group_name_H-M "P 21/M"
_symmetry_group_IT_number 11
_symmetry_cell_setting 'monoclinic'
loop_
_space_group_symop_operation_xyz
x,y,z
-x,1/2+y,-z
-x,-y,-z
x,1/2-y,z
loop_
_atom_site_type_symbol
_atom_site_label
_atom_site_fract_x
_atom_site_fract_y
_atom_site_fract_z
Si Si1 0.516235 0.409557 0.929755
Si Si2 0.126666 0.916160 0.126660
Si Si3 0.930370 0.918240 0.930364
Si Si4 0.271223 0.582966 0.673705
Si Si5 0.673718 0.582965 0.271213
Si Si6 0.465899 0.583733 0.874204
Si Si7 0.125791 0.416266 0.534105
Si Si8 0.070245 0.590443 0.483765
O O1 0.432548 0.250000 0.017263
O O2 0.417575 0.492172 0.974292
O O3 0.719919 0.394780 0.719919
O O4 0.500000 0.500000 0.000000
O O5 0.118715 0.750000 0.118710
O O6 0.967180 0.956543 0.320200
O O7 0.098871 0.005556 0.098868
O O8 0.320206 0.956545 0.967174
O O9 0.924749 0.750000 0.924762
O O10 0.121568 0.965966 0.772892
O O11 0.772913 0.965973 0.121552
O O12 0.252826 0.750000 0.705067
O O13 0.464149 0.545478 0.464135
O O14 0.239973 0.500000 0.760025
O O15 0.705081 0.750000 0.252814
O O16 0.450618 0.750000 0.905755
O O17 0.662861 0.548409 0.662855
O O18 0.094242 0.250000 0.549384
O O19 0.025705 0.507830 0.582427
O O20 0.982737 0.750000 0.567451
O O21 0.000000 0.500000 0.500000
#
# Coordination Sequence:
#
# PCOD8075690 Si02
#       8
#     4   4   4   4   4   4   4   4
#     4  10  21  35  53  79 107 135 169 211 263 322
#     4  10  22  37  55  78 103 138 182 222 264 316
#     4  10  21  35  51  76 108 140 176 218 264 312
#     4   9  18  33  53  78 108 141 176 216 263 311
#     4   9  18  33  53  78 108 141 176 216 263 311
#     4   9  19  37  56  74 102 136 171 217 267 312
#     4   9  19  37  56  74 102 136 171 217 267 312
#     4  10  21  35  53  79 107 135 169 211 263 322
#
# _framework density 18.857766999999999
#
# number of rings (size 3 to 8) (size 9 to 14) (size 15 to 20)
#    0.000    2.500    0.000    1.125    1.750    4.500 
#    0.000    0.000    0.000    0.000    0.000    0.000 
#    0.000    0.000    0.000    0.000    0.000    0.000 
#
# Total GULP energy -396819.165240 kJ/mol
# GULP energy per Si atom -12400.598914 kJ/mol
# Density = 1.881485 g / cm^3
# Si number density = 18.857767 Si / 1000 Ang^3
#
#
#
# Elastic Constant Matrix: (Units=GPa)
#
#
# Indices 1 2 3 4 5 6 
#
# 1 182.0767 86.7592 77.9138 0.0000 8.9217 0.0000
# 2 86.7592 95.9312 46.4484 0.0000 7.3350 0.0000
# 3 77.9138 46.4484 98.4876 0.0000 6.2756 0.0000
# 4 0.0000 0.0000 0.0000 17.6638 0.0000 4.6314
# 5 8.9217 7.3350 6.2756 0.0000 28.0287 0.0000
# 6 0.0000 0.0000 0.0000 4.6314 0.0000 43.1142
#
#
#
# Elastic Compliance Matrix: (Units=1/GPa)
#
#
# Indices 1 2 3 4 5 6 
#
# 1 0.011546 -0.007776 -0.005440 0.000000 -0.000422 0.000000
# 2 -0.007776 0.018873 -0.002630 0.000000 -0.001875 0.000000
# 3 -0.005440 -0.002630 0.015768 0.000000 -0.001111 0.000000
# 4 0.000000 0.000000 0.000000 0.058254 0.000000 -0.006258
# 5 -0.000422 -0.001875 -0.001111 0.000000 0.036552 0.000000
# 6 0.000000 0.000000 0.000000 -0.006258 0.000000 0.023866
#
#
# Mechanical properties :
#
#
# Convention : Reuss Voigt Hill
#
# Bulk Modulus (GPa) = 68.98470 88.74871 78.86671
# Shear Modulus (GPa) = 24.82840 28.78627 26.80734
#
# Velocity S-wave (km/s) = 3.63245 3.91128 3.77444
# Velocity P-wave (km/s) = 7.36573 8.21960 7.80435
#
# Compressibility (1/GPa) = 0.01449597
#
# Stress axis : x y z
#
# Youngs Moduli (GPa) = 86.61151 52.98512 63.41875
#
# Poissons Ratio (x) = 0.41200 0.34499
# Poissons Ratio (y) = 0.67347 0.16679
# Poissons Ratio (z) = 0.47115 0.13935
#
# Static dielectric constant tensor:
#      x y z
#    x 3.208140 0.000000 -0.059490 
#    y 0.000000 3.500860 0.000000 
#    z -0.059490 0.000000 3.534880 
# 
# 
# High freq. dielectric constant tensor:
#      x y z
#    x 1.724730 0.000000 -0.003030 
#    y 0.000000 1.732840 0.000000 
#    z -0.003030 0.000000 1.741350 
# 
# From -- ./inp_files/69983.got.cif
#   From: 2010.06.25/outbox.cif.g09.slc.cpg/sg11_35_cif.got.tgz:69983.got - 2010.06.27 23:14:04.
