data_PCOD8075318
_publ_section_title
;
Structure prediction by ZEFSAII (Michael W. Deem and Ramdas Pophale) SiO2 
 PCOD8075318
Probable space group: P 21/M
;
_chemical_formula_sum "Si O2"
_cell_formula_units_Z 28
_cell_length_a 7.363871
_cell_length_b 27.220464
_cell_length_c 9.136132
_cell_angle_alpha 90.000000
_cell_angle_beta 49.263020
_cell_angle_gamma 90.000000
_cell_volume 1387.614954
_symmetry_space_group_name_H-M "P 21/M"
_symmetry_group_IT_number 11
_symmetry_cell_setting 'monoclinic'
loop_
_space_group_symop_operation_xyz
x,y,z
-x,1/2+y,-z
-x,-y,-z
x,1/2-y,z
loop_
_atom_site_type_symbol
_atom_site_label
_atom_site_fract_x
_atom_site_fract_y
_atom_site_fract_z
Si Si1 0.188389 0.449282 0.781182
Si Si2 0.499318 0.093642 0.364698
Si Si3 0.274408 0.304292 0.133746
Si Si4 0.980637 0.370053 0.079065
Si Si5 0.238030 0.305020 0.484083
Si Si6 0.798763 0.306852 0.918231
Si Si7 0.646658 0.022216 0.060865
O O1 0.347069 0.439889 0.554161
O O2 0.329480 0.487248 0.809871
O O3 0.173712 0.399739 0.883346
O O4 0.920080 0.464885 0.869229
O O5 0.783009 0.093936 0.258368
O O6 0.422892 0.150830 0.411233
O O7 0.496233 0.069466 0.201740
O O8 0.260462 0.250000 0.068923
O O9 0.168976 0.301970 0.351662
O O10 0.114021 0.342165 0.134488
O O11 0.545809 0.324294 0.985859
O O12 0.839400 0.332964 0.049697
O O13 0.332242 0.250000 0.484510
O O14 0.000091 0.319721 0.695491
O O15 0.781759 0.250000 0.966385
O O16 0.500000 0.000000 0.000000
#
# Coordination Sequence:
#
# PCOD8075318 Si02
#       7
#     4   4   4   4   4   4   4
#     4  10  23  43  61  94 128 152 209 261 310 381
#     4  11  22  41  64  94 127 165 202 258 317 372
#     4  10  22  38  58  87 125 168 213 256 302 364
#     4  11  22  36  62  90 120 163 206 254 312 371
#     4  10  21  38  60  89 126 164 205 252 305 370
#     4  10  20  38  58  81 121 166 208 255 304 362
#     4  10  24  44  68  91 122 163 208 261 319 372
#
# _framework density 20.178505999999999
#
# number of rings (size 3 to 8) (size 9 to 14) (size 15 to 20)
#    0.000    1.714    2.857    0.857    2.000    2.286 
#    2.571    0.000    0.000    0.000    0.000    0.000 
#    0.000    0.000    0.000    0.000    0.000    0.000 
#
# Total GULP energy -346980.936267 kJ/mol
# GULP energy per Si atom -12392.176295 kJ/mol
# Density = 2.013258 g / cm^3
# Si number density = 20.178506 Si / 1000 Ang^3
#
#
#
# Elastic Constant Matrix: (Units=GPa)
#
#
# Indices 1 2 3 4 5 6 
#
# 1 78.4558 38.5084 37.4822 0.0000 -3.5204 0.0000
# 2 38.5084 78.5332 33.2086 0.0000 -0.0751 0.0000
# 3 37.4822 33.2086 133.4827 0.0000 -16.9364 0.0000
# 4 0.0000 0.0000 0.0000 37.9755 0.0000 0.3174
# 5 -3.5204 -0.0751 -16.9364 0.0000 17.9703 0.0000
# 6 0.0000 0.0000 0.0000 0.3174 0.0000 44.5867
#
#
#
# Elastic Compliance Matrix: (Units=1/GPa)
#
#
# Indices 1 2 3 4 5 6 
#
# 1 0.017922 -0.007476 -0.003102 0.000000 0.000556 0.000000
# 2 -0.007476 0.017572 -0.002781 0.000000 -0.004012 0.000000
# 3 -0.003102 -0.002781 0.010195 0.000000 0.008989 0.000000
# 4 0.000000 0.000000 0.000000 0.026334 0.000000 -0.000187
# 5 0.000556 -0.004012 0.008989 0.000000 0.064212 0.000000
# 6 0.000000 0.000000 0.000000 -0.000187 0.000000 0.022430
#
#
# Mechanical properties :
#
#
# Convention : Reuss Voigt Hill
#
# Bulk Modulus (GPa) = 52.71407 56.54111 54.62759
# Shear Modulus (GPa) = 26.08144 32.19132 29.13638
#
# Velocity S-wave (km/s) = 3.59909 3.99849 3.80403
# Velocity P-wave (km/s) = 6.59180 7.02841 6.81360
#
# Compressibility (1/GPa) = 0.01897027
#
# Stress axis : x y z
#
# Youngs Moduli (GPa) = 55.79600 56.91022 98.08474
#
# Poissons Ratio (x) = 0.42545 0.30428
# Poissons Ratio (y) = 0.41712 0.27282
# Poissons Ratio (z) = 0.17309 0.15829
#
# Static dielectric constant tensor:
#      x y z
#    x 3.408270 0.000000 -0.210490 
#    y 0.000000 4.020070 0.000000 
#    z -0.210490 0.000000 3.841990 
# 
# 
# High freq. dielectric constant tensor:
#      x y z
#    x 1.757880 0.000000 -0.013230 
#    y 0.000000 1.806780 0.000000 
#    z -0.013230 0.000000 1.800960 
# 
# From -- ./inp_files/10787.got.cif
#   From: 2010.06.25/outbox.cif.g09.slc.cpg/sg11_6_cif.got.tgz:10787.got - 2010.06.27 23:14:04.
