data_PCOD8075479
_publ_section_title
;
Structure prediction by ZEFSAII (Michael W. Deem and Ramdas Pophale) SiO2 
 PCOD8075479
Probable space group: P 21/M
;
_chemical_formula_sum "Si O2"
_cell_formula_units_Z 32
_cell_length_a 15.084194
_cell_length_b 21.128103
_cell_length_c 15.000388
_cell_angle_alpha 90.000000
_cell_angle_beta 161.084921
_cell_angle_gamma 90.000000
_cell_volume 1549.719508
_symmetry_space_group_name_H-M "P 21/M"
_symmetry_group_IT_number 11
_symmetry_cell_setting 'monoclinic'
loop_
_space_group_symop_operation_xyz
x,y,z
-x,1/2+y,-z
-x,-y,-z
x,1/2-y,z
loop_
_atom_site_type_symbol
_atom_site_label
_atom_site_fract_x
_atom_site_fract_y
_atom_site_fract_z
Si Si1 0.622114 0.049501 0.427073
Si Si2 0.331616 0.320708 0.881245
Si Si3 0.170360 0.412806 0.876956
Si Si4 0.495022 0.099489 0.666519
Si Si5 0.773438 0.013641 0.212378
Si Si6 0.746966 0.045821 0.738959
Si Si7 0.960885 0.321869 0.195804
Si Si8 0.108738 0.848715 0.674512
O O1 0.744836 0.075105 0.637942
O O2 0.842709 0.081459 0.571043
O O3 0.593614 0.972690 0.392023
O O4 0.329931 0.081008 0.123818
O O5 0.218642 0.250000 0.780284
O O6 0.276643 0.351294 0.925605
O O7 0.156091 0.357258 0.639959
O O8 0.648690 0.318469 0.153803
O O9 0.247269 0.474570 0.896441
O O10 0.676624 0.098001 0.747592
O O11 0.220026 0.141538 0.398924
O O12 0.689855 0.136258 0.920705
O O13 0.794723 0.084257 0.197687
O O14 0.000000 0.000000 0.500000
O O15 0.500000 0.000000 0.000000
O O16 0.500000 0.000000 0.500000
O O17 0.000000 0.000000 0.000000
O O18 0.943292 0.250000 0.138808
O O19 0.979324 0.311254 0.320436
#
# Coordination Sequence:
#
# PCOD8075479 Si02
#       8
#     4   4   4   4   4   4   4   4
#     4  11  22  38  64  96 121 152 199 260 318 375
#     4  12  25  42  60  80 117 169 218 256 297 357
#     4  12  23  38  59  91 123 158 203 253 318 359
#     4  11  22  41  63  92 127 159 196 251 319 373
#     4  12  21  37  57  85 121 151 197 252 317 366
#     4  10  20  38  65  95 124 152 189 242 312 386
#     4  12  25  40  61  89 126 170 213 251 294 372
#     4  12  23  42  60  86 117 165 213 258 303 363
#
# _framework density 20.648897999999999
#
# number of rings (size 3 to 8) (size 9 to 14) (size 15 to 20)
#    0.000    0.500    2.500    9.000    0.000    0.000 
#    0.000    0.000    0.000    4.500    0.000    0.000 
#    0.000    0.000    0.000    0.000    0.000    0.000 
#
# Total GULP energy -396435.119620 kJ/mol
# GULP energy per Si atom -12388.597488 kJ/mol
# Density = 2.060190 g / cm^3
# Si number density = 20.648898 Si / 1000 Ang^3
#
#
#
# Elastic Constant Matrix: (Units=GPa)
#
#
# Indices 1 2 3 4 5 6 
#
# 1 85.5156 25.3952 26.7322 0.0000 2.3428 0.0000
# 2 25.3952 80.0849 9.1259 0.0000 8.3001 0.0000
# 3 26.7322 9.1259 124.4463 0.0000 4.5583 0.0000
# 4 0.0000 0.0000 0.0000 19.2790 0.0000 -1.2743
# 5 2.3428 8.3001 4.5583 0.0000 41.3061 0.0000
# 6 0.0000 0.0000 0.0000 -1.2743 0.0000 15.7556
#
#
#
# Elastic Compliance Matrix: (Units=1/GPa)
#
#
# Indices 1 2 3 4 5 6 
#
# 1 0.013730 -0.004085 -0.002662 0.000000 0.000336 0.000000
# 2 -0.004085 0.014057 -0.000059 0.000000 -0.002586 0.000000
# 3 -0.002662 -0.000059 0.008641 0.000000 -0.000791 0.000000
# 4 0.000000 0.000000 0.000000 0.052149 0.000000 0.004218
# 5 0.000336 -0.002586 -0.000791 0.000000 0.024797 0.000000
# 6 0.000000 0.000000 0.000000 0.004218 0.000000 0.063811
#
#
# Mechanical properties :
#
#
# Convention : Reuss Voigt Hill
#
# Bulk Modulus (GPa) = 43.82918 45.83927 44.83423
# Shear Modulus (GPa) = 25.20145 30.52104 27.86125
#
# Velocity S-wave (km/s) = 3.49732 3.84877 3.67725
# Velocity P-wave (km/s) = 6.13028 6.48061 6.30788
#
# Compressibility (1/GPa) = 0.02281585
#
# Stress axis : x y z
#
# Youngs Moduli (GPa) = 72.83376 71.13934 115.73162
#
# Poissons Ratio (x) = 0.29062 0.30808
# Poissons Ratio (y) = 0.29754 0.00677
# Poissons Ratio (z) = 0.19389 0.00416
#
# Static dielectric constant tensor:
#      x y z
#    x 3.065550 0.000000 0.097670 
#    y 0.000000 3.714480 0.000000 
#    z 0.097670 0.000000 3.865930 
# 
# 
# High freq. dielectric constant tensor:
#      x y z
#    x 1.804390 0.000000 0.006210 
#    y 0.000000 1.787720 0.000000 
#    z 0.006210 0.000000 1.829430 
# 
# From -- ./inp_files/52712.got.cif
#   From: 2010.06.25/outbox.cif.g09.slc.cpg/sg11_27_cif.got.tgz:52712.got - 2010.06.27 23:14:04.
