data_PCOD8075551
_publ_section_title
;
Structure prediction by ZEFSAII (Michael W. Deem and Ramdas Pophale) SiO2 
 PCOD8075551
Probable space group: P 21/M
;
_chemical_formula_sum "Si O2"
_cell_formula_units_Z 24
_cell_length_a 18.715326
_cell_length_b 8.379906
_cell_length_c 23.268836
_cell_angle_alpha 90.000000
_cell_angle_beta 161.878682
_cell_angle_gamma 90.000000
_cell_volume 1135.046293
_symmetry_space_group_name_H-M "P 21/M"
_symmetry_group_IT_number 11
_symmetry_cell_setting 'monoclinic'
loop_
_space_group_symop_operation_xyz
x,y,z
-x,1/2+y,-z
-x,-y,-z
x,1/2-y,z
loop_
_atom_site_type_symbol
_atom_site_label
_atom_site_fract_x
_atom_site_fract_y
_atom_site_fract_z
Si Si1 0.663526 0.066344 0.003624
Si Si2 0.197282 0.565562 0.690635
Si Si3 0.544309 0.062038 0.360775
Si Si4 0.003396 0.066515 0.655315
Si Si5 0.812647 0.561275 0.002486
Si Si6 0.330398 0.939267 0.418498
O O1 0.729966 0.250000 0.063008
O O2 0.422437 0.035914 0.850023
O O3 0.654897 0.022372 0.929927
O O4 0.856785 0.953010 0.178829
O O5 0.246735 0.750000 0.715550
O O6 0.121327 0.545052 0.698266
O O7 0.000000 0.500000 0.500000
O O8 0.563717 0.250000 0.383088
O O9 0.299346 0.013024 0.145102
O O10 0.583066 0.988112 0.454072
O O11 0.744727 0.007322 0.470135
O O12 0.009379 0.250000 0.639372
O O13 0.797842 0.750000 0.999874
O O14 0.074221 0.498774 0.207017
O O15 0.331951 0.750000 0.420698
O O16 0.500000 0.000000 0.500000
#
# Coordination Sequence:
#
# PCOD8075551 Si02
#       6
#     4   4   4   4   4   4
#     4  12  24  39  60  89 123 162 208 259 312 370
#     4  12  25  41  59  87 124 164 211 262 312 367
#     4   9  19  37  63  90 118 157 204 249 304 369
#     4  11  21  39  63  88 120 163 210 258 312 370
#     4  10  20  39  65  89 119 162 207 254 310 372
#     4  10  21  39  61  90 123 159 199 248 308 375
#
# _framework density 21.144511000000001
#
# number of rings (size 3 to 8) (size 9 to 14) (size 15 to 20)
#    0.000    1.333    1.667    5.000    0.000    2.667 
#    0.000    1.667    0.000    0.000    0.000    0.000 
#    0.000    0.000    0.000    0.000    0.000    0.000 
#
# Total GULP energy -297642.898950 kJ/mol
# GULP energy per Si atom -12401.787456 kJ/mol
# Density = 2.109639 g / cm^3
# Si number density = 21.144511 Si / 1000 Ang^3
#
#
#
# Elastic Constant Matrix: (Units=GPa)
#
#
# Indices 1 2 3 4 5 6 
#
# 1 139.1099 18.4464 77.7467 0.0000 -0.4148 0.0000
# 2 18.4464 48.5524 17.9808 0.0000 0.3722 0.0000
# 3 77.7467 17.9808 146.6772 0.0000 -14.9156 0.0000
# 4 0.0000 0.0000 0.0000 19.3801 0.0000 4.0778
# 5 -0.4148 0.3722 -14.9156 0.0000 36.2926 0.0000
# 6 0.0000 0.0000 0.0000 4.0778 0.0000 33.2241
#
#
#
# Elastic Compliance Matrix: (Units=1/GPa)
#
#
# Indices 1 2 3 4 5 6 
#
# 1 0.010555 -0.001928 -0.005577 0.000000 -0.002152 0.000000
# 2 -0.001928 0.021993 -0.001773 0.000000 -0.000976 0.000000
# 3 -0.005577 -0.001773 0.010422 0.000000 0.004238 0.000000
# 4 0.000000 0.000000 0.000000 0.052967 0.000000 -0.006501
# 5 -0.002152 -0.000976 0.004238 0.000000 0.029281 0.000000
# 6 0.000000 0.000000 0.000000 -0.006501 0.000000 0.030897
#
#
# Mechanical properties :
#
#
# Convention : Reuss Voigt Hill
#
# Bulk Modulus (GPa) = 40.96189 62.52082 51.74135
# Shear Modulus (GPa) = 27.35093 32.45707 29.90400
#
# Velocity S-wave (km/s) = 3.60046 3.92217 3.76476
# Velocity P-wave (km/s) = 6.05796 7.08123 6.58948
#
# Compressibility (1/GPa) = 0.02441294
#
# Stress axis : x y z
#
# Youngs Moduli (GPa) = 94.74418 45.46884 95.94973
#
# Poissons Ratio (x) = 0.08767 0.53511
# Poissons Ratio (y) = 0.18268 0.17015
# Poissons Ratio (z) = 0.52839 0.08063
#
# Static dielectric constant tensor:
#      x y z
#    x 8.276460 0.000000 1.455940 
#    y 0.000000 3.541970 0.000000 
#    z 1.455940 0.000000 4.628880 
# 
# 
# High freq. dielectric constant tensor:
#      x y z
#    x 1.831980 0.000000 -0.009250 
#    y 0.000000 1.805810 0.000000 
#    z -0.009250 0.000000 1.839550 
# 
# From -- ./inp_files/69529.got.cif
#   From: 2010.06.25/outbox.cif.g09.slc.cpg/sg11_35_cif.got.tgz:69529.got - 2010.06.27 23:14:04.
