data_PCOD8075608
_publ_section_title
;
Structure prediction by ZEFSAII (Michael W. Deem and Ramdas Pophale) SiO2 
 PCOD8075608
Probable space group: P 21/M
;
_chemical_formula_sum "Si O2"
_cell_formula_units_Z 22
_cell_length_a 15.366628
_cell_length_b 11.209759
_cell_length_c 13.072271
_cell_angle_alpha 90.000000
_cell_angle_beta 152.289380
_cell_angle_gamma 90.000000
_cell_volume 1047.091398
_symmetry_space_group_name_H-M "P 21/M"
_symmetry_group_IT_number 11
_symmetry_cell_setting 'monoclinic'
loop_
_space_group_symop_operation_xyz
x,y,z
-x,1/2+y,-z
-x,-y,-z
x,1/2-y,z
loop_
_atom_site_type_symbol
_atom_site_label
_atom_site_fract_x
_atom_site_fract_y
_atom_site_fract_z
Si Si1 0.068451 0.250000 0.897085
Si Si2 0.017959 0.889857 0.660733
Si Si3 0.715653 0.522475 0.200838
Si Si4 0.341744 0.750000 0.543352
Si Si5 0.686616 0.454135 0.642534
Si Si6 0.674817 0.750000 0.024806
Si Si7 0.035770 0.982112 0.904699
O O1 0.868178 0.250000 0.631790
O O2 0.077517 0.124851 0.969137
O O3 0.233533 0.250000 0.989629
O O4 0.985032 0.750000 0.638712
O O5 0.828918 0.953197 0.423168
O O6 0.191067 0.912185 0.763049
O O7 0.066790 0.947374 0.820144
O O8 0.500000 0.500000 0.000000
O O9 0.738796 0.636636 0.154040
O O10 0.384600 0.859959 0.513962
O O11 0.455720 0.750000 0.768337
O O12 0.500000 0.500000 0.500000
O O13 0.821911 0.545739 0.719358
O O14 0.817943 0.407436 0.873147
#
# Coordination Sequence:
#
# PCOD8075608 Si02
#       7
#     2   4   4   2   4   2   4
#     4  10  20  40  66  88 118 170 218 262 310 376
#     4  11  25  45  66  96 133 172 213 270 330 386
#     4  11  27  43  68  97 130 169 222 269 327 390
#     4  10  24  36  65  92 121 165 216 263 320 373
#     4  10  22  40  59  92 125 162 215 261 315 381
#     4  12  22  42  67  94 123 171 218 267 320 385
#     4  10  22  40  65  89 127 168 212 262 322 375
#
# _framework density 21.010581999999999
#
# number of rings (size 3 to 8) (size 9 to 14) (size 15 to 20)
#    0.000    1.455    2.727    1.091    7.636    0.000 
#    3.273    0.000    0.000    0.000    0.000    0.000 
#    0.000    0.000    0.000    0.000    0.000    0.000 
#
# Total GULP energy -272583.336207 kJ/mol
# GULP energy per Si atom -12390.151646 kJ/mol
# Density = 2.096276 g / cm^3
# Si number density = 21.010582 Si / 1000 Ang^3
#
#
#
# Elastic Constant Matrix: (Units=GPa)
#
#
# Indices 1 2 3 4 5 6 
#
# 1 91.0273 13.3082 32.0319 0.0000 10.1496 0.0000
# 2 13.3082 63.0794 1.4928 0.0000 -4.4901 0.0000
# 3 32.0319 1.4928 90.2844 0.0000 -4.7148 0.0000
# 4 0.0000 0.0000 0.0000 20.5934 0.0000 0.8604
# 5 10.1496 -4.4901 -4.7148 0.0000 56.1174 0.0000
# 6 0.0000 0.0000 0.0000 0.8604 0.0000 4.6568
#
#
#
# Elastic Compliance Matrix: (Units=1/GPa)
#
#
# Indices 1 2 3 4 5 6 
#
# 1 0.013484 -0.002949 -0.004896 0.000000 -0.003086 0.000000
# 2 -0.002949 0.016592 0.000873 0.000000 0.001934 0.000000
# 3 -0.004896 0.000873 0.012905 0.000000 0.002040 0.000000
# 4 0.000000 0.000000 0.000000 0.048937 0.000000 -0.009042
# 5 -0.003086 0.001934 0.002040 0.000000 0.018704 0.000000
# 6 0.000000 0.000000 0.000000 -0.009042 0.000000 0.216409
#
#
# Mechanical properties :
#
#
# Convention : Reuss Voigt Hill
#
# Bulk Modulus (GPa) = 34.43865 37.56188 36.00026
# Shear Modulus (GPa) = 14.25904 29.44407 21.85156
#
# Velocity S-wave (km/s) = 2.60794 3.74758 3.22844
# Velocity P-wave (km/s) = 5.04927 6.05328 5.57393
#
# Compressibility (1/GPa) = 0.02903715
#
# Stress axis : x y z
#
# Youngs Moduli (GPa) = 74.16268 60.26949 77.48722
#
# Poissons Ratio (x) = 0.17771 0.37940
# Poissons Ratio (y) = 0.21867 -0.06763
# Poissons Ratio (z) = 0.36312 -0.05260
#
# Static dielectric constant tensor:
#      x y z
#    x 3.877200 0.000000 0.013510 
#    y 0.000000 3.823520 0.000000 
#    z 0.013510 0.000000 3.945160 
# 
# 
# High freq. dielectric constant tensor:
#      x y z
#    x 1.835040 0.000000 0.001840 
#    y 0.000000 1.802750 0.000000 
#    z 0.001840 0.000000 1.832410 
# 
# From -- ./inp_files/39294.got.cif
#   From: 2010.06.25/outbox.cif.g09.slc.cpg/sg11_20_cif.got.tgz:39294.got - 2010.06.27 23:14:04.
