data_PCOD8075980
_publ_section_title
;
Structure prediction by ZEFSAII (Michael W. Deem and Ramdas Pophale) SiO2 
 PCOD8075980
Probable space group: P 21/M
;
_chemical_formula_sum "Si O2"
_cell_formula_units_Z 28
_cell_length_a 9.565468
_cell_length_b 8.992329
_cell_length_c 26.117736
_cell_angle_alpha 90.000000
_cell_angle_beta 134.346166
_cell_angle_gamma 90.000000
_cell_volume 1606.566796
_symmetry_space_group_name_H-M "P 21/M"
_symmetry_group_IT_number 11
_symmetry_cell_setting 'monoclinic'
loop_
_space_group_symop_operation_xyz
x,y,z
-x,1/2+y,-z
-x,-y,-z
x,1/2-y,z
loop_
_atom_site_type_symbol
_atom_site_label
_atom_site_fract_x
_atom_site_fract_y
_atom_site_fract_z
Si Si1 0.678196 0.417358 0.571215
Si Si2 0.200652 0.578234 0.924296
Si Si3 0.196952 0.925735 0.177898
Si Si4 0.520377 0.423063 0.193082
Si Si5 0.163233 0.582862 0.284027
Si Si6 0.039732 0.920496 0.687280
Si Si7 0.546116 0.578218 0.091943
O O1 0.500000 0.500000 0.500000
O O2 0.679760 0.250000 0.550803
O O3 0.658623 0.423982 0.628612
O O4 0.888908 0.492178 0.610961
O O5 0.170700 0.750000 0.901673
O O6 0.271169 0.488670 0.892344
O O7 0.998924 0.505769 0.891810
O O8 0.350864 0.560644 0.008889
O O9 0.178148 0.750000 0.164704
O O10 0.235457 0.970222 0.247088
O O11 0.378138 0.985498 0.192655
O O12 0.462144 0.250000 0.177112
O O13 0.508336 0.485502 0.133085
O O14 0.737054 0.445335 0.272073
O O15 0.079940 0.750000 0.258908
O O16 0.986910 0.480371 0.260842
O O17 0.978840 0.750000 0.670200
O O18 0.590233 0.750000 0.115979
#
# Coordination Sequence:
#
# PCOD8075980 Si02
#       7
#     4   4   4   4   4   4   4
#     4   9  17  31  53  82 110 133 168 213 255 303
#     4  10  21  37  56  79 105 135 175 225 272 316
#     4  11  22  36  54  76 105 143 181 218 266 320
#     4  11  23  36  52  77 108 141 179 223 267 312
#     4   8  18  33  51  76 104 134 169 212 256 305
#     4   9  18  32  52  77 104 136 170 210 258 307
#     4  10  21  37  57  78 103 138 178 220 270 322
#
# _framework density 17.428469
#
# number of rings (size 3 to 8) (size 9 to 14) (size 15 to 20)
#    0.857    1.429    0.000    3.000    0.000    8.000 
#    0.000    0.000    0.000    0.857    0.000    0.000 
#    0.000    0.000    0.000    0.000    0.000    0.000 
#
# Total GULP energy -347039.846870 kJ/mol
# GULP energy per Si atom -12394.280245 kJ/mol
# Density = 1.738880 g / cm^3
# Si number density = 17.428469 Si / 1000 Ang^3
#
#
#
# Elastic Constant Matrix: (Units=GPa)
#
#
# Indices 1 2 3 4 5 6 
#
# 1 68.4495 23.7849 26.5933 0.0000 19.1797 0.0000
# 2 23.7849 107.9447 42.9368 0.0000 16.3443 0.0000
# 3 26.5933 42.9368 68.8469 0.0000 16.8345 0.0000
# 4 0.0000 0.0000 0.0000 27.3426 0.0000 4.3010
# 5 19.1797 16.3443 16.8345 0.0000 18.4422 0.0000
# 6 0.0000 0.0000 0.0000 4.3010 0.0000 31.7584
#
#
#
# Elastic Compliance Matrix: (Units=1/GPa)
#
#
# Indices 1 2 3 4 5 6 
#
# 1 0.021319 -0.000549 -0.003334 0.000000 -0.018641 0.000000
# 2 -0.000549 0.012707 -0.006564 0.000000 -0.004700 0.000000
# 3 -0.003334 -0.006564 0.022704 0.000000 -0.011440 0.000000
# 4 0.000000 0.000000 0.000000 0.037369 0.000000 -0.005061
# 5 -0.018641 -0.004700 -0.011440 0.000000 0.088218 0.000000
# 6 0.000000 0.000000 0.000000 -0.005061 0.000000 0.032173
#
#
# Mechanical properties :
#
#
# Convention : Reuss Voigt Hill
#
# Bulk Modulus (GPa) = 27.90489 47.98567 37.94528
# Shear Modulus (GPa) = 20.21599 25.63706 22.92652
#
# Velocity S-wave (km/s) = 3.40948 3.83951 3.63087
# Velocity P-wave (km/s) = 5.61652 6.87375 6.27669
#
# Compressibility (1/GPa) = 0.03583601
#
# Stress axis : x y z
#
# Youngs Moduli (GPa) = 46.90710 78.69437 44.04548
#
# Poissons Ratio (x) = 0.04317 0.14686
# Poissons Ratio (y) = 0.02573 0.28911
# Poissons Ratio (z) = 0.15641 0.51655
#
# Static dielectric constant tensor:
#      x y z
#    x 3.050880 0.000000 0.010660 
#    y 0.000000 3.426390 0.000000 
#    z 0.010660 0.000000 3.159750 
# 
# 
# High freq. dielectric constant tensor:
#      x y z
#    x 1.645460 0.000000 0.005190 
#    y 0.000000 1.693570 0.000000 
#    z 0.005190 0.000000 1.670190 
# 
# From -- ./inp_files/72759.got.cif
#   From: 2010.06.25/outbox.cif.g09.slc.cpg/sg11_37_cif.got.tgz:72759.got - 2010.06.27 23:14:04.
