data_PCOD8075010
_publ_section_title
;
Structure prediction by ZEFSAII (Michael W. Deem and Ramdas Pophale) SiO2 
 PCOD8075010
Probable space group: P 21/M
;
_chemical_formula_sum "Si O2"
_cell_formula_units_Z 28
_cell_length_a 21.488620
_cell_length_b 8.846233
_cell_length_c 14.478381
_cell_angle_alpha 90.000000
_cell_angle_beta 30.581646
_cell_angle_gamma 90.000000
_cell_volume 1400.247134
_symmetry_space_group_name_H-M "P 21/M"
_symmetry_group_IT_number 11
_symmetry_cell_setting 'monoclinic'
loop_
_space_group_symop_operation_xyz
x,y,z
-x,1/2+y,-z
-x,-y,-z
x,1/2-y,z
loop_
_atom_site_type_symbol
_atom_site_label
_atom_site_fract_x
_atom_site_fract_y
_atom_site_fract_z
Si Si1 0.339349 0.574334 0.114156
Si Si2 0.592096 0.421534 0.773779
Si Si3 0.550961 0.427348 0.342946
Si Si4 0.172193 0.927839 0.038065
Si Si5 0.345648 0.923268 0.503690
Si Si6 0.113094 0.071085 0.301828
Si Si7 0.889079 0.427670 0.088616
O O1 0.317320 0.750000 0.119286
O O2 0.327241 0.538477 0.239161
O O3 0.240257 0.478473 0.185381
O O4 0.476093 0.530401 0.909386
O O5 0.542249 0.250000 0.846437
O O6 0.681223 0.438418 0.571444
O O7 0.500000 0.500000 0.500000
O O8 0.548608 0.250000 0.359112
O O9 0.687758 0.482003 0.146993
O O10 0.466972 0.479394 0.365899
O O11 0.162976 0.750000 0.070010
O O12 0.107154 0.970372 0.024284
O O13 0.106195 0.017525 0.204385
O O14 0.370667 0.750000 0.500379
O O15 0.234610 0.989990 0.705711
O O16 0.101560 0.250000 0.320270
O O17 0.000000 0.000000 0.500000
O O18 0.894963 0.250000 0.095733
O O19 0.000000 0.500000 0.000000
#
# Coordination Sequence:
#
# PCOD8075010 Si02
#       7
#     4   4   4   4   4   4   4
#     4  10  20  37  59  88 124 158 196 245 301 356
#     4   9  19  35  60  89 119 156 197 243 298 359
#     4  11  21  35  59  89 122 156 195 242 296 352
#     4  10  22  42  63  88 123 158 195 250 307 355
#     4  10  20  37  57  84 119 153 194 243 294 348
#     4  12  26  43  64  89 118 157 205 254 305 363
#     4  10  22  40  59  83 118 157 197 245 296 351
#
# _framework density 19.996471
#
# number of rings (size 3 to 8) (size 9 to 14) (size 15 to 20)
#    0.000    1.714    1.429    3.000    0.000    6.857 
#    0.000    1.429    0.000    0.000    0.000    0.000 
#    0.000    0.000    0.000    0.000    0.000    0.000 
#
# Total GULP energy -347241.730024 kJ/mol
# GULP energy per Si atom -12401.490358 kJ/mol
# Density = 1.995096 g / cm^3
# Si number density = 19.996471 Si / 1000 Ang^3
#
#
#
# Elastic Constant Matrix: (Units=GPa)
#
#
# Indices 1 2 3 4 5 6 
#
# 1 141.5003 45.9494 61.5869 0.0000 10.2138 0.0000
# 2 45.9494 80.8432 47.8826 0.0000 6.1090 0.0000
# 3 61.5869 47.8826 101.4971 0.0000 16.6207 0.0000
# 4 0.0000 0.0000 0.0000 31.8917 0.0000 -2.2454
# 5 10.2138 6.1090 16.6207 0.0000 39.3153 0.0000
# 6 0.0000 0.0000 0.0000 -2.2454 0.0000 34.5080
#
#
#
# Elastic Compliance Matrix: (Units=1/GPa)
#
#
# Indices 1 2 3 4 5 6 
#
# 1 0.010079 -0.002928 -0.004706 0.000000 -0.000174 0.000000
# 2 -0.002928 0.018041 -0.006876 0.000000 0.000864 0.000000
# 3 -0.004706 -0.006876 0.016735 0.000000 -0.004784 0.000000
# 4 0.000000 0.000000 0.000000 0.031500 0.000000 0.002050
# 5 -0.000174 0.000864 -0.004784 0.000000 0.027369 0.000000
# 6 0.000000 0.000000 0.000000 0.002050 0.000000 0.029112
#
#
# Mechanical properties :
#
#
# Convention : Reuss Voigt Hill
#
# Bulk Modulus (GPa) = 63.14999 70.51980 66.83490
# Shear Modulus (GPa) = 29.91610 32.37111 31.14361
#
# Velocity S-wave (km/s) = 3.87210 4.02785 3.95074
# Velocity P-wave (km/s) = 7.18610 7.54812 7.36933
#
# Compressibility (1/GPa) = 0.01583532
#
# Stress axis : x y z
#
# Youngs Moduli (GPa) = 99.21945 55.42885 59.75500
#
# Poissons Ratio (x) = 0.16231 0.28119
# Poissons Ratio (y) = 0.29053 0.41087
# Poissons Ratio (z) = 0.46689 0.38112
#
# Static dielectric constant tensor:
#      x y z
#    x 3.870680 0.000000 0.140440 
#    y 0.000000 3.641640 0.000000 
#    z 0.140440 0.000000 3.666170 
# 
# 
# High freq. dielectric constant tensor:
#      x y z
#    x 1.794220 0.000000 0.016160 
#    y 0.000000 1.775620 0.000000 
#    z 0.016160 0.000000 1.773460 
# 
# From -- ./inp_files/51907.got.cif
#   From: 2010.06.25/outbox.cif.g09.slc.cpg/sg11_26_cif.got.tgz:51907.got - 2010.06.27 23:14:04.
