data_PCOD8075185
_publ_section_title
;
Structure prediction by ZEFSAII (Michael W. Deem and Ramdas Pophale) SiO2 
 PCOD8075185
Probable space group: P 21/M
;
_chemical_formula_sum "Si O2"
_cell_formula_units_Z 32
_cell_length_a 27.146405
_cell_length_b 8.911348
_cell_length_c 21.030110
_cell_angle_alpha 90.000000
_cell_angle_beta 161.240190
_cell_angle_gamma 90.000000
_cell_volume 1636.121157
_symmetry_space_group_name_H-M "P 21/M"
_symmetry_group_IT_number 11
_symmetry_cell_setting 'monoclinic'
loop_
_space_group_symop_operation_xyz
x,y,z
-x,1/2+y,-z
-x,-y,-z
x,1/2-y,z
loop_
_atom_site_type_symbol
_atom_site_label
_atom_site_fract_x
_atom_site_fract_y
_atom_site_fract_z
Si Si1 0.524845 0.927278 0.340893
Si Si2 0.612941 0.925663 0.588906
Si Si3 0.340566 0.928840 0.823432
Si Si4 0.215093 0.423859 0.925621
Si Si5 0.217834 0.928096 0.426358
Si Si6 0.956717 0.574437 0.012313
Si Si7 0.839260 0.924573 0.288647
Si Si8 0.884617 0.427939 0.562183
O O1 0.537831 0.750000 0.350366
O O2 0.583920 0.984066 0.481767
O O3 0.627479 0.000417 0.411300
O O4 0.350456 0.977432 0.119702
O O5 0.584117 0.750000 0.556306
O O6 0.783916 0.969811 0.819786
O O7 0.500000 0.000000 0.500000
O O8 0.352929 0.750000 0.841532
O O9 0.216274 0.984596 0.620068
O O10 0.293071 0.993371 0.833555
O O11 0.500000 0.000000 0.000000
O O12 0.244413 0.250000 0.978344
O O13 0.204475 0.447012 0.837617
O O14 0.058811 0.484427 0.766924
O O15 0.237158 0.750000 0.448480
O O16 0.189477 0.988176 0.463071
O O17 0.071001 0.982114 0.206575
O O18 0.971439 0.750000 0.019881
O O19 0.000000 0.500000 0.000000
O O20 0.848646 0.750000 0.318252
O O21 0.000000 0.000000 0.500000
O O22 0.886999 0.250000 0.565292
#
# Coordination Sequence:
#
# PCOD8075185 Si02
#       8
#     4   4   4   4   4   4   4   4
#     4  11  24  41  58  87 126 157 192 248 302 349
#     4  10  23  40  59  87 122 155 195 247 298 352
#     4  11  23  41  62  90 125 159 201 256 307 360
#     4  10  22  41  64  87 117 161 204 242 293 361
#     4  10  21  38  63  88 113 156 203 241 292 360
#     4  10  20  37  61  86 113 150 195 241 290 347
#     4  11  22  40  65  91 119 159 204 252 306 363
#     4   9  20  40  62  86 117 153 198 246 291 349
#
# _framework density 19.558454999999999
#
# number of rings (size 3 to 8) (size 9 to 14) (size 15 to 20)
#    0.000    1.750    2.500    1.125    3.500    2.500 
#    0.000    1.250    0.000    0.000    0.000    0.000 
#    0.000    0.000    0.000    0.000    0.000    0.000 
#
# Total GULP energy -396899.946167 kJ/mol
# GULP energy per Si atom -12403.123318 kJ/mol
# Density = 1.951394 g / cm^3
# Si number density = 19.558455 Si / 1000 Ang^3
#
#
#
# Elastic Constant Matrix: (Units=GPa)
#
#
# Indices 1 2 3 4 5 6 
#
# 1 128.9094 31.7217 34.2039 0.0000 22.3912 0.0000
# 2 31.7217 49.3850 27.0506 0.0000 3.9409 0.0000
# 3 34.2039 27.0506 109.3239 0.0000 17.4832 0.0000
# 4 0.0000 0.0000 0.0000 33.3495 0.0000 3.6029
# 5 22.3912 3.9409 17.4832 0.0000 38.1811 0.0000
# 6 0.0000 0.0000 0.0000 3.6029 0.0000 32.5595
#
#
#
# Elastic Compliance Matrix: (Units=1/GPa)
#
#
# Indices 1 2 3 4 5 6 
#
# 1 0.010284 -0.005647 -0.001024 0.000000 -0.004979 0.000000
# 2 -0.005647 0.026527 -0.005275 0.000000 0.002989 0.000000
# 3 -0.001024 -0.005275 0.011426 0.000000 -0.004087 0.000000
# 4 0.000000 0.000000 0.000000 0.030348 0.000000 -0.003358
# 5 -0.004979 0.002989 -0.004087 0.000000 0.030674 0.000000
# 6 0.000000 0.000000 0.000000 -0.003358 0.000000 0.031085
#
#
# Mechanical properties :
#
#
# Convention : Reuss Voigt Hill
#
# Bulk Modulus (GPa) = 41.07626 52.61899 46.84762
# Shear Modulus (GPa) = 29.01052 33.79418 31.40235
#
# Velocity S-wave (km/s) = 3.85551 4.16126 4.01130
# Velocity P-wave (km/s) = 6.39275 7.07460 6.74230
#
# Compressibility (1/GPa) = 0.02434496
#
# Stress axis : x y z
#
# Youngs Moduli (GPa) = 97.24247 37.69691 87.51752
#
# Poissons Ratio (x) = 0.21289 0.08960
# Poissons Ratio (y) = 0.54917 0.46165
# Poissons Ratio (z) = 0.09955 0.19885
#
# Static dielectric constant tensor:
#      x y z
#    x 3.799150 0.000000 -0.147350 
#    y 0.000000 3.341930 0.000000 
#    z -0.147350 0.000000 3.876460 
# 
# 
# High freq. dielectric constant tensor:
#      x y z
#    x 1.774560 0.000000 0.004640 
#    y 0.000000 1.746070 0.000000 
#    z 0.004640 0.000000 1.775430 
# 
# From -- ./inp_files/67134.got.cif
#   From: 2010.06.25/outbox.cif.g09.slc.cpg/sg11_34_cif.got.tgz:67134.got - 2010.06.27 23:14:04.
