data_PCOD8075119
_publ_section_title
;
Structure prediction by ZEFSAII (Michael W. Deem and Ramdas Pophale) SiO2 
 PCOD8075119
Probable space group: P 21/M
;
_chemical_formula_sum "Si O2"
_cell_formula_units_Z 24
_cell_length_a 21.510285
_cell_length_b 8.988415
_cell_length_c 12.560530
_cell_angle_alpha 90.000000
_cell_angle_beta 149.799392
_cell_angle_gamma 90.000000
_cell_volume 1221.603788
_symmetry_space_group_name_H-M "P 21/M"
_symmetry_group_IT_number 11
_symmetry_cell_setting 'monoclinic'
loop_
_space_group_symop_operation_xyz
x,y,z
-x,1/2+y,-z
-x,-y,-z
x,1/2-y,z
loop_
_atom_site_type_symbol
_atom_site_label
_atom_site_fract_x
_atom_site_fract_y
_atom_site_fract_z
Si Si1 0.992280 0.917196 0.248265
Si Si2 0.822561 0.925823 0.344938
Si Si3 0.747003 0.078096 0.833721
Si Si4 0.252900 0.582531 0.570887
Si Si5 0.662525 0.422987 0.942447
Si Si6 0.593064 0.426215 0.403437
O O1 0.959605 0.750000 0.236946
O O2 0.104524 0.916616 0.327906
O O3 0.040823 0.009594 0.423899
O O4 0.874624 0.989925 0.019626
O O5 0.828100 0.750000 0.345041
O O6 0.724492 0.977335 0.292230
O O7 0.778202 0.994034 0.167723
O O8 0.780383 0.250000 0.867841
O O9 0.672171 0.048982 0.830990
O O10 0.661757 0.019944 0.611802
O O11 0.297462 0.750000 0.664604
O O12 0.324643 0.521458 0.574757
O O13 0.667744 0.250000 0.979375
O O14 0.536380 0.491839 0.798596
O O15 0.571005 0.250000 0.372048
#
# Coordination Sequence:
#
# PCOD8075119 Si02
#       6
#     4   4   4   4   4   4
#     4   9  19  37  59  86 115 145 183 230 283 334
#     4  10  20  37  60  85 111 146 189 230 282 337
#     4  10  22  38  58  84 115 151 188 230 275 329
#     4   8  18  37  58  85 115 143 181 233 283 329
#     4  11  23  38  56  83 117 150 189 232 277 329
#     4  10  21  39  60  83 114 150 189 230 276 331
#
# _framework density 19.646304000000001
#
# number of rings (size 3 to 8) (size 9 to 14) (size 15 to 20)
#    1.000    1.333    0.000    2.500    0.000    4.667 
#    0.000    0.000    0.000    0.000    0.000    0.000 
#    0.000    0.000    0.000    0.000    0.000    0.000 
#
# Total GULP energy -297503.587013 kJ/mol
# GULP energy per Si atom -12395.982792 kJ/mol
# Density = 1.960159 g / cm^3
# Si number density = 19.646304 Si / 1000 Ang^3
#
#
#
# Elastic Constant Matrix: (Units=GPa)
#
#
# Indices 1 2 3 4 5 6 
#
# 1 29.3917 11.1067 -6.9353 0.0000 2.4984 0.0000
# 2 11.1067 87.4837 25.8382 0.0000 -0.0749 0.0000
# 3 -6.9353 25.8382 71.1522 0.0000 0.4593 0.0000
# 4 0.0000 0.0000 0.0000 35.9047 0.0000 2.4764
# 5 2.4984 -0.0749 0.4593 0.0000 31.8951 0.0000
# 6 0.0000 0.0000 0.0000 2.4764 0.0000 19.4201
#
#
#
# Elastic Compliance Matrix: (Units=1/GPa)
#
#
# Indices 1 2 3 4 5 6 
#
# 1 0.038271 -0.006686 0.006178 0.000000 -0.003103 0.000000
# 2 -0.006686 0.013972 -0.005730 0.000000 0.000639 0.000000
# 3 0.006178 -0.005730 0.016742 0.000000 -0.000739 0.000000
# 4 0.000000 0.000000 0.000000 0.028099 0.000000 -0.003583
# 5 -0.003103 0.000639 -0.000739 0.000000 0.031608 0.000000
# 6 0.000000 0.000000 0.000000 -0.003583 0.000000 0.051950
#
#
# Mechanical properties :
#
#
# Convention : Reuss Voigt Hill
#
# Bulk Modulus (GPa) = 17.69578 27.56077 22.62827
# Shear Modulus (GPa) = 23.58997 27.97852 25.78424
#
# Velocity S-wave (km/s) = 3.46892 3.77783 3.62667
# Velocity P-wave (km/s) = 5.00712 5.75224 5.39257
#
# Compressibility (1/GPa) = 0.05651065
#
# Stress axis : x y z
#
# Youngs Moduli (GPa) = 26.12917 71.56966 59.72973
#
# Poissons Ratio (x) = 0.47853 -0.36904
# Poissons Ratio (y) = 0.17471 0.34224
# Poissons Ratio (z) = -0.16144 0.41008
#
# Static dielectric constant tensor:
#      x y z
#    x 3.458220 0.000000 -0.052340 
#    y 0.000000 3.484530 0.000000 
#    z -0.052340 0.000000 3.430000 
# 
# 
# High freq. dielectric constant tensor:
#      x y z
#    x 1.758340 0.000000 0.001190 
#    y 0.000000 1.765350 0.000000 
#    z 0.001190 0.000000 1.757700 
# 
# From -- ./inp_files/44020.got.cif
#   From: 2010.06.25/outbox.cif.g09.slc.cpg/sg11_23_cif.got.tgz:44020.got - 2010.06.27 23:14:04.
