data_PCOD8075046
_publ_section_title
;
Structure prediction by ZEFSAII (Michael W. Deem and Ramdas Pophale) SiO2 
 PCOD8075046
Probable space group: P 21/M
;
_chemical_formula_sum "Si O2"
_cell_formula_units_Z 28
_cell_length_a 7.184118
_cell_length_b 16.124110
_cell_length_c 15.080035
_cell_angle_alpha 90.000000
_cell_angle_beta 49.996371
_cell_angle_gamma 90.000000
_cell_volume 1338.081119
_symmetry_space_group_name_H-M "P 21/M"
_symmetry_group_IT_number 11
_symmetry_cell_setting 'monoclinic'
loop_
_space_group_symop_operation_xyz
x,y,z
-x,1/2+y,-z
-x,-y,-z
x,1/2-y,z
loop_
_atom_site_type_symbol
_atom_site_label
_atom_site_fract_x
_atom_site_fract_y
_atom_site_fract_z
Si Si1 0.260171 0.343208 0.767973
Si Si2 0.723003 0.560793 0.918803
Si Si3 0.013219 0.653622 0.976165
Si Si4 0.789774 0.341922 0.655010
Si Si5 0.012339 0.574194 0.564162
Si Si6 0.428512 0.346866 0.202254
Si Si7 0.923797 0.964395 0.306833
O O1 0.235559 0.250000 0.737241
O O2 0.502146 0.352531 0.751635
O O3 0.275225 0.405847 0.679090
O O4 0.037948 0.362218 0.903572
O O5 0.820257 0.600480 0.979642
O O6 0.649028 0.634358 0.874621
O O7 0.937360 0.505137 0.816193
O O8 0.500000 0.500000 0.000000
O O9 0.974844 0.750000 0.964945
O O10 0.290362 0.626958 0.869005
O O11 0.871023 0.250000 0.659612
O O12 0.902005 0.407952 0.686702
O O13 0.860475 0.351729 0.528664
O O14 0.742126 0.601094 0.678411
O O15 0.171131 0.539470 0.599980
O O16 0.000000 0.500000 0.500000
O O17 0.390084 0.250000 0.232308
#
# Coordination Sequence:
#
# PCOD8075046 Si02
#       7
#     4   4   4   4   4   4   4
#     4  10  21  36  56  82 111 148 190 231 283 344
#     4  11  22  35  56  86 118 152 188 234 289 341
#     4  10  22  39  59  85 117 154 196 239 285 345
#     4  10  20  37  59  80 110 148 188 236 284 341
#     4   9  20  37  58  84 111 145 188 237 292 342
#     4  10  21  39  61  83 114 155 197 240 288 349
#     4  10  21  35  54  81 112 144 182 231 284 338
#
# _framework density 20.925487
#
# number of rings (size 3 to 8) (size 9 to 14) (size 15 to 20)
#    0.000    2.000    0.000    3.000    0.000    6.286 
#    0.000   10.000    0.000   15.429    0.000    0.000 
#    0.000    0.000    0.000    0.000    0.000    0.000 
#
# Total GULP energy -346991.668411 kJ/mol
# GULP energy per Si atom -12392.559586 kJ/mol
# Density = 2.087786 g / cm^3
# Si number density = 20.925487 Si / 1000 Ang^3
#
#
#
# Elastic Constant Matrix: (Units=GPa)
#
#
# Indices 1 2 3 4 5 6 
#
# 1 75.3761 34.3996 10.1262 0.0000 8.3668 0.0000
# 2 34.3996 75.5294 16.9202 0.0000 3.0503 0.0000
# 3 10.1262 16.9202 70.6152 0.0000 -2.2907 0.0000
# 4 0.0000 0.0000 0.0000 30.4364 0.0000 3.6686
# 5 8.3668 3.0503 -2.2907 0.0000 23.5405 0.0000
# 6 0.0000 0.0000 0.0000 3.6686 0.0000 44.1840
#
#
#
# Elastic Compliance Matrix: (Units=1/GPa)
#
#
# Indices 1 2 3 4 5 6 
#
# 1 0.017402 -0.007518 -0.000866 0.000000 -0.005295 0.000000
# 2 -0.007518 0.017348 -0.003075 0.000000 0.000125 0.000000
# 3 -0.000866 -0.003075 0.015093 0.000000 0.002175 0.000000
# 4 0.000000 0.000000 0.000000 0.033188 0.000000 -0.002756
# 5 -0.005295 0.000125 0.002175 0.000000 0.044557 0.000000
# 6 0.000000 0.000000 0.000000 -0.002756 0.000000 0.022861
#
#
# Mechanical properties :
#
#
# Convention : Reuss Voigt Hill
#
# Bulk Modulus (GPa) = 37.13930 38.26807 37.70369
# Shear Modulus (GPa) = 27.42132 30.30384 28.86258
#
# Velocity S-wave (km/s) = 3.62391 3.80962 3.71793
# Velocity P-wave (km/s) = 5.94114 6.13828 6.04051
#
# Compressibility (1/GPa) = 0.02692565
#
# Stress axis : x y z
#
# Youngs Moduli (GPa) = 57.46535 57.64502 66.25735
#
# Poissons Ratio (x) = 0.43336 0.05737
# Poissons Ratio (y) = 0.43201 0.20371
# Poissons Ratio (z) = 0.04976 0.17723
#
# Static dielectric constant tensor:
#      x y z
#    x 3.531240 0.000000 0.148450 
#    y 0.000000 3.964650 0.000000 
#    z 0.148450 0.000000 4.023630 
# 
# 
# High freq. dielectric constant tensor:
#      x y z
#    x 1.800110 0.000000 0.007280 
#    y 0.000000 1.834540 0.000000 
#    z 0.007280 0.000000 1.822170 
# 
# From -- ./inp_files/45978.got.cif
#   From: 2010.06.25/outbox.cif.g09.slc.cpg/sg11_23_cif.got.tgz:45978.got - 2010.06.27 23:14:04.
