data_PCOD8075927
_publ_section_title
;
Structure prediction by ZEFSAII (Michael W. Deem and Ramdas Pophale) SiO2 
 PCOD8075927
Probable space group: P 21/M
;
_chemical_formula_sum "Si O2"
_cell_formula_units_Z 28
_cell_length_a 11.773020
_cell_length_b 13.173522
_cell_length_c 8.981438
_cell_angle_alpha 90.000000
_cell_angle_beta 106.500410
_cell_angle_gamma 90.000000
_cell_volume 1335.585523
_symmetry_space_group_name_H-M "P 21/M"
_symmetry_group_IT_number 11
_symmetry_cell_setting 'monoclinic'
loop_
_space_group_symop_operation_xyz
x,y,z
-x,1/2+y,-z
-x,-y,-z
x,1/2-y,z
loop_
_atom_site_type_symbol
_atom_site_label
_atom_site_fract_x
_atom_site_fract_y
_atom_site_fract_z
Si Si1 0.058035 0.370090 0.450344
Si Si2 0.707909 0.866648 0.288128
Si Si3 0.394309 0.863306 0.466609
Si Si4 0.866271 0.136454 0.607768
Si Si5 0.093643 0.029893 0.158086
Si Si6 0.520588 0.998466 0.737477
Si Si7 0.296423 0.366816 0.048948
O O1 0.043602 0.250000 0.447325
O O2 0.188041 0.401859 0.560638
O O3 0.037697 0.407429 0.274869
O O4 0.954029 0.415331 0.519247
O O5 0.670413 0.750000 0.308388
O O6 0.596589 0.941192 0.259005
O O7 0.755772 0.875263 0.137056
O O8 0.434729 0.750000 0.443705
O O9 0.267765 0.864606 0.503580
O O10 0.389440 0.923761 0.308544
O O11 0.492308 0.910131 0.609891
O O12 0.909540 0.250000 0.660925
O O13 0.862273 0.076799 0.761216
O O14 0.198189 0.097119 0.128892
O O15 0.000000 0.000000 0.000000
O O16 0.588015 0.940492 0.896681
O O17 0.331129 0.250000 0.097296
#
# Coordination Sequence:
#
# PCOD8075927 Si02
#       7
#     4   4   4   4   4   4   4
#     4  10  22  41  66  93 124 168 213 256 309 377
#     4  10  22  40  65  93 127 169 216 262 310 373
#     4  10  21  36  60  92 124 161 206 260 316 373
#     4  10  21  40  61  87 125 164 209 256 310 371
#     4  12  24  39  62  93 124 161 205 261 316 376
#     4  11  21  38  62  90 127 165 213 256 317 373
#     4  11  24  42  62  92 129 168 212 264 318 375
#
# _framework density 20.964587000000002
#
# number of rings (size 3 to 8) (size 9 to 14) (size 15 to 20)
#    0.000    1.429    1.429    3.857    2.000    3.429 
#    0.000    0.000    0.000    0.857    0.000    0.000 
#    0.000    0.000    0.000    0.000    0.000    0.000 
#
# Total GULP energy -347144.934813 kJ/mol
# GULP energy per Si atom -12398.033386 kJ/mol
# Density = 2.091687 g / cm^3
# Si number density = 20.964587 Si / 1000 Ang^3
#
#
#
# Elastic Constant Matrix: (Units=GPa)
#
#
# Indices 1 2 3 4 5 6 
#
# 1 113.0048 47.1559 36.7236 0.0000 -9.0202 0.0000
# 2 47.1559 108.5221 40.0485 0.0000 -0.4897 0.0000
# 3 36.7236 40.0485 110.5157 0.0000 -1.8773 0.0000
# 4 0.0000 0.0000 0.0000 29.9330 0.0000 -5.8944
# 5 -9.0202 -0.4897 -1.8773 0.0000 28.5869 0.0000
# 6 0.0000 0.0000 0.0000 -5.8944 0.0000 36.7828
#
#
#
# Elastic Compliance Matrix: (Units=1/GPa)
#
#
# Indices 1 2 3 4 5 6 
#
# 1 0.011614 -0.004188 -0.002283 0.000000 0.003443 0.000000
# 2 -0.004188 0.012148 -0.003033 0.000000 -0.001313 0.000000
# 3 -0.002283 -0.003033 0.010905 0.000000 -0.000056 0.000000
# 4 0.000000 0.000000 0.000000 0.034497 0.000000 0.005528
# 5 0.003443 -0.001313 -0.000056 0.000000 0.036041 0.000000
# 6 0.000000 0.000000 0.000000 0.005528 0.000000 0.028072
#
#
# Mechanical properties :
#
#
# Convention : Reuss Voigt Hill
#
# Bulk Modulus (GPa) = 63.86205 64.43318 64.14762
# Shear Modulus (GPa) = 31.74512 32.93484 32.33998
#
# Velocity S-wave (km/s) = 3.89553 3.96785 3.93186
# Velocity P-wave (km/s) = 7.12471 7.19672 7.16081
#
# Compressibility (1/GPa) = 0.01565875
#
# Stress axis : x y z
#
# Youngs Moduli (GPa) = 86.10537 82.31832 91.70039
#
# Poissons Ratio (x) = 0.34479 0.20934
# Poissons Ratio (y) = 0.36065 0.27810
# Poissons Ratio (z) = 0.19656 0.24964
#
# Static dielectric constant tensor:
#      x y z
#    x 3.768440 0.000000 -0.051010 
#    y 0.000000 4.041690 0.000000 
#    z -0.051010 0.000000 3.639360 
# 
# 
# High freq. dielectric constant tensor:
#      x y z
#    x 1.822730 0.000000 -0.004070 
#    y 0.000000 1.845470 0.000000 
#    z -0.004070 0.000000 1.805150 
# 
# From -- ./inp_files/17823.got.cif
#   From: 2010.06.25/outbox.cif.g09.slc.cpg/sg11_9_cif.got.tgz:17823.got - 2010.06.27 23:14:04.
