data_PCOD8075361
_publ_section_title
;
Structure prediction by ZEFSAII (Michael W. Deem and Ramdas Pophale) SiO2 
 PCOD8075361
Probable space group: P 21/M
;
_chemical_formula_sum "Si O2"
_cell_formula_units_Z 24
_cell_length_a 29.754863
_cell_length_b 8.320533
_cell_length_c 8.030089
_cell_angle_alpha 90.000000
_cell_angle_beta 144.520148
_cell_angle_gamma 90.000000
_cell_volume 1153.903030
_symmetry_space_group_name_H-M "P 21/M"
_symmetry_group_IT_number 11
_symmetry_cell_setting 'monoclinic'
loop_
_space_group_symop_operation_xyz
x,y,z
-x,1/2+y,-z
-x,-y,-z
x,1/2-y,z
loop_
_atom_site_type_symbol
_atom_site_label
_atom_site_fract_x
_atom_site_fract_y
_atom_site_fract_z
Si Si1 0.857800 0.430932 0.767313
Si Si2 0.312912 0.940871 0.119630
Si Si3 0.154424 0.066830 0.611053
Si Si4 0.687036 0.440353 0.260948
Si Si5 0.586657 0.440157 0.265870
Si Si6 0.989177 0.433692 0.646454
O O1 0.877691 0.250000 0.887540
O O2 0.849114 0.433731 0.543339
O O3 0.774193 0.489552 0.583893
O O4 0.927581 0.551424 0.015583
O O5 0.304502 0.750000 0.097711
O O6 0.376577 0.998495 0.447168
O O7 0.332411 0.001779 0.987638
O O8 0.233423 0.022618 0.946528
O O9 0.158077 0.250000 0.556953
O O10 0.077127 0.047913 0.483414
O O11 0.681614 0.250000 0.239464
O O12 0.629894 0.510966 0.230776
O O13 0.589807 0.250000 0.265996
O O14 0.500000 0.500000 0.000000
O O15 0.961744 0.250000 0.569654
O O16 0.000000 0.500000 0.500000
#
# Coordination Sequence:
#
# PCOD8075361 Si02
#       6
#     4   4   4   4   4   4
#     4  10  20  38  61  84 112 153 198 243 294 349
#     4   9  19  37  60  83 112 153 196 239 293 353
#     4  11  22  38  59  85 115 152 195 243 296 349
#     4   8  17  35  58  83 112 149 192 235 287 348
#     4  10  21  37  58  85 115 150 187 235 295 357
#     4  12  25  39  55  83 119 156 198 245 293 346
#
# _framework density 20.798974999999999
#
# number of rings (size 3 to 8) (size 9 to 14) (size 15 to 20)
#    0.000    2.000    0.000    5.000    2.333    1.333 
#    0.000    4.167    0.000    0.000    0.000    0.000 
#    0.000    0.000    0.000    0.000    0.000    0.000 
#
# Total GULP energy -297385.107965 kJ/mol
# GULP energy per Si atom -12391.046165 kJ/mol
# Density = 2.075164 g / cm^3
# Si number density = 20.798975 Si / 1000 Ang^3
#
#
#
# Elastic Constant Matrix: (Units=GPa)
#
#
# Indices 1 2 3 4 5 6 
#
# 1 138.2678 13.9056 71.1335 0.0000 17.9670 0.0000
# 2 13.9056 50.4489 24.5630 0.0000 -0.1183 0.0000
# 3 71.1335 24.5630 158.7355 0.0000 8.7469 0.0000
# 4 0.0000 0.0000 0.0000 31.5376 0.0000 5.1275
# 5 17.9670 -0.1183 8.7469 0.0000 33.7099 0.0000
# 6 0.0000 0.0000 0.0000 5.1275 0.0000 21.4286
#
#
#
# Elastic Compliance Matrix: (Units=1/GPa)
#
#
# Indices 1 2 3 4 5 6 
#
# 1 0.009981 -0.000754 -0.004122 0.000000 -0.004253 0.000000
# 2 -0.000754 0.021524 -0.003063 0.000000 0.001272 0.000000
# 3 -0.004122 -0.003063 0.008624 0.000000 -0.000051 0.000000
# 4 0.000000 0.000000 0.000000 0.032992 0.000000 -0.007894
# 5 -0.004253 0.001272 -0.000051 0.000000 0.031950 0.000000
# 6 0.000000 0.000000 0.000000 -0.007894 0.000000 0.048555
#
#
# Mechanical properties :
#
#
# Convention : Reuss Voigt Hill
#
# Bulk Modulus (GPa) = 41.23478 62.96182 52.09830
# Shear Modulus (GPa) = 28.15513 33.19192 30.67352
#
# Velocity S-wave (km/s) = 3.68323 3.99914 3.84443
# Velocity P-wave (km/s) = 6.16090 7.18759 6.69396
#
# Compressibility (1/GPa) = 0.02425137
#
# Stress axis : x y z
#
# Youngs Moduli (GPa) = 100.18634 46.45939 115.96007
#
# Poissons Ratio (x) = 0.03505 0.47797
# Poissons Ratio (y) = 0.07558 0.35516
# Poissons Ratio (z) = 0.41295 0.14229
#
# Static dielectric constant tensor:
#      x y z
#    x 3.774710 0.000000 -0.384380 
#    y 0.000000 3.583980 0.000000 
#    z -0.384380 0.000000 3.211980 
# 
# 
# High freq. dielectric constant tensor:
#      x y z
#    x 1.813930 0.000000 0.002310 
#    y 0.000000 1.792120 0.000000 
#    z 0.002310 0.000000 1.818030 
# 
# From -- ./inp_files/29143.got.cif
#   From: 2010.06.25/outbox.cif.g09.slc.cpg/sg11_15_cif.got.tgz:29143.got - 2010.06.27 23:14:04.
