data_PCOD8075697
_publ_section_title
;
Structure prediction by ZEFSAII (Michael W. Deem and Ramdas Pophale) SiO2 
 PCOD8075697
Probable space group: P 21/M
;
_chemical_formula_sum "Si O2"
_cell_formula_units_Z 32
_cell_length_a 24.658756
_cell_length_b 8.906269
_cell_length_c 24.642974
_cell_angle_alpha 90.000000
_cell_angle_beta 17.605022
_cell_angle_gamma 90.000000
_cell_volume 1636.886680
_symmetry_space_group_name_H-M "P 21/M"
_symmetry_group_IT_number 11
_symmetry_cell_setting 'monoclinic'
loop_
_space_group_symop_operation_xyz
x,y,z
-x,1/2+y,-z
-x,-y,-z
x,1/2-y,z
loop_
_atom_site_type_symbol
_atom_site_label
_atom_site_fract_x
_atom_site_fract_y
_atom_site_fract_z
Si Si1 0.128854 0.072253 0.125442
Si Si2 0.069999 0.084697 0.485413
Si Si3 0.533057 0.927243 0.131371
Si Si4 0.484662 0.415334 0.070759
Si Si5 0.322841 0.925140 0.735639
Si Si6 0.268360 0.425511 0.674543
Si Si7 0.061629 0.429241 0.068393
Si Si8 0.870660 0.427173 0.464961
O O1 0.129399 0.250000 0.123806
O O2 0.098324 0.011539 0.094131
O O3 0.967547 0.015227 0.317932
O O4 0.320587 0.014470 0.964924
O O5 0.981679 0.250000 0.571505
O O6 0.280742 0.097995 0.281595
O O7 0.022752 0.996658 0.585562
O O8 0.000000 0.000000 0.500000
O O9 0.542154 0.750000 0.115155
O O10 0.337183 0.978067 0.339409
O O11 0.584075 0.996457 0.024210
O O12 0.570776 0.250000 0.982456
O O13 0.500000 0.500000 0.000000
O O14 0.273160 0.750000 0.785953
O O15 0.535508 0.951976 0.538035
O O16 0.248587 0.989804 0.750263
O O17 0.227986 0.014574 0.874179
O O18 0.229933 0.250000 0.720511
O O19 0.124884 0.496356 0.770987
O O20 0.046445 0.250000 0.078957
O O21 0.886533 0.250000 0.456416
#
# Coordination Sequence:
#
# PCOD8075697 Si02
#       8
#     4   4   4   4   4   4   4   4
#     4   9  20  36  56  81 107 144 190 228 274 332
#     4  10  21  35  52  77 106 135 169 214 269 329
#     4   9  18  35  56  76 103 138 177 224 272 321
#     4  10  21  35  52  77 106 135 169 214 269 329
#     4  10  21  38  60  86 118 156 196 240 290 341
#     4  10  21  38  60  86 118 156 196 240 290 341
#     4  11  22  36  57  87 120 154 194 240 286 342
#     4   9  18  35  56  76 103 138 177 224 272 321
#
# _framework density 19.549306999999999
#
# number of rings (size 3 to 8) (size 9 to 14) (size 15 to 20)
#    0.000    2.250    0.000    2.250    1.750    4.000 
#    0.000    5.000    0.000    3.000    0.000    0.000 
#    0.000    0.000    0.000    0.000    0.000    0.000 
#
# Total GULP energy -396790.445518 kJ/mol
# GULP energy per Si atom -12399.701422 kJ/mol
# Density = 1.950481 g / cm^3
# Si number density = 19.549307 Si / 1000 Ang^3
#
#
#
# Elastic Constant Matrix: (Units=GPa)
#
#
# Indices 1 2 3 4 5 6 
#
# 1 164.3403 32.5609 66.8762 0.0000 -4.9664 0.0000
# 2 32.5609 63.6673 27.1699 0.0000 -8.3787 0.0000
# 3 66.8762 27.1699 95.0981 0.0000 -0.8657 0.0000
# 4 0.0000 0.0000 0.0000 23.1472 0.0000 1.1405
# 5 -4.9664 -8.3787 -0.8657 0.0000 26.0889 0.0000
# 6 0.0000 0.0000 0.0000 1.1405 0.0000 30.2428
#
#
#
# Elastic Compliance Matrix: (Units=1/GPa)
#
#
# Indices 1 2 3 4 5 6 
#
# 1 0.008784 -0.001991 -0.005601 0.000000 0.000847 0.000000
# 2 -0.001991 0.019188 -0.004031 0.000000 0.005650 0.000000
# 3 -0.005601 -0.004031 0.015589 0.000000 -0.001843 0.000000
# 4 0.000000 0.000000 0.000000 0.043282 0.000000 -0.001632
# 5 0.000847 0.005650 -0.001843 0.000000 0.040245 0.000000
# 6 0.000000 0.000000 0.000000 -0.001632 0.000000 0.033127
#
#
# Mechanical properties :
#
#
# Convention : Reuss Voigt Hill
#
# Bulk Modulus (GPa) = 49.22047 64.03554 56.62801
# Shear Modulus (GPa) = 26.28352 28.99568 27.63960
#
# Velocity S-wave (km/s) = 3.67068 3.85542 3.76419
# Velocity P-wave (km/s) = 6.57248 7.25576 6.92256
#
# Compressibility (1/GPa) = 0.02031675
#
# Stress axis : x y z
#
# Youngs Moduli (GPa) = 113.84123 52.11466 64.14790
#
# Poissons Ratio (x) = 0.10375 0.35928
# Poissons Ratio (y) = 0.22664 0.25857
# Poissons Ratio (z) = 0.63761 0.21006
#
# Static dielectric constant tensor:
#      x y z
#    x 3.267540 0.000000 0.082640 
#    y 0.000000 13.381300 0.000000 
#    z 0.082640 0.000000 2.892830 
# 
# 
# High freq. dielectric constant tensor:
#      x y z
#    x 1.760910 0.000000 -0.001930 
#    y 0.000000 1.756340 0.000000 
#    z -0.001930 0.000000 1.768360 
# 
# From -- ./inp_files/69970.got.cif
#   From: 2010.06.25/outbox.cif.g09.slc.cpg/sg11_35_cif.got.tgz:69970.got - 2010.06.27 23:14:04.
