data_PCOD8075808
_publ_section_title
;
Structure prediction by ZEFSAII (Michael W. Deem and Ramdas Pophale) SiO2 
 PCOD8075808
Probable space group: P 21/M
;
_chemical_formula_sum "Si O2"
_cell_formula_units_Z 32
_cell_length_a 14.043901
_cell_length_b 23.421426
_cell_length_c 9.772105
_cell_angle_alpha 90.000000
_cell_angle_beta 29.969682
_cell_angle_gamma 90.000000
_cell_volume 1605.687187
_symmetry_space_group_name_H-M "P 21/M"
_symmetry_group_IT_number 11
_symmetry_cell_setting 'monoclinic'
loop_
_space_group_symop_operation_xyz
x,y,z
-x,1/2+y,-z
-x,-y,-z
x,1/2-y,z
loop_
_atom_site_type_symbol
_atom_site_label
_atom_site_fract_x
_atom_site_fract_y
_atom_site_fract_z
Si Si1 0.409682 0.448857 0.894071
Si Si2 0.796862 0.390130 0.360580
Si Si3 0.416018 0.063358 0.412768
Si Si4 0.242497 0.685373 0.345784
Si Si5 0.006915 0.314196 0.600145
Si Si6 0.374185 0.377851 0.193415
Si Si7 0.202644 0.599951 0.942116
Si Si8 0.864890 0.530050 0.997997
O O1 0.577676 0.407558 0.638542
O O2 0.475478 0.514245 0.807061
O O3 0.236098 0.439521 0.004695
O O4 0.345977 0.432033 0.126882
O O5 0.832591 0.336178 0.413833
O O6 0.839755 0.371637 0.152115
O O7 0.927027 0.443360 0.244580
O O8 0.324836 0.104307 0.411032
O O9 0.256147 0.038116 0.711938
O O10 0.570855 0.096510 0.312091
O O11 0.316213 0.750000 0.268565
O O12 0.063333 0.681234 0.467959
O O13 0.411760 0.645785 0.078675
O O14 0.973447 0.250000 0.697941
O O15 0.891010 0.359960 0.830299
O O16 0.230677 0.328046 0.326582
O O17 0.109100 0.537036 0.062388
#
# Coordination Sequence:
#
# PCOD8075808 Si02
#       8
#     4   4   4   4   4   4   4   4
#     4  10  21  36  54  88 124 152 191 234 280 357
#     4  11  21  36  62  87 116 158 194 233 297 343
#     4  11  20  38  58  89 126 159 183 236 293 354
#     4  10  23  43  61  82 116 152 199 250 291 339
#     4  11  24  42  62  83 111 153 201 250 292 342
#     4  11  22  38  62  87 115 154 201 235 297 343
#     4  11  21  39  59  89 120 156 193 239 292 354
#     4  11  21  37  59  87 127 158 188 233 297 356
#
# _framework density 19.929161000000001
#
# number of rings (size 3 to 8) (size 9 to 14) (size 15 to 20)
#    0.000    1.250    3.750    3.375    1.750    0.500 
#    0.000    1.875    0.000    0.750    0.000    0.000 
#    0.000    0.000    0.000    0.000    0.000    0.000 
#
# Total GULP energy -396885.572937 kJ/mol
# GULP energy per Si atom -12402.674154 kJ/mol
# Density = 1.988380 g / cm^3
# Si number density = 19.929161 Si / 1000 Ang^3
#
#
#
# Elastic Constant Matrix: (Units=GPa)
#
#
# Indices 1 2 3 4 5 6 
#
# 1 110.4159 47.9503 11.2544 0.0000 17.7564 0.0000
# 2 47.9503 95.7175 28.5103 0.0000 15.0996 0.0000
# 3 11.2544 28.5103 33.9831 0.0000 10.3494 0.0000
# 4 0.0000 0.0000 0.0000 25.3028 0.0000 -1.1132
# 5 17.7564 15.0996 10.3494 0.0000 30.8916 0.0000
# 6 0.0000 0.0000 0.0000 -1.1132 0.0000 27.9475
#
#
#
# Elastic Compliance Matrix: (Units=1/GPa)
#
#
# Indices 1 2 3 4 5 6 
#
# 1 0.012244 -0.006128 0.002581 0.000000 -0.004907 0.000000
# 2 -0.006128 0.017289 -0.012221 0.000000 -0.000834 0.000000
# 3 0.002581 -0.012221 0.041713 0.000000 -0.009485 0.000000
# 4 0.000000 0.000000 0.000000 0.039591 0.000000 0.001577
# 5 -0.004907 -0.000834 -0.009485 0.000000 0.038777 0.000000
# 6 0.000000 0.000000 0.000000 0.001577 0.000000 0.035844
#
#
# Mechanical properties :
#
#
# Convention : Reuss Voigt Hill
#
# Bulk Modulus (GPa) = 25.18325 46.17183 35.67754
# Shear Modulus (GPa) = 21.71716 26.98848 24.35282
#
# Velocity S-wave (km/s) = 3.30467 3.68397 3.49946
# Velocity P-wave (km/s) = 5.21775 6.42758 5.85400
#
# Compressibility (1/GPa) = 0.03970893
#
# Stress axis : x y z
#
# Youngs Moduli (GPa) = 81.67201 57.83936 23.97312
#
# Poissons Ratio (x) = 0.35446 -0.06187
# Poissons Ratio (y) = 0.50052 0.29299
# Poissons Ratio (z) = -0.21079 0.70688
#
# Static dielectric constant tensor:
#      x y z
#    x 4.020740 0.000000 0.022750 
#    y 0.000000 3.486920 0.000000 
#    z 0.022750 0.000000 3.439770 
# 
# 
# High freq. dielectric constant tensor:
#      x y z
#    x 1.804570 0.000000 -0.001260 
#    y 0.000000 1.757000 0.000000 
#    z -0.001260 0.000000 1.764350 
# 
# From -- ./inp_files/23302.got.cif
#   From: 2010.06.25/outbox.cif.g09.slc.cpg/sg11_12_cif.got.tgz:23302.got - 2010.06.27 23:14:04.
