data_PCOD8075070
_publ_section_title
;
Structure prediction by ZEFSAII (Michael W. Deem and Ramdas Pophale) SiO2 
 PCOD8075070
Probable space group: P 21/M
;
_chemical_formula_sum "Si O2"
_cell_formula_units_Z 28
_cell_length_a 9.404805
_cell_length_b 8.637261
_cell_length_c 29.531455
_cell_angle_alpha 90.000000
_cell_angle_beta 142.963155
_cell_angle_gamma 90.000000
_cell_volume 1444.920917
_symmetry_space_group_name_H-M "P 21/M"
_symmetry_group_IT_number 11
_symmetry_cell_setting 'monoclinic'
loop_
_space_group_symop_operation_xyz
x,y,z
-x,1/2+y,-z
-x,-y,-z
x,1/2-y,z
loop_
_atom_site_type_symbol
_atom_site_label
_atom_site_fract_x
_atom_site_fract_y
_atom_site_fract_z
Si Si1 0.384005 0.067538 0.793112
Si Si2 0.850218 0.432544 0.502125
Si Si3 0.924454 0.068926 0.933500
Si Si4 0.998107 0.432536 0.366469
Si Si5 0.675526 0.567269 0.630711
Si Si6 0.760991 0.565828 0.069923
Si Si7 0.903287 0.434062 0.200273
O O1 0.336522 0.250000 0.778033
O O2 0.655729 0.024059 0.854690
O O3 0.248964 0.979201 0.718785
O O4 0.304203 0.006382 0.821982
O O5 0.840785 0.250000 0.495192
O O6 0.585788 0.504807 0.431736
O O7 0.000000 0.500000 0.500000
O O8 0.975429 0.477740 0.580273
O O9 0.956034 0.250000 0.945537
O O10 0.090363 0.005679 0.935401
O O11 0.000000 0.000000 0.000000
O O12 0.001743 0.250000 0.376189
O O13 0.208999 0.487915 0.387079
O O14 0.658252 0.750000 0.625880
O O15 0.842151 0.515158 0.714719
O O16 0.752092 0.750000 0.070229
O O17 0.890655 0.500435 0.146947
O O18 0.500000 0.500000 0.000000
O O19 0.871312 0.250000 0.192195
#
# Coordination Sequence:
#
# PCOD8075070 Si02
#       7
#     4   4   4   4   4   4   4
#     4  10  20  37  59  85 113 145 181 224 274 328
#     4  11  22  37  55  80 113 149 185 228 276 327
#     4  10  23  39  57  81 112 145 183 225 272 326
#     4  10  20  37  59  84 110 143 185 230 275 327
#     4   8  18  36  58  81 109 143 183 225 272 326
#     4  11  23  39  57  82 112 146 184 227 273 324
#     4  10  20  37  59  85 112 143 182 227 273 326
#
# _framework density 19.378223999999999
#
# number of rings (size 3 to 8) (size 9 to 14) (size 15 to 20)
#    0.000    2.000    0.000    4.286    0.000    5.714 
#    0.000   10.714    0.000    0.000    0.000    0.000 
#    0.000    0.000    0.000    0.000    0.000    0.000 
#
# Total GULP energy -347255.290873 kJ/mol
# GULP energy per Si atom -12401.974674 kJ/mol
# Density = 1.933412 g / cm^3
# Si number density = 19.378224 Si / 1000 Ang^3
#
#
#
# Elastic Constant Matrix: (Units=GPa)
#
#
# Indices 1 2 3 4 5 6 
#
# 1 167.8150 34.9433 96.4871 0.0000 0.1958 0.0000
# 2 34.9433 51.6137 28.9888 0.0000 5.9321 0.0000
# 3 96.4871 28.9888 123.1999 0.0000 -6.4874 0.0000
# 4 0.0000 0.0000 0.0000 33.8950 0.0000 -4.8760
# 5 0.1958 5.9321 -6.4874 0.0000 37.8207 0.0000
# 6 0.0000 0.0000 0.0000 -4.8760 0.0000 31.6656
#
#
#
# Elastic Compliance Matrix: (Units=1/GPa)
#
#
# Indices 1 2 3 4 5 6 
#
# 1 0.011285 -0.002916 -0.008205 0.000000 -0.001009 0.000000
# 2 -0.002916 0.023844 -0.003555 0.000000 -0.004335 0.000000
# 3 -0.008205 -0.003555 0.015551 0.000000 0.003268 0.000000
# 4 0.000000 0.000000 0.000000 0.030171 0.000000 0.004646
# 5 -0.001009 -0.004335 0.003268 0.000000 0.027686 0.000000
# 6 0.000000 0.000000 0.000000 0.004646 0.000000 0.032295
#
#
# Mechanical properties :
#
#
# Convention : Reuss Voigt Hill
#
# Bulk Modulus (GPa) = 46.88638 73.71853 60.30245
# Shear Modulus (GPa) = 28.20180 32.82356 30.51268
#
# Velocity S-wave (km/s) = 3.81902 4.12009 3.97241
# Velocity P-wave (km/s) = 6.61018 7.79475 7.22678
#
# Compressibility (1/GPa) = 0.02132816
#
# Stress axis : x y z
#
# Youngs Moduli (GPa) = 88.61460 41.93998 64.30276
#
# Poissons Ratio (x) = 0.12229 0.52761
# Poissons Ratio (y) = 0.25838 0.22860
# Poissons Ratio (z) = 0.72708 0.14910
#
# Static dielectric constant tensor:
#      x y z
#    x 3.740070 0.000000 0.097480 
#    y 0.000000 3.499740 0.000000 
#    z 0.097480 0.000000 3.720740 
# 
# 
# High freq. dielectric constant tensor:
#      x y z
#    x 1.757620 0.000000 0.000630 
#    y 0.000000 1.751430 0.000000 
#    z 0.000630 0.000000 1.768810 
# 
# From -- ./inp_files/70911.got.cif
#   From: 2010.06.25/outbox.cif.g09.slc.cpg/sg11_36_cif.got.tgz:70911.got - 2010.06.27 23:14:04.
