data_PCOD8075079
_publ_section_title
;
Structure prediction by ZEFSAII (Michael W. Deem and Ramdas Pophale) SiO2 
 PCOD8075079
Probable space group: P 21/M
;
_chemical_formula_sum "Si O2"
_cell_formula_units_Z 32
_cell_length_a 14.823296
_cell_length_b 8.675786
_cell_length_c 22.602204
_cell_angle_alpha 90.000000
_cell_angle_beta 30.727280
_cell_angle_gamma 90.000000
_cell_volume 1485.199263
_symmetry_space_group_name_H-M "P 21/M"
_symmetry_group_IT_number 11
_symmetry_cell_setting 'monoclinic'
loop_
_space_group_symop_operation_xyz
x,y,z
-x,1/2+y,-z
-x,-y,-z
x,1/2-y,z
loop_
_atom_site_type_symbol
_atom_site_label
_atom_site_fract_x
_atom_site_fract_y
_atom_site_fract_z
Si Si1 0.028608 0.427070 0.661128
Si Si2 0.542043 0.573237 0.844883
Si Si3 0.601146 0.569845 0.498808
Si Si4 0.995134 0.929539 0.883569
Si Si5 0.714639 0.426662 0.119145
Si Si6 0.074329 0.431646 0.397325
Si Si7 0.341635 0.070809 0.726788
Si Si8 0.219883 0.930958 0.097294
O O1 0.037977 0.250000 0.635902
O O2 0.188146 0.463451 0.617151
O O3 0.046382 0.527428 0.591365
O O4 0.841461 0.460700 0.800507
O O5 0.584030 0.750000 0.832900
O O6 0.430827 0.546041 0.848637
O O7 0.732608 0.493617 0.727566
O O8 0.422021 0.513497 0.968553
O O9 0.500000 0.500000 0.500000
O O10 0.561900 0.750000 0.521560
O O11 0.529716 0.489000 0.598275
O O12 0.971048 0.750000 0.909962
O O13 0.913951 0.971057 0.866467
O O14 0.198956 0.976237 0.769092
O O15 0.905067 0.026463 0.986983
O O16 0.721002 0.250000 0.137235
O O17 0.666496 0.538446 0.199411
O O18 0.082661 0.250000 0.401861
O O19 0.000000 0.500000 0.500000
O O20 0.316698 0.250000 0.727824
O O21 0.201825 0.750000 0.090331
#
# Coordination Sequence:
#
# PCOD8075079 Si02
#       8
#     4   4   4   4   4   4   4   4
#     4  10  23  42  65  93 125 163 206 256 317 381
#     4   8  18  37  62  89 120 158 200 250 311 368
#     4  11  24  42  63  90 124 162 206 257 316 376
#     4  11  21  35  56  87 123 160 202 253 312 370
#     4  10  20  37  59  84 117 159 203 254 314 373
#     4  11  24  42  64  92 126 167 211 260 313 371
#     4  12  24  37  55  82 117 159 209 258 307 371
#     4   9  18  38  65  90 120 160 203 252 313 376
#
# _framework density 21.545929000000001
#
# number of rings (size 3 to 8) (size 9 to 14) (size 15 to 20)
#    0.000    1.750    0.000    5.250    1.750    3.000 
#    0.000    5.625    0.000    0.000    0.000    0.000 
#    0.000    0.000    0.000    0.000    0.000    0.000 
#
# Total GULP energy -396703.491039 kJ/mol
# GULP energy per Si atom -12396.984095 kJ/mol
# Density = 2.149689 g / cm^3
# Si number density = 21.545929 Si / 1000 Ang^3
#
#
#
# Elastic Constant Matrix: (Units=GPa)
#
#
# Indices 1 2 3 4 5 6 
#
# 1 78.3698 36.8212 51.5665 0.0000 13.0201 0.0000
# 2 36.8212 79.5939 33.2276 0.0000 1.4556 0.0000
# 3 51.5665 33.2276 136.2972 0.0000 9.9167 0.0000
# 4 0.0000 0.0000 0.0000 29.7312 0.0000 5.1723
# 5 13.0201 1.4556 9.9167 0.0000 30.7333 0.0000
# 6 0.0000 0.0000 0.0000 5.1723 0.0000 32.7867
#
#
#
# Elastic Compliance Matrix: (Units=1/GPa)
#
#
# Indices 1 2 3 4 5 6 
#
# 1 0.021023 -0.007221 -0.005704 0.000000 -0.006724 0.000000
# 2 -0.007221 0.016474 -0.001485 0.000000 0.002758 0.000000
# 3 -0.005704 -0.001485 0.009909 0.000000 -0.000710 0.000000
# 4 0.000000 0.000000 0.000000 0.034584 0.000000 -0.005456
# 5 -0.006724 0.002758 -0.000710 0.000000 0.035485 0.000000
# 6 0.000000 0.000000 0.000000 -0.005456 0.000000 0.031361
#
#
# Mechanical properties :
#
#
# Convention : Reuss Voigt Hill
#
# Bulk Modulus (GPa) = 53.80611 59.72129 56.76370
# Shear Modulus (GPa) = 27.19591 30.15995 28.67793
#
# Velocity S-wave (km/s) = 3.55664 3.74545 3.65226
# Velocity P-wave (km/s) = 6.47250 6.81783 6.64741
#
# Compressibility (1/GPa) = 0.01858525
#
# Stress axis : x y z
#
# Youngs Moduli (GPa) = 47.56628 60.70230 100.92180
#
# Poissons Ratio (x) = 0.43835 0.57568
# Poissons Ratio (y) = 0.34349 0.14984
# Poissons Ratio (z) = 0.27133 0.09012
#
# Static dielectric constant tensor:
#      x y z
#    x 3.633080 0.000000 -0.005890 
#    y 0.000000 3.701490 0.000000 
#    z -0.005890 0.000000 4.251710 
# 
# 
# High freq. dielectric constant tensor:
#      x y z
#    x 1.837210 0.000000 0.004580 
#    y 0.000000 1.832320 0.000000 
#    z 0.004580 0.000000 1.861980 
# 
# From -- ./inp_files/68999.got.cif
#   From: 2010.06.25/outbox.cif.g09.slc.cpg/sg11_35_cif.got.tgz:68999.got - 2010.06.27 23:14:04.
