data_PCOD8075863
_publ_section_title
;
Structure prediction by ZEFSAII (Michael W. Deem and Ramdas Pophale) SiO2 
 PCOD8075863
Probable space group: P 21/M
;
_chemical_formula_sum "Si O2"
_cell_formula_units_Z 28
_cell_length_a 31.272962
_cell_length_b 8.354846
_cell_length_c 31.272952
_cell_angle_alpha 90.000000
_cell_angle_beta 9.525219
_cell_angle_gamma 90.000000
_cell_volume 1352.154567
_symmetry_space_group_name_H-M "P 21/M"
_symmetry_group_IT_number 11
_symmetry_cell_setting 'monoclinic'
loop_
_space_group_symop_operation_xyz
x,y,z
-x,1/2+y,-z
-x,-y,-z
x,1/2-y,z
loop_
_atom_site_type_symbol
_atom_site_label
_atom_site_fract_x
_atom_site_fract_y
_atom_site_fract_z
Si Si1 0.904941 0.063667 0.905015
Si Si2 0.761741 0.937726 0.761742
Si Si3 0.047741 0.437497 0.047715
Si Si4 0.381764 0.936819 0.381855
Si Si5 0.524081 0.059635 0.524051
Si Si6 0.189068 0.059310 0.189128
Si Si7 0.334842 0.062310 0.334802
O O1 0.909959 0.250000 0.910081
O O2 0.642405 0.018364 0.140514
O O3 0.927199 0.970518 0.927183
O O4 0.140420 0.018391 0.642492
O O5 0.760686 0.750000 0.760668
O O6 0.786238 0.995350 0.786261
O O7 0.000000 0.000000 0.500000
O O8 0.500000 0.000000 0.000000
O O9 0.044012 0.250000 0.044038
O O10 0.784493 0.511692 0.288274
O O11 0.288325 0.511690 0.784448
O O12 0.387392 0.750000 0.387550
O O13 0.356426 0.960313 0.356488
O O14 0.524532 0.250000 0.524569
O O15 0.500000 0.000000 0.500000
O O16 0.186155 0.250000 0.186333
O O17 0.928201 0.983584 0.428926
O O18 0.428860 0.983631 0.928256
O O19 0.340299 0.250000 0.340170
#
# Coordination Sequence:
#
# PCOD8075863 Si02
#       7
#     4   4   4   4   4   4   4
#     4  12  25  42  65  96 127 159 206 263 308 357
#     4  11  24  41  64  92 126 164 208 257 308 367
#     4  10  21  38  58  84 117 158 200 243 300 367
#     4  12  25  44  67  91 125 169 206 247 308 377
#     4  10  21  36  57  83 115 153 199 248 297 356
#     4  11  24  43  64  91 126 167 208 251 308 375
#     4  12  25  42  65  95 126 160 206 261 308 359
#
# _framework density 20.707692000000002
#
# number of rings (size 3 to 8) (size 9 to 14) (size 15 to 20)
#    0.000    0.857    0.000    7.714    0.000    8.000 
#    0.000    0.000    0.000    0.000    0.000    0.000 
#    0.000    0.000    0.000    0.000    0.000    0.000 
#
# Total GULP energy -347369.709422 kJ/mol
# GULP energy per Si atom -12406.061051 kJ/mol
# Density = 2.066056 g / cm^3
# Si number density = 20.707692 Si / 1000 Ang^3
#
#
#
# Elastic Constant Matrix: (Units=GPa)
#
#
# Indices 1 2 3 4 5 6 
#
# 1 155.7167 -5.7161 80.3943 0.0000 -7.1048 0.0000
# 2 -5.7161 35.4140 14.7148 0.0000 -1.8402 0.0000
# 3 80.3943 14.7148 210.8526 0.0000 2.2101 0.0000
# 4 0.0000 0.0000 0.0000 33.3484 0.0000 0.4331
# 5 -7.1048 -1.8402 2.2101 0.0000 77.1053 0.0000
# 6 0.0000 0.0000 0.0000 0.4331 0.0000 38.2748
#
#
#
# Elastic Compliance Matrix: (Units=1/GPa)
#
#
# Indices 1 2 3 4 5 6 
#
# 1 0.008308 0.002790 -0.003372 0.000000 0.000929 0.000000
# 2 0.002790 0.030062 -0.003173 0.000000 0.001066 0.000000
# 3 -0.003372 -0.003173 0.006256 0.000000 -0.000566 0.000000
# 4 0.000000 0.000000 0.000000 0.029991 0.000000 -0.000339
# 5 0.000929 0.001066 -0.000566 0.000000 0.013097 0.000000
# 6 0.000000 0.000000 0.000000 -0.000339 0.000000 0.026131
#
#
# Mechanical properties :
#
#
# Convention : Reuss Voigt Hill
#
# Bulk Modulus (GPa) = 26.94291 64.52991 45.73641
# Shear Modulus (GPa) = 37.39039 50.58505 43.98772
#
# Velocity S-wave (km/s) = 4.25388 4.94785 4.61393
# Velocity P-wave (km/s) = 6.09644 7.99197 7.10768
#
# Compressibility (1/GPa) = 0.03711552
#
# Stress axis : x y z
#
# Youngs Moduli (GPa) = 120.37098 33.26508 159.85411
#
# Poissons Ratio (x) = -0.09282 0.53903
# Poissons Ratio (y) = -0.33587 0.50721
# Poissons Ratio (z) = 0.40589 0.10555
#
# Static dielectric constant tensor:
#      x y z
#    x 4.299120 0.000000 0.010230 
#    y 0.000000 3.799350 0.000000 
#    z 0.010230 0.000000 4.181080 
# 
# 
# High freq. dielectric constant tensor:
#      x y z
#    x 1.830050 0.000000 -0.000600 
#    y 0.000000 1.813970 0.000000 
#    z -0.000600 0.000000 1.836820 
# 
# From -- ./inp_files/73841.got.cif
#   From: 2010.06.25/outbox.cif.g09.slc.cpg/sg11_37_cif.got.tgz:73841.got - 2010.06.27 23:14:04.
