data_PCOD8075071
_publ_section_title
;
Structure prediction by ZEFSAII (Michael W. Deem and Ramdas Pophale) SiO2 
 PCOD8075071
Probable space group: P 21/M
;
_chemical_formula_sum "Si O2"
_cell_formula_units_Z 28
_cell_length_a 18.371893
_cell_length_b 9.017287
_cell_length_c 14.708731
_cell_angle_alpha 90.000000
_cell_angle_beta 34.164810
_cell_angle_gamma 90.000000
_cell_volume 1368.399790
_symmetry_space_group_name_H-M "P 21/M"
_symmetry_group_IT_number 11
_symmetry_cell_setting 'monoclinic'
loop_
_space_group_symop_operation_xyz
x,y,z
-x,1/2+y,-z
-x,-y,-z
x,1/2-y,z
loop_
_atom_site_type_symbol
_atom_site_label
_atom_site_fract_x
_atom_site_fract_y
_atom_site_fract_z
Si Si1 0.558943 0.574791 0.527561
Si Si2 0.261868 0.425885 0.349604
Si Si3 0.262644 0.921397 0.158625
Si Si4 0.807512 0.418553 0.228632
Si Si5 0.017602 0.578460 0.294748
Si Si6 0.508212 0.425391 0.206082
Si Si7 0.922584 0.581216 0.949075
O O1 0.500000 0.500000 0.500000
O O2 0.556746 0.750000 0.517487
O O3 0.705551 0.518848 0.388043
O O4 0.483618 0.523952 0.696913
O O5 0.261279 0.250000 0.344297
O O6 0.286094 0.486413 0.224497
O O7 0.376978 0.487519 0.294706
O O8 0.123621 0.482046 0.530807
O O9 0.291221 0.750000 0.150205
O O10 0.115551 0.943535 0.277337
O O11 0.363805 0.982001 0.978296
O O12 0.757902 0.250000 0.270021
O O13 0.936686 0.429043 0.152706
O O14 0.824032 0.483245 0.110125
O O15 0.011362 0.750000 0.270707
O O16 0.073710 0.482050 0.155342
O O17 0.500491 0.250000 0.210625
O O18 0.872631 0.750000 0.998660
#
# Coordination Sequence:
#
# PCOD8075071 Si02
#       7
#     4   4   4   4   4   4   4
#     4  11  23  39  60  86 118 156 199 246 294 352
#     4  10  20  37  59  84 112 150 194 239 288 347
#     4  10  21  37  57  84 114 151 191 235 294 352
#     4  10  21  38  58  82 116 154 193 241 297 352
#     4  10  21  35  56  83 116 153 190 232 295 355
#     4   9  20  38  59  81 113 153 192 234 293 352
#     4  10  21  36  58  87 115 149 196 245 291 347
#
# _framework density 20.461856999999998
#
# number of rings (size 3 to 8) (size 9 to 14) (size 15 to 20)
#    0.000    2.000    0.000    3.000    2.000    4.000 
#    0.000    2.857    0.000    0.000    0.000    0.000 
#    0.000    0.000    0.000    0.000    0.000    0.000 
#
# Total GULP energy -347258.755447 kJ/mol
# GULP energy per Si atom -12402.098409 kJ/mol
# Density = 2.041528 g / cm^3
# Si number density = 20.461857 Si / 1000 Ang^3
#
#
#
# Elastic Constant Matrix: (Units=GPa)
#
#
# Indices 1 2 3 4 5 6 
#
# 1 86.4300 24.6186 28.4367 0.0000 12.6428 0.0000
# 2 24.6186 60.3729 13.5726 0.0000 8.5740 0.0000
# 3 28.4367 13.5726 91.7207 0.0000 5.5620 0.0000
# 4 0.0000 0.0000 0.0000 31.3679 0.0000 7.2951
# 5 12.6428 8.5740 5.5620 0.0000 39.7916 0.0000
# 6 0.0000 0.0000 0.0000 7.2951 0.0000 29.5366
#
#
#
# Elastic Compliance Matrix: (Units=1/GPa)
#
#
# Indices 1 2 3 4 5 6 
#
# 1 0.014551 -0.004676 -0.003631 0.000000 -0.003108 0.000000
# 2 -0.004676 0.019095 -0.001227 0.000000 -0.002457 0.000000
# 3 -0.003631 -0.001227 0.012228 0.000000 -0.000291 0.000000
# 4 0.000000 0.000000 0.000000 0.033823 0.000000 -0.008354
# 5 -0.003108 -0.002457 -0.000291 0.000000 0.026689 0.000000
# 6 0.000000 0.000000 0.000000 -0.008354 0.000000 0.035920
#
#
# Mechanical properties :
#
#
# Convention : Reuss Voigt Hill
#
# Bulk Modulus (GPa) = 37.30450 41.30881 39.30665
# Shear Modulus (GPa) = 29.35853 31.59892 30.47872
#
# Velocity S-wave (km/s) = 3.79198 3.93400 3.86364
# Velocity P-wave (km/s) = 6.11906 6.39274 6.25740
#
# Compressibility (1/GPa) = 0.02680642
#
# Stress axis : x y z
#
# Youngs Moduli (GPa) = 68.72257 52.36893 81.78216
#
# Poissons Ratio (x) = 0.24487 0.29695
# Poissons Ratio (y) = 0.32134 0.10034
# Poissons Ratio (z) = 0.24953 0.06425
#
# Static dielectric constant tensor:
#      x y z
#    x 3.698620 0.000000 -0.099740 
#    y 0.000000 3.604690 0.000000 
#    z -0.099740 0.000000 4.074610 
# 
# 
# High freq. dielectric constant tensor:
#      x y z
#    x 1.804110 0.000000 0.000250 
#    y 0.000000 1.781960 0.000000 
#    z 0.000250 0.000000 1.812160 
# 
# From -- ./inp_files/54484.got.cif
#   From: 2010.06.25/outbox.cif.g09.slc.cpg/sg11_28_cif.got.tgz:54484.got - 2010.06.27 23:14:04.
