data_PCOD8075769
_publ_section_title
;
Structure prediction by ZEFSAII (Michael W. Deem and Ramdas Pophale) SiO2 
 PCOD8075769
Probable space group: P 21/M
;
_chemical_formula_sum "Si O2"
_cell_formula_units_Z 24
_cell_length_a 24.227504
_cell_length_b 9.386478
_cell_length_c 18.013685
_cell_angle_alpha 90.000000
_cell_angle_beta 19.272741
_cell_angle_gamma 90.000000
_cell_volume 1352.115581
_symmetry_space_group_name_H-M "P 21/M"
_symmetry_group_IT_number 11
_symmetry_cell_setting 'monoclinic'
loop_
_space_group_symop_operation_xyz
x,y,z
-x,1/2+y,-z
-x,-y,-z
x,1/2-y,z
loop_
_atom_site_type_symbol
_atom_site_label
_atom_site_fract_x
_atom_site_fract_y
_atom_site_fract_z
Si Si1 0.591866 0.406574 0.985484
Si Si2 0.746366 0.593387 0.676634
Si Si3 0.061445 0.084524 0.709710
Si Si4 0.605191 0.584508 0.623310
Si Si5 0.752634 0.914831 0.162277
Si Si6 0.583703 0.414795 0.500973
O O1 0.668488 0.250000 0.898483
O O2 0.433367 0.399139 0.133202
O O3 0.531835 0.464903 0.141613
O O4 0.737730 0.500083 0.762528
O O5 0.801994 0.750000 0.631537
O O6 0.878936 0.535139 0.448048
O O7 0.005151 0.250000 0.780210
O O8 0.209085 0.063001 0.581241
O O9 0.911504 0.981681 0.920806
O O10 0.577501 0.750000 0.636682
O O11 0.578287 0.481733 0.588764
O O12 0.786487 0.750000 0.138862
O O13 0.598450 0.932035 0.302637
O O14 0.719673 0.999934 0.280065
O O15 0.638475 0.250000 0.435661
#
# Coordination Sequence:
#
# PCOD8075769 Si02
#       6
#     4   4   4   4   4   4
#     4   8  14  25  42  66  96 127 157 190 230 277
#     4   8  14  25  42  66  96 127 157 190 230 277
#     4   9  18  32  50  74 102 129 159 197 240 284
#     4   9  18  32  50  74 102 129 159 197 240 284
#     4  10  21  36  53  72  94 124 162 200 240 289
#     4  10  21  36  53  72  94 124 162 200 240 289
#
# _framework density 17.749962
#
# number of rings (size 3 to 8) (size 9 to 14) (size 15 to 20)
#    0.000    3.000    0.000    3.000    0.000    4.667 
#    0.000    3.333    0.000    1.000    0.000    0.000 
#    0.000    0.000    0.000    0.000    0.000    0.000 
#
# Total GULP energy -297493.998588 kJ/mol
# GULP energy per Si atom -12395.583274 kJ/mol
# Density = 1.770956 g / cm^3
# Si number density = 17.749962 Si / 1000 Ang^3
#
#
#
# Elastic Constant Matrix: (Units=GPa)
#
#
# Indices 1 2 3 4 5 6 
#
# 1 34.9906 58.9036 83.7398 0.0000 25.6281 0.0000
# 2 58.9036 124.3266 72.0292 0.0000 29.1753 0.0000
# 3 83.7398 72.0292 64.8079 0.0000 43.1216 0.0000
# 4 0.0000 0.0000 0.0000 35.1066 0.0000 8.1566
# 5 25.6281 29.1753 43.1216 0.0000 25.7458 0.0000
# 6 0.0000 0.0000 0.0000 8.1566 0.0000 32.0861
#
#
#
# Elastic Compliance Matrix: (Units=1/GPa)
#
#
# Indices 1 2 3 4 5 6 
#
# 1 0.012078 -0.011615 0.030193 0.000000 -0.049431 0.000000
# 2 -0.011615 0.017282 -0.009946 0.000000 0.008637 0.000000
# 3 0.030193 -0.009946 0.000264 0.000000 -0.019227 0.000000
# 4 0.000000 0.000000 0.000000 0.030273 0.000000 -0.007696
# 5 -0.049431 0.008637 -0.019227 0.000000 0.110462 0.000000
# 6 0.000000 0.000000 0.000000 -0.007696 0.000000 0.033122
#
#
# Mechanical properties :
#
#
# Convention : Reuss Voigt Hill
#
# Bulk Modulus (GPa) = 21.32729 72.60781 46.96755
# Shear Modulus (GPa) = 24.77120 19.21787 21.99454
#
# Velocity S-wave (km/s) = 3.73978 3.29401 3.52395
# Velocity P-wave (km/s) = 5.53980 7.44728 6.56321
#
# Compressibility (1/GPa) = 0.04688828
#
# Stress axis : x y z
#
# Youngs Moduli (GPa) = 82.79420 57.86383 3783.14169
#
# Poissons Ratio (x) = 0.67209 -114.22552
# Poissons Ratio (y) = 0.96166 37.62813
# Poissons Ratio (z) = -2.49983 0.57553
#
# Static dielectric constant tensor:
#      x y z
#    x 3.110280 0.000000 0.310360 
#    y 0.000000 3.590820 0.000000 
#    z 0.310360 0.000000 3.225550 
# 
# 
# High freq. dielectric constant tensor:
#      x y z
#    x 1.666440 0.000000 0.029800 
#    y 0.000000 1.689620 0.000000 
#    z 0.029800 0.000000 1.677440 
# 
# From -- ./inp_files/20530.got.cif
#   From: 2010.06.25/outbox.cif.g09.slc.cpg/sg11_11_cif.got.tgz:20530.got - 2010.06.27 23:14:04.
