data_PCOD8075403
_publ_section_title
;
Structure prediction by ZEFSAII (Michael W. Deem and Ramdas Pophale) SiO2 
 PCOD8075403
Probable space group: P 21/M
;
_chemical_formula_sum "Si O2"
_cell_formula_units_Z 24
_cell_length_a 10.349673
_cell_length_b 17.035610
_cell_length_c 17.319200
_cell_angle_alpha 90.000000
_cell_angle_beta 25.399821
_cell_angle_gamma 90.000000
_cell_volume 1309.787700
_symmetry_space_group_name_H-M "P 21/M"
_symmetry_group_IT_number 11
_symmetry_cell_setting 'monoclinic'
loop_
_space_group_symop_operation_xyz
x,y,z
-x,1/2+y,-z
-x,-y,-z
x,1/2-y,z
loop_
_atom_site_type_symbol
_atom_site_label
_atom_site_fract_x
_atom_site_fract_y
_atom_site_fract_z
Si Si1 0.824659 0.919335 0.111386
Si Si2 0.850760 0.455526 0.510836
Si Si3 0.669468 0.943271 0.467028
Si Si4 0.637155 0.839766 0.755359
Si Si5 0.013029 0.657631 0.164578
Si Si6 0.326966 0.840295 0.764894
O O1 0.473532 0.927859 0.283309
O O2 0.844165 0.889957 0.188646
O O3 0.974151 0.853856 0.975026
O O4 0.000000 0.000000 0.000000
O O5 0.841606 0.507039 0.438658
O O6 0.000000 0.500000 0.500000
O O7 0.064378 0.382204 0.375978
O O8 0.411226 0.890691 0.645238
O O9 0.911589 0.884567 0.298050
O O10 0.500000 0.000000 0.500000
O O11 0.726401 0.750000 0.698959
O O12 0.521790 0.869938 0.733707
O O13 0.372009 0.851584 0.961152
O O14 0.922649 0.750000 0.212694
O O15 0.383935 0.750000 0.715679
#
# Coordination Sequence:
#
# PCOD8075403 Si02
#       6
#     4   4   4   4   4   4
#     4  11  19  37  61  88 117 153 206 240 287 355
#     4  12  22  37  62  88 120 154 196 247 300 347
#     4  12  22  38  60  90 119 154 198 249 295 358
#     4   9  20  38  59  86 119 156 198 244 299 359
#     4  10  21  39  61  85 120 162 198 243 303 360
#     4  10  20  38  62  86 118 161 201 241 292 361
#
# _framework density 18.323581000000001
#
# number of rings (size 3 to 8) (size 9 to 14) (size 15 to 20)
#    0.000    1.333    5.000    3.000    0.000    2.000 
#    0.000    0.000    0.000    2.000    0.000    0.000 
#    0.000    0.000    0.000    0.000    0.000    0.000 
#
# Total GULP energy -297572.868890 kJ/mol
# GULP energy per Si atom -12398.869537 kJ/mol
# Density = 1.828188 g / cm^3
# Si number density = 18.323581 Si / 1000 Ang^3
#
#
#
# Elastic Constant Matrix: (Units=GPa)
#
#
# Indices 1 2 3 4 5 6 
#
# 1 101.3673 60.6588 61.6288 0.0000 1.3624 0.0000
# 2 60.6588 104.8739 61.4291 0.0000 0.1573 0.0000
# 3 61.6288 61.4291 138.4615 0.0000 -3.2122 0.0000
# 4 0.0000 0.0000 0.0000 42.8248 0.0000 3.9225
# 5 1.3624 0.1573 -3.2122 0.0000 37.3551 0.0000
# 6 0.0000 0.0000 0.0000 3.9225 0.0000 33.2257
#
#
#
# Elastic Compliance Matrix: (Units=1/GPa)
#
#
# Indices 1 2 3 4 5 6 
#
# 1 0.016802 -0.007193 -0.004310 0.000000 -0.000953 0.000000
# 2 -0.007193 0.015973 -0.003888 0.000000 -0.000139 0.000000
# 3 -0.004310 -0.003888 0.010891 0.000000 0.001110 0.000000
# 4 0.000000 0.000000 0.000000 0.023606 0.000000 -0.002787
# 5 -0.000953 -0.000139 0.001110 0.000000 0.026901 0.000000
# 6 0.000000 0.000000 0.000000 -0.002787 0.000000 0.030426
#
#
# Mechanical properties :
#
#
# Convention : Reuss Voigt Hill
#
# Bulk Modulus (GPa) = 77.60742 79.12625 78.36683
# Shear Modulus (GPa) = 31.31329 33.41352 32.36340
#
# Velocity S-wave (km/s) = 4.13838 4.27491 4.20720
# Velocity P-wave (km/s) = 8.07965 8.22453 8.15241
#
# Compressibility (1/GPa) = 0.01288537
#
# Stress axis : x y z
#
# Youngs Moduli (GPa) = 59.51611 62.60471 91.81602
#
# Poissons Ratio (x) = 0.45029 0.39570
# Poissons Ratio (y) = 0.42807 0.35702
# Poissons Ratio (z) = 0.25650 0.24344
#
# Static dielectric constant tensor:
#      x y z
#    x 3.163920 0.000000 0.026810 
#    y 0.000000 3.596380 0.000000 
#    z 0.026810 0.000000 3.616250 
# 
# 
# High freq. dielectric constant tensor:
#      x y z
#    x 1.683010 0.000000 0.008830 
#    y 0.000000 1.728360 0.000000 
#    z 0.008830 0.000000 1.721850 
# 
# From -- ./inp_files/14224.got.cif
#   From: 2010.06.25/outbox.cif.g09.slc.cpg/sg11_8_cif.got.tgz:14224.got - 2010.06.27 23:14:04.
