data_PCOD8075878
_publ_section_title
;
Structure prediction by ZEFSAII (Michael W. Deem and Ramdas Pophale) SiO2 
 PCOD8075878
Probable space group: P 21/M
;
_chemical_formula_sum "Si O2"
_cell_formula_units_Z 28
_cell_length_a 27.060705
_cell_length_b 9.036321
_cell_length_c 9.766372
_cell_angle_alpha 90.000000
_cell_angle_beta 142.099800
_cell_angle_gamma 90.000000
_cell_volume 1467.019947
_symmetry_space_group_name_H-M "P 21/M"
_symmetry_group_IT_number 11
_symmetry_cell_setting 'monoclinic'
loop_
_space_group_symop_operation_xyz
x,y,z
-x,1/2+y,-z
-x,-y,-z
x,1/2-y,z
loop_
_atom_site_type_symbol
_atom_site_label
_atom_site_fract_x
_atom_site_fract_y
_atom_site_fract_z
Si Si1 0.015559 0.425192 0.677396
Si Si2 0.508737 0.421605 0.375600
Si Si3 0.684006 0.419846 0.808849
Si Si4 0.942994 0.922028 0.767222
Si Si5 0.358660 0.575335 0.978213
Si Si6 0.235572 0.420434 0.515425
Si Si7 0.801965 0.922681 0.869709
O O1 0.001621 0.250000 0.638506
O O2 0.000000 0.500000 0.500000
O O3 0.952033 0.497040 0.642128
O O4 0.104651 0.466178 0.923114
O O5 0.500000 0.500000 0.500000
O O6 0.486257 0.250000 0.339941
O O7 0.602597 0.441287 0.539667
O O8 0.445652 0.500272 0.135064
O O9 0.709329 0.250000 0.869554
O O10 0.756609 0.504976 0.897582
O O11 0.671914 0.477017 0.938458
O O12 0.966790 0.750000 0.808634
O O13 0.851643 0.941870 0.611451
O O14 0.000000 0.000000 0.000000
O O15 0.370258 0.750000 0.998181
O O16 0.297159 0.525139 0.728227
O O17 0.263012 0.250000 0.587543
O O18 0.234399 0.473477 0.355085
O O19 0.791743 0.750000 0.866353
#
# Coordination Sequence:
#
# PCOD8075878 Si02
#       7
#     4   4   4   4   4   4   4
#     4  11  24  42  60  86 118 152 196 244 291 347
#     4   9  17  33  56  83 115 149 186 232 282 335
#     4   9  20  36  56  85 116 145 185 233 281 334
#     4  11  22  40  63  86 114 154 196 239 291 346
#     4  10  21  36  57  88 116 145 190 237 281 336
#     4  10  22  40  58  81 114 151 191 234 283 340
#     4  10  22  40  58  80 114 152 189 231 285 342
#
# _framework density 19.086310999999998
#
# number of rings (size 3 to 8) (size 9 to 14) (size 15 to 20)
#    0.000    2.000    1.429    2.571    2.000    6.286 
#    0.000    0.714    0.000    0.000    0.000    0.000 
#    0.000    0.000    0.000    0.000    0.000    0.000 
#
# Total GULP energy -347180.282792 kJ/mol
# GULP energy per Si atom -12399.295814 kJ/mol
# Density = 1.904287 g / cm^3
# Si number density = 19.086311 Si / 1000 Ang^3
#
#
#
# Elastic Constant Matrix: (Units=GPa)
#
#
# Indices 1 2 3 4 5 6 
#
# 1 38.7471 17.1867 -2.2035 0.0000 -11.9750 0.0000
# 2 17.1867 82.9837 38.4363 0.0000 0.9943 0.0000
# 3 -2.2035 38.4363 86.0922 0.0000 -9.8315 0.0000
# 4 0.0000 0.0000 0.0000 38.1700 0.0000 0.8726
# 5 -11.9750 0.9943 -9.8315 0.0000 26.6400 0.0000
# 6 0.0000 0.0000 0.0000 0.8726 0.0000 32.3213
#
#
#
# Elastic Compliance Matrix: (Units=1/GPa)
#
#
# Indices 1 2 3 4 5 6 
#
# 1 0.038203 -0.012254 0.008834 0.000000 0.020890 0.000000
# 2 -0.012254 0.019390 -0.010108 0.000000 -0.009963 0.000000
# 3 0.008834 -0.010108 0.017592 0.000000 0.010841 0.000000
# 4 0.000000 0.000000 0.000000 0.026215 0.000000 -0.000708
# 5 0.020890 -0.009963 0.010841 0.000000 0.051301 0.000000
# 6 0.000000 0.000000 0.000000 -0.000708 0.000000 0.030958
#
#
# Mechanical properties :
#
#
# Convention : Reuss Voigt Hill
#
# Bulk Modulus (GPa) = 20.77753 34.96245 27.86999
# Shear Modulus (GPa) = 22.04997 29.71981 25.88489
#
# Velocity S-wave (km/s) = 3.40262 3.95033 3.68666
# Velocity P-wave (km/s) = 5.13292 6.25816 5.72326
#
# Compressibility (1/GPa) = 0.04812891
#
# Stress axis : x y z
#
# Youngs Moduli (GPa) = 26.17618 51.57363 56.84284
#
# Poissons Ratio (x) = 0.63200 -0.50218
# Poissons Ratio (y) = 0.32077 0.57457
# Poissons Ratio (z) = -0.23125 0.52131
#
# Static dielectric constant tensor:
#      x y z
#    x 2.852440 0.000000 -0.216210 
#    y 0.000000 3.556040 0.000000 
#    z -0.216210 0.000000 3.464000 
# 
# 
# High freq. dielectric constant tensor:
#      x y z
#    x 1.730740 0.000000 0.008320 
#    y 0.000000 1.749260 0.000000 
#    z 0.008320 0.000000 1.748320 
# 
# From -- ./inp_files/28556.got.cif
#   From: 2010.06.25/outbox.cif.g09.slc.cpg/sg11_15_cif.got.tgz:28556.got - 2010.06.27 23:14:04.
