data_PCOD8075754
_publ_section_title
;
Structure prediction by ZEFSAII (Michael W. Deem and Ramdas Pophale) SiO2 
 PCOD8075754
Probable space group: P 21/M
;
_chemical_formula_sum "Si O2"
_cell_formula_units_Z 24
_cell_length_a 8.437610
_cell_length_b 19.090145
_cell_length_c 10.596201
_cell_angle_alpha 90.000000
_cell_angle_beta 135.629658
_cell_angle_gamma 90.000000
_cell_volume 1193.543635
_symmetry_space_group_name_H-M "P 21/M"
_symmetry_group_IT_number 11
_symmetry_cell_setting 'monoclinic'
loop_
_space_group_symop_operation_xyz
x,y,z
-x,1/2+y,-z
-x,-y,-z
x,1/2-y,z
loop_
_atom_site_type_symbol
_atom_site_label
_atom_site_fract_x
_atom_site_fract_y
_atom_site_fract_z
Si Si1 0.937126 0.388625 0.005468
Si Si2 0.612973 0.459408 0.449538
Si Si3 0.432349 0.169176 0.686123
Si Si4 0.772292 0.538848 0.322199
Si Si5 0.927768 0.529876 0.154910
Si Si6 0.354077 0.326592 0.350272
O O1 0.938689 0.453986 0.100676
O O2 0.093595 0.329680 0.157198
O O3 0.689428 0.357631 0.846219
O O4 0.060946 0.410655 0.945208
O O5 0.500000 0.500000 0.500000
O O6 0.574840 0.501333 0.295248
O O7 0.502774 0.383997 0.362665
O O8 0.872239 0.451791 0.633391
O O9 0.413817 0.250000 0.720257
O O10 0.252769 0.122063 0.662170
O O11 0.360461 0.159642 0.501771
O O12 0.724507 0.531519 0.143519
O O13 0.000000 0.500000 0.500000
O O14 0.452342 0.250000 0.373411
#
# Coordination Sequence:
#
# PCOD8075754 Si02
#       6
#     4   4   4   4   4   4
#     4  11  21  39  63  91 119 159 209 250 307 367
#     4  11  17  38  63  88 118 159 209 251 298 366
#     4  11  23  41  63  89 123 164 204 249 309 371
#     4  10  21  38  63  92 122 160 205 254 305 356
#     4  10  21  35  61  94 118 154 204 263 299 354
#     4  11  22  37  61  89 120 158 202 254 304 362
#
# _framework density 20.108187999999998
#
# number of rings (size 3 to 8) (size 9 to 14) (size 15 to 20)
#    0.000    1.333    5.000    1.500    2.333    0.667 
#    0.000    5.000    0.000    1.000    0.000    0.000 
#    0.000    0.000    0.000    0.000    0.000    0.000 
#
# Total GULP energy -297351.450481 kJ/mol
# GULP energy per Si atom -12389.643770 kJ/mol
# Density = 2.006242 g / cm^3
# Si number density = 20.108188 Si / 1000 Ang^3
#
#
#
# Elastic Constant Matrix: (Units=GPa)
#
#
# Indices 1 2 3 4 5 6 
#
# 1 121.4142 62.7775 37.5732 0.0000 -22.1873 0.0000
# 2 62.7775 141.6226 38.8925 0.0000 -7.5226 0.0000
# 3 37.5732 38.8925 93.1878 0.0000 -11.6170 0.0000
# 4 0.0000 0.0000 0.0000 6.4318 0.0000 8.3360
# 5 -22.1873 -7.5226 -11.6170 0.0000 21.1630 0.0000
# 6 0.0000 0.0000 0.0000 8.3360 0.0000 25.6371
#
#
#
# Elastic Compliance Matrix: (Units=1/GPa)
#
#
# Indices 1 2 3 4 5 6 
#
# 1 0.013382 -0.004787 -0.001998 0.000000 0.011231 0.000000
# 2 -0.004787 0.009710 -0.002488 0.000000 -0.002933 0.000000
# 3 -0.001998 -0.002488 0.013100 0.000000 0.004212 0.000000
# 4 0.000000 0.000000 0.000000 0.268723 0.000000 -0.087377
# 5 0.011231 -0.002933 0.004212 0.000000 0.060297 0.000000
# 6 0.000000 0.000000 0.000000 -0.087377 0.000000 0.067417
#
#
# Mechanical properties :
#
#
# Convention : Reuss Voigt Hill
#
# Bulk Modulus (GPa) = 56.66650 70.52345 63.59497
# Shear Modulus (GPa) = 10.93955 25.11182 18.02568
#
# Velocity S-wave (km/s) = 2.33498 3.53772 2.99730
# Velocity P-wave (km/s) = 5.95915 7.19968 6.60859
#
# Compressibility (1/GPa) = 0.01764711
#
# Stress axis : x y z
#
# Youngs Moduli (GPa) = 74.72805 102.98259 76.33540
#
# Poissons Ratio (x) = 0.49294 0.15249
# Poissons Ratio (y) = 0.35770 0.18995
# Poissons Ratio (z) = 0.14928 0.25625
#
# Static dielectric constant tensor:
#      x y z
#    x 3.793820 0.000000 -0.353920 
#    y 0.000000 3.859080 0.000000 
#    z -0.353920 0.000000 3.608050 
# 
# 
# High freq. dielectric constant tensor:
#      x y z
#    x 1.780610 0.000000 -0.008740 
#    y 0.000000 1.780080 0.000000 
#    z -0.008740 0.000000 1.790720 
# 
# From -- ./inp_files/32734.got.cif
#   From: 2010.06.25/outbox.cif.g09.slc.cpg/sg11_17_cif.got.tgz:32734.got - 2010.06.27 23:14:04.
