data_PCOD8075228
_publ_section_title
;
Structure prediction by ZEFSAII (Michael W. Deem and Ramdas Pophale) SiO2 
 PCOD8075228
Probable space group: P 21/M
;
_chemical_formula_sum "Si O2"
_cell_formula_units_Z 24
_cell_length_a 14.915248
_cell_length_b 8.844066
_cell_length_c 14.739856
_cell_angle_alpha 90.000000
_cell_angle_beta 39.687327
_cell_angle_gamma 90.000000
_cell_volume 1241.660860
_symmetry_space_group_name_H-M "P 21/M"
_symmetry_group_IT_number 11
_symmetry_cell_setting 'monoclinic'
loop_
_space_group_symop_operation_xyz
x,y,z
-x,1/2+y,-z
-x,-y,-z
x,1/2-y,z
loop_
_atom_site_type_symbol
_atom_site_label
_atom_site_fract_x
_atom_site_fract_y
_atom_site_fract_z
Si Si1 0.642019 0.928189 0.352282
Si Si2 0.163750 0.923674 0.657043
Si Si3 0.133642 0.424150 0.352120
Si Si4 0.683292 0.924011 0.623504
Si Si5 0.634139 0.426858 0.167781
Si Si6 0.842753 0.574995 0.869106
O O1 0.623880 0.750000 0.368007
O O2 0.500000 0.000000 0.500000
O O3 0.771631 0.974162 0.314384
O O4 0.675770 0.982430 0.225105
O O5 0.205057 0.750000 0.641882
O O6 0.997634 0.947032 0.788524
O O7 0.222579 0.971809 0.513740
O O8 0.094114 0.250000 0.372311
O O9 0.269516 0.450321 0.309478
O O10 0.165177 0.488451 0.227544
O O11 0.000000 0.500000 0.500000
O O12 0.705214 0.750000 0.577123
O O13 0.522056 0.972190 0.741053
O O14 0.646852 0.250000 0.178338
O O15 0.738216 0.471911 0.007066
O O16 0.796149 0.750000 0.910808
#
# Coordination Sequence:
#
# PCOD8075228 Si02
#       6
#     4   4   4   4   4   4
#     4  12  24  40  64  92 122 159 202 251 304 360
#     4  11  22  38  63  92 121 159 206 250 301 362
#     4  10  20  37  61  90 122 159 204 252 303 360
#     4  10  21  37  61  90 122 158 203 254 302 358
#     4  11  24  41  61  90 124 162 205 252 306 361
#     4  10  23  41  60  89 127 163 202 252 307 361
#
# _framework density 19.328949999999999
#
# number of rings (size 3 to 8) (size 9 to 14) (size 15 to 20)
#    0.000    1.333    3.333    2.500    0.000    4.000 
#    0.000    0.000    0.000    0.000    0.000    0.000 
#    0.000    0.000    0.000    0.000    0.000    0.000 
#
# Total GULP energy -297731.133620 kJ/mol
# GULP energy per Si atom -12405.463901 kJ/mol
# Density = 1.928496 g / cm^3
# Si number density = 19.328950 Si / 1000 Ang^3
#
#
#
# Elastic Constant Matrix: (Units=GPa)
#
#
# Indices 1 2 3 4 5 6 
#
# 1 100.8487 28.0448 24.5086 0.0000 17.5126 0.0000
# 2 28.0448 88.2765 34.6968 0.0000 5.1913 0.0000
# 3 24.5086 34.6968 100.4514 0.0000 13.8416 0.0000
# 4 0.0000 0.0000 0.0000 36.4653 0.0000 3.2395
# 5 17.5126 5.1913 13.8416 0.0000 34.0339 0.0000
# 6 0.0000 0.0000 0.0000 3.2395 0.0000 28.8145
#
#
#
# Elastic Compliance Matrix: (Units=1/GPa)
#
#
# Indices 1 2 3 4 5 6 
#
# 1 0.011945 -0.003037 -0.001146 0.000000 -0.005217 0.000000
# 2 -0.003037 0.013881 -0.004213 0.000000 0.001159 0.000000
# 3 -0.001146 -0.004213 0.012204 0.000000 -0.003731 0.000000
# 4 0.000000 0.000000 0.000000 0.027700 0.000000 -0.003114
# 5 -0.005217 0.001159 -0.003731 0.000000 0.033407 0.000000
# 6 0.000000 0.000000 0.000000 -0.003114 0.000000 0.035055
#
#
# Mechanical properties :
#
#
# Convention : Reuss Voigt Hill
#
# Bulk Modulus (GPa) = 47.09000 51.56408 49.32704
# Shear Modulus (GPa) = 31.63256 33.35118 32.49187
#
# Velocity S-wave (km/s) = 4.04980 4.15836 4.10444
# Velocity P-wave (km/s) = 6.80317 7.05628 6.93088
#
# Compressibility (1/GPa) = 0.02123593
#
# Stress axis : x y z
#
# Youngs Moduli (GPa) = 83.71660 72.04167 81.93943
#
# Poissons Ratio (x) = 0.21883 0.09393
# Poissons Ratio (y) = 0.25429 0.34523
# Poissons Ratio (z) = 0.09597 0.30353
#
# Static dielectric constant tensor:
#      x y z
#    x 4.055670 0.000000 0.045390 
#    y 0.000000 3.572940 0.000000 
#    z 0.045390 0.000000 3.435520 
# 
# 
# High freq. dielectric constant tensor:
#      x y z
#    x 1.771000 0.000000 0.003100 
#    y 0.000000 1.755530 0.000000 
#    z 0.003100 0.000000 1.746070 
# 
# From -- ./inp_files/20408.got.cif
#   From: 2010.06.25/outbox.cif.g09.slc.cpg/sg11_11_cif.got.tgz:20408.got - 2010.06.27 23:14:04.
