data_PCOD8075602
_publ_section_title
;
Structure prediction by ZEFSAII (Michael W. Deem and Ramdas Pophale) SiO2 
 PCOD8075602
Probable space group: P 21/M
;
_chemical_formula_sum "Si O2"
_cell_formula_units_Z 22
_cell_length_a 13.264921
_cell_length_b 10.687571
_cell_length_c 15.299286
_cell_angle_alpha 90.000000
_cell_angle_beta 152.620870
_cell_angle_gamma 90.000000
_cell_volume 997.461028
_symmetry_space_group_name_H-M "P 21/M"
_symmetry_group_IT_number 11
_symmetry_cell_setting 'monoclinic'
loop_
_space_group_symop_operation_xyz
x,y,z
-x,1/2+y,-z
-x,-y,-z
x,1/2-y,z
loop_
_atom_site_type_symbol
_atom_site_label
_atom_site_fract_x
_atom_site_fract_y
_atom_site_fract_z
Si Si1 0.194188 0.750000 0.755799
Si Si2 0.623240 0.015136 0.183519
Si Si3 0.332747 0.109274 0.271291
Si Si4 0.729329 0.750000 0.488736
Si Si5 0.223936 0.495973 0.366250
Si Si6 0.408520 0.250000 0.799859
Si Si7 0.766321 0.603132 0.999882
O O1 0.209116 0.629222 0.702609
O O2 0.959746 0.750000 0.617680
O O3 0.370154 0.750000 0.971213
O O4 0.730162 0.878035 0.286644
O O5 0.451245 0.043786 0.127636
O O6 0.500000 0.000000 0.000000
O O7 0.268734 0.250000 0.245856
O O8 0.231580 0.020015 0.267271
O O9 0.597218 0.099472 0.469757
O O10 0.229081 0.072085 0.098938
O O11 0.704650 0.869796 0.530528
O O12 0.544247 0.750000 0.269054
O O13 0.982931 0.541445 0.209746
O O14 0.767052 0.750000 0.020548
#
# Coordination Sequence:
#
# PCOD8075602 Si02
#       7
#     2   4   4   2   4   2   4
#     4  10  22  42  63  88 129 168 208 264 311 361
#     4  10  20  40  64  89 125 165 205 261 311 360
#     4  10  22  41  62  90 127 157 204 261 308 370
#     4  12  24  40  63  92 127 162 208 250 313 381
#     4  11  22  39  62  91 125 164 201 252 314 372
#     4  10  22  38  62  90 124 162 208 252 312 370
#     4  11  22  39  65  91 119 164 213 253 310 375
#
# _framework density 22.056000999999998
#
# number of rings (size 3 to 8) (size 9 to 14) (size 15 to 20)
#    0.000    1.455    1.818    4.364    0.000    0.727 
#    0.000    3.636    0.000    0.000    0.000    0.000 
#    0.000    0.000    0.000    0.000    0.000    0.000 
#
# Total GULP energy -272673.251302 kJ/mol
# GULP energy per Si atom -12394.238696 kJ/mol
# Density = 2.200580 g / cm^3
# Si number density = 22.056001 Si / 1000 Ang^3
#
#
#
# Elastic Constant Matrix: (Units=GPa)
#
#
# Indices 1 2 3 4 5 6 
#
# 1 73.8660 37.0018 11.2993 0.0000 -1.7021 0.0000
# 2 37.0018 125.3825 11.5785 0.0000 -15.1793 0.0000
# 3 11.2993 11.5785 56.4786 0.0000 0.1833 0.0000
# 4 0.0000 0.0000 0.0000 17.8847 0.0000 -5.2588
# 5 -1.7021 -15.1793 0.1833 0.0000 38.5107 0.0000
# 6 0.0000 0.0000 0.0000 -5.2588 0.0000 29.7007
#
#
#
# Elastic Compliance Matrix: (Units=1/GPa)
#
#
# Indices 1 2 3 4 5 6 
#
# 1 0.016221 -0.004714 -0.002275 0.000000 -0.001130 0.000000
# 2 -0.004714 0.009917 -0.001102 0.000000 0.003706 0.000000
# 3 -0.002275 -0.001102 0.018389 0.000000 -0.000622 0.000000
# 4 0.000000 0.000000 0.000000 0.058985 0.000000 0.010444
# 5 -0.001130 0.003706 -0.000622 0.000000 0.027380 0.000000
# 6 0.000000 0.000000 0.000000 0.010444 0.000000 0.035518
#
#
# Mechanical properties :
#
#
# Convention : Reuss Voigt Hill
#
# Bulk Modulus (GPa) = 35.27940 41.72071 38.50005
# Shear Modulus (GPa) = 26.03604 30.27573 28.15588
#
# Velocity S-wave (km/s) = 3.43950 3.70898 3.57678
# Velocity P-wave (km/s) = 5.63947 6.10729 5.87803
#
# Compressibility (1/GPa) = 0.02834516
#
# Stress axis : x y z
#
# Youngs Moduli (GPa) = 61.64729 100.83598 54.38045
#
# Poissons Ratio (x) = 0.47532 0.12373
# Poissons Ratio (y) = 0.29059 0.05993
# Poissons Ratio (z) = 0.14026 0.11113
#
# Static dielectric constant tensor:
#      x y z
#    x 4.075680 0.000000 -0.318900 
#    y 0.000000 4.818950 0.000000 
#    z -0.318900 0.000000 3.771850 
# 
# 
# High freq. dielectric constant tensor:
#      x y z
#    x 1.869150 0.000000 -0.016810 
#    y 0.000000 1.883920 0.000000 
#    z -0.016810 0.000000 1.849530 
# 
# From -- ./inp_files/50126.got.cif
#   From: 2010.06.25/outbox.cif.g09.slc.cpg/sg11_26_cif.got.tgz:50126.got - 2010.06.27 23:14:04.
