data_PCOD8075191
_publ_section_title
;
Structure prediction by ZEFSAII (Michael W. Deem and Ramdas Pophale) SiO2 
 PCOD8075191
Probable space group: P 21/M
;
_chemical_formula_sum "Si O2"
_cell_formula_units_Z 28
_cell_length_a 11.848835
_cell_length_b 8.776604
_cell_length_c 13.930731
_cell_angle_alpha 90.000000
_cell_angle_beta 74.763951
_cell_angle_gamma 90.000000
_cell_volume 1397.772417
_symmetry_space_group_name_H-M "P 21/M"
_symmetry_group_IT_number 11
_symmetry_cell_setting 'monoclinic'
loop_
_space_group_symop_operation_xyz
x,y,z
-x,1/2+y,-z
-x,-y,-z
x,1/2-y,z
loop_
_atom_site_type_symbol
_atom_site_label
_atom_site_fract_x
_atom_site_fract_y
_atom_site_fract_z
Si Si1 0.110687 0.926621 0.924651
Si Si2 0.441009 0.929895 0.153185
Si Si3 0.719782 0.429936 0.647280
Si Si4 0.823275 0.931468 0.292487
Si Si5 0.370462 0.568145 0.535660
Si Si6 0.347120 0.575479 0.973062
Si Si7 0.978180 0.071014 0.606735
O O1 0.087126 0.750000 0.906359
O O2 0.212064 0.947064 0.980295
O O3 0.148195 0.012644 0.820226
O O4 0.000000 0.000000 0.000000
O O5 0.437197 0.750000 0.160237
O O6 0.377712 0.001371 0.260425
O O7 0.574835 0.984915 0.121919
O O8 0.372476 0.988648 0.073848
O O9 0.706984 0.250000 0.647935
O O10 0.699504 0.488748 0.543512
O O11 0.845588 0.476122 0.663174
O O12 0.812118 0.750000 0.295049
O O13 0.930641 0.990397 0.334812
O O14 0.701016 0.002537 0.357251
O O15 0.500000 0.500000 0.500000
O O16 0.378051 0.750000 0.542551
O O17 0.385744 0.750000 0.957493
O O18 0.991934 0.250000 0.593999
O O19 0.000000 0.000000 0.500000
#
# Coordination Sequence:
#
# PCOD8075191 Si02
#       7
#     4   4   4   4   4   4   4
#     4  11  25  43  63  89 122 161 204 253 305 365
#     4   9  18  35  61  86 113 149 191 241 296 355
#     4   9  19  35  59  87 114 152 194 241 300 354
#     4  11  24  41  64  91 121 163 207 251 308 368
#     4  11  23  40  61  89 127 164 206 252 302 366
#     4   9  20  38  59  84 116 151 192 241 298 354
#     4  10  20  37  61  86 117 153 196 244 295 355
#
# _framework density 20.031873999999998
#
# number of rings (size 3 to 8) (size 9 to 14) (size 15 to 20)
#    0.000    2.000    1.429    1.286    4.000    1.714 
#    0.000    1.429    0.000    0.000    0.000    0.000 
#    0.000    0.000    0.000    0.000    0.000    0.000 
#
# Total GULP energy -347160.150963 kJ/mol
# GULP energy per Si atom -12398.576820 kJ/mol
# Density = 1.998628 g / cm^3
# Si number density = 20.031874 Si / 1000 Ang^3
#
#
#
# Elastic Constant Matrix: (Units=GPa)
#
#
# Indices 1 2 3 4 5 6 
#
# 1 107.0486 36.8217 40.1279 0.0000 -16.5284 0.0000
# 2 36.8217 57.9433 36.7723 0.0000 -6.0896 0.0000
# 3 40.1279 36.7723 133.6949 0.0000 -26.1414 0.0000
# 4 0.0000 0.0000 0.0000 30.9972 0.0000 -4.3963
# 5 -16.5284 -6.0896 -26.1414 0.0000 35.1934 0.0000
# 6 0.0000 0.0000 0.0000 -4.3963 0.0000 29.4877
#
#
#
# Elastic Compliance Matrix: (Units=1/GPa)
#
#
# Indices 1 2 3 4 5 6 
#
# 1 0.012781 -0.006981 -0.001145 0.000000 0.003944 0.000000
# 2 -0.006981 0.024738 -0.005280 0.000000 -0.002920 0.000000
# 3 -0.001145 -0.005280 0.010520 0.000000 0.006363 0.000000
# 4 0.000000 0.000000 0.000000 0.032958 0.000000 0.004914
# 5 0.003944 -0.002920 0.006363 0.000000 0.034488 0.000000
# 6 0.000000 0.000000 0.000000 0.004914 0.000000 0.034645
#
#
# Mechanical properties :
#
#
# Convention : Reuss Voigt Hill
#
# Bulk Modulus (GPa) = 47.10828 58.45896 52.78362
# Shear Modulus (GPa) = 27.17148 31.46667 29.31908
#
# Velocity S-wave (km/s) = 3.68695 3.96767 3.82988
# Velocity P-wave (km/s) = 6.45697 7.08775 6.77970
#
# Compressibility (1/GPa) = 0.02122769
#
# Stress axis : x y z
#
# Youngs Moduli (GPa) = 78.24148 40.42311 95.06053
#
# Poissons Ratio (x) = 0.28219 0.10883
# Poissons Ratio (y) = 0.54620 0.50190
# Poissons Ratio (z) = 0.08957 0.21343
#
# Static dielectric constant tensor:
#      x y z
#    x 4.211190 0.000000 -0.007790 
#    y 0.000000 3.504260 0.000000 
#    z -0.007790 0.000000 3.859520 
# 
# 
# High freq. dielectric constant tensor:
#      x y z
#    x 1.792760 0.000000 -0.005140 
#    y 0.000000 1.765420 0.000000 
#    z -0.005140 0.000000 1.789080 
# 
# From -- ./inp_files/48901.got.cif
#   From: 2010.06.25/outbox.cif.g09.slc.cpg/sg11_25_cif.got.tgz:48901.got - 2010.06.27 23:14:04.
