data_PCOD8075550
_publ_section_title
;
Structure prediction by ZEFSAII (Michael W. Deem and Ramdas Pophale) SiO2 
 PCOD8075550
Probable space group: P 21/M
;
_chemical_formula_sum "Si O2"
_cell_formula_units_Z 16
_cell_length_a 6.922117
_cell_length_b 15.802182
_cell_length_c 8.900562
_cell_angle_alpha 90.000000
_cell_angle_beta 124.976544
_cell_angle_gamma 90.000000
_cell_volume 797.741862
_symmetry_space_group_name_H-M "P 21/M"
_symmetry_group_IT_number 11
_symmetry_cell_setting 'monoclinic'
loop_
_space_group_symop_operation_xyz
x,y,z
-x,1/2+y,-z
-x,-y,-z
x,1/2-y,z
loop_
_atom_site_type_symbol
_atom_site_label
_atom_site_fract_x
_atom_site_fract_y
_atom_site_fract_z
Si Si1 0.446376 0.573469 0.591193
Si Si2 0.041128 0.656753 0.253283
Si Si3 0.253909 0.508403 0.808225
Si Si4 0.962559 0.590974 0.911576
O O1 0.500000 0.500000 0.500000
O O2 0.300307 0.645696 0.440308
O O3 0.286324 0.533705 0.650788
O O4 0.688618 0.612882 0.761320
O O5 0.947285 0.750000 0.258230
O O6 0.871994 0.582864 0.238837
O O7 0.061441 0.656174 0.079500
O O8 0.106555 0.585921 0.819410
O O9 0.500000 0.500000 0.000000
O O10 0.000000 0.500000 0.000000
#
# Coordination Sequence:
#
# PCOD8075550 Si02
#       4
#     4   4   4   4
#     4  12  21  39  69  91 120 166 217 248 298 379
#     4  11  24  41  62  94 130 156 201 270 318 350
#     4  11  20  40  69  90 119 169 214 242 300 383
#     4  10  20  39  65  88 119 163 209 243 305 368
#
# _framework density 20.056612000000001
#
# number of rings (size 3 to 8) (size 9 to 14) (size 15 to 20)
#    0.000    1.000   10.000    0.750    0.000    1.000 
#    0.000    6.250    0.000    0.000    0.000    0.000 
#    0.000    0.000    0.000    0.000    0.000    0.000 
#
# Total GULP energy -198315.297406 kJ/mol
# GULP energy per Si atom -12394.706088 kJ/mol
# Density = 2.001096 g / cm^3
# Si number density = 20.056612 Si / 1000 Ang^3
#
#
#
# Elastic Constant Matrix: (Units=GPa)
#
#
# Indices 1 2 3 4 5 6 
#
# 1 134.3071 37.6505 57.8922 0.0000 -13.4372 0.0000
# 2 37.6505 87.0638 49.0256 0.0000 2.5944 0.0000
# 3 57.8922 49.0256 149.0553 0.0000 10.4394 0.0000
# 4 0.0000 0.0000 0.0000 17.2476 0.0000 3.1972
# 5 -13.4372 2.5944 10.4394 0.0000 54.0158 0.0000
# 6 0.0000 0.0000 0.0000 3.1972 0.0000 13.9646
#
#
#
# Elastic Compliance Matrix: (Units=1/GPa)
#
#
# Indices 1 2 3 4 5 6 
#
# 1 0.009868 -0.002551 -0.003218 0.000000 0.003199 0.000000
# 2 -0.002551 0.014759 -0.003821 0.000000 -0.000605 0.000000
# 3 -0.003218 -0.003821 0.009386 0.000000 -0.002431 0.000000
# 4 0.000000 0.000000 0.000000 0.060549 0.000000 -0.013863
# 5 0.003199 -0.000605 -0.002431 0.000000 0.019808 0.000000
# 6 0.000000 0.000000 0.000000 -0.013863 0.000000 0.074784
#
#
# Mechanical properties :
#
#
# Convention : Reuss Voigt Hill
#
# Bulk Modulus (GPa) = 67.41775 73.28474 70.35125
# Shear Modulus (GPa) = 23.44383 32.10279 27.77331
#
# Velocity S-wave (km/s) = 3.42260 4.00510 3.72525
# Velocity P-wave (km/s) = 7.02180 7.61617 7.32501
#
# Compressibility (1/GPa) = 0.01483289
#
# Stress axis : x y z
#
# Youngs Moduli (GPa) = 101.34098 67.75698 106.54495
#
# Poissons Ratio (x) = 0.17283 0.34282
# Poissons Ratio (y) = 0.25849 0.40713
# Poissons Ratio (z) = 0.32608 0.25891
#
# Static dielectric constant tensor:
#      x y z
#    x 4.768690 0.000000 0.779600 
#    y 0.000000 3.356470 0.000000 
#    z 0.779600 0.000000 6.581980 
# 
# 
# High freq. dielectric constant tensor:
#      x y z
#    x 1.780920 0.000000 0.000840 
#    y 0.000000 1.739240 0.000000 
#    z 0.000840 0.000000 1.813760 
# 
# From -- ./inp_files/1731.got.cif
#   From: 2010.06.25/outbox.cif.g09.slc.cpg/sg11_1_cif.got.tgz:1731.got - 2010.06.27 23:14:04.
