data_PCOD8075409
_publ_section_title
;
Structure prediction by ZEFSAII (Michael W. Deem and Ramdas Pophale) SiO2 
 PCOD8075409
Probable space group: P 21/M
;
_chemical_formula_sum "Si O2"
_cell_formula_units_Z 32
_cell_length_a 19.919932
_cell_length_b 8.861908
_cell_length_c 14.326123
_cell_angle_alpha 90.000000
_cell_angle_beta 39.044222
_cell_angle_gamma 90.000000
_cell_volume 1593.049151
_symmetry_space_group_name_H-M "P 21/M"
_symmetry_group_IT_number 11
_symmetry_cell_setting 'monoclinic'
loop_
_space_group_symop_operation_xyz
x,y,z
-x,1/2+y,-z
-x,-y,-z
x,1/2-y,z
loop_
_atom_site_type_symbol
_atom_site_label
_atom_site_fract_x
_atom_site_fract_y
_atom_site_fract_z
Si Si1 0.259053 0.426602 0.067657
Si Si2 0.973966 0.930309 0.626770
Si Si3 0.019824 0.919712 0.074332
Si Si4 0.355915 0.928368 0.405410
Si Si5 0.601728 0.570215 0.439448
Si Si6 0.136791 0.076577 0.593256
Si Si7 0.531613 0.572187 0.062973
Si Si8 0.229310 0.424964 0.894757
O O1 0.254819 0.250000 0.089878
O O2 0.143117 0.492845 0.218495
O O3 0.352857 0.494291 0.031068
O O4 0.289819 0.460341 0.926512
O O5 0.978250 0.750000 0.619550
O O6 0.000000 0.000000 0.500000
O O7 0.061245 0.989348 0.604191
O O8 0.051251 0.750000 0.017854
O O9 0.117236 0.992365 0.023907
O O10 0.912930 0.930429 0.250127
O O11 0.000000 0.000000 0.000000
O O12 0.344891 0.750000 0.432742
O O13 0.448937 0.970437 0.233181
O O14 0.382163 0.005531 0.475276
O O15 0.249431 0.994018 0.474899
O O16 0.500000 0.500000 0.500000
O O17 0.589970 0.750000 0.456250
O O18 0.702052 0.520785 0.267538
O O19 0.151352 0.250000 0.544958
O O20 0.536038 0.750000 0.044104
O O21 0.500000 0.500000 0.000000
O O22 0.202786 0.250000 0.914006
#
# Coordination Sequence:
#
# PCOD8075409 Si02
#       8
#     4   4   4   4   4   4   4   4
#     4   9  19  39  65  89 119 159 200 247 310 371
#     4  11  23  40  65  94 124 164 206 255 316 375
#     4  11  23  37  57  87 122 161 203 251 302 361
#     4  11  24  42  64  92 129 168 211 261 312 375
#     4  11  23  39  63  93 126 166 210 259 313 370
#     4  11  24  42  62  90 129 168 210 259 310 372
#     4  10  23  43  65  92 122 160 206 257 313 370
#     4  10  20  38  62  87 118 158 203 251 305 368
#
# _framework density 20.087264999999999
#
# number of rings (size 3 to 8) (size 9 to 14) (size 15 to 20)
#    0.000    1.500    1.250    3.375    1.750    8.500 
#    0.000    1.250    0.000    0.000    0.000    0.000 
#    0.000    0.000    0.000    0.000    0.000    0.000 
#
# Total GULP energy -396841.964241 kJ/mol
# GULP energy per Si atom -12401.311383 kJ/mol
# Density = 2.004155 g / cm^3
# Si number density = 20.087265 Si / 1000 Ang^3
#
#
#
# Elastic Constant Matrix: (Units=GPa)
#
#
# Indices 1 2 3 4 5 6 
#
# 1 169.2625 47.8182 75.0908 0.0000 -7.4902 0.0000
# 2 47.8182 76.5963 51.4802 0.0000 -0.5250 0.0000
# 3 75.0908 51.4802 126.8181 0.0000 0.9088 0.0000
# 4 0.0000 0.0000 0.0000 29.4782 0.0000 2.7487
# 5 -7.4902 -0.5250 0.9088 0.0000 42.3656 0.0000
# 6 0.0000 0.0000 0.0000 2.7487 0.0000 40.8947
#
#
#
# Elastic Compliance Matrix: (Units=1/GPa)
#
#
# Indices 1 2 3 4 5 6 
#
# 1 0.008476 -0.002613 -0.003969 0.000000 0.001551 0.000000
# 2 -0.002613 0.018766 -0.006070 0.000000 -0.000099 0.000000
# 3 -0.003969 -0.006070 0.012707 0.000000 -0.001049 0.000000
# 4 0.000000 0.000000 0.000000 0.034137 0.000000 -0.002295
# 5 0.001551 -0.000099 -0.001049 0.000000 0.023900 0.000000
# 6 0.000000 0.000000 0.000000 -0.002295 0.000000 0.024607
#
#
# Mechanical properties :
#
#
# Convention : Reuss Voigt Hill
#
# Bulk Modulus (GPa) = 68.28460 80.16169 74.22315
# Shear Modulus (GPa) = 32.72747 35.76687 34.24717
#
# Velocity S-wave (km/s) = 4.04079 4.22426 4.13355
# Velocity P-wave (km/s) = 7.47251 7.98661 7.73383
#
# Compressibility (1/GPa) = 0.01464459
#
# Stress axis : x y z
#
# Youngs Moduli (GPa) = 117.98595 53.28924 78.69835
#
# Poissons Ratio (x) = 0.13925 0.31234
# Poissons Ratio (y) = 0.30831 0.47767
# Poissons Ratio (z) = 0.46827 0.32345
#
# Static dielectric constant tensor:
#      x y z
#    x 4.074940 0.000000 -0.315330 
#    y 0.000000 3.631320 0.000000 
#    z -0.315330 0.000000 3.945020 
# 
# 
# High freq. dielectric constant tensor:
#      x y z
#    x 1.801850 0.000000 -0.000050 
#    y 0.000000 1.777610 0.000000 
#    z -0.000050 0.000000 1.795540 
# 
# From -- ./inp_files/54247.got.cif
#   From: 2010.06.25/outbox.cif.g09.slc.cpg/sg11_28_cif.got.tgz:54247.got - 2010.06.27 23:14:04.
