data_PCOD8075969
_publ_section_title
;
Structure prediction by ZEFSAII (Michael W. Deem and Ramdas Pophale) SiO2 
 PCOD8075969
Probable space group: P 21/M
;
_chemical_formula_sum "Si O2"
_cell_formula_units_Z 32
_cell_length_a 15.706694
_cell_length_b 8.758977
_cell_length_c 23.102130
_cell_angle_alpha 90.000000
_cell_angle_beta 29.617210
_cell_angle_gamma 90.000000
_cell_volume 1570.708461
_symmetry_space_group_name_H-M "P 21/M"
_symmetry_group_IT_number 11
_symmetry_cell_setting 'monoclinic'
loop_
_space_group_symop_operation_xyz
x,y,z
-x,1/2+y,-z
-x,-y,-z
x,1/2-y,z
loop_
_atom_site_type_symbol
_atom_site_label
_atom_site_fract_x
_atom_site_fract_y
_atom_site_fract_z
Si Si1 0.699720 0.930040 0.547977
Si Si2 0.016975 0.430260 0.426575
Si Si3 0.354308 0.927955 0.815292
Si Si4 0.515395 0.424582 0.552965
Si Si5 0.171031 0.073637 0.021394
Si Si6 0.306074 0.425688 0.063331
Si Si7 0.699541 0.427214 0.815936
Si Si8 0.162599 0.423456 0.829041
O O1 0.730304 0.750000 0.527833
O O2 0.545561 0.975883 0.682827
O O3 0.655767 0.988244 0.509430
O O4 0.870334 0.010188 0.470062
O O5 0.004260 0.250000 0.439577
O O6 0.200945 0.476587 0.291401
O O7 0.000000 0.500000 0.500000
O O8 0.326695 0.750000 0.821873
O O9 0.321325 0.976575 0.900885
O O10 0.207157 0.016293 0.866445
O O11 0.500000 0.500000 0.500000
O O12 0.575376 0.250000 0.511287
O O13 0.329546 0.437847 0.691085
O O14 0.206474 0.250000 0.987008
O O15 0.180714 0.040681 0.083926
O O16 0.981934 0.027821 0.113531
O O17 0.300472 0.250000 0.086607
O O18 0.238330 0.528164 0.156229
O O19 0.498805 0.469401 0.929466
O O20 0.737315 0.250000 0.782760
O O21 0.095800 0.250000 0.873081
#
# Coordination Sequence:
#
# PCOD8075969 Si02
#       8
#     4   4   4   4   4   4   4   4
#     4  10  22  41  62  89 120 156 202 251 306 368
#     4  12  26  43  65  93 126 163 206 256 310 370
#     4  10  21  37  58  83 116 153 192 239 293 350
#     4  10  21  38  61  87 118 160 202 248 300 359
#     4  11  22  35  56  85 116 152 196 241 290 348
#     4   9  21  40  61  88 119 159 201 245 303 361
#     4  10  21  41  65  89 120 157 199 251 305 359
#     4  10  21  37  55  80 114 152 194 237 290 346
#
# _framework density 20.372973000000002
#
# number of rings (size 3 to 8) (size 9 to 14) (size 15 to 20)
#    0.000    1.750    0.000    3.750    1.750    5.500 
#    0.000    2.500    0.000    0.000    0.000    0.000 
#    0.000    0.000    0.000    0.000    0.000    0.000 
#
# Total GULP energy -396947.788791 kJ/mol
# GULP energy per Si atom -12404.618400 kJ/mol
# Density = 2.032660 g / cm^3
# Si number density = 20.372973 Si / 1000 Ang^3
#
#
#
# Elastic Constant Matrix: (Units=GPa)
#
#
# Indices 1 2 3 4 5 6 
#
# 1 93.5193 39.0410 30.1599 0.0000 10.5092 0.0000
# 2 39.0410 101.9656 32.6296 0.0000 9.2746 0.0000
# 3 30.1599 32.6296 59.4786 0.0000 4.5800 0.0000
# 4 0.0000 0.0000 0.0000 34.2345 0.0000 2.7754
# 5 10.5092 9.2746 4.5800 0.0000 24.5877 0.0000
# 6 0.0000 0.0000 0.0000 2.7754 0.0000 38.7949
#
#
#
# Elastic Compliance Matrix: (Units=1/GPa)
#
#
# Indices 1 2 3 4 5 6 
#
# 1 0.014186 -0.003489 -0.004985 0.000000 -0.003819 0.000000
# 2 -0.003489 0.013027 -0.005188 0.000000 -0.002456 0.000000
# 3 -0.004985 -0.005188 0.022190 0.000000 -0.000046 0.000000
# 4 0.000000 0.000000 0.000000 0.029381 0.000000 -0.002102
# 5 -0.003819 -0.002456 -0.000046 0.000000 0.043238 0.000000
# 6 0.000000 0.000000 0.000000 -0.002102 0.000000 0.025927
#
#
# Mechanical properties :
#
#
# Convention : Reuss Voigt Hill
#
# Bulk Modulus (GPa) = 45.29287 50.95825 48.12556
# Shear Modulus (GPa) = 27.37720 29.73229 28.55474
#
# Velocity S-wave (km/s) = 3.66976 3.82435 3.74786
# Velocity P-wave (km/s) = 6.34321 6.67592 6.51169
#
# Compressibility (1/GPa) = 0.02207853
#
# Stress axis : x y z
#
# Youngs Moduli (GPa) = 70.48975 76.76517 45.06457
#
# Poissons Ratio (x) = 0.26784 0.22467
# Poissons Ratio (y) = 0.24594 0.23380
# Poissons Ratio (z) = 0.35142 0.39826
#
# Static dielectric constant tensor:
#      x y z
#    x 3.735240 0.000000 0.060600 
#    y 0.000000 3.818280 0.000000 
#    z 0.060600 0.000000 3.668630 
# 
# 
# High freq. dielectric constant tensor:
#      x y z
#    x 1.800370 0.000000 0.003990 
#    y 0.000000 1.807070 0.000000 
#    z 0.003990 0.000000 1.795340 
# 
# From -- ./inp_files/69007.got.cif
#   From: 2010.06.25/outbox.cif.g09.slc.cpg/sg11_35_cif.got.tgz:69007.got - 2010.06.27 23:14:04.
