data_PCOD8075169
_publ_section_title
;
Structure prediction by ZEFSAII (Michael W. Deem and Ramdas Pophale) SiO2 
 PCOD8075169
Probable space group: P 21/M
;
_chemical_formula_sum "Si O2"
_cell_formula_units_Z 28
_cell_length_a 9.478702
_cell_length_b 13.788026
_cell_length_c 11.499534
_cell_angle_alpha 90.000000
_cell_angle_beta 73.679017
_cell_angle_gamma 90.000000
_cell_volume 1442.340520
_symmetry_space_group_name_H-M "P 21/M"
_symmetry_group_IT_number 11
_symmetry_cell_setting 'monoclinic'
loop_
_space_group_symop_operation_xyz
x,y,z
-x,1/2+y,-z
-x,-y,-z
x,1/2-y,z
loop_
_atom_site_type_symbol
_atom_site_label
_atom_site_fract_x
_atom_site_fract_y
_atom_site_fract_z
Si Si1 0.749843 0.861215 0.824274
Si Si2 0.879449 0.861079 0.272705
Si Si3 0.400779 0.359429 0.505494
Si Si4 0.595300 0.048998 0.641543
Si Si5 0.163840 0.039621 0.955406
Si Si6 0.902811 0.483633 0.635648
Si Si7 0.463508 0.964496 0.882600
O O1 0.792880 0.750000 0.804054
O O2 0.573762 0.873174 0.838471
O O3 0.844808 0.915665 0.703544
O O4 0.795065 0.898712 0.940943
O O5 0.929833 0.750000 0.257441
O O6 0.752339 0.878484 0.395451
O O7 0.823868 0.891427 0.158942
O O8 0.016491 0.925820 0.280836
O O9 0.409496 0.250000 0.452838
O O10 0.418488 0.437726 0.400540
O O11 0.532286 0.372644 0.567237
O O12 0.505293 0.050294 0.782634
O O13 0.763170 0.079084 0.626047
O O14 0.285192 0.951210 0.913832
O O15 0.000000 0.000000 0.000000
O O16 0.000000 0.500000 0.500000
O O17 0.500000 0.000000 0.000000
#
# Coordination Sequence:
#
# PCOD8075169 Si02
#       7
#     4   4   4   4   4   4   4
#     4  10  22  40  63  90 122 165 208 248 303 364
#     4  11  22  38  61  88 117 158 203 247 300 361
#     4  10  21  37  61  87 112 151 198 245 296 354
#     4  10  20  37  61  82 118 152 194 240 295 354
#     4  11  20  39  67  86 121 158 197 255 312 355
#     4  11  22  38  60  87 124 162 195 248 303 358
#     4   9  20  37  60  86 114 157 199 240 300 357
#
# _framework density 19.412891999999999
#
# number of rings (size 3 to 8) (size 9 to 14) (size 15 to 20)
#    0.000    1.714    4.286    0.429    0.000    3.429 
#    0.000    1.429    0.000    0.000    0.000    0.000 
#    0.000    0.000    0.000    0.000    0.000    0.000 
#
# Total GULP energy -346980.399767 kJ/mol
# GULP energy per Si atom -12392.157135 kJ/mol
# Density = 1.936871 g / cm^3
# Si number density = 19.412892 Si / 1000 Ang^3
#
#
#
# Elastic Constant Matrix: (Units=GPa)
#
#
# Indices 1 2 3 4 5 6 
#
# 1 153.7052 39.6516 31.7646 0.0000 -10.2554 0.0000
# 2 39.6516 90.4701 22.3674 0.0000 -8.6351 0.0000
# 3 31.7646 22.3674 96.3200 0.0000 0.8418 0.0000
# 4 0.0000 0.0000 0.0000 19.5104 0.0000 -0.6995
# 5 -10.2554 -8.6351 0.8418 0.0000 32.1665 0.0000
# 6 0.0000 0.0000 0.0000 -0.6995 0.0000 21.1358
#
#
#
# Elastic Compliance Matrix: (Units=1/GPa)
#
#
# Indices 1 2 3 4 5 6 
#
# 1 0.007730 -0.002742 -0.001928 0.000000 0.001779 0.000000
# 2 -0.002742 0.013042 -0.002148 0.000000 0.002683 0.000000
# 3 -0.001928 -0.002148 0.011530 0.000000 -0.001493 0.000000
# 4 0.000000 0.000000 0.000000 0.051316 0.000000 0.001698
# 5 0.001779 0.002683 -0.001493 0.000000 0.032415 0.000000
# 6 0.000000 0.000000 0.000000 0.001698 0.000000 0.047369
#
#
# Mechanical properties :
#
#
# Convention : Reuss Voigt Hill
#
# Bulk Modulus (GPa) = 53.57115 58.67360 56.12237
# Shear Modulus (GPa) = 27.28367 31.00999 29.14683
#
# Velocity S-wave (km/s) = 3.75299 4.00107 3.87901
# Velocity P-wave (km/s) = 6.81436 7.18571 7.00250
#
# Compressibility (1/GPa) = 0.01866676
#
# Stress axis : x y z
#
# Youngs Moduli (GPa) = 129.35937 76.67460 86.73166
#
# Poissons Ratio (x) = 0.21021 0.16724
# Poissons Ratio (y) = 0.35465 0.18630
# Poissons Ratio (z) = 0.24944 0.16470
#
# Static dielectric constant tensor:
#      x y z
#    x 4.035940 0.000000 0.027190 
#    y 0.000000 3.268770 0.000000 
#    z 0.027190 0.000000 3.745800 
# 
# 
# High freq. dielectric constant tensor:
#      x y z
#    x 1.774050 0.000000 0.009510 
#    y 0.000000 1.715500 0.000000 
#    z 0.009510 0.000000 1.777570 
# 
# From -- ./inp_files/17712.got.cif
#   From: 2010.06.25/outbox.cif.g09.slc.cpg/sg11_9_cif.got.tgz:17712.got - 2010.06.27 23:14:04.
