data_PCOD8075475
_publ_section_title
;
Structure prediction by ZEFSAII (Michael W. Deem and Ramdas Pophale) SiO2 
 PCOD8075475
Probable space group: P 21/M
;
_chemical_formula_sum "Si O2"
_cell_formula_units_Z 32
_cell_length_a 13.079461
_cell_length_b 8.953500
_cell_length_c 14.000724
_cell_angle_alpha 90.000000
_cell_angle_beta 93.714335
_cell_angle_gamma 90.000000
_cell_volume 1636.138104
_symmetry_space_group_name_H-M "P 21/M"
_symmetry_group_IT_number 11
_symmetry_cell_setting 'monoclinic'
loop_
_space_group_symop_operation_xyz
x,y,z
-x,1/2+y,-z
-x,-y,-z
x,1/2-y,z
loop_
_atom_site_type_symbol
_atom_site_label
_atom_site_fract_x
_atom_site_fract_y
_atom_site_fract_z
Si Si1 0.401856 0.426888 0.946051
Si Si2 0.009125 0.921701 0.704544
Si Si3 0.627546 0.078589 0.716306
Si Si4 0.055768 0.422742 0.090603
Si Si5 0.264429 0.577822 0.082688
Si Si6 0.786029 0.425793 0.384689
Si Si7 0.596040 0.572830 0.273091
Si Si8 0.187416 0.573211 0.395622
O O1 0.410182 0.250000 0.958160
O O2 0.391672 0.476282 0.835878
O O3 0.500000 0.500000 0.000000
O O4 0.300431 0.488590 0.991596
O O5 0.993197 0.750000 0.674277
O O6 0.012819 0.941446 0.818929
O O7 0.116821 0.982187 0.670581
O O8 0.917622 0.012928 0.652714
O O9 0.624743 0.250000 0.685797
O O10 0.650803 0.062682 0.830004
O O11 0.513708 0.011274 0.693968
O O12 0.715227 0.002300 0.655937
O O13 0.075412 0.250000 0.067648
O O14 0.161893 0.505128 0.117216
O O15 0.000000 0.500000 0.000000
O O16 0.244525 0.750000 0.054199
O O17 0.771215 0.250000 0.373941
O O18 0.683967 0.502905 0.341902
O O19 0.803302 0.475518 0.494419
O O20 0.601002 0.750000 0.281735
O O21 0.184466 0.750000 0.382461
#
# Coordination Sequence:
#
# PCOD8075475 Si02
#       8
#     4   4   4   4   4   4   4   4
#     4  11  22  37  58  87 118 156 201 242 288 351
#     4  10  22  40  60  86 121 153 192 247 297 348
#     4   9  18  36  60  86 117 152 193 241 293 348
#     4  11  24  40  58  87 122 158 199 245 298 359
#     4  11  21  38  61  85 118 158 195 247 305 354
#     4  10  23  40  58  87 121 154 194 244 300 351
#     4  10  22  40  58  83 119 158 197 239 292 353
#     4  10  20  38  65  89 113 151 198 244 296 359
#
# _framework density 19.558250999999998
#
# number of rings (size 3 to 8) (size 9 to 14) (size 15 to 20)
#    0.000    1.750    2.500    1.500    1.750    3.000 
#    0.000    0.625    0.000    0.000    0.000    0.000 
#    0.000    0.000    0.000    0.000    0.000    0.000 
#
# Total GULP energy -396852.589742 kJ/mol
# GULP energy per Si atom -12401.643429 kJ/mol
# Density = 1.951374 g / cm^3
# Si number density = 19.558251 Si / 1000 Ang^3
#
#
#
# Elastic Constant Matrix: (Units=GPa)
#
#
# Indices 1 2 3 4 5 6 
#
# 1 145.8572 32.6497 53.8250 0.0000 -2.9800 0.0000
# 2 32.6497 59.1805 36.8822 0.0000 3.5988 0.0000
# 3 53.8250 36.8822 101.3694 0.0000 1.3476 0.0000
# 4 0.0000 0.0000 0.0000 26.3833 0.0000 4.6461
# 5 -2.9800 3.5988 1.3476 0.0000 35.9136 0.0000
# 6 0.0000 0.0000 0.0000 4.6461 0.0000 36.2368
#
#
#
# Elastic Compliance Matrix: (Units=1/GPa)
#
#
# Indices 1 2 3 4 5 6 
#
# 1 0.008853 -0.002605 -0.003768 0.000000 0.001137 0.000000
# 2 -0.002605 0.022748 -0.006864 0.000000 -0.002238 0.000000
# 3 -0.003768 -0.006864 0.014365 0.000000 -0.000164 0.000000
# 4 0.000000 0.000000 0.000000 0.038778 0.000000 -0.004972
# 5 0.001137 -0.002238 -0.000164 0.000000 0.028169 0.000000
# 6 0.000000 0.000000 0.000000 -0.004972 0.000000 0.028234
#
#
# Mechanical properties :
#
#
# Convention : Reuss Voigt Hill
#
# Bulk Modulus (GPa) = 51.30101 61.45788 56.37945
# Shear Modulus (GPa) = 28.71599 31.91008 30.31303
#
# Velocity S-wave (km/s) = 3.83590 4.04362 3.94113
# Velocity P-wave (km/s) = 6.77537 7.30016 7.04266
#
# Compressibility (1/GPa) = 0.01949279
#
# Stress axis : x y z
#
# Youngs Moduli (GPa) = 112.95797 43.95924 69.61293
#
# Poissons Ratio (x) = 0.11451 0.26230
# Poissons Ratio (y) = 0.29425 0.47781
# Poissons Ratio (z) = 0.42563 0.30173
#
# Static dielectric constant tensor:
#      x y z
#    x 3.753270 0.000000 -0.241010 
#    y 0.000000 3.450750 0.000000 
#    z -0.241010 0.000000 3.696780 
# 
# 
# High freq. dielectric constant tensor:
#      x y z
#    x 1.775880 0.000000 -0.010090 
#    y 0.000000 1.745910 0.000000 
#    z -0.010090 0.000000 1.767310 
# 
# From -- ./inp_files/49341.got.cif
#   From: 2010.06.25/outbox.cif.g09.slc.cpg/sg11_25_cif.got.tgz:49341.got - 2010.06.27 23:14:04.
