data_PCOD8075904
_publ_section_title
;
Structure prediction by ZEFSAII (Michael W. Deem and Ramdas Pophale) SiO2 
 PCOD8075904
Probable space group: P 21/M
;
_chemical_formula_sum "Si O2"
_cell_formula_units_Z 32
_cell_length_a 9.327301
_cell_length_b 14.409714
_cell_length_c 11.269812
_cell_angle_alpha 90.000000
_cell_angle_beta 91.001008
_cell_angle_gamma 90.000000
_cell_volume 1514.473717
_symmetry_space_group_name_H-M "P 21/M"
_symmetry_group_IT_number 11
_symmetry_cell_setting 'monoclinic'
loop_
_space_group_symop_operation_xyz
x,y,z
-x,1/2+y,-z
-x,-y,-z
x,1/2-y,z
loop_
_atom_site_type_symbol
_atom_site_label
_atom_site_fract_x
_atom_site_fract_y
_atom_site_fract_z
Si Si1 0.201648 0.476046 0.160008
Si Si2 0.591190 0.142227 0.796104
Si Si3 0.948238 0.853503 0.402276
Si Si4 0.820546 0.142006 0.425737
Si Si5 0.736248 0.643991 0.610396
Si Si6 0.531430 0.140875 0.532316
Si Si7 0.883231 0.492085 0.221651
Si Si8 0.634319 0.946776 0.056359
O O1 0.278396 0.577633 0.154567
O O2 0.240305 0.420715 0.277767
O O3 0.029555 0.488505 0.146375
O O4 0.262897 0.414338 0.050734
O O5 0.641524 0.250000 0.798727
O O6 0.556124 0.102959 0.664658
O O7 0.442283 0.134767 0.869428
O O8 0.946565 0.750000 0.349680
O O9 0.872264 0.858616 0.528171
O O10 0.880412 0.914805 0.299358
O O11 0.106532 0.886711 0.446108
O O12 0.846652 0.250000 0.404732
O O13 0.656367 0.115168 0.442108
O O14 0.882418 0.094416 0.309916
O O15 0.702103 0.750000 0.650337
O O16 0.609117 0.598289 0.530348
O O17 0.510919 0.250000 0.545603
O O18 0.739856 0.490401 0.139868
O O19 0.500000 0.000000 0.000000
#
# Coordination Sequence:
#
# PCOD8075904 Si02
#       8
#     4   4   4   4   4   4   4   4
#     4  11  24  40  64  91 123 165 216 261 315 366
#     4  10  22  43  65  90 126 164 209 265 319 377
#     4  10  21  38  60  93 131 163 205 255 315 389
#     4  10  21  36  58  95 134 163 199 250 319 393
#     4  10  21  37  58  90 128 163 204 257 313 377
#     4   9  19  34  57  89 123 159 202 251 309 375
#     4  12  23  39  66  91 128 170 210 257 321 374
#     4  10  25  45  61  87 119 165 220 271 306 361
#
# _framework density 21.129453000000002
#
# number of rings (size 3 to 8) (size 9 to 14) (size 15 to 20)
#    0.000    1.750    1.250    2.250    5.250    4.000 
#    0.000    2.500    0.000    4.500    0.000    0.000 
#    0.000    0.000    0.000    0.000    0.000    0.000 
#
# Total GULP energy -396589.190459 kJ/mol
# GULP energy per Si atom -12393.412202 kJ/mol
# Density = 2.108136 g / cm^3
# Si number density = 21.129453 Si / 1000 Ang^3
#
#
#
# Elastic Constant Matrix: (Units=GPa)
#
#
# Indices 1 2 3 4 5 6 
#
# 1 104.1330 33.7397 41.0241 0.0000 8.6313 0.0000
# 2 33.7397 51.5917 22.6476 0.0000 7.2478 0.0000
# 3 41.0241 22.6476 87.5885 0.0000 -0.3824 0.0000
# 4 0.0000 0.0000 0.0000 2.7147 0.0000 -3.7881
# 5 8.6313 7.2478 -0.3824 0.0000 36.2390 0.0000
# 6 0.0000 0.0000 0.0000 -3.7881 0.0000 24.2727
#
#
#
# Elastic Compliance Matrix: (Units=1/GPa)
#
#
# Indices 1 2 3 4 5 6 
#
# 1 0.013797 -0.006656 -0.004750 0.000000 -0.002005 0.000000
# 2 -0.006656 0.025812 -0.003572 0.000000 -0.003615 0.000000
# 3 -0.004750 -0.003572 0.014574 0.000000 0.002000 0.000000
# 4 0.000000 0.000000 0.000000 0.470921 0.000000 0.073495
# 5 -0.002005 -0.003615 0.002000 0.000000 0.028816 0.000000
# 6 0.000000 0.000000 0.000000 0.073495 0.000000 0.052668
#
#
# Mechanical properties :
#
#
# Convention : Reuss Voigt Hill
#
# Bulk Modulus (GPa) = 41.27732 48.68176 44.97954
# Shear Modulus (GPa) = 7.75649 22.37207 15.06428
#
# Velocity S-wave (km/s) = 1.91805 3.25747 2.67301
# Velocity P-wave (km/s) = 4.94804 6.10229 5.55522
#
# Compressibility (1/GPa) = 0.02422638
#
# Stress axis : x y z
#
# Youngs Moduli (GPa) = 72.47837 38.74177 68.61452
#
# Poissons Ratio (x) = 0.25787 0.32591
# Poissons Ratio (y) = 0.48243 0.24511
# Poissons Ratio (z) = 0.34427 0.13840
#
# Static dielectric constant tensor:
#      x y z
#    x 4.154190 0.000000 -0.114340 
#    y 0.000000 3.640450 0.000000 
#    z -0.114340 0.000000 3.895780 
# 
# 
# High freq. dielectric constant tensor:
#      x y z
#    x 1.848040 0.000000 -0.004480 
#    y 0.000000 1.809940 0.000000 
#    z -0.004480 0.000000 1.822040 
# 
# From -- ./inp_files/18081.got.cif
#   From: 2010.06.25/outbox.cif.g09.slc.cpg/sg11_10_cif.got.tgz:18081.got - 2010.06.27 23:14:04.
