data_PCOD8075325
_publ_section_title
;
Structure prediction by ZEFSAII (Michael W. Deem and Ramdas Pophale) SiO2 
 PCOD8075325
Probable space group: P 21/M
;
_chemical_formula_sum "Si O2"
_cell_formula_units_Z 32
_cell_length_a 12.130635
_cell_length_b 8.856331
_cell_length_c 31.654369
_cell_angle_alpha 90.000000
_cell_angle_beta 28.587341
_cell_angle_gamma 90.000000
_cell_volume 1627.237855
_symmetry_space_group_name_H-M "P 21/M"
_symmetry_group_IT_number 11
_symmetry_cell_setting 'monoclinic'
loop_
_space_group_symop_operation_xyz
x,y,z
-x,1/2+y,-z
-x,-y,-z
x,1/2-y,z
loop_
_atom_site_type_symbol
_atom_site_label
_atom_site_fract_x
_atom_site_fract_y
_atom_site_fract_z
Si Si1 0.290707 0.574540 0.013632
Si Si2 0.461885 0.070893 0.257238
Si Si3 0.034804 0.071694 0.348273
Si Si4 0.888256 0.922981 0.314448
Si Si5 0.391326 0.571678 0.452821
Si Si6 0.955582 0.070793 0.060309
Si Si7 0.246035 0.576977 0.124096
Si Si8 0.748622 0.928876 0.584311
O O1 0.265474 0.750000 0.010579
O O2 0.194036 0.536576 0.092853
O O3 0.154193 0.477075 0.025607
O O4 0.558671 0.529553 0.921816
O O5 0.463946 0.250000 0.255107
O O6 0.271588 0.008006 0.288328
O O7 0.711832 0.008174 0.160029
O O8 0.393714 0.015298 0.326916
O O9 0.032813 0.250000 0.350227
O O10 0.820248 0.011252 0.447956
O O11 0.016090 0.020074 0.306588
O O12 0.906678 0.750000 0.322237
O O13 0.623496 0.972570 0.399336
O O14 0.010968 0.951398 0.228382
O O15 0.377033 0.750000 0.448719
O O16 0.394013 0.484574 0.407807
O O17 0.953941 0.250000 0.056463
O O18 0.000000 0.000000 0.000000
O O19 0.330924 0.750000 0.099039
O O20 0.776492 0.750000 0.574760
O O21 0.000000 0.000000 0.500000
#
# Coordination Sequence:
#
# PCOD8075325 Si02
#       8
#     4   4   4   4   4   4   4   4
#     4  10  21  39  62  87 116 151 194 239 295 355
#     4   9  21  40  60  85 119 156 193 239 295 353
#     4  10  20  38  59  81 116 158 195 234 287 348
#     4  10  22  37  57  87 118 150 194 245 291 337
#     4  10  21  38  59  84 121 157 189 239 293 340
#     4  11  24  42  63  89 122 156 196 246 299 355
#     4   9  20  39  60  85 117 152 192 242 296 349
#     4  11  21  38  62  89 119 155 198 241 290 350
#
# _framework density 19.665226000000001
#
# number of rings (size 3 to 8) (size 9 to 14) (size 15 to 20)
#    0.000    2.000    1.250    1.500    3.500    2.000 
#    0.000    2.500    0.000    0.000    0.000    0.000 
#    0.000    0.000    0.000    0.000    0.000    0.000 
#
# Total GULP energy -396901.498829 kJ/mol
# GULP energy per Si atom -12403.171838 kJ/mol
# Density = 1.962047 g / cm^3
# Si number density = 19.665226 Si / 1000 Ang^3
#
#
#
# Elastic Constant Matrix: (Units=GPa)
#
#
# Indices 1 2 3 4 5 6 
#
# 1 124.2777 31.3077 40.7182 0.0000 7.9788 0.0000
# 2 31.3077 47.4322 28.3214 0.0000 2.7624 0.0000
# 3 40.7182 28.3214 108.9673 0.0000 6.9131 0.0000
# 4 0.0000 0.0000 0.0000 23.7420 0.0000 4.0390
# 5 7.9788 2.7624 6.9131 0.0000 28.9017 0.0000
# 6 0.0000 0.0000 0.0000 4.0390 0.0000 35.4581
#
#
#
# Elastic Compliance Matrix: (Units=1/GPa)
#
#
# Indices 1 2 3 4 5 6 
#
# 1 0.010256 -0.005262 -0.002353 0.000000 -0.001766 0.000000
# 2 -0.005262 0.027676 -0.005231 0.000000 0.000059 0.000000
# 3 -0.002353 -0.005231 0.011518 0.000000 -0.001605 0.000000
# 4 0.000000 0.000000 0.000000 0.042952 0.000000 -0.004893
# 5 -0.001766 0.000059 -0.001605 0.000000 0.035466 0.000000
# 6 0.000000 0.000000 0.000000 -0.004893 0.000000 0.028760
#
#
# Mechanical properties :
#
#
# Convention : Reuss Voigt Hill
#
# Bulk Modulus (GPa) = 42.08985 53.48578 47.78781
# Shear Modulus (GPa) = 26.28297 29.64236 27.96267
#
# Velocity S-wave (km/s) = 3.65981 3.88667 3.77495
# Velocity P-wave (km/s) = 6.26966 6.88468 6.58435
#
# Compressibility (1/GPa) = 0.02375870
#
# Stress axis : x y z
#
# Youngs Moduli (GPa) = 97.50071 36.13292 86.82376
#
# Poissons Ratio (x) = 0.19013 0.20429
# Poissons Ratio (y) = 0.51305 0.45414
# Poissons Ratio (z) = 0.22941 0.18900
#
# Static dielectric constant tensor:
#      x y z
#    x 3.649420 0.000000 0.012410 
#    y 0.000000 3.461900 0.000000 
#    z 0.012410 0.000000 3.791990 
# 
# 
# High freq. dielectric constant tensor:
#      x y z
#    x 1.775460 0.000000 0.002170 
#    y 0.000000 1.750690 0.000000 
#    z 0.002170 0.000000 1.774700 
# 
# From -- ./inp_files/49406.got.cif
#   From: 2010.06.25/outbox.cif.g09.slc.cpg/sg11_25_cif.got.tgz:49406.got - 2010.06.27 23:14:04.
