data_PCOD8075261
_publ_section_title
;
Structure prediction by ZEFSAII (Michael W. Deem and Ramdas Pophale) SiO2 
 PCOD8075261
Probable space group: P 21/M
;
_chemical_formula_sum "Si O2"
_cell_formula_units_Z 32
_cell_length_a 11.782878
_cell_length_b 17.938004
_cell_length_c 14.067300
_cell_angle_alpha 90.000000
_cell_angle_beta 32.703068
_cell_angle_gamma 90.000000
_cell_volume 1606.421332
_symmetry_space_group_name_H-M "P 21/M"
_symmetry_group_IT_number 11
_symmetry_cell_setting 'monoclinic'
loop_
_space_group_symop_operation_xyz
x,y,z
-x,1/2+y,-z
-x,-y,-z
x,1/2-y,z
loop_
_atom_site_type_symbol
_atom_site_label
_atom_site_fract_x
_atom_site_fract_y
_atom_site_fract_z
Si Si1 0.639518 0.665208 0.409450
Si Si2 0.228731 0.835818 0.803573
Si Si3 0.081239 0.905003 0.097164
Si Si4 0.514248 0.835367 0.285998
Si Si5 0.768273 0.924140 0.803434
Si Si6 0.112374 0.423459 0.069699
Si Si7 0.292235 0.904356 0.148088
Si Si8 0.103940 0.664261 0.462415
O O1 0.722428 0.750000 0.357334
O O2 0.473504 0.647857 0.610082
O O3 0.520437 0.651658 0.394133
O O4 0.834083 0.609944 0.283810
O O5 0.173888 0.750000 0.821017
O O6 0.090383 0.885263 0.831166
O O7 0.180704 0.852707 0.946737
O O8 0.198659 0.886307 0.111436
O O9 0.111840 0.989756 0.043383
O O10 0.569861 0.750000 0.220306
O O11 0.284368 0.856880 0.410751
O O12 0.677349 0.889400 0.120990
O O13 0.892071 0.912311 0.814349
O O14 0.898761 0.884913 0.628061
O O15 0.747229 0.010812 0.792138
O O16 0.539552 0.886714 0.971420
O O17 0.181841 0.850404 0.300916
O O18 0.038922 0.750000 0.517703
#
# Coordination Sequence:
#
# PCOD8075261 Si02
#       8
#     4   4   4   4   4   4   4   4
#     4  10  22  40  60  85 119 159 198 244 307 360
#     4  11  23  40  63  88 120 162 201 245 305 363
#     4  11  24  40  59  89 123 159 204 248 291 357
#     4  10  20  37  62  90 122 155 191 250 312 356
#     4  10  22  42  65  88 121 160 202 251 306 358
#     4  11  21  39  64  93 119 155 203 252 305 357
#     4  10  23  43  61  86 123 165 203 245 299 360
#     4  11  23  39  64  96 122 153 202 255 306 361
#
# _framework density 19.920054
#
# number of rings (size 3 to 8) (size 9 to 14) (size 15 to 20)
#    0.000    1.500    2.500    2.250    0.000    5.000 
#    4.500    1.250    0.000    0.000    0.000    0.000 
#    0.000    0.000    0.000    0.000    0.000    0.000 
#
# Total GULP energy -396992.902043 kJ/mol
# GULP energy per Si atom -12406.028189 kJ/mol
# Density = 1.987472 g / cm^3
# Si number density = 19.920054 Si / 1000 Ang^3
#
#
#
# Elastic Constant Matrix: (Units=GPa)
#
#
# Indices 1 2 3 4 5 6 
#
# 1 85.6095 31.0493 30.9464 0.0000 -5.6033 0.0000
# 2 31.0493 58.9294 46.1337 0.0000 -12.8427 0.0000
# 3 30.9464 46.1337 128.0791 0.0000 -7.0757 0.0000
# 4 0.0000 0.0000 0.0000 30.0084 0.0000 -3.6972
# 5 -5.6033 -12.8427 -7.0757 0.0000 18.7102 0.0000
# 6 0.0000 0.0000 0.0000 -3.6972 0.0000 26.6065
#
#
#
# Elastic Compliance Matrix: (Units=1/GPa)
#
#
# Indices 1 2 3 4 5 6 
#
# 1 0.014553 -0.007058 -0.001022 0.000000 -0.000873 0.000000
# 2 -0.007058 0.030799 -0.008515 0.000000 0.015807 0.000000
# 3 -0.001022 -0.008515 0.011012 0.000000 -0.001987 0.000000
# 4 0.000000 0.000000 0.000000 0.033904 0.000000 0.004711
# 5 -0.000873 0.015807 -0.001987 0.000000 0.063284 0.000000
# 6 0.000000 0.000000 0.000000 0.004711 0.000000 0.038239
#
#
# Mechanical properties :
#
#
# Convention : Reuss Voigt Hill
#
# Bulk Modulus (GPa) = 43.15219 54.31963 48.73591
# Shear Modulus (GPa) = 21.48621 26.03093 23.75857
#
# Velocity S-wave (km/s) = 3.28780 3.61885 3.45729
# Velocity P-wave (km/s) = 6.01020 6.69249 6.36050
#
# Compressibility (1/GPa) = 0.02317380
#
# Stress axis : x y z
#
# Youngs Moduli (GPa) = 68.71376 32.46836 90.80901
#
# Poissons Ratio (x) = 0.22915 0.09284
# Poissons Ratio (y) = 0.48496 0.77326
# Poissons Ratio (z) = 0.07025 0.27648
#
# Static dielectric constant tensor:
#      x y z
#    x 3.667320 0.000000 -0.013330 
#    y 0.000000 3.668230 0.000000 
#    z -0.013330 0.000000 3.593100 
# 
# 
# High freq. dielectric constant tensor:
#      x y z
#    x 1.778900 0.000000 0.000460 
#    y 0.000000 1.777170 0.000000 
#    z 0.000460 0.000000 1.784080 
# 
# From -- ./inp_files/50686.got.cif
#   From: 2010.06.25/outbox.cif.g09.slc.cpg/sg11_26_cif.got.tgz:50686.got - 2010.06.27 23:14:04.
