data_PCOD8075939
_publ_section_title
;
Structure prediction by ZEFSAII (Michael W. Deem and Ramdas Pophale) SiO2 
 PCOD8075939
Probable space group: P 21/M
;
_chemical_formula_sum "Si O2"
_cell_formula_units_Z 32
_cell_length_a 21.438081
_cell_length_b 9.209761
_cell_length_c 11.435815
_cell_angle_alpha 90.000000
_cell_angle_beta 129.442820
_cell_angle_gamma 90.000000
_cell_volume 1743.670268
_symmetry_space_group_name_H-M "P 21/M"
_symmetry_group_IT_number 11
_symmetry_cell_setting 'monoclinic'
loop_
_space_group_symop_operation_xyz
x,y,z
-x,1/2+y,-z
-x,-y,-z
x,1/2-y,z
loop_
_atom_site_type_symbol
_atom_site_label
_atom_site_fract_x
_atom_site_fract_y
_atom_site_fract_z
Si Si1 0.308379 0.413369 0.286442
Si Si2 0.106131 0.910342 0.540850
Si Si3 0.584337 0.076653 0.127421
Si Si4 0.533740 0.582834 0.650480
Si Si5 0.409612 0.423053 0.634721
Si Si6 0.969575 0.089850 0.293715
Si Si7 0.195681 0.922093 0.999899
Si Si8 0.736330 0.421295 0.160990
O O1 0.277724 0.250000 0.266888
O O2 0.369777 0.422888 0.248968
O O3 0.350108 0.464632 0.457128
O O4 0.231577 0.511614 0.162310
O O5 0.114910 0.750000 0.497677
O O6 0.061565 0.903997 0.611525
O O7 0.194752 0.982925 0.667485
O O8 0.052015 0.998173 0.383161
O O9 0.573232 0.250000 0.130111
O O10 0.646562 0.039384 0.097028
O O11 0.623200 0.001972 0.288611
O O12 0.500000 0.000000 0.000000
O O13 0.500000 0.500000 0.500000
O O14 0.503593 0.750000 0.618517
O O15 0.499072 0.493504 0.720052
O O16 0.418806 0.250000 0.661757
O O17 0.991854 0.250000 0.275992
O O18 0.897338 0.026026 0.126518
O O19 0.200203 0.750000 0.014455
O O20 0.248505 0.979873 0.952066
O O21 0.751012 0.250000 0.176787
#
# Coordination Sequence:
#
# PCOD8075939 Si02
#       8
#     4   4   4   4   4   4   4   4
#     4   9  19  32  47  70  97 122 155 201 244 287
#     4   8  13  25  45  64  89 125 161 188 225 283
#     4  11  23  38  54  72  97 128 167 209 249 290
#     4   9  17  30  47  69  93 119 155 200 246 291
#     4  10  21  37  52  68  93 126 165 208 252 292
#     4   8  14  24  39  66  99 125 152 187 229 280
#     4   9  17  29  47  71 101 133 159 187 236 297
#     4   8  17  33  49  69  96 129 163 198 239 288
#
# _framework density 18.352094000000001
#
# number of rings (size 3 to 8) (size 9 to 14) (size 15 to 20)
#    0.000    3.000    0.000    3.375    1.750    3.500 
#    0.000    3.750    0.000    0.000    0.000    0.875 
#    0.000    0.000    0.000    0.000    0.000    0.000 
#
# Total GULP energy -396445.857629 kJ/mol
# GULP energy per Si atom -12388.933051 kJ/mol
# Density = 1.831032 g / cm^3
# Si number density = 18.352094 Si / 1000 Ang^3
#
#
#
# Elastic Constant Matrix: (Units=GPa)
#
#
# Indices 1 2 3 4 5 6 
#
# 1 36.1280 18.0277 27.6579 0.0000 11.1200 0.0000
# 2 18.0277 72.5864 42.5551 0.0000 10.5129 0.0000
# 3 27.6579 42.5551 114.8964 0.0000 20.3719 0.0000
# 4 0.0000 0.0000 0.0000 32.7167 0.0000 3.8990
# 5 11.1200 10.5129 20.3719 0.0000 24.8523 0.0000
# 6 0.0000 0.0000 0.0000 3.8990 0.0000 20.3884
#
#
#
# Elastic Compliance Matrix: (Units=1/GPa)
#
#
# Indices 1 2 3 4 5 6 
#
# 1 0.037309 -0.004574 -0.005464 0.000000 -0.010280 0.000000
# 2 -0.004574 0.018288 -0.005457 0.000000 -0.001217 0.000000
# 3 -0.005464 -0.005457 0.013101 0.000000 -0.005986 0.000000
# 4 0.000000 0.000000 0.000000 0.031278 0.000000 -0.005982
# 5 -0.010280 -0.001217 -0.005986 0.000000 0.050259 0.000000
# 6 0.000000 0.000000 0.000000 -0.005982 0.000000 0.050191
#
#
# Mechanical properties :
#
#
# Convention : Reuss Voigt Hill
#
# Bulk Modulus (GPa) = 26.51920 44.45471 35.48696
# Shear Modulus (GPa) = 20.49298 24.61614 22.55456
#
# Velocity S-wave (km/s) = 3.34527 3.66639 3.50950
# Velocity P-wave (km/s) = 5.42242 6.49608 5.98338
#
# Compressibility (1/GPa) = 0.03770852
#
# Stress axis : x y z
#
# Youngs Moduli (GPa) = 26.80323 54.68080 76.32813
#
# Poissons Ratio (x) = 0.25009 0.41708
# Poissons Ratio (y) = 0.12259 0.41650
# Poissons Ratio (z) = 0.14646 0.29838
#
# Static dielectric constant tensor:
#      x y z
#    x 3.241260 0.000000 0.193510 
#    y 0.000000 3.419810 0.000000 
#    z 0.193510 0.000000 3.375410 
# 
# 
# High freq. dielectric constant tensor:
#      x y z
#    x 1.668550 0.000000 0.019070 
#    y 0.000000 1.702180 0.000000 
#    z 0.019070 0.000000 1.707810 
# 
# From -- ./inp_files/43824.got.cif
#   From: 2010.06.25/outbox.cif.g09.slc.cpg/sg11_22_cif.got.tgz:43824.got - 2010.06.27 23:14:04.
