data_PCOD8075922
_publ_section_title
;
Structure prediction by ZEFSAII (Michael W. Deem and Ramdas Pophale) SiO2 
 PCOD8075922
Probable space group: P 21/M
;
_chemical_formula_sum "Si O2"
_cell_formula_units_Z 32
_cell_length_a 23.827656
_cell_length_b 8.613736
_cell_length_c 14.200638
_cell_angle_alpha 90.000000
_cell_angle_beta 33.153648
_cell_angle_gamma 90.000000
_cell_volume 1593.960759
_symmetry_space_group_name_H-M "P 21/M"
_symmetry_group_IT_number 11
_symmetry_cell_setting 'monoclinic'
loop_
_space_group_symop_operation_xyz
x,y,z
-x,1/2+y,-z
-x,-y,-z
x,1/2-y,z
loop_
_atom_site_type_symbol
_atom_site_label
_atom_site_fract_x
_atom_site_fract_y
_atom_site_fract_z
Si Si1 0.176218 0.934281 0.647909
Si Si2 0.941190 0.432257 0.670793
Si Si3 0.612185 0.933124 0.329722
Si Si4 0.282044 0.430405 0.014007
Si Si5 0.019008 0.433730 0.189761
Si Si6 0.411672 0.929174 0.995230
Si Si7 0.206227 0.566256 0.816928
Si Si8 0.623462 0.431236 0.741025
O O1 0.175229 0.750000 0.647788
O O2 0.183092 0.996060 0.744668
O O3 0.273165 0.994211 0.452218
O O4 0.072114 0.000085 0.747866
O O5 0.954734 0.250000 0.652827
O O6 0.821389 0.471642 0.835927
O O7 0.996790 0.501954 0.683869
O O8 0.000000 0.500000 0.500000
O O9 0.611906 0.750000 0.345865
O O10 0.500000 0.000000 0.500000
O O11 0.680282 0.013773 0.314409
O O12 0.654308 0.978595 0.167761
O O13 0.252445 0.250000 0.053042
O O14 0.350519 0.464545 0.008708
O O15 0.016774 0.250000 0.196754
O O16 0.128026 0.488098 0.998501
O O17 0.398508 0.750000 0.985437
O O18 0.366580 0.963243 0.161962
O O19 0.531190 0.972844 0.824560
O O20 0.195637 0.750000 0.838317
O O21 0.603965 0.250000 0.748225
#
# Coordination Sequence:
#
# PCOD8075922 Si02
#       8
#     4   4   4   4   4   4   4   4
#     4   9  21  38  62  90 119 161 208 254 309 368
#     4  12  26  44  67  96 129 167 211 261 315 379
#     4  11  25  43  65  92 127 168 210 262 320 379
#     4  11  24  43  66  93 127 168 209 257 318 380
#     4  11  22  41  65  91 125 164 207 258 314 370
#     4  10  21  36  60  90 122 161 204 253 308 365
#     4  11  22  40  64  91 124 164 209 256 312 374
#     4   9  19  39  60  85 121 162 203 252 308 366
#
# _framework density 20.075775
#
# number of rings (size 3 to 8) (size 9 to 14) (size 15 to 20)
#    0.000    1.500    1.250    3.375    3.500    2.000 
#    0.000    3.750    0.000    0.000    0.000    0.000 
#    0.000    0.000    0.000    0.000    0.000    0.000 
#
# Total GULP energy -396991.150739 kJ/mol
# GULP energy per Si atom -12405.973461 kJ/mol
# Density = 2.003008 g / cm^3
# Si number density = 20.075775 Si / 1000 Ang^3
#
#
#
# Elastic Constant Matrix: (Units=GPa)
#
#
# Indices 1 2 3 4 5 6 
#
# 1 157.8290 42.6705 58.5130 0.0000 1.9625 0.0000
# 2 42.6705 77.0874 41.2258 0.0000 1.0892 0.0000
# 3 58.5130 41.2258 127.4145 0.0000 7.2325 0.0000
# 4 0.0000 0.0000 0.0000 33.5624 0.0000 -0.3547
# 5 1.9625 1.0892 7.2325 0.0000 27.0433 0.0000
# 6 0.0000 0.0000 0.0000 -0.3547 0.0000 23.8355
#
#
#
# Elastic Compliance Matrix: (Units=1/GPa)
#
#
# Indices 1 2 3 4 5 6 
#
# 1 0.008191 -0.003045 -0.002792 0.000000 0.000275 0.000000
# 2 -0.003045 0.016833 -0.004084 0.000000 0.000635 0.000000
# 3 -0.002792 -0.004084 0.010592 0.000000 -0.002466 0.000000
# 4 0.000000 0.000000 0.000000 0.029800 0.000000 0.000443
# 5 0.000275 0.000635 -0.002466 0.000000 0.037592 0.000000
# 6 0.000000 0.000000 0.000000 0.000443 0.000000 0.041961
#
#
# Mechanical properties :
#
#
# Convention : Reuss Voigt Hill
#
# Bulk Modulus (GPa) = 63.39570 71.90550 67.65060
# Shear Modulus (GPa) = 29.40006 31.54968 30.47487
#
# Velocity S-wave (km/s) = 3.83097 3.96855 3.90037
# Velocity P-wave (km/s) = 7.15648 7.54281 7.35218
#
# Compressibility (1/GPa) = 0.01577394
#
# Stress axis : x y z
#
# Youngs Moduli (GPa) = 122.08839 59.40763 94.41081
#
# Poissons Ratio (x) = 0.18087 0.26359
# Poissons Ratio (y) = 0.37171 0.38560
# Poissons Ratio (z) = 0.34087 0.24264
#
# Static dielectric constant tensor:
#      x y z
#    x 3.958450 0.000000 0.143940 
#    y 0.000000 3.543820 0.000000 
#    z 0.143940 0.000000 3.888990 
# 
# 
# High freq. dielectric constant tensor:
#      x y z
#    x 1.799400 0.000000 -0.000090 
#    y 0.000000 1.780310 0.000000 
#    z -0.000090 0.000000 1.792260 
# 
# From -- ./inp_files/55580.got.cif
#   From: 2010.06.25/outbox.cif.g09.slc.cpg/sg11_28_cif.got.tgz:55580.got - 2010.06.27 23:14:04.
