data_PCOD8075309
_publ_section_title
;
Structure prediction by ZEFSAII (Michael W. Deem and Ramdas Pophale) SiO2 
 PCOD8075309
Probable space group: P 21/M
;
_chemical_formula_sum "Si O2"
_cell_formula_units_Z 18
_cell_length_a 11.453811
_cell_length_b 10.603768
_cell_length_c 14.745019
_cell_angle_alpha 90.000000
_cell_angle_beta 151.839706
_cell_angle_gamma 90.000000
_cell_volume 845.166490
_symmetry_space_group_name_H-M "P 21/M"
_symmetry_group_IT_number 11
_symmetry_cell_setting 'monoclinic'
loop_
_space_group_symop_operation_xyz
x,y,z
-x,1/2+y,-z
-x,-y,-z
x,1/2-y,z
loop_
_atom_site_type_symbol
_atom_site_label
_atom_site_fract_x
_atom_site_fract_y
_atom_site_fract_z
Si Si1 0.639467 0.484906 0.302179
Si Si2 0.905868 0.393256 0.312909
Si Si3 0.041345 0.250000 0.918801
Si Si4 0.552818 0.250000 0.340274
Si Si5 0.868029 0.750000 0.820268
Si Si6 0.088949 0.987598 0.879015
O O1 0.699141 0.438110 0.242001
O O2 0.704396 0.376793 0.422129
O O3 0.821108 0.598420 0.454796
O O4 0.353649 0.527120 0.110864
O O5 0.855431 0.250000 0.250008
O O6 0.878177 0.480073 0.205795
O O7 0.952377 0.378906 0.808715
O O8 0.339476 0.250000 0.115608
O O9 0.964488 0.250000 0.972952
O O10 0.424582 0.250000 0.352016
O O11 0.915351 0.874826 0.794627
#
# Coordination Sequence:
#
# PCOD8075309 Si02
#       6
#     4   4   2   2   2   4
#     4  10  22  40  62  87 126 162 190 254 314 358
#     4  11  23  39  61  95 122 155 210 251 296 367
#     4   8  20  35  61  89 116 161 199 234 312 353
#     4   8  18  38  63  83 123 158 194 245 313 346
#     4  10  20  37  68  88 121 161 205 255 295 355
#     4  11  21  41  65  90 122 160 203 254 298 362
#
# _framework density 21.297578999999999
#
# number of rings (size 3 to 8) (size 9 to 14) (size 15 to 20)
#    0.667    1.333    2.222    1.333    1.556    0.889 
#    2.000    1.111    4.889    0.000    0.000    0.000 
#    0.000    0.000    0.000    0.000    0.000    0.000 
#
# Total GULP energy -223109.847886 kJ/mol
# GULP energy per Si atom -12394.991549 kJ/mol
# Density = 2.124911 g / cm^3
# Si number density = 21.297579 Si / 1000 Ang^3
#
#
#
# Elastic Constant Matrix: (Units=GPa)
#
#
# Indices 1 2 3 4 5 6 
#
# 1 107.7291 36.5448 2.3979 0.0000 7.1499 0.0000
# 2 36.5448 124.1143 2.5195 0.0000 -5.3594 0.0000
# 3 2.3979 2.5195 33.2241 0.0000 -2.7727 0.0000
# 4 0.0000 0.0000 0.0000 16.6796 0.0000 -7.5633
# 5 7.1499 -5.3594 -2.7727 0.0000 8.6848 0.0000
# 6 0.0000 0.0000 0.0000 -7.5633 0.0000 28.1928
#
#
#
# Elastic Compliance Matrix: (Units=1/GPa)
#
#
# Indices 1 2 3 4 5 6 
#
# 1 0.011447 -0.003871 -0.001560 0.000000 -0.012311 0.000000
# 2 -0.003871 0.009588 0.000321 0.000000 0.009205 0.000000
# 3 -0.001560 0.000321 0.031140 0.000000 0.011424 0.000000
# 4 0.000000 0.000000 0.000000 0.068256 0.000000 0.018311
# 5 -0.012311 0.009205 0.011424 0.000000 0.134607 0.000000
# 6 0.000000 0.000000 0.000000 0.018311 0.000000 0.040382
#
#
# Mechanical properties :
#
#
# Convention : Reuss Voigt Hill
#
# Bulk Modulus (GPa) = 23.83491 38.66575 31.25033
# Shear Modulus (GPa) = 15.64325 25.61847 20.63086
#
# Velocity S-wave (km/s) = 2.71312 3.47202 3.11576
# Velocity P-wave (km/s) = 4.58589 5.85386 5.25823
#
# Compressibility (1/GPa) = 0.04195527
#
# Stress axis : x y z
#
# Youngs Moduli (GPa) = 87.35676 104.29992 32.11268
#
# Poissons Ratio (x) = 0.40370 0.05010
# Poissons Ratio (y) = 0.33812 -0.01029
# Poissons Ratio (z) = 0.13628 -0.03343
#
# Static dielectric constant tensor:
#      x y z
#    x 3.758940 0.000000 0.004470 
#    y 0.000000 3.841690 0.000000 
#    z 0.004470 0.000000 3.308970 
# 
# 
# High freq. dielectric constant tensor:
#      x y z
#    x 1.841240 0.000000 -0.003910 
#    y 0.000000 1.838730 0.000000 
#    z -0.003910 0.000000 1.795800 
# 
# From -- ./inp_files/16515.got.cif
#   From: 2010.06.25/outbox.cif.g09.slc.cpg/sg11_9_cif.got.tgz:16515.got - 2010.06.27 23:14:04.
