data_PCOD8075691
_publ_section_title
;
Structure prediction by ZEFSAII (Michael W. Deem and Ramdas Pophale) SiO2 
 PCOD8075691
Probable space group: P 21/M
;
_chemical_formula_sum "Si O2"
_cell_formula_units_Z 24
_cell_length_a 11.770386
_cell_length_b 8.876565
_cell_length_c 12.409467
_cell_angle_alpha 90.000000
_cell_angle_beta 89.719898
_cell_angle_gamma 90.000000
_cell_volume 1296.533020
_symmetry_space_group_name_H-M "P 21/M"
_symmetry_group_IT_number 11
_symmetry_cell_setting 'monoclinic'
loop_
_space_group_symop_operation_xyz
x,y,z
-x,1/2+y,-z
-x,-y,-z
x,1/2-y,z
loop_
_atom_site_type_symbol
_atom_site_label
_atom_site_fract_x
_atom_site_fract_y
_atom_site_fract_z
Si Si1 0.621960 0.927308 0.498689
Si Si2 0.228456 0.428449 0.702758
Si Si3 0.379550 0.925247 0.874314
Si Si4 0.992778 0.426444 0.383220
Si Si5 0.386412 0.575196 0.124362
Si Si6 0.238255 0.425160 0.294823
O O1 0.607615 0.750000 0.496931
O O2 0.689809 0.982800 0.393713
O O3 0.690928 0.981311 0.602493
O O4 0.500000 0.000000 0.500000
O O5 0.213633 0.250000 0.704650
O O6 0.280407 0.485278 0.814458
O O7 0.106266 0.502794 0.687693
O O8 0.372162 0.750000 0.845413
O O9 0.502563 0.985098 0.836607
O O10 0.360402 0.957415 0.000075
O O11 0.972928 0.250000 0.399982
O O12 0.106828 0.458962 0.316227
O O13 0.000000 0.500000 0.500000
O O14 0.409863 0.750000 0.145471
O O15 0.277544 0.519998 0.191358
O O16 0.259984 0.250000 0.271948
#
# Coordination Sequence:
#
# PCOD8075691 Si02
#       6
#     4   4   4   4   4   4
#     4  10  21  35  51  79 114 144 179 228 280 335
#     4  11  22  38  58  84 115 148 193 238 283 340
#     4  10  21  38  59  85 117 152 190 234 287 342
#     4  11  22  39  60  83 113 154 195 235 285 339
#     4  10  21  37  59  87 116 149 192 237 284 340
#     4  10  21  38  57  80 114 150 190 234 282 339
#
# _framework density 18.510905000000001
#
# number of rings (size 3 to 8) (size 9 to 14) (size 15 to 20)
#    0.000    1.667    1.667    3.000    0.000    8.000 
#    0.000    0.833    0.000    0.000    0.000    0.000 
#    0.000    0.000    0.000    0.000    0.000    0.000 
#
# Total GULP energy -297741.616987 kJ/mol
# GULP energy per Si atom -12405.900708 kJ/mol
# Density = 1.846877 g / cm^3
# Si number density = 18.510905 Si / 1000 Ang^3
#
#
#
# Elastic Constant Matrix: (Units=GPa)
#
#
# Indices 1 2 3 4 5 6 
#
# 1 148.1423 62.6823 64.2337 0.0000 11.0076 0.0000
# 2 62.6823 82.6998 50.1832 0.0000 -3.7629 0.0000
# 3 64.2337 50.1832 92.8388 0.0000 0.4115 0.0000
# 4 0.0000 0.0000 0.0000 33.4501 0.0000 0.5077
# 5 11.0076 -3.7629 0.4115 0.0000 25.7940 0.0000
# 6 0.0000 0.0000 0.0000 0.5077 0.0000 37.2299
#
#
#
# Elastic Compliance Matrix: (Units=1/GPa)
#
#
# Indices 1 2 3 4 5 6 
#
# 1 0.012008 -0.006471 -0.004783 0.000000 -0.005992 0.000000
# 2 -0.006471 0.021683 -0.007270 0.000000 0.006041 0.000000
# 3 -0.004783 -0.007270 0.018008 0.000000 0.000693 0.000000
# 4 0.000000 0.000000 0.000000 0.029901 0.000000 -0.000408
# 5 -0.005992 0.006041 0.000693 0.000000 0.042196 0.000000
# 6 0.000000 0.000000 0.000000 -0.000408 0.000000 0.026866
#
#
# Mechanical properties :
#
#
# Convention : Reuss Voigt Hill
#
# Bulk Modulus (GPa) = 68.26373 75.31992 71.79183
# Shear Modulus (GPa) = 25.96131 29.06690 27.51411
#
# Velocity S-wave (km/s) = 3.74904 3.96695 3.85953
# Velocity P-wave (km/s) = 7.46311 7.85876 7.66349
#
# Compressibility (1/GPa) = 0.01464907
#
# Stress axis : x y z
#
# Youngs Moduli (GPa) = 83.28003 46.11852 55.53197
#
# Poissons Ratio (x) = 0.29844 0.26563
# Poissons Ratio (y) = 0.53892 0.40372
# Poissons Ratio (z) = 0.39836 0.33529
#
# Static dielectric constant tensor:
#      x y z
#    x 3.508670 0.000000 0.035970 
#    y 0.000000 3.462200 0.000000 
#    z 0.035970 0.000000 3.439720 
# 
# 
# High freq. dielectric constant tensor:
#      x y z
#    x 1.721500 0.000000 0.001010 
#    y 0.000000 1.727060 0.000000 
#    z 0.001010 0.000000 1.718490 
# 
# From -- ./inp_files/33771.got.cif
#   From: 2010.06.25/outbox.cif.g09.slc.cpg/sg11_17_cif.got.tgz:33771.got - 2010.06.27 23:14:04.
