data_PCOD8075857
_publ_section_title
;
Structure prediction by ZEFSAII (Michael W. Deem and Ramdas Pophale) SiO2 
 PCOD8075857
Probable space group: P 21/M
;
_chemical_formula_sum "Si O2"
_cell_formula_units_Z 24
_cell_length_a 10.010418
_cell_length_b 8.879407
_cell_length_c 14.341047
_cell_angle_alpha 90.000000
_cell_angle_beta 79.552706
_cell_angle_gamma 90.000000
_cell_volume 1253.594306
_symmetry_space_group_name_H-M "P 21/M"
_symmetry_group_IT_number 11
_symmetry_cell_setting 'monoclinic'
loop_
_space_group_symop_operation_xyz
x,y,z
-x,1/2+y,-z
-x,-y,-z
x,1/2-y,z
loop_
_atom_site_type_symbol
_atom_site_label
_atom_site_fract_x
_atom_site_fract_y
_atom_site_fract_z
Si Si1 0.129258 0.574412 0.936313
Si Si2 0.772686 0.928876 0.762757
Si Si3 0.078266 0.575465 0.727446
Si Si4 0.646631 0.570648 0.973106
Si Si5 0.587756 0.927444 0.618587
Si Si6 0.321252 0.073407 0.597311
O O1 0.132128 0.750000 0.961943
O O2 0.124000 0.549331 0.827080
O O3 0.264638 0.492418 0.953429
O O4 0.000000 0.500000 0.000000
O O5 0.774864 0.750000 0.761630
O O6 0.712306 0.985632 0.868080
O O7 0.680823 0.991949 0.690108
O O8 0.926209 0.988672 0.732346
O O9 0.086516 0.750000 0.698992
O O10 0.174469 0.483730 0.646378
O O11 0.638849 0.750000 0.979984
O O12 0.500000 0.500000 0.000000
O O13 0.569187 0.750000 0.630126
O O14 0.658565 0.973628 0.512793
O O15 0.438653 0.999435 0.645630
O O16 0.330174 0.250000 0.610069
#
# Coordination Sequence:
#
# PCOD8075857 Si02
#       6
#     4   4   4   4   4   4
#     4  11  22  39  61  85 115 155 194 236 288 343
#     4   9  19  38  60  81 109 150 192 227 276 342
#     4  10  21  38  59  82 111 152 191 225 281 348
#     4  11  23  40  59  86 119 153 195 239 284 342
#     4   9  19  38  61  81 111 151 188 230 282 340
#     4  10  21  36  56  87 116 143 186 237 283 331
#
# _framework density 19.144950999999999
#
# number of rings (size 3 to 8) (size 9 to 14) (size 15 to 20)
#    0.000    2.000    1.667    1.500    2.333    2.667 
#    0.000    1.667    0.000    0.000    0.000    0.000 
#    0.000    0.000    0.000    0.000    0.000    0.000 
#
# Total GULP energy -297686.058135 kJ/mol
# GULP energy per Si atom -12403.585756 kJ/mol
# Density = 1.910138 g / cm^3
# Si number density = 19.144951 Si / 1000 Ang^3
#
#
#
# Elastic Constant Matrix: (Units=GPa)
#
#
# Indices 1 2 3 4 5 6 
#
# 1 164.7159 34.1271 53.2002 0.0000 1.2200 0.0000
# 2 34.1271 54.6219 26.0725 0.0000 0.4686 0.0000
# 3 53.2002 26.0725 73.0540 0.0000 0.5177 0.0000
# 4 0.0000 0.0000 0.0000 28.8286 0.0000 -4.9520
# 5 1.2200 0.4686 0.5177 0.0000 42.5605 0.0000
# 6 0.0000 0.0000 0.0000 -4.9520 0.0000 36.3308
#
#
#
# Elastic Compliance Matrix: (Units=1/GPa)
#
#
# Indices 1 2 3 4 5 6 
#
# 1 0.008271 -0.002762 -0.005036 0.000000 -0.000145 0.000000
# 2 -0.002762 0.022990 -0.006193 0.000000 -0.000099 0.000000
# 3 -0.005036 -0.006193 0.019566 0.000000 -0.000025 0.000000
# 4 0.000000 0.000000 0.000000 0.035519 0.000000 0.004841
# 5 -0.000145 -0.000099 -0.000025 0.000000 0.023502 0.000000
# 6 0.000000 0.000000 0.000000 0.004841 0.000000 0.028185
#
#
# Mechanical properties :
#
#
# Convention : Reuss Voigt Hill
#
# Bulk Modulus (GPa) = 43.77341 57.68795 50.73068
# Shear Modulus (GPa) = 28.79656 33.47678 31.13667
#
# Velocity S-wave (km/s) = 3.88252 4.18616 4.03720
# Velocity P-wave (km/s) = 6.55839 7.31866 6.94893
#
# Compressibility (1/GPa) = 0.02284492
#
# Stress axis : x y z
#
# Youngs Moduli (GPa) = 120.90236 43.49635 51.10783
#
# Poissons Ratio (x) = 0.12016 0.25740
# Poissons Ratio (y) = 0.33399 0.31650
# Poissons Ratio (z) = 0.60891 0.26936
#
# Static dielectric constant tensor:
#      x y z
#    x 3.651070 0.000000 -0.067340 
#    y 0.000000 3.338130 0.000000 
#    z -0.067340 0.000000 2.963440 
# 
# 
# High freq. dielectric constant tensor:
#      x y z
#    x 1.759790 0.000000 0.000250 
#    y 0.000000 1.731630 0.000000 
#    z 0.000250 0.000000 1.747520 
# 
# From -- ./inp_files/20381.got.cif
#   From: 2010.06.25/outbox.cif.g09.slc.cpg/sg11_11_cif.got.tgz:20381.got - 2010.06.27 23:14:04.
