data_PCOD8075679
_publ_section_title
;
Structure prediction by ZEFSAII (Michael W. Deem and Ramdas Pophale) SiO2 
 PCOD8075679
Probable space group: P 21/M
;
_chemical_formula_sum "Si O2"
_cell_formula_units_Z 32
_cell_length_a 22.838513
_cell_length_b 9.234183
_cell_length_c 9.266108
_cell_angle_alpha 90.000000
_cell_angle_beta 114.902522
_cell_angle_gamma 90.000000
_cell_volume 1772.487358
_symmetry_space_group_name_H-M "P 21/M"
_symmetry_group_IT_number 11
_symmetry_cell_setting 'monoclinic'
loop_
_space_group_symop_operation_xyz
x,y,z
-x,1/2+y,-z
-x,-y,-z
x,1/2-y,z
loop_
_atom_site_type_symbol
_atom_site_label
_atom_site_fract_x
_atom_site_fract_y
_atom_site_fract_z
Si Si1 0.992134 0.578186 0.643212
Si Si2 0.392018 0.583920 0.530594
Si Si3 0.621247 0.582071 0.779224
Si Si4 0.503273 0.579775 0.853691
Si Si5 0.250708 0.912693 0.381035
Si Si6 0.886246 0.082048 0.042781
Si Si7 0.887438 0.414162 0.706224
Si Si8 0.763255 0.917290 0.916387
O O1 0.989430 0.750000 0.617968
O O2 0.926466 0.526230 0.650020
O O3 0.000000 0.500000 0.500000
O O4 0.050739 0.529258 0.806872
O O5 0.409025 0.750000 0.516612
O O6 0.395492 0.504981 0.381742
O O7 0.444779 0.519464 0.694347
O O8 0.320465 0.568025 0.529831
O O9 0.615551 0.750000 0.731473
O O10 0.571086 0.538869 0.850772
O O11 0.693433 0.548455 0.916352
O O12 0.496260 0.750000 0.872933
O O13 0.500000 0.500000 0.000000
O O14 0.247388 0.750000 0.306914
O O15 0.188267 0.928055 0.420400
O O16 0.244690 0.037264 0.257237
O O17 0.874756 0.250000 0.054606
O O18 0.894742 0.044211 0.882712
O O19 0.823416 0.004053 0.047234
O O20 0.912324 0.250000 0.705732
O O21 0.781205 0.750000 0.945167
#
# Coordination Sequence:
#
# PCOD8075679 Si02
#       8
#     4   4   4   4   4   4   4   4
#     4  11  23  37  52  72 100 133 168 204 243 290
#     4   9  17  31  53  77  98 127 168 205 240 292
#     4   9  18  32  50  75 104 129 158 203 253 293
#     4  10  21  35  49  69 100 135 170 207 246 290
#     4   8  15  29  49  74 103 128 156 201 248 288
#     4   9  19  35  54  76 101 129 162 202 246 290
#     4   9  17  32  54  77 101 128 158 199 249 293
#     4   9  16  27  48  76 102 127 158 199 246 294
#
# _framework density 18.053726000000001
#
# number of rings (size 3 to 8) (size 9 to 14) (size 15 to 20)
#    0.000    2.750    0.000    2.250    0.000    4.500 
#    0.000    1.250    0.000    4.500    0.000    0.000 
#    0.000    0.000    0.000    0.000    0.000    0.000 
#
# Total GULP energy -396576.687891 kJ/mol
# GULP energy per Si atom -12393.021497 kJ/mol
# Density = 1.801264 g / cm^3
# Si number density = 18.053726 Si / 1000 Ang^3
#
#
#
# Elastic Constant Matrix: (Units=GPa)
#
#
# Indices 1 2 3 4 5 6 
#
# 1 156.7510 56.4407 66.0779 0.0000 14.0428 0.0000
# 2 56.4407 57.7448 35.6755 0.0000 -1.1602 0.0000
# 3 66.0779 35.6755 56.3638 0.0000 -7.2653 0.0000
# 4 0.0000 0.0000 0.0000 26.5294 0.0000 -0.2333
# 5 14.0428 -1.1602 -7.2653 0.0000 18.1845 0.0000
# 6 0.0000 0.0000 0.0000 -0.2333 0.0000 29.8483
#
#
#
# Elastic Compliance Matrix: (Units=1/GPa)
#
#
# Indices 1 2 3 4 5 6 
#
# 1 0.021365 -0.006270 -0.024519 0.000000 -0.026695 0.000000
# 2 -0.006270 0.030844 -0.011907 0.000000 0.002053 0.000000
# 3 -0.024519 -0.011907 0.059426 0.000000 0.041917 0.000000
# 4 0.000000 0.000000 0.000000 0.037697 0.000000 0.000295
# 5 -0.026695 0.002053 0.041917 0.000000 0.092485 0.000000
# 6 0.000000 0.000000 0.000000 0.000295 0.000000 0.033505
#
#
# Mechanical properties :
#
#
# Convention : Reuss Voigt Hill
#
# Bulk Modulus (GPa) = 38.10643 65.24974 51.67809
# Shear Modulus (GPa) = 13.53322 22.42347 17.97835
#
# Velocity S-wave (km/s) = 2.74087 3.52808 3.15909
# Velocity P-wave (km/s) = 5.58297 7.26753 6.48022
#
# Compressibility (1/GPa) = 0.02624229
#
# Stress axis : x y z
#
# Youngs Moduli (GPa) = 46.80622 32.42136 16.82760
#
# Poissons Ratio (x) = 0.20330 0.41259
# Poissons Ratio (y) = 0.29350 0.20036
# Poissons Ratio (z) = 1.14764 0.38604
#
# Static dielectric constant tensor:
#      x y z
#    x 3.703110 0.000000 0.396510 
#    y 0.000000 3.301330 0.000000 
#    z 0.396510 0.000000 3.175330 
# 
# 
# High freq. dielectric constant tensor:
#      x y z
#    x 1.712480 0.000000 0.029230 
#    y 0.000000 1.699460 0.000000 
#    z 0.029230 0.000000 1.664070 
# 
# From -- ./inp_files/27405.got.cif
#   From: 2010.06.25/outbox.cif.g09.slc.cpg/sg11_14_cif.got.tgz:27405.got - 2010.06.27 23:14:04.
