data_PCOD8075053
_publ_section_title
;
Structure prediction by ZEFSAII (Michael W. Deem and Ramdas Pophale) SiO2 
 PCOD8075053
Probable space group: P 21/M
;
_chemical_formula_sum "Si O2"
_cell_formula_units_Z 32
_cell_length_a 12.328195
_cell_length_b 8.840588
_cell_length_c 15.162980
_cell_angle_alpha 90.000000
_cell_angle_beta 92.666692
_cell_angle_gamma 90.000000
_cell_volume 1650.800731
_symmetry_space_group_name_H-M "P 21/M"
_symmetry_group_IT_number 11
_symmetry_cell_setting 'monoclinic'
loop_
_space_group_symop_operation_xyz
x,y,z
-x,1/2+y,-z
-x,-y,-z
x,1/2-y,z
loop_
_atom_site_type_symbol
_atom_site_label
_atom_site_fract_x
_atom_site_fract_y
_atom_site_fract_z
Si Si1 0.333071 0.928295 0.522783
Si Si2 0.905026 0.430306 0.438970
Si Si3 0.519105 0.425670 0.629190
Si Si4 0.717211 0.924300 0.940098
Si Si5 0.692873 0.426391 0.121768
Si Si6 0.103378 0.572905 0.758933
Si Si7 0.958714 0.575511 0.910042
Si Si8 0.473036 0.574285 0.170421
O O1 0.333666 0.750000 0.532317
O O2 0.209953 0.987675 0.525797
O O3 0.384516 0.982966 0.431687
O O4 0.405950 0.991250 0.605298
O O5 0.912933 0.250000 0.442147
O O6 0.914945 0.494690 0.339377
O O7 0.000000 0.500000 0.500000
O O8 0.497706 0.250000 0.612913
O O9 0.555976 0.461715 0.729576
O O10 0.679054 0.750000 0.936175
O O11 0.830207 0.945892 0.892990
O O12 0.629684 0.031342 0.891621
O O13 0.733558 0.976249 0.040834
O O14 0.694842 0.250000 0.096659
O O15 0.774012 0.462708 0.205341
O O16 0.572857 0.472768 0.144396
O O17 0.083557 0.750000 0.751803
O O18 0.017663 0.503596 0.826223
O O19 0.991689 0.750000 0.919467
O O20 0.000000 0.500000 0.000000
O O21 0.501416 0.750000 0.156948
#
# Coordination Sequence:
#
# PCOD8075053 Si02
#       8
#     4   4   4   4   4   4   4   4
#     4   9  18  35  58  81 109 144 184 228 277 331
#     4  10  21  37  56  81 114 148 184 227 274 328
#     4   9  19  35  56  82 109 142 183 231 278 325
#     4  11  23  37  55  81 112 146 185 230 278 331
#     4  11  21  37  61  82 107 144 186 229 279 337
#     4   9  19  36  59  84 110 145 184 226 280 333
#     4  10  20  37  59  82 110 143 185 232 276 326
#     4  11  23  37  53  78 115 149 183 228 279 334
#
# _framework density 19.384532
#
# number of rings (size 3 to 8) (size 9 to 14) (size 15 to 20)
#    0.000    2.000    1.250    2.250    0.000    4.000 
#    0.000    1.875    0.000    0.000    0.000    0.000 
#    0.000    0.000    0.000    0.000    0.000    0.000 
#
# Total GULP energy -396837.680792 kJ/mol
# GULP energy per Si atom -12401.177525 kJ/mol
# Density = 1.934041 g / cm^3
# Si number density = 19.384532 Si / 1000 Ang^3
#
#
#
# Elastic Constant Matrix: (Units=GPa)
#
#
# Indices 1 2 3 4 5 6 
#
# 1 136.9753 27.6527 66.3495 0.0000 -4.3727 0.0000
# 2 27.6527 30.4414 24.3467 0.0000 -1.8171 0.0000
# 3 66.3495 24.3467 115.3027 0.0000 4.2254 0.0000
# 4 0.0000 0.0000 0.0000 24.2030 0.0000 9.7779
# 5 -4.3727 -1.8171 4.2254 0.0000 31.4921 0.0000
# 6 0.0000 0.0000 0.0000 9.7779 0.0000 20.5619
#
#
#
# Elastic Compliance Matrix: (Units=1/GPa)
#
#
# Indices 1 2 3 4 5 6 
#
# 1 0.011047 -0.005753 -0.005212 0.000000 0.001901 0.000000
# 2 -0.005753 0.042891 -0.005836 0.000000 0.002459 0.000000
# 3 -0.005212 -0.005836 0.013007 0.000000 -0.002806 0.000000
# 4 0.000000 0.000000 0.000000 0.051142 0.000000 -0.024320
# 5 0.001901 0.002459 -0.002806 0.000000 0.032536 0.000000
# 6 0.000000 0.000000 0.000000 -0.024320 0.000000 0.060199
#
#
# Mechanical properties :
#
#
# Convention : Reuss Voigt Hill
#
# Bulk Modulus (GPa) = 29.99172 57.71302 43.85237
# Shear Modulus (GPa) = 19.56649 26.20944 22.88796
#
# Velocity S-wave (km/s) = 3.18053 3.68105 3.43991
# Velocity P-wave (km/s) = 5.38454 6.92129 6.20071
#
# Compressibility (1/GPa) = 0.03334253
#
# Stress axis : x y z
#
# Youngs Moduli (GPa) = 90.51926 23.31515 76.88152
#
# Poissons Ratio (x) = 0.13414 0.40070
# Poissons Ratio (y) = 0.52080 0.44867
# Poissons Ratio (z) = 0.47178 0.13606
#
# Static dielectric constant tensor:
#      x y z
#    x 3.719230 0.000000 -0.258050 
#    y 0.000000 2.863060 0.000000 
#    z -0.258050 0.000000 3.812720 
# 
# 
# High freq. dielectric constant tensor:
#      x y z
#    x 1.762140 0.000000 -0.008050 
#    y 0.000000 1.738730 0.000000 
#    z -0.008050 0.000000 1.761150 
# 
# From -- ./inp_files/49347.got.cif
#   From: 2010.06.25/outbox.cif.g09.slc.cpg/sg11_25_cif.got.tgz:49347.got - 2010.06.27 23:14:04.
