data_PCOD8075535
_publ_section_title
;
Structure prediction by ZEFSAII (Michael W. Deem and Ramdas Pophale) SiO2 
 PCOD8075535
Probable space group: P 21/M
;
_chemical_formula_sum "Si O2"
_cell_formula_units_Z 24
_cell_length_a 15.142312
_cell_length_b 15.007649
_cell_length_c 11.151849
_cell_angle_alpha 90.000000
_cell_angle_beta 152.431797
_cell_angle_gamma 90.000000
_cell_volume 1172.867583
_symmetry_space_group_name_H-M "P 21/M"
_symmetry_group_IT_number 11
_symmetry_cell_setting 'monoclinic'
loop_
_space_group_symop_operation_xyz
x,y,z
-x,1/2+y,-z
-x,-y,-z
x,1/2-y,z
loop_
_atom_site_type_symbol
_atom_site_label
_atom_site_fract_x
_atom_site_fract_y
_atom_site_fract_z
Si Si1 0.629535 0.112292 0.131597
Si Si2 0.650504 0.938041 0.021302
Si Si3 0.402489 0.546872 0.273181
Si Si4 0.992258 0.651858 0.307187
Si Si5 0.989594 0.984947 0.845488
Si Si6 0.351074 0.151957 0.583727
O O1 0.516579 0.120147 0.121346
O O2 0.822072 0.166073 0.386828
O O3 0.496650 0.153699 0.869772
O O4 0.699696 0.012623 0.180900
O O5 0.565842 0.981801 0.800583
O O6 0.830876 0.878171 0.206429
O O7 0.500000 0.500000 0.500000
O O8 0.521980 0.635410 0.383685
O O9 0.180438 0.566307 0.031414
O O10 0.940261 0.750000 0.190811
O O11 0.022849 0.580507 0.236658
O O12 0.812769 0.922356 0.596839
O O13 0.000000 0.000000 0.000000
O O14 0.257462 0.250000 0.459269
#
# Coordination Sequence:
#
# PCOD8075535 Si02
#       6
#     4   4   4   4   4   4
#     4  10  20  39  65  89 126 164 205 256 314 375
#     4   9  20  37  61  89 121 162 209 252 318 366
#     4  10  20  39  64  87 120 163 206 258 312 371
#     4  11  23  38  60  94 128 166 211 260 315 376
#     4  11  23  41  65  87 128 167 208 262 318 371
#     4  11  24  41  64  94 125 165 212 260 313 378
#
# _framework density 20.462668000000001
#
# number of rings (size 3 to 8) (size 9 to 14) (size 15 to 20)
#    0.000    1.667    1.667    4.000    0.000    5.333 
#    0.000    0.000    0.000    0.000    0.000    0.000 
#    0.000    0.000    0.000    0.000    0.000    0.000 
#
# Total GULP energy -297458.110986 kJ/mol
# GULP energy per Si atom -12394.087958 kJ/mol
# Density = 2.041609 g / cm^3
# Si number density = 20.462668 Si / 1000 Ang^3
#
#
#
# Elastic Constant Matrix: (Units=GPa)
#
#
# Indices 1 2 3 4 5 6 
#
# 1 143.9021 56.5146 52.0833 0.0000 7.3980 0.0000
# 2 56.5146 138.1179 45.4657 0.0000 20.7321 0.0000
# 3 52.0833 45.4657 105.4484 0.0000 10.7835 0.0000
# 4 0.0000 0.0000 0.0000 7.2756 0.0000 -4.1862
# 5 7.3980 20.7321 10.7835 0.0000 35.4535 0.0000
# 6 0.0000 0.0000 0.0000 -4.1862 0.0000 7.8076
#
#
#
# Elastic Compliance Matrix: (Units=1/GPa)
#
#
# Indices 1 2 3 4 5 6 
#
# 1 0.009243 -0.002756 -0.003452 0.000000 0.000733 0.000000
# 2 -0.002756 0.009832 -0.002424 0.000000 -0.004437 0.000000
# 3 -0.003452 -0.002424 0.012401 0.000000 -0.001634 0.000000
# 4 0.000000 0.000000 0.000000 0.198766 0.000000 0.106573
# 5 0.000733 -0.004437 -0.001634 0.000000 0.031145 0.000000
# 6 0.000000 0.000000 0.000000 0.106573 0.000000 0.185222
#
#
# Mechanical properties :
#
#
# Convention : Reuss Voigt Hill
#
# Bulk Modulus (GPa) = 70.36599 77.28840 73.82719
# Shear Modulus (GPa) = 10.66984 25.66764 18.16874
#
# Velocity S-wave (km/s) = 2.28596 3.54554 2.98299
# Velocity P-wave (km/s) = 6.43659 7.39010 6.92976
#
# Compressibility (1/GPa) = 0.01421141
#
# Stress axis : x y z
#
# Youngs Moduli (GPa) = 108.18744 101.71093 80.64014
#
# Poissons Ratio (x) = 0.28028 0.27839
# Poissons Ratio (y) = 0.29813 0.19550
# Poissons Ratio (z) = 0.37348 0.24658
#
# Static dielectric constant tensor:
#      x y z
#    x 4.170560 0.000000 0.346050 
#    y 0.000000 3.679480 0.000000 
#    z 0.346050 0.000000 3.811850 
# 
# 
# High freq. dielectric constant tensor:
#      x y z
#    x 1.811400 0.000000 0.009990 
#    y 0.000000 1.781340 0.000000 
#    z 0.009990 0.000000 1.804550 
# 
# From -- ./inp_files/39496.got.cif
#   From: 2010.06.25/outbox.cif.g09.slc.cpg/sg11_20_cif.got.tgz:39496.got - 2010.06.27 23:14:04.
