data_PCOD8075099
_publ_section_title
;
Structure prediction by ZEFSAII (Michael W. Deem and Ramdas Pophale) SiO2 
 PCOD8075099
Probable space group: P 21/M
;
_chemical_formula_sum "Si O2"
_cell_formula_units_Z 32
_cell_length_a 16.286419
_cell_length_b 8.809380
_cell_length_c 20.770576
_cell_angle_alpha 90.000000
_cell_angle_beta 36.067927
_cell_angle_gamma 90.000000
_cell_volume 1754.470052
_symmetry_space_group_name_H-M "P 21/M"
_symmetry_group_IT_number 11
_symmetry_cell_setting 'monoclinic'
loop_
_space_group_symop_operation_xyz
x,y,z
-x,1/2+y,-z
-x,-y,-z
x,1/2-y,z
loop_
_atom_site_type_symbol
_atom_site_label
_atom_site_fract_x
_atom_site_fract_y
_atom_site_fract_z
Si Si1 0.549641 0.573690 0.148061
Si Si2 0.561069 0.430062 0.646042
Si Si3 0.144731 0.572156 0.233985
Si Si4 0.413219 0.071455 0.612531
Si Si5 0.142926 0.925479 0.586729
Si Si6 0.588278 0.570918 0.886493
Si Si7 0.157067 0.075872 0.091166
Si Si8 0.850949 0.422906 0.266821
O O1 0.508875 0.750000 0.164747
O O2 0.501570 0.508646 0.247423
O O3 0.475060 0.475192 0.141433
O O4 0.716771 0.552257 0.038327
O O5 0.553501 0.250000 0.649250
O O6 0.470362 0.493923 0.644031
O O7 0.721905 0.482777 0.538069
O O8 0.162030 0.750000 0.232577
O O9 0.253238 0.487883 0.211772
O O10 0.179840 0.530269 0.138192
O O11 0.989058 0.523053 0.352543
O O12 0.433562 0.250000 0.595995
O O13 0.500000 0.000000 0.500000
O O14 0.250117 0.030102 0.710271
O O15 0.109619 0.750000 0.594134
O O16 0.174651 0.951636 0.641593
O O17 0.584616 0.750000 0.896953
O O18 0.500000 0.500000 0.000000
O O19 0.149128 0.250000 0.121456
O O20 0.011563 0.035728 0.147835
O O21 0.816087 0.250000 0.270803
#
# Coordination Sequence:
#
# PCOD8075099 Si02
#       8
#     4   4   4   4   4   4   4   4
#     4  10  20  37  60  82 107 146 187 226 275 330
#     4   9  19  36  57  80 110 147 187 227 276 334
#     4  11  21  33  54  84 112 139 181 231 273 321
#     4  11  20  33  53  80 109 142 185 232 274 323
#     4   9  17  34  55  77 110 147 182 225 277 326
#     4  12  23  37  57  84 113 143 181 226 273 323
#     4   9  18  33  54  78 109 144 180 222 277 330
#     4   9  17  31  51  78 109 141 180 226 274 324
#
# _framework density 18.239125999999999
#
# number of rings (size 3 to 8) (size 9 to 14) (size 15 to 20)
#    0.000    2.000    2.500    3.375    0.000    2.000 
#    0.000    3.125    0.000    0.000    0.000    0.000 
#    0.000    0.000    0.000    0.000    0.000    0.000 
#
# Total GULP energy -396829.840006 kJ/mol
# GULP energy per Si atom -12400.932500 kJ/mol
# Density = 1.819761 g / cm^3
# Si number density = 18.239126 Si / 1000 Ang^3
#
#
#
# Elastic Constant Matrix: (Units=GPa)
#
#
# Indices 1 2 3 4 5 6 
#
# 1 120.6641 48.7858 74.5484 0.0000 -8.9860 0.0000
# 2 48.7858 89.8529 39.5966 0.0000 -5.0003 0.0000
# 3 74.5484 39.5966 144.2246 0.0000 -8.0548 0.0000
# 4 0.0000 0.0000 0.0000 22.1986 0.0000 -7.0983
# 5 -8.9860 -5.0003 -8.0548 0.0000 29.4246 0.0000
# 6 0.0000 0.0000 0.0000 -7.0983 0.0000 29.1506
#
#
#
# Elastic Compliance Matrix: (Units=1/GPa)
#
#
# Indices 1 2 3 4 5 6 
#
# 1 0.013992 -0.004951 -0.005769 0.000000 0.001852 0.000000
# 2 -0.004951 0.014456 -0.001378 0.000000 0.000567 0.000000
# 3 -0.005769 -0.001378 0.010341 0.000000 0.000835 0.000000
# 4 0.000000 0.000000 0.000000 0.048852 0.000000 0.011896
# 5 0.001852 0.000567 0.000835 0.000000 0.034876 0.000000
# 6 0.000000 0.000000 0.000000 0.011896 0.000000 0.037201
#
#
# Mechanical properties :
#
#
# Convention : Reuss Voigt Hill
#
# Bulk Modulus (GPa) = 68.53309 75.62259 72.07784
# Shear Modulus (GPa) = 26.48604 28.94214 27.71409
#
# Velocity S-wave (km/s) = 3.81485 3.98781 3.90229
# Velocity P-wave (km/s) = 7.55384 7.92182 7.74002
#
# Compressibility (1/GPa) = 0.01459149
#
# Stress axis : x y z
#
# Youngs Moduli (GPa) = 71.47108 69.17325 96.70511
#
# Poissons Ratio (x) = 0.34250 0.55793
# Poissons Ratio (y) = 0.35387 0.13326
# Poissons Ratio (z) = 0.41234 0.09532
#
# Static dielectric constant tensor:
#      x y z
#    x 3.449990 0.000000 -0.220800 
#    y 0.000000 3.217570 0.000000 
#    z -0.220800 0.000000 3.555190 
# 
# 
# High freq. dielectric constant tensor:
#      x y z
#    x 1.696180 0.000000 -0.026080 
#    y 0.000000 1.693410 0.000000 
#    z -0.026080 0.000000 1.705530 
# 
# From -- ./inp_files/65214.got.cif
#   From: 2010.06.25/outbox.cif.g09.slc.cpg/sg11_33_cif.got.tgz:65214.got - 2010.06.27 23:14:04.
