data_PCOD8075084
_publ_section_title
;
Structure prediction by ZEFSAII (Michael W. Deem and Ramdas Pophale) SiO2 
 PCOD8075084
Probable space group: P 21/M
;
_chemical_formula_sum "Si O2"
_cell_formula_units_Z 28
_cell_length_a 9.247088
_cell_length_b 8.775118
_cell_length_c 26.859628
_cell_angle_alpha 90.000000
_cell_angle_beta 140.847163
_cell_angle_gamma 90.000000
_cell_volume 1376.120515
_symmetry_space_group_name_H-M "P 21/M"
_symmetry_group_IT_number 11
_symmetry_cell_setting 'monoclinic'
loop_
_space_group_symop_operation_xyz
x,y,z
-x,1/2+y,-z
-x,-y,-z
x,1/2-y,z
loop_
_atom_site_type_symbol
_atom_site_label
_atom_site_fract_x
_atom_site_fract_y
_atom_site_fract_z
Si Si1 0.814521 0.425644 0.293734
Si Si2 0.192132 0.567703 0.014854
Si Si3 0.238973 0.079255 0.564524
Si Si4 0.542214 0.069578 0.733367
Si Si5 0.282708 0.079008 0.463208
Si Si6 0.937895 0.567983 0.124623
Si Si7 0.322840 0.572472 0.851704
O O1 0.784770 0.250000 0.301120
O O2 0.589801 0.512766 0.253040
O O3 0.834425 0.445301 0.239537
O O4 0.041918 0.496380 0.381166
O O5 0.182869 0.750000 0.014978
O O6 0.164769 0.510569 0.951321
O O7 0.437554 0.506762 0.098032
O O8 0.000000 0.500000 0.000000
O O9 0.195891 0.250000 0.571184
O O10 0.415892 0.002552 0.650426
O O11 0.336563 0.071138 0.535635
O O12 0.000000 0.000000 0.500000
O O13 0.548033 0.250000 0.735184
O O14 0.801389 0.009509 0.801541
O O15 0.274596 0.250000 0.440662
O O16 0.500000 0.000000 0.500000
O O17 0.917727 0.750000 0.114761
O O18 0.798442 0.513052 0.135344
O O19 0.360503 0.750000 0.875218
#
# Coordination Sequence:
#
# PCOD8075084 Si02
#       7
#     4   4   4   4   4   4   4
#     4  10  22  40  60  86 120 159 202 250 301 358
#     4  12  25  44  69  96 126 161 202 247 300 361
#     4  10  20  37  59  85 117 155 201 251 302 356
#     4  10  22  38  60  89 119 156 203 250 301 361
#     4  10  22  38  57  84 119 157 201 250 302 359
#     4  11  24  42  64  93 127 162 203 250 304 361
#     4  11  24  42  64  92 126 163 205 250 304 362
#
# _framework density 20.347054
#
# number of rings (size 3 to 8) (size 9 to 14) (size 15 to 20)
#    0.000    1.429    1.429    3.429    2.000    5.714 
#    0.000    0.000    0.000    0.000    0.000    0.000 
#    0.000    0.000    0.000    0.000    0.000    0.000 
#
# Total GULP energy -347201.558536 kJ/mol
# GULP energy per Si atom -12400.055662 kJ/mol
# Density = 2.030074 g / cm^3
# Si number density = 20.347054 Si / 1000 Ang^3
#
#
#
# Elastic Constant Matrix: (Units=GPa)
#
#
# Indices 1 2 3 4 5 6 
#
# 1 106.5901 27.0712 27.4684 0.0000 10.6035 0.0000
# 2 27.0712 68.6010 20.5882 0.0000 2.3340 0.0000
# 3 27.4684 20.5882 97.7861 0.0000 -2.7205 0.0000
# 4 0.0000 0.0000 0.0000 28.2441 0.0000 2.4344
# 5 10.6035 2.3340 -2.7205 0.0000 41.2004 0.0000
# 6 0.0000 0.0000 0.0000 2.4344 0.0000 39.7788
#
#
#
# Elastic Compliance Matrix: (Units=1/GPa)
#
#
# Indices 1 2 3 4 5 6 
#
# 1 0.011213 -0.003586 -0.002474 0.000000 -0.002846 0.000000
# 2 -0.003586 0.016757 -0.002526 0.000000 -0.000193 0.000000
# 3 -0.002474 -0.002526 0.011496 0.000000 0.001539 0.000000
# 4 0.000000 0.000000 0.000000 0.035593 0.000000 -0.002178
# 5 -0.002846 -0.000193 0.001539 0.000000 0.025117 0.000000
# 6 0.000000 0.000000 0.000000 -0.002178 0.000000 0.025272
#
#
# Mechanical properties :
#
#
# Convention : Reuss Voigt Hill
#
# Bulk Modulus (GPa) = 44.85467 47.02588 45.94028
# Shear Modulus (GPa) = 33.32198 35.03464 34.17831
#
# Velocity S-wave (km/s) = 4.05122 4.15402 4.10294
# Velocity P-wave (km/s) = 6.63143 6.79485 6.71363
#
# Compressibility (1/GPa) = 0.02229422
#
# Stress axis : x y z
#
# Youngs Moduli (GPa) = 89.18175 59.67768 86.98637
#
# Poissons Ratio (x) = 0.21398 0.21521
# Poissons Ratio (y) = 0.31976 0.21974
# Poissons Ratio (z) = 0.22064 0.15076
#
# Static dielectric constant tensor:
#      x y z
#    x 3.471600 0.000000 0.226300 
#    y 0.000000 3.645520 0.000000 
#    z 0.226300 0.000000 3.757500 
# 
# 
# High freq. dielectric constant tensor:
#      x y z
#    x 1.801650 0.000000 -0.003940 
#    y 0.000000 1.789760 0.000000 
#    z -0.003940 0.000000 1.814170 
# 
# From -- ./inp_files/28398.got.cif
#   From: 2010.06.25/outbox.cif.g09.slc.cpg/sg11_15_cif.got.tgz:28398.got - 2010.06.27 23:14:04.
