data_PCOD8075909
_publ_section_title
;
Structure prediction by ZEFSAII (Michael W. Deem and Ramdas Pophale) SiO2 
 PCOD8075909
Probable space group: P 21/M
;
_chemical_formula_sum "Si O2"
_cell_formula_units_Z 28
_cell_length_a 14.266506
_cell_length_b 9.100847
_cell_length_c 21.192496
_cell_angle_alpha 90.000000
_cell_angle_beta 31.116400
_cell_angle_gamma 90.000000
_cell_volume 1421.955154
_symmetry_space_group_name_H-M "P 21/M"
_symmetry_group_IT_number 11
_symmetry_cell_setting 'monoclinic'
loop_
_space_group_symop_operation_xyz
x,y,z
-x,1/2+y,-z
-x,-y,-z
x,1/2-y,z
loop_
_atom_site_type_symbol
_atom_site_label
_atom_site_fract_x
_atom_site_fract_y
_atom_site_fract_z
Si Si1 0.585018 0.079051 0.391882
Si Si2 0.738114 0.417963 0.906270
Si Si3 0.808864 0.921214 0.616237
Si Si4 0.995213 0.084122 0.171045
Si Si5 0.606953 0.080891 0.844887
Si Si6 0.159794 0.417550 0.943004
Si Si7 0.503026 0.580077 0.695402
O O1 0.558728 0.250000 0.418525
O O2 0.486453 0.029768 0.383796
O O3 0.795558 0.035058 0.264434
O O4 0.500000 0.000000 0.500000
O O5 0.707669 0.250000 0.944820
O O6 0.935153 0.475258 0.814372
O O7 0.732936 0.432955 0.833921
O O8 0.590292 0.518992 0.025516
O O9 0.841630 0.750000 0.610419
O O10 0.698012 0.945483 0.615210
O O11 0.696526 0.987379 0.738433
O O12 0.000000 0.000000 0.500000
O O13 0.991486 0.250000 0.199843
O O14 0.130203 0.071444 0.034526
O O15 0.587126 0.250000 0.834902
O O16 0.159164 0.250000 0.919975
O O17 0.354406 0.487224 0.818134
O O18 0.000000 0.500000 0.000000
O O19 0.442685 0.750000 0.733811
#
# Coordination Sequence:
#
# PCOD8075909 Si02
#       7
#     4   4   4   4   4   4   4
#     4  10  22  41  59  80 114 152 193 237 285 343
#     4  10  21  36  59  89 119 153 194 242 297 354
#     4  11  24  41  64  89 118 157 202 251 300 354
#     4  10  21  37  57  84 119 155 190 239 295 347
#     4  10  21  39  60  85 120 156 195 244 299 353
#     4  11  21  35  59  89 121 154 192 239 294 352
#     4  10  22  42  62  85 119 155 194 245 298 347
#
# _framework density 19.691196999999999
#
# number of rings (size 3 to 8) (size 9 to 14) (size 15 to 20)
#    0.000    1.714    1.429    2.571    0.000    8.571 
#    0.000    4.286    0.000    0.000    0.000    0.000 
#    0.000    0.000    0.000    0.000    0.000    0.000 
#
# Total GULP energy -347302.813401 kJ/mol
# GULP energy per Si atom -12403.671907 kJ/mol
# Density = 1.964638 g / cm^3
# Si number density = 19.691197 Si / 1000 Ang^3
#
#
#
# Elastic Constant Matrix: (Units=GPa)
#
#
# Indices 1 2 3 4 5 6 
#
# 1 135.8290 69.3708 50.9300 0.0000 -4.7356 0.0000
# 2 69.3708 116.3318 49.2414 0.0000 -2.8519 0.0000
# 3 50.9300 49.2414 95.4751 0.0000 9.6890 0.0000
# 4 0.0000 0.0000 0.0000 38.3108 0.0000 -1.0777
# 5 -4.7356 -2.8519 9.6890 0.0000 27.8053 0.0000
# 6 0.0000 0.0000 0.0000 -1.0777 0.0000 34.7427
#
#
#
# Elastic Compliance Matrix: (Units=1/GPa)
#
#
# Indices 1 2 3 4 5 6 
#
# 1 0.011525 -0.005228 -0.003728 0.000000 0.002726 0.000000
# 2 -0.005228 0.013653 -0.004462 0.000000 0.002065 0.000000
# 3 -0.003728 -0.004462 0.015421 0.000000 -0.006466 0.000000
# 4 0.000000 0.000000 0.000000 0.026125 0.000000 0.000810
# 5 0.002726 0.002065 -0.006466 0.000000 0.038894 0.000000
# 6 0.000000 0.000000 0.000000 0.000810 0.000000 0.028808
#
#
# Mechanical properties :
#
#
# Convention : Reuss Voigt Hill
#
# Bulk Modulus (GPa) = 72.66610 76.30226 74.48418
# Shear Modulus (GPa) = 30.14779 32.04465 31.09622
#
# Velocity S-wave (km/s) = 3.91708 4.03843 3.97822
# Velocity P-wave (km/s) = 7.57898 7.78324 7.68179
#
# Compressibility (1/GPa) = 0.01376157
#
# Stress axis : x y z
#
# Youngs Moduli (GPa) = 86.76726 73.24415 64.84872
#
# Poissons Ratio (x) = 0.38289 0.24178
# Poissons Ratio (y) = 0.45359 0.28939
# Poissons Ratio (z) = 0.32350 0.32685
#
# Static dielectric constant tensor:
#      x y z
#    x 3.812860 0.000000 -0.028280 
#    y 0.000000 3.739540 0.000000 
#    z -0.028280 0.000000 3.503360 
# 
# 
# High freq. dielectric constant tensor:
#      x y z
#    x 1.783020 0.000000 -0.002020 
#    y 0.000000 1.774660 0.000000 
#    z -0.002020 0.000000 1.753670 
# 
# From -- ./inp_files/37650.got.cif
#   From: 2010.06.25/outbox.cif.g09.slc.cpg/sg11_19_cif.got.tgz:37650.got - 2010.06.27 23:14:04.
