data_PCOD8075624
_publ_section_title
;
Structure prediction by ZEFSAII (Michael W. Deem and Ramdas Pophale) SiO2 
 PCOD8075624
Probable space group: P 21/M
;
_chemical_formula_sum "Si O2"
_cell_formula_units_Z 28
_cell_length_a 8.844689
_cell_length_b 29.556616
_cell_length_c 9.300147
_cell_angle_alpha 90.000000
_cell_angle_beta 146.500969
_cell_angle_gamma 90.000000
_cell_volume 1341.854692
_symmetry_space_group_name_H-M "P 21/M"
_symmetry_group_IT_number 11
_symmetry_cell_setting 'monoclinic'
loop_
_space_group_symop_operation_xyz
x,y,z
-x,1/2+y,-z
-x,-y,-z
x,1/2-y,z
loop_
_atom_site_type_symbol
_atom_site_label
_atom_site_fract_x
_atom_site_fract_y
_atom_site_fract_z
Si Si1 0.603155 0.800339 0.587188
Si Si2 0.093111 0.109511 0.681936
Si Si3 0.030147 0.831805 0.166328
Si Si4 0.031755 0.085802 0.047624
Si Si5 0.410873 0.523787 0.283843
Si Si6 0.497639 0.435508 0.211318
Si Si7 0.274752 0.382950 0.507453
O O1 0.685798 0.750000 0.600525
O O2 0.286273 0.798406 0.386988
O O3 0.611899 0.834778 0.459722
O O4 0.792473 0.813122 0.873429
O O5 0.083560 0.156305 0.765067
O O6 0.806209 0.082505 0.454417
O O7 0.166329 0.124687 0.580563
O O8 0.332484 0.077831 0.936565
O O9 0.139392 0.879823 0.188658
O O10 0.912342 0.034940 0.953573
O O11 0.342019 0.083869 0.229698
O O12 0.023896 0.104859 0.203285
O O13 0.500000 0.500000 0.500000
O O14 0.488693 0.490463 0.214234
O O15 0.524855 0.573924 0.341327
#
# Coordination Sequence:
#
# PCOD8075624 Si02
#       7
#     4   4   4   4   4   4   4
#     4  11  23  44  71  97 118 159 218 270 316 388
#     4  11  25  42  61  94 136 173 204 260 327 380
#     4  10  20  41  67  90 125 163 206 256 322 385
#     4  10  21  39  63  89 125 170 226 260 308 363
#     4  12  22  38  65  95 127 176 229 266 307 366
#     4  11  24  39  62  89 133 178 221 255 300 385
#     4  11  25  40  65  94 131 168 212 270 327 373
#
# _framework density 20.866643
#
# number of rings (size 3 to 8) (size 9 to 14) (size 15 to 20)
#    0.000    1.143    2.857    5.143    4.000    1.143 
#    0.000    1.429    0.000    0.000    0.000    0.000 
#    0.000    0.000    0.000    0.000    0.000    0.000 
#
# Total GULP energy -346910.838111 kJ/mol
# GULP energy per Si atom -12389.672790 kJ/mol
# Density = 2.081915 g / cm^3
# Si number density = 20.866643 Si / 1000 Ang^3
#
#
#
# Elastic Constant Matrix: (Units=GPa)
#
#
# Indices 1 2 3 4 5 6 
#
# 1 109.3871 54.2699 52.8886 0.0000 -31.2646 0.0000
# 2 54.2699 146.9601 33.8966 0.0000 -5.8918 0.0000
# 3 52.8886 33.8966 111.7603 0.0000 -3.8596 0.0000
# 4 0.0000 0.0000 0.0000 23.1297 0.0000 2.0092
# 5 -31.2646 -5.8918 -3.8596 0.0000 34.7046 0.0000
# 6 0.0000 0.0000 0.0000 2.0092 0.0000 18.6696
#
#
#
# Elastic Compliance Matrix: (Units=1/GPa)
#
#
# Indices 1 2 3 4 5 6 
#
# 1 0.019728 -0.004961 -0.007275 0.000000 0.016121 0.000000
# 2 -0.004961 0.008599 -0.000366 0.000000 -0.003050 0.000000
# 3 -0.007275 -0.000366 0.012320 0.000000 -0.005245 0.000000
# 4 0.000000 0.000000 0.000000 0.043642 0.000000 -0.004697
# 5 0.016121 -0.003050 -0.005245 0.000000 0.042237 0.000000
# 6 0.000000 0.000000 0.000000 -0.004697 0.000000 0.054068
#
#
# Mechanical properties :
#
#
# Convention : Reuss Voigt Hill
#
# Bulk Modulus (GPa) = 64.74829 72.24641 68.49735
# Shear Modulus (GPa) = 23.70289 30.43763 27.07026
#
# Velocity S-wave (km/s) = 3.37400 3.82340 3.60571
# Velocity P-wave (km/s) = 6.80261 7.36134 7.08748
#
# Compressibility (1/GPa) = 0.01544442
#
# Stress axis : x y z
#
# Youngs Moduli (GPa) = 50.68904 116.29770 81.16870
#
# Poissons Ratio (x) = 0.57696 0.59047
# Poissons Ratio (y) = 0.25147 0.02967
# Poissons Ratio (z) = 0.36874 0.04251
#
# Static dielectric constant tensor:
#      x y z
#    x 3.769490 0.000000 -0.020770 
#    y 0.000000 4.250660 0.000000 
#    z -0.020770 0.000000 3.905150 
# 
# 
# High freq. dielectric constant tensor:
#      x y z
#    x 1.792220 0.000000 0.005950 
#    y 0.000000 1.812170 0.000000 
#    z 0.005950 0.000000 1.833040 
# 
# From -- ./inp_files/15407.got.cif
#   From: 2010.06.25/outbox.cif.g09.slc.cpg/sg11_8_cif.got.tgz:15407.got - 2010.06.27 23:14:04.
