data_PCOD8075047
_publ_section_title
;
Structure prediction by ZEFSAII (Michael W. Deem and Ramdas Pophale) SiO2 
 PCOD8075047
Probable space group: P 21/M
;
_chemical_formula_sum "Si O2"
_cell_formula_units_Z 32
_cell_length_a 25.414359
_cell_length_b 8.849505
_cell_length_c 20.420568
_cell_angle_alpha 90.000000
_cell_angle_beta 22.652376
_cell_angle_gamma 90.000000
_cell_volume 1768.819706
_symmetry_space_group_name_H-M "P 21/M"
_symmetry_group_IT_number 11
_symmetry_cell_setting 'monoclinic'
loop_
_space_group_symop_operation_xyz
x,y,z
-x,1/2+y,-z
-x,-y,-z
x,1/2-y,z
loop_
_atom_site_type_symbol
_atom_site_label
_atom_site_fract_x
_atom_site_fract_y
_atom_site_fract_z
Si Si1 0.091995 0.428707 0.546300
Si Si2 0.672298 0.929178 0.470458
Si Si3 0.131751 0.429076 0.642449
Si Si4 0.857141 0.926488 0.650070
Si Si5 0.144764 0.575685 0.846442
Si Si6 0.167043 0.575830 0.972459
Si Si7 0.802858 0.573636 0.851083
Si Si8 0.381455 0.073125 0.818670
O O1 0.081585 0.250000 0.563213
O O2 0.159066 0.489591 0.536838
O O3 0.185092 0.478681 0.375677
O O4 0.937610 0.486150 0.718099
O O5 0.682767 0.750000 0.453845
O O6 0.752934 0.993881 0.441407
O O7 0.737422 0.997519 0.330627
O O8 0.516603 0.977135 0.654029
O O9 0.137285 0.250000 0.639345
O O10 0.983478 0.484374 0.836502
O O11 0.881397 0.750000 0.619612
O O12 0.760176 0.967157 0.823825
O O13 0.000000 0.000000 0.500000
O O14 0.132046 0.750000 0.841341
O O15 0.190106 0.556619 0.869077
O O16 0.000000 0.500000 0.000000
O O17 0.186212 0.750000 0.972238
O O18 0.275185 0.470607 0.884551
O O19 0.836853 0.750000 0.818483
O O20 0.678457 0.529136 0.041104
O O21 0.414560 0.250000 0.775504
#
# Coordination Sequence:
#
# PCOD8075047 Si02
#       8
#     4   4   4   4   4   4   4   4
#     4   9  15  26  49  76 101 130 172 216 255 304
#     4  11  23  40  58  78 106 142 178 222 269 315
#     4   9  17  32  54  80 105 132 175 220 260 307
#     4   8  14  24  41  69 101 134 166 206 256 303
#     4  11  22  38  60  84 110 139 174 217 265 317
#     4  10  20  37  59  81 106 138 175 217 261 312
#     4   9  17  29  45  70 107 139 168 208 259 310
#     4  11  23  37  53  79 110 143 180 219 263 319
#
# _framework density 18.091159000000001
#
# number of rings (size 3 to 8) (size 9 to 14) (size 15 to 20)
#    0.000    2.250    2.500    1.125    0.000    2.000 
#    0.000    1.250    0.000    0.750    0.000    0.000 
#    0.000    0.000    0.000    0.000    0.000    0.250 
#
# Total GULP energy -396516.278246 kJ/mol
# GULP energy per Si atom -12391.133695 kJ/mol
# Density = 1.804998 g / cm^3
# Si number density = 18.091159 Si / 1000 Ang^3
#
#
#
# Elastic Constant Matrix: (Units=GPa)
#
#
# Indices 1 2 3 4 5 6 
#
# 1 114.2362 29.7381 52.5682 0.0000 21.6627 0.0000
# 2 29.7381 45.0577 25.0869 0.0000 9.7763 0.0000
# 3 52.5682 25.0869 84.9122 0.0000 13.8833 0.0000
# 4 0.0000 0.0000 0.0000 20.2605 0.0000 0.9433
# 5 21.6627 9.7763 13.8833 0.0000 33.0216 0.0000
# 6 0.0000 0.0000 0.0000 0.9433 0.0000 20.8367
#
#
#
# Elastic Compliance Matrix: (Units=1/GPa)
#
#
# Indices 1 2 3 4 5 6 
#
# 1 0.013824 -0.004456 -0.006416 0.000000 -0.005052 0.000000
# 2 -0.004456 0.028759 -0.005180 0.000000 -0.003414 0.000000
# 3 -0.006416 -0.005180 0.017547 0.000000 -0.001634 0.000000
# 4 0.000000 0.000000 0.000000 0.049461 0.000000 -0.002239
# 5 -0.005052 -0.003414 -0.001634 0.000000 0.035295 0.000000
# 6 0.000000 0.000000 0.000000 -0.002239 0.000000 0.048094
#
#
# Mechanical properties :
#
#
# Convention : Reuss Voigt Hill
#
# Bulk Modulus (GPa) = 35.68046 50.99918 43.33982
# Shear Modulus (GPa) = 21.32866 23.94462 22.63664
#
# Velocity S-wave (km/s) = 3.43732 3.64201 3.54114
# Velocity P-wave (km/s) = 5.95978 6.77768 6.38185
#
# Compressibility (1/GPa) = 0.02802655
#
# Stress axis : x y z
#
# Youngs Moduli (GPa) = 72.33693 34.77135 56.99082
#
# Poissons Ratio (x) = 0.15492 0.36565
# Poissons Ratio (y) = 0.32230 0.29523
# Poissons Ratio (z) = 0.46411 0.18013
#
# Static dielectric constant tensor:
#      x y z
#    x 3.800690 0.000000 0.300570 
#    y 0.000000 3.290610 0.000000 
#    z 0.300570 0.000000 2.934010 
# 
# 
# High freq. dielectric constant tensor:
#      x y z
#    x 1.712020 0.000000 0.032580 
#    y 0.000000 1.692130 0.000000 
#    z 0.032580 0.000000 1.679700 
# 
# From -- ./inp_files/67096.got.cif
#   From: 2010.06.25/outbox.cif.g09.slc.cpg/sg11_34_cif.got.tgz:67096.got - 2010.06.27 23:14:04.
