data_PCOD8075694
_publ_section_title
;
Structure prediction by ZEFSAII (Michael W. Deem and Ramdas Pophale) SiO2 
 PCOD8075694
Probable space group: P 21/M
;
_chemical_formula_sum "Si O2"
_cell_formula_units_Z 32
_cell_length_a 12.388351
_cell_length_b 8.878642
_cell_length_c 23.510325
_cell_angle_alpha 90.000000
_cell_angle_beta 133.558317
_cell_angle_gamma 90.000000
_cell_volume 1873.962875
_symmetry_space_group_name_H-M "P 21/M"
_symmetry_group_IT_number 11
_symmetry_cell_setting 'monoclinic'
loop_
_space_group_symop_operation_xyz
x,y,z
-x,1/2+y,-z
-x,-y,-z
x,1/2-y,z
loop_
_atom_site_type_symbol
_atom_site_label
_atom_site_fract_x
_atom_site_fract_y
_atom_site_fract_z
Si Si1 0.859874 0.426724 0.680159
Si Si2 0.446791 0.427988 0.422150
Si Si3 0.833169 0.574614 0.154606
Si Si4 0.053392 0.422856 0.403657
Si Si5 0.619112 0.076556 0.003312
Si Si6 0.395469 0.423999 0.830539
Si Si7 0.722694 0.426236 0.319427
Si Si8 0.329453 0.076125 0.581562
O O1 0.825589 0.250000 0.669250
O O2 0.719338 0.517711 0.652699
O O3 0.895958 0.470090 0.628702
O O4 0.997213 0.470155 0.770872
O O5 0.500000 0.500000 0.500000
O O6 0.449326 0.250000 0.430201
O O7 0.553147 0.476795 0.410024
O O8 0.813741 0.750000 0.137508
O O9 0.730782 0.523447 0.170462
O O10 0.780604 0.494543 0.076667
O O11 0.054684 0.250000 0.382851
O O12 0.164934 0.446756 0.496545
O O13 0.891216 0.472479 0.365738
O O14 0.625426 0.250000 0.021395
O O15 0.561636 0.053524 0.917598
O O16 0.500000 0.000000 0.000000
O O17 0.369056 0.250000 0.804032
O O18 0.384508 0.529031 0.771539
O O19 0.708262 0.250000 0.327263
O O20 0.669175 0.520751 0.353637
O O21 0.378513 0.250000 0.596552
#
# Coordination Sequence:
#
# PCOD8075694 Si02
#       8
#     4   4   4   4   4   4   4   4
#     4  11  21  34  55  79 105 140 176 217 264 310
#     4  12  24  39  57  78 103 134 176 222 266 312
#     4   9  18  31  48  74 105 136 173 212 258 311
#     4  10  21  35  52  76 105 138 177 216 260 313
#     4   9  17  28  45  69 101 138 173 210 255 308
#     4   9  17  31  47  70 103 140 174 208 255 309
#     4  11  22  34  51  78 107 139 178 218 261 311
#     4  11  23  39  56  74 101 140 180 221 265 309
#
# _framework density 17.076111999999998
#
# number of rings (size 3 to 8) (size 9 to 14) (size 15 to 20)
#    0.000    1.750    2.500    3.750    0.000    4.500 
#    0.000    0.000    0.000    0.000    0.000    0.875 
#    0.000    0.000    0.000    0.000    0.000    0.000 
#
# Total GULP energy -396823.357078 kJ/mol
# GULP energy per Si atom -12400.729909 kJ/mol
# Density = 1.703725 g / cm^3
# Si number density = 17.076112 Si / 1000 Ang^3
#
#
#
# Elastic Constant Matrix: (Units=GPa)
#
#
# Indices 1 2 3 4 5 6 
#
# 1 64.8311 27.8894 43.1044 0.0000 0.5886 0.0000
# 2 27.8894 84.5156 54.3936 0.0000 4.2413 0.0000
# 3 43.1044 54.3936 127.3310 0.0000 8.1132 0.0000
# 4 0.0000 0.0000 0.0000 31.8665 0.0000 -0.4401
# 5 0.5886 4.2413 8.1132 0.0000 17.0698 0.0000
# 6 0.0000 0.0000 0.0000 -0.4401 0.0000 26.3420
#
#
#
# Elastic Compliance Matrix: (Units=1/GPa)
#
#
# Indices 1 2 3 4 5 6 
#
# 1 0.020635 -0.003227 -0.005788 0.000000 0.002841 0.000000
# 2 -0.003227 0.016833 -0.006021 0.000000 -0.001209 0.000000
# 3 -0.005788 -0.006021 0.012661 0.000000 -0.004322 0.000000
# 4 0.000000 0.000000 0.000000 0.031388 0.000000 0.000524
# 5 0.002841 -0.001209 -0.004322 0.000000 0.060840 0.000000
# 6 0.000000 0.000000 0.000000 0.000524 0.000000 0.037971
#
#
# Mechanical properties :
#
#
# Convention : Reuss Voigt Hill
#
# Bulk Modulus (GPa) = 49.85981 58.60583 54.23282
# Shear Modulus (GPa) = 23.03238 25.14167 24.08703
#
# Velocity S-wave (km/s) = 3.67660 3.84126 3.75983
# Velocity P-wave (km/s) = 6.87642 7.35313 7.11877
#
# Compressibility (1/GPa) = 0.02005623
#
# Stress axis : x y z
#
# Youngs Moduli (GPa) = 48.46036 59.40736 78.98569
#
# Poissons Ratio (x) = 0.19170 0.45718
# Poissons Ratio (y) = 0.15638 0.47560
# Poissons Ratio (z) = 0.28049 0.35771
#
# Static dielectric constant tensor:
#      x y z
#    x 3.063170 0.000000 0.215200 
#    y 0.000000 3.329280 0.000000 
#    z 0.215200 0.000000 3.535540 
# 
# 
# High freq. dielectric constant tensor:
#      x y z
#    x 1.618610 0.000000 0.010600 
#    y 0.000000 1.671530 0.000000 
#    z 0.010600 0.000000 1.667110 
# 
# From -- ./inp_files/42781.got.cif
#   From: 2010.06.25/outbox.cif.g09.slc.cpg/sg11_22_cif.got.tgz:42781.got - 2010.06.27 23:14:04.
