data_PCOD8075321
_publ_section_title
;
Structure prediction by ZEFSAII (Michael W. Deem and Ramdas Pophale) SiO2 
 PCOD8075321
Probable space group: P 21/M
;
_chemical_formula_sum "Si O2"
_cell_formula_units_Z 32
_cell_length_a 7.871727
_cell_length_b 22.219104
_cell_length_c 13.642101
_cell_angle_alpha 90.000000
_cell_angle_beta 42.288808
_cell_angle_gamma 90.000000
_cell_volume 1605.490410
_symmetry_space_group_name_H-M "P 21/M"
_symmetry_group_IT_number 11
_symmetry_cell_setting 'monoclinic'
loop_
_space_group_symop_operation_xyz
x,y,z
-x,1/2+y,-z
-x,-y,-z
x,1/2-y,z
loop_
_atom_site_type_symbol
_atom_site_label
_atom_site_fract_x
_atom_site_fract_y
_atom_site_fract_z
Si Si1 0.309040 0.821910 0.508814
Si Si2 0.155884 0.101530 0.245945
Si Si3 0.185403 0.682248 0.342200
Si Si4 0.458065 0.119458 0.935736
Si Si5 0.272447 0.482374 0.917690
Si Si6 0.732583 0.535964 0.614712
Si Si7 0.239467 0.107642 0.583313
Si Si8 0.152179 0.529094 0.167225
O O1 0.312065 0.750000 0.522654
O O2 0.288051 0.840521 0.403532
O O3 0.558161 0.849902 0.451154
O O4 0.072072 0.851362 0.664717
O O5 0.250943 0.092662 0.316835
O O6 0.072958 0.035889 0.242601
O O7 0.369871 0.131539 0.084494
O O8 0.094568 0.750000 0.390660
O O9 0.418676 0.678329 0.165025
O O10 0.948126 0.646396 0.403741
O O11 0.661541 0.064235 0.839097
O O12 0.244184 0.089034 0.958220
O O13 0.496777 0.493885 0.745000
O O14 0.308722 0.523628 0.999650
O O15 0.000000 0.500000 0.000000
O O16 0.653230 0.559518 0.540930
O O17 0.000000 0.500000 0.500000
O O18 0.099048 0.070843 0.730654
#
# Coordination Sequence:
#
# PCOD8075321 Si02
#       8
#     4   4   4   4   4   4   4   4
#     4  11  26  42  59  87 121 161 214 265 303 365
#     4  11  20  38  60  86 125 156 202 249 309 369
#     4  10  22  42  65  85 111 162 214 258 311 368
#     4  10  20  38  60  85 119 158 196 249 308 377
#     4  11  23  34  56  91 133 159 196 245 312 381
#     4  12  21  38  61  95 132 167 204 248 314 391
#     4  11  23  38  65  89 127 158 203 261 317 375
#     4  10  20  38  58  91 119 160 194 250 314 376
#
# _framework density 19.931602999999999
#
# number of rings (size 3 to 8) (size 9 to 14) (size 15 to 20)
#    0.000    1.250    5.000    1.875    5.250    1.000 
#    0.000    0.000    0.000    0.000    0.000    0.000 
#    0.000    0.000    0.000    0.000    0.000    0.000 
#
# Total GULP energy -396484.431584 kJ/mol
# GULP energy per Si atom -12390.138487 kJ/mol
# Density = 1.988624 g / cm^3
# Si number density = 19.931603 Si / 1000 Ang^3
#
#
#
# Elastic Constant Matrix: (Units=GPa)
#
#
# Indices 1 2 3 4 5 6 
#
# 1 73.4666 17.0342 23.6425 0.0000 -2.7775 0.0000
# 2 17.0342 57.1207 31.4171 0.0000 0.9452 0.0000
# 3 23.6425 31.4171 129.2485 0.0000 2.1545 0.0000
# 4 0.0000 0.0000 0.0000 26.9541 0.0000 -3.8233
# 5 -2.7775 0.9452 2.1545 0.0000 24.4608 0.0000
# 6 0.0000 0.0000 0.0000 -3.8233 0.0000 33.0000
#
#
#
# Elastic Compliance Matrix: (Units=1/GPa)
#
#
# Indices 1 2 3 4 5 6 
#
# 1 0.015122 -0.003467 -0.001957 0.000000 0.002023 0.000000
# 2 -0.003467 0.021006 -0.004458 0.000000 -0.000813 0.000000
# 3 -0.001957 -0.004458 0.009193 0.000000 -0.000860 0.000000
# 4 0.000000 0.000000 0.000000 0.037720 0.000000 0.004370
# 5 0.002023 -0.000813 -0.000860 0.000000 0.041219 0.000000
# 6 0.000000 0.000000 0.000000 0.004370 0.000000 0.030809
#
#
# Mechanical properties :
#
#
# Convention : Reuss Voigt Hill
#
# Bulk Modulus (GPa) = 39.12860 44.89147 42.01003
# Shear Modulus (GPa) = 27.26992 29.39912 28.33452
#
# Velocity S-wave (km/s) = 3.70290 3.84474 3.77449
# Velocity P-wave (km/s) = 6.16084 6.50239 6.33392
#
# Compressibility (1/GPa) = 0.02555675
#
# Stress axis : x y z
#
# Youngs Moduli (GPa) = 66.12995 47.60500 108.77709
#
# Poissons Ratio (x) = 0.16502 0.21290
# Poissons Ratio (y) = 0.22924 0.48497
# Poissons Ratio (z) = 0.12943 0.21224
#
# Static dielectric constant tensor:
#      x y z
#    x 6.425440 0.000000 2.763170 
#    y 0.000000 3.874070 0.000000 
#    z 2.763170 0.000000 6.434310 
# 
# 
# High freq. dielectric constant tensor:
#      x y z
#    x 1.767400 0.000000 0.006970 
#    y 0.000000 1.756300 0.000000 
#    z 0.006970 0.000000 1.793070 
# 
# From -- ./inp_files/48244.got.cif
#   From: 2010.06.25/outbox.cif.g09.slc.cpg/sg11_25_cif.got.tgz:48244.got - 2010.06.27 23:14:04.
