data_PCOD8075152
_publ_section_title
;
Structure prediction by ZEFSAII (Michael W. Deem and Ramdas Pophale) SiO2 
 PCOD8075152
Probable space group: P 21/M
;
_chemical_formula_sum "Si O2"
_cell_formula_units_Z 28
_cell_length_a 15.899029
_cell_length_b 8.777156
_cell_length_c 20.115588
_cell_angle_alpha 90.000000
_cell_angle_beta 149.926476
_cell_angle_gamma 90.000000
_cell_volume 1406.666040
_symmetry_space_group_name_H-M "P 21/M"
_symmetry_group_IT_number 11
_symmetry_cell_setting 'monoclinic'
loop_
_space_group_symop_operation_xyz
x,y,z
-x,1/2+y,-z
-x,-y,-z
x,1/2-y,z
loop_
_atom_site_type_symbol
_atom_site_label
_atom_site_fract_x
_atom_site_fract_y
_atom_site_fract_z
Si Si1 0.369384 0.571576 0.360827
Si Si2 0.110246 0.930279 0.398321
Si Si3 0.900095 0.430858 0.370387
Si Si4 0.964259 0.070444 0.801182
Si Si5 0.449355 0.428014 0.895960
Si Si6 0.312574 0.925429 0.061593
Si Si7 0.533158 0.929080 0.335746
O O1 0.500000 0.500000 0.500000
O O2 0.377836 0.750000 0.378436
O O3 0.183200 0.510422 0.250988
O O4 0.414234 0.527806 0.316240
O O5 0.087014 0.750000 0.390145
O O6 0.071295 0.989504 0.297528
O O7 0.297979 0.974483 0.546207
O O8 0.978936 0.015339 0.355294
O O9 0.905265 0.250000 0.378604
O O10 0.709926 0.488101 0.244294
O O11 0.000000 0.500000 0.500000
O O12 0.968948 0.250000 0.803257
O O13 0.139306 0.013557 0.949264
O O14 0.408370 0.250000 0.876723
O O15 0.604988 0.455042 0.953436
O O16 0.500000 0.500000 0.000000
O O17 0.271303 0.750000 0.044904
O O18 0.437784 0.982645 0.204448
O O19 0.577907 0.750000 0.365009
#
# Coordination Sequence:
#
# PCOD8075152 Si02
#       7
#     4   4   4   4   4   4   4
#     4  10  20  37  60  88 120 155 197 247 299 355
#     4  11  22  38  61  89 120 155 200 249 301 362
#     4  12  25  41  62  90 122 158 203 253 310 368
#     4  10  22  38  58  87 121 154 196 246 295 352
#     4  11  23  41  63  88 122 162 208 257 308 368
#     4  10  23  40  58  85 118 155 198 244 299 360
#     4  10  21  38  61  87 120 159 200 249 303 359
#
# _framework density 19.905222999999999
#
# number of rings (size 3 to 8) (size 9 to 14) (size 15 to 20)
#    0.000    1.429    1.429    3.857    0.000    7.429 
#    0.000    0.000    0.000    0.000    0.000    0.000 
#    0.000    0.000    0.000    0.000    0.000    0.000 
#
# Total GULP energy -347338.770572 kJ/mol
# GULP energy per Si atom -12404.956092 kJ/mol
# Density = 1.985992 g / cm^3
# Si number density = 19.905223 Si / 1000 Ang^3
#
#
#
# Elastic Constant Matrix: (Units=GPa)
#
#
# Indices 1 2 3 4 5 6 
#
# 1 74.7123 25.3784 10.9213 0.0000 1.9094 0.0000
# 2 25.3784 64.5270 21.4360 0.0000 2.8975 0.0000
# 3 10.9213 21.4360 99.5490 0.0000 2.0109 0.0000
# 4 0.0000 0.0000 0.0000 40.9718 0.0000 2.0218
# 5 1.9094 2.8975 2.0109 0.0000 41.1174 0.0000
# 6 0.0000 0.0000 0.0000 2.0218 0.0000 25.1894
#
#
#
# Elastic Compliance Matrix: (Units=1/GPa)
#
#
# Indices 1 2 3 4 5 6 
#
# 1 0.015468 -0.005933 -0.000414 0.000000 -0.000280 0.000000
# 2 -0.005933 0.019009 -0.003424 0.000000 -0.000897 0.000000
# 3 -0.000414 -0.003424 0.010833 0.000000 -0.000269 0.000000
# 4 0.000000 0.000000 0.000000 0.024504 0.000000 -0.001967
# 5 -0.000280 -0.000897 -0.000269 0.000000 0.024410 0.000000
# 6 0.000000 0.000000 0.000000 -0.001967 0.000000 0.039857
#
#
# Mechanical properties :
#
#
# Convention : Reuss Voigt Hill
#
# Bulk Modulus (GPa) = 38.80849 39.36218 39.08534
# Shear Modulus (GPa) = 30.82370 33.52590 32.17480
#
# Velocity S-wave (km/s) = 3.93940 4.10845 4.02481
# Velocity P-wave (km/s) = 6.34277 6.50565 6.42473
#
# Compressibility (1/GPa) = 0.02576756
#
# Stress axis : x y z
#
# Youngs Moduli (GPa) = 64.65050 52.60721 92.30674
#
# Poissons Ratio (x) = 0.31214 0.03818
# Poissons Ratio (y) = 0.38360 0.31607
# Poissons Ratio (z) = 0.02674 0.18013
#
# Static dielectric constant tensor:
#      x y z
#    x 4.084240 0.000000 0.077060 
#    y 0.000000 3.627730 0.000000 
#    z 0.077060 0.000000 3.730660 
# 
# 
# High freq. dielectric constant tensor:
#      x y z
#    x 1.792490 0.000000 0.003110 
#    y 0.000000 1.773470 0.000000 
#    z 0.003110 0.000000 1.786260 
# 
# From -- ./inp_files/65442.got.cif
#   From: 2010.06.25/outbox.cif.g09.slc.cpg/sg11_33_cif.got.tgz:65442.got - 2010.06.27 23:14:04.
