data_PCOD8075174
_publ_section_title
;
Structure prediction by ZEFSAII (Michael W. Deem and Ramdas Pophale) SiO2 
 PCOD8075174
Probable space group: P 21/M
;
_chemical_formula_sum "Si O2"
_cell_formula_units_Z 28
_cell_length_a 10.673592
_cell_length_b 9.023191
_cell_length_c 14.469219
_cell_angle_alpha 90.000000
_cell_angle_beta 80.182148
_cell_angle_gamma 90.000000
_cell_volume 1373.119967
_symmetry_space_group_name_H-M "P 21/M"
_symmetry_group_IT_number 11
_symmetry_cell_setting 'monoclinic'
loop_
_space_group_symop_operation_xyz
x,y,z
-x,1/2+y,-z
-x,-y,-z
x,1/2-y,z
loop_
_atom_site_type_symbol
_atom_site_label
_atom_site_fract_x
_atom_site_fract_y
_atom_site_fract_z
Si Si1 0.934503 0.081727 0.253867
Si Si2 0.668144 0.079657 0.229744
Si Si3 0.539536 0.915533 0.404013
Si Si4 0.212364 0.079557 0.224071
Si Si5 0.896259 0.925139 0.447644
Si Si6 0.262923 0.584283 0.399162
Si Si7 0.472531 0.425596 0.099981
O O1 0.925886 0.250000 0.293644
O O2 0.820513 0.058103 0.192769
O O3 0.075026 0.058693 0.189824
O O4 0.915167 0.968227 0.339538
O O5 0.630801 0.250000 0.248769
O O6 0.581868 0.016937 0.157159
O O7 0.643878 0.998240 0.329880
O O8 0.589477 0.750000 0.420882
O O9 0.411975 0.908605 0.358520
O O10 0.500000 0.000000 0.500000
O O11 0.239024 0.250000 0.245797
O O12 0.331458 0.021126 0.149129
O O13 0.194736 0.991185 0.321131
O O14 0.899890 0.750000 0.457213
O O15 0.762075 0.989116 0.503720
O O16 0.000000 0.000000 0.500000
O O17 0.206374 0.750000 0.418443
O O18 0.478846 0.250000 0.087180
O O19 0.500000 0.500000 0.000000
#
# Coordination Sequence:
#
# PCOD8075174 Si02
#       7
#     4   4   4   4   4   4   4
#     4  10  21  37  58  85 118 156 197 248 300 348
#     4  10  21  39  61  87 120 155 198 248 303 360
#     4  11  23  36  54  82 118 160 203 247 295 350
#     4  10  20  37  61  85 112 149 193 238 293 355
#     4  12  23  34  51  79 118 163 209 249 291 348
#     4  11  22  35  53  80 113 152 201 251 294 340
#     4  10  22  41  66  92 117 152 196 248 309 370
#
# _framework density 20.391518999999999
#
# number of rings (size 3 to 8) (size 9 to 14) (size 15 to 20)
#    0.000    1.429    2.857    3.000    0.000    6.857 
#    0.000    0.714    0.000    0.000    0.000    0.000 
#    0.000    0.000    0.000    0.000    0.000    0.000 
#
# Total GULP energy -347071.918911 kJ/mol
# GULP energy per Si atom -12395.425675 kJ/mol
# Density = 2.034511 g / cm^3
# Si number density = 20.391519 Si / 1000 Ang^3
#
#
#
# Elastic Constant Matrix: (Units=GPa)
#
#
# Indices 1 2 3 4 5 6 
#
# 1 152.3906 30.2755 52.7750 0.0000 -10.7708 0.0000
# 2 30.2755 100.4723 36.7579 0.0000 -1.5821 0.0000
# 3 52.7750 36.7579 101.2281 0.0000 -2.7802 0.0000
# 4 0.0000 0.0000 0.0000 31.6061 0.0000 -0.4276
# 5 -10.7708 -1.5821 -2.7802 0.0000 23.7247 0.0000
# 6 0.0000 0.0000 0.0000 -0.4276 0.0000 18.8607
#
#
#
# Elastic Compliance Matrix: (Units=1/GPa)
#
#
# Indices 1 2 3 4 5 6 
#
# 1 0.008344 -0.001043 -0.003882 0.000000 0.003264 0.000000
# 2 -0.001043 0.011610 -0.003676 0.000000 -0.000130 0.000000
# 3 -0.003882 -0.003676 0.013225 0.000000 -0.000458 0.000000
# 4 0.000000 0.000000 0.000000 0.031649 0.000000 0.000718
# 5 0.003264 -0.000130 -0.000458 0.000000 0.043570 0.000000
# 6 0.000000 0.000000 0.000000 0.000718 0.000000 0.053037
#
#
# Mechanical properties :
#
#
# Convention : Reuss Voigt Hill
#
# Bulk Modulus (GPa) = 62.58613 65.96752 64.27682
# Shear Modulus (GPa) = 27.17964 30.45714 28.81839
#
# Velocity S-wave (km/s) = 3.65484 3.86893 3.76340
# Velocity P-wave (km/s) = 6.96917 7.23732 7.10451
#
# Compressibility (1/GPa) = 0.01597798
#
# Stress axis : x y z
#
# Youngs Moduli (GPa) = 119.84194 86.13311 75.61615
#
# Poissons Ratio (x) = 0.08982 0.29354
# Poissons Ratio (y) = 0.12497 0.27794
# Poissons Ratio (z) = 0.46523 0.31660
#
# Static dielectric constant tensor:
#      x y z
#    x 4.412800 0.000000 -0.224250 
#    y 0.000000 3.683740 0.000000 
#    z -0.224250 0.000000 3.307600 
# 
# 
# High freq. dielectric constant tensor:
#      x y z
#    x 1.828650 0.000000 -0.010430 
#    y 0.000000 1.795170 0.000000 
#    z -0.010430 0.000000 1.746420 
# 
# From -- ./inp_files/48919.got.cif
#   From: 2010.06.25/outbox.cif.g09.slc.cpg/sg11_25_cif.got.tgz:48919.got - 2010.06.27 23:14:04.
