data_PCOD8075066
_publ_section_title
;
Structure prediction by ZEFSAII (Michael W. Deem and Ramdas Pophale) SiO2 
 PCOD8075066
Probable space group: P 21/M
;
_chemical_formula_sum "Si O2"
_cell_formula_units_Z 28
_cell_length_a 10.284570
_cell_length_b 8.845143
_cell_length_c 20.367787
_cell_angle_alpha 90.000000
_cell_angle_beta 128.769748
_cell_angle_gamma 90.000000
_cell_volume 1444.591124
_symmetry_space_group_name_H-M "P 21/M"
_symmetry_group_IT_number 11
_symmetry_cell_setting 'monoclinic'
loop_
_space_group_symop_operation_xyz
x,y,z
-x,1/2+y,-z
-x,-y,-z
x,1/2-y,z
loop_
_atom_site_type_symbol
_atom_site_label
_atom_site_fract_x
_atom_site_fract_y
_atom_site_fract_z
Si Si1 0.024712 0.429559 0.324351
Si Si2 0.951005 0.070416 0.053012
Si Si3 0.874425 0.423880 0.510828
Si Si4 0.420672 0.927291 0.038160
Si Si5 0.327228 0.072791 0.769610
Si Si6 0.441043 0.576010 0.673998
Si Si7 0.809226 0.929083 0.756358
O O1 0.027123 0.250000 0.330281
O O2 0.116964 0.496368 0.416491
O O3 0.121980 0.490633 0.291082
O O4 0.835130 0.482947 0.259108
O O5 0.957562 0.250000 0.049009
O O6 0.076883 0.008729 0.148377
O O7 0.766927 0.012714 0.013201
O O8 0.000000 0.000000 0.000000
O O9 0.927858 0.250000 0.535047
O O10 0.685311 0.440045 0.426490
O O11 0.000000 0.500000 0.500000
O O12 0.422546 0.750000 0.028086
O O13 0.523324 0.974388 0.135070
O O14 0.500000 0.000000 0.000000
O O15 0.288661 0.250000 0.759812
O O16 0.377581 0.028035 0.712446
O O17 0.451011 0.750000 0.701189
O O18 0.620145 0.515124 0.706746
O O19 0.817868 0.750000 0.758221
#
# Coordination Sequence:
#
# PCOD8075066 Si02
#       7
#     4   4   4   4   4   4   4
#     4  11  22  38  61  85 114 154 193 235 289 343
#     4  10  20  37  59  83 114 150 190 236 284 339
#     4  11  22  37  59  87 118 149 191 237 283 340
#     4  10  22  37  55  83 115 149 190 238 286 337
#     4  11  22  36  56  84 116 148 191 241 285 335
#     4  10  21  38  60  84 111 148 192 233 280 342
#     4   9  20  38  59  84 114 150 192 234 282 342
#
# _framework density 19.382646000000001
#
# number of rings (size 3 to 8) (size 9 to 14) (size 15 to 20)
#    0.000    1.714    1.429    3.000    0.000    4.000 
#    0.000    2.857    0.000    0.000    0.000    0.000 
#    0.000    0.000    0.000    0.000    0.000    0.000 
#
# Total GULP energy -347316.624195 kJ/mol
# GULP energy per Si atom -12404.165150 kJ/mol
# Density = 1.933853 g / cm^3
# Si number density = 19.382646 Si / 1000 Ang^3
#
#
#
# Elastic Constant Matrix: (Units=GPa)
#
#
# Indices 1 2 3 4 5 6 
#
# 1 154.7256 35.8004 58.2869 0.0000 4.3118 0.0000
# 2 35.8004 60.0966 37.1004 0.0000 -2.0381 0.0000
# 3 58.2869 37.1004 128.4481 0.0000 6.9053 0.0000
# 4 0.0000 0.0000 0.0000 28.2434 0.0000 -6.1571
# 5 4.3118 -2.0381 6.9053 0.0000 42.2128 0.0000
# 6 0.0000 0.0000 0.0000 -6.1571 0.0000 17.9277
#
#
#
# Elastic Compliance Matrix: (Units=1/GPa)
#
#
# Indices 1 2 3 4 5 6 
#
# 1 0.008277 -0.003223 -0.002796 0.000000 -0.000544 0.000000
# 2 -0.003223 0.021667 -0.004913 0.000000 0.002179 0.000000
# 3 -0.002796 -0.004913 0.010563 0.000000 -0.001680 0.000000
# 4 0.000000 0.000000 0.000000 0.038272 0.000000 0.013144
# 5 -0.000544 0.002179 -0.001680 0.000000 0.024125 0.000000
# 6 0.000000 0.000000 0.000000 0.013144 0.000000 0.060294
#
#
# Mechanical properties :
#
#
# Convention : Reuss Voigt Hill
#
# Bulk Modulus (GPa) = 53.63750 67.29398 60.46574
# Shear Modulus (GPa) = 26.14030 31.81564 28.97797
#
# Velocity S-wave (km/s) = 3.67637 4.05588 3.87078
# Velocity P-wave (km/s) = 6.76417 7.53177 7.15827
#
# Compressibility (1/GPa) = 0.01864367
#
# Stress axis : x y z
#
# Youngs Moduli (GPa) = 120.81353 46.15376 94.66889
#
# Poissons Ratio (x) = 0.14877 0.26467
# Poissons Ratio (y) = 0.38942 0.46507
# Poissons Ratio (z) = 0.33777 0.22673
#
# Static dielectric constant tensor:
#      x y z
#    x 4.069130 0.000000 0.444850 
#    y 0.000000 3.452390 0.000000 
#    z 0.444850 0.000000 4.167490 
# 
# 
# High freq. dielectric constant tensor:
#      x y z
#    x 1.762910 0.000000 0.002590 
#    y 0.000000 1.741700 0.000000 
#    z 0.002590 0.000000 1.773700 
# 
# From -- ./inp_files/28301.got.cif
#   From: 2010.06.25/outbox.cif.g09.slc.cpg/sg11_15_cif.got.tgz:28301.got - 2010.06.27 23:14:04.
