data_PCOD8075859
_publ_section_title
;
Structure prediction by ZEFSAII (Michael W. Deem and Ramdas Pophale) SiO2 
 PCOD8075859
Probable space group: P 21/M
;
_chemical_formula_sum "Si O2"
_cell_formula_units_Z 32
_cell_length_a 14.465594
_cell_length_b 13.730850
_cell_length_c 18.764808
_cell_angle_alpha 90.000000
_cell_angle_beta 153.955847
_cell_angle_gamma 90.000000
_cell_volume 1636.459623
_symmetry_space_group_name_H-M "P 21/M"
_symmetry_group_IT_number 11
_symmetry_cell_setting 'monoclinic'
loop_
_space_group_symop_operation_xyz
x,y,z
-x,1/2+y,-z
-x,-y,-z
x,1/2-y,z
loop_
_atom_site_type_symbol
_atom_site_label
_atom_site_fract_x
_atom_site_fract_y
_atom_site_fract_z
Si Si1 0.510166 0.959518 0.901901
Si Si2 0.068747 0.364718 0.849509
Si Si3 0.318563 0.863038 0.900117
Si Si4 0.375990 0.864467 0.521895
Si Si5 0.828735 0.861938 0.573521
Si Si6 0.447682 0.999195 0.701065
Si Si7 0.080447 0.513463 0.976962
Si Si8 0.265633 0.364926 0.335811
O O1 0.354691 0.897828 0.844088
O O2 0.405432 0.960233 0.751391
O O3 0.735680 0.906129 0.059343
O O4 0.538449 0.070704 0.948827
O O5 0.088103 0.250000 0.872849
O O6 0.860389 0.394850 0.661893
O O7 0.060429 0.410363 0.922555
O O8 0.383370 0.750000 0.954430
O O9 0.076290 0.879990 0.751563
O O10 0.400010 0.750000 0.546934
O O11 0.439232 0.908810 0.641270
O O12 0.530501 0.902663 0.566067
O O13 0.779167 0.750000 0.523654
O O14 0.717536 0.897992 0.569941
O O15 0.729840 0.922099 0.440283
O O16 0.677721 0.048718 0.855928
O O17 0.000000 0.500000 0.000000
O O18 0.948465 0.595487 0.845926
O O19 0.245319 0.250000 0.318646
#
# Coordination Sequence:
#
# PCOD8075859 Si02
#       8
#     4   4   4   4   4   4   4   4
#     4  10  22  39  63  92 116 149 191 239 299 345
#     4  10  22  39  58  82 114 152 195 237 283 347
#     4  10  21  41  65  86 115 154 194 237 288 351
#     4  10  21  36  57  82 113 154 194 234 284 342
#     4  10  22  38  58  83 113 154 198 237 285 342
#     4  11  22  36  57  85 120 147 185 246 288 344
#     4  11  22  34  52  81 112 151 191 236 289 337
#     4  10  21  38  56  78 113 157 198 234 280 343
#
# _framework density 19.554407999999999
#
# number of rings (size 3 to 8) (size 9 to 14) (size 15 to 20)
#    0.000    1.750    1.250    3.375    1.750    5.500 
#    0.000    0.000    0.000    3.000    0.000    0.000 
#    0.000    0.000    0.000    0.000    0.000    0.000 
#
# Total GULP energy -396922.708433 kJ/mol
# GULP energy per Si atom -12403.834639 kJ/mol
# Density = 1.950990 g / cm^3
# Si number density = 19.554408 Si / 1000 Ang^3
#
#
#
# Elastic Constant Matrix: (Units=GPa)
#
#
# Indices 1 2 3 4 5 6 
#
# 1 130.9330 41.5355 28.3319 0.0000 -3.9988 0.0000
# 2 41.5355 74.2581 34.4416 0.0000 -0.6146 0.0000
# 3 28.3319 34.4416 71.1940 0.0000 -11.9107 0.0000
# 4 0.0000 0.0000 0.0000 30.3968 0.0000 2.2613
# 5 -3.9988 -0.6146 -11.9107 0.0000 25.4224 0.0000
# 6 0.0000 0.0000 0.0000 2.2613 0.0000 27.2417
#
#
#
# Elastic Compliance Matrix: (Units=1/GPa)
#
#
# Indices 1 2 3 4 5 6 
#
# 1 0.009427 -0.004619 -0.001397 0.000000 0.000717 0.000000
# 2 -0.004619 0.019973 -0.008534 0.000000 -0.004242 0.000000
# 3 -0.001397 -0.008534 0.020246 0.000000 0.009060 0.000000
# 4 0.000000 0.000000 0.000000 0.033103 0.000000 -0.002748
# 5 0.000717 -0.004242 0.009060 0.000000 0.043590 0.000000
# 6 0.000000 0.000000 0.000000 -0.002748 0.000000 0.036937
#
#
# Mechanical properties :
#
#
# Convention : Reuss Voigt Hill
#
# Bulk Modulus (GPa) = 48.67056 53.88923 51.27990
# Shear Modulus (GPa) = 25.09733 28.08390 26.59061
#
# Velocity S-wave (km/s) = 3.58643 3.79382 3.69158
# Velocity P-wave (km/s) = 6.48797 6.84173 6.66720
#
# Compressibility (1/GPa) = 0.02054630
#
# Stress axis : x y z
#
# Youngs Moduli (GPa) = 106.07881 50.06722 49.39193
#
# Poissons Ratio (x) = 0.23126 0.06900
# Poissons Ratio (y) = 0.48997 0.42151
# Poissons Ratio (z) = 0.14820 0.42727
#
# Static dielectric constant tensor:
#      x y z
#    x 3.741270 0.000000 0.080220 
#    y 0.000000 3.611070 0.000000 
#    z 0.080220 0.000000 3.576670 
# 
# 
# High freq. dielectric constant tensor:
#      x y z
#    x 1.767160 0.000000 0.003580 
#    y 0.000000 1.769280 0.000000 
#    z 0.003580 0.000000 1.758330 
# 
# From -- ./inp_files/65803.got.cif
#   From: 2010.06.25/outbox.cif.g09.slc.cpg/sg11_33_cif.got.tgz:65803.got - 2010.06.27 23:14:04.
