data_PCOD8075032
_publ_section_title
;
Structure prediction by ZEFSAII (Michael W. Deem and Ramdas Pophale) SiO2 
 PCOD8075032
Probable space group: P 21/M
;
_chemical_formula_sum "Si O2"
_cell_formula_units_Z 32
_cell_length_a 9.332300
_cell_length_b 13.141982
_cell_length_c 20.619116
_cell_angle_alpha 90.000000
_cell_angle_beta 41.927219
_cell_angle_gamma 90.000000
_cell_volume 1689.728857
_symmetry_space_group_name_H-M "P 21/M"
_symmetry_group_IT_number 11
_symmetry_cell_setting 'monoclinic'
loop_
_space_group_symop_operation_xyz
x,y,z
-x,1/2+y,-z
-x,-y,-z
x,1/2-y,z
loop_
_atom_site_type_symbol
_atom_site_label
_atom_site_fract_x
_atom_site_fract_y
_atom_site_fract_z
Si Si1 0.561436 0.524442 0.552967
Si Si2 0.663811 0.637285 0.293790
Si Si3 0.901557 0.635620 0.865682
Si Si4 0.004703 0.127478 0.617874
Si Si5 0.544980 0.051795 0.750180
Si Si6 0.474210 0.133139 0.911614
Si Si7 0.618013 0.136066 0.272581
Si Si8 0.917781 0.439022 0.790186
O O1 0.500000 0.500000 0.500000
O O2 0.525885 0.419241 0.603109
O O3 0.798660 0.569594 0.482241
O O4 0.409720 0.605448 0.641829
O O5 0.665052 0.750000 0.320634
O O6 0.606420 0.630550 0.237262
O O7 0.902198 0.591734 0.218567
O O8 0.855678 0.750000 0.855775
O O9 0.884230 0.560611 0.809704
O O10 0.128553 0.630251 0.826247
O O11 0.725663 0.601366 0.977545
O O12 0.024828 0.250000 0.605799
O O13 0.789655 0.087097 0.656622
O O14 0.012556 0.091497 0.689228
O O15 0.483572 0.058189 0.846494
O O16 0.509538 0.938064 0.733707
O O17 0.459978 0.250000 0.893058
O O18 0.693733 0.118517 0.878593
O O19 0.530473 0.250000 0.290561
#
# Coordination Sequence:
#
# PCOD8075032 Si02
#       8
#     4   4   4   4   4   4   4   4
#     4  11  21  36  57  86 113 144 193 226 280 338
#     4  11  21  35  57  84 119 147 186 241 283 330
#     4  10  20  37  58  84 114 153 195 232 284 347
#     4  11  22  38  62  85 115 152 190 235 287 343
#     4  10  21  39  58  84 114 149 195 235 282 338
#     4  10  21  36  60  84 114 153 191 236 291 342
#     4  10  21  38  57  80 117 157 189 234 291 342
#     4  11  19  37  56  87 114 148 188 240 291 334
#
# _framework density 18.937949
#
# number of rings (size 3 to 8) (size 9 to 14) (size 15 to 20)
#    0.000    1.500    3.750    3.750    0.000    3.000 
#    0.000    5.000    0.000    1.500    0.000    0.000 
#    0.000    0.000    0.000    0.000    0.000    0.000 
#
# Total GULP energy -396604.216346 kJ/mol
# GULP energy per Si atom -12393.881761 kJ/mol
# Density = 1.889485 g / cm^3
# Si number density = 18.937949 Si / 1000 Ang^3
#
#
#
# Elastic Constant Matrix: (Units=GPa)
#
#
# Indices 1 2 3 4 5 6 
#
# 1 97.0697 33.3026 44.2378 0.0000 -14.8516 0.0000
# 2 33.3026 149.7283 50.8521 0.0000 2.1079 0.0000
# 3 44.2378 50.8521 114.8290 0.0000 -26.5304 0.0000
# 4 0.0000 0.0000 0.0000 29.1159 0.0000 -3.0894
# 5 -14.8516 2.1079 -26.5304 0.0000 20.9710 0.0000
# 6 0.0000 0.0000 0.0000 -3.0894 0.0000 28.6039
#
#
#
# Elastic Compliance Matrix: (Units=1/GPa)
#
#
# Indices 1 2 3 4 5 6 
#
# 1 0.013204 -0.002084 -0.002762 0.000000 0.006066 0.000000
# 2 -0.002084 0.009080 -0.005327 0.000000 -0.009128 0.000000
# 3 -0.002762 -0.005327 0.016679 0.000000 0.019679 0.000000
# 4 0.000000 0.000000 0.000000 0.034744 0.000000 0.003752
# 5 0.006066 -0.009128 0.019679 0.000000 0.077794 0.000000
# 6 0.000000 0.000000 0.000000 0.003752 0.000000 0.035366
#
#
# Mechanical properties :
#
#
# Convention : Reuss Voigt Hill
#
# Bulk Modulus (GPa) = 53.71915 68.71244 61.21580
# Shear Modulus (GPa) = 23.42812 31.28712 27.35762
#
# Velocity S-wave (km/s) = 3.52106 4.06900 3.80490
# Velocity P-wave (km/s) = 6.70507 7.64443 7.19011
#
# Compressibility (1/GPa) = 0.01861534
#
# Stress axis : x y z
#
# Youngs Moduli (GPa) = 75.73572 110.13138 59.95635
#
# Poissons Ratio (x) = 0.22951 0.16563
# Poissons Ratio (y) = 0.15783 0.31940
# Poissons Ratio (z) = 0.20922 0.58669
#
# Static dielectric constant tensor:
#      x y z
#    x 3.442000 0.000000 -0.170030 
#    y 0.000000 3.665270 0.000000 
#    z -0.170030 0.000000 3.565150 
# 
# 
# High freq. dielectric constant tensor:
#      x y z
#    x 1.725090 0.000000 -0.015890 
#    y 0.000000 1.743640 0.000000 
#    z -0.015890 0.000000 1.736020 
# 
# From -- ./inp_files/63807.got.cif
#   From: 2010.06.25/outbox.cif.g09.slc.cpg/sg11_32_cif.got.tgz:63807.got - 2010.06.27 23:14:04.
