data_PCOD8075510
_publ_section_title
;
Structure prediction by ZEFSAII (Michael W. Deem and Ramdas Pophale) SiO2 
 PCOD8075510
Probable space group: P 21/M
;
_chemical_formula_sum "Si O2"
_cell_formula_units_Z 32
_cell_length_a 21.988434
_cell_length_b 8.525280
_cell_length_c 28.261197
_cell_angle_alpha 90.000000
_cell_angle_beta 162.991229
_cell_angle_gamma 90.000000
_cell_volume 1549.695033
_symmetry_space_group_name_H-M "P 21/M"
_symmetry_group_IT_number 11
_symmetry_cell_setting 'monoclinic'
loop_
_space_group_symop_operation_xyz
x,y,z
-x,1/2+y,-z
-x,-y,-z
x,1/2-y,z
loop_
_atom_site_type_symbol
_atom_site_label
_atom_site_fract_x
_atom_site_fract_y
_atom_site_fract_z
Si Si1 0.031298 0.928360 0.747424
Si Si2 0.616258 0.571531 0.042878
Si Si3 0.403564 0.931725 0.570556
Si Si4 0.106104 0.929945 0.907873
Si Si5 0.724063 0.573498 0.262767
Si Si6 0.361217 0.436417 0.438619
Si Si7 0.496286 0.563821 0.257271
Si Si8 0.834395 0.430334 0.441754
O O1 0.947995 0.750000 0.681264
O O2 0.156763 0.951750 0.889970
O O3 0.840605 0.046661 0.602638
O O4 0.179250 0.969507 0.814152
O O5 0.681441 0.750000 0.099189
O O6 0.454358 0.553576 0.879589
O O7 0.500000 0.500000 0.000000
O O8 0.463222 0.750000 0.614968
O O9 0.460694 0.005093 0.562092
O O10 0.528153 0.015977 0.705940
O O11 0.096136 0.750000 0.915296
O O12 0.874863 0.001809 0.744851
O O13 0.293520 0.005047 0.078263
O O14 0.633640 0.750000 0.191315
O O15 0.787064 0.545991 0.363426
O O16 0.914478 0.556186 0.366534
O O17 0.500000 0.500000 0.500000
O O18 0.360033 0.250000 0.438844
O O19 0.512366 0.750000 0.264159
O O20 0.708589 0.488439 0.394268
O O21 0.774443 0.250000 0.386276
#
# Coordination Sequence:
#
# PCOD8075510 Si02
#       8
#     4   4   4   4   4   4   4   4
#     4  10  20  39  62  84 112 151 197 249 304 361
#     4  12  25  38  54  77 108 146 193 248 304 358
#     4  11  23  39  59  89 125 160 199 243 291 351
#     4   8  18  36  61  89 117 150 191 237 287 346
#     4  10  21  38  55  75 106 144 193 244 299 361
#     4  10  20  40  67  95 124 158 198 239 289 349
#     4  11  21  36  59  86 118 156 196 243 299 351
#     4  10  21  36  56  80 109 146 190 243 299 356
#
# _framework density 20.649225000000001
#
# number of rings (size 3 to 8) (size 9 to 14) (size 15 to 20)
#    0.000    1.750    0.000    5.625    1.750    2.500 
#    0.000    7.500    0.000    0.000    0.000    0.000 
#    0.000    0.000    0.000    0.000    0.000    0.000 
#
# Total GULP energy -396685.857491 kJ/mol
# GULP energy per Si atom -12396.433047 kJ/mol
# Density = 2.060223 g / cm^3
# Si number density = 20.649225 Si / 1000 Ang^3
#
#
#
# Elastic Constant Matrix: (Units=GPa)
#
#
# Indices 1 2 3 4 5 6 
#
# 1 120.1841 25.1251 20.6843 0.0000 11.0424 0.0000
# 2 25.1251 86.3642 16.3304 0.0000 2.3877 0.0000
# 3 20.6843 16.3304 43.7536 0.0000 -3.8815 0.0000
# 4 0.0000 0.0000 0.0000 25.8150 0.0000 0.1885
# 5 11.0424 2.3877 -3.8815 0.0000 32.4503 0.0000
# 6 0.0000 0.0000 0.0000 0.1885 0.0000 33.9928
#
#
#
# Elastic Compliance Matrix: (Units=1/GPa)
#
#
# Indices 1 2 3 4 5 6 
#
# 1 0.009796 -0.001947 -0.004232 0.000000 -0.003696 0.000000
# 2 -0.001947 0.012917 -0.003968 0.000000 -0.000762 0.000000
# 3 -0.004232 -0.003968 0.026775 0.000000 0.004935 0.000000
# 4 0.000000 0.000000 0.000000 0.038739 0.000000 -0.000215
# 5 -0.003696 -0.000762 0.004935 0.000000 0.032721 0.000000
# 6 0.000000 0.000000 0.000000 -0.000215 0.000000 0.029419
#
#
# Mechanical properties :
#
#
# Convention : Reuss Voigt Hill
#
# Bulk Modulus (GPa) = 34.25543 41.62015 37.93779
# Shear Modulus (GPa) = 27.71759 30.99575 29.35667
#
# Velocity S-wave (km/s) = 3.66772 3.87856 3.77461
# Velocity P-wave (km/s) = 5.87890 6.34485 6.11632
#
# Compressibility (1/GPa) = 0.02919245
#
# Stress axis : x y z
#
# Youngs Moduli (GPa) = 102.08650 77.41865 37.34879
#
# Poissons Ratio (x) = 0.15076 0.15806
# Poissons Ratio (y) = 0.19880 0.14820
# Poissons Ratio (z) = 0.43202 0.30720
#
# Static dielectric constant tensor:
#      x y z
#    x 3.666570 0.000000 -0.099330 
#    y 0.000000 4.178900 0.000000 
#    z -0.099330 0.000000 3.964100 
# 
# 
# High freq. dielectric constant tensor:
#      x y z
#    x 1.803590 0.000000 -0.008520 
#    y 0.000000 1.802600 0.000000 
#    z -0.008520 0.000000 1.799570 
# 
# From -- ./inp_files/72198.got.cif
#   From: 2010.06.25/outbox.cif.g09.slc.cpg/sg11_37_cif.got.tgz:72198.got - 2010.06.27 23:14:04.
