data_PCOD8075425
_publ_section_title
;
Structure prediction by ZEFSAII (Michael W. Deem and Ramdas Pophale) SiO2 
 PCOD8075425
Probable space group: P 21/M
;
_chemical_formula_sum "Si O2"
_cell_formula_units_Z 28
_cell_length_a 15.494819
_cell_length_b 8.394737
_cell_length_c 12.721756
_cell_angle_alpha 90.000000
_cell_angle_beta 51.955533
_cell_angle_gamma 90.000000
_cell_volume 1303.194570
_symmetry_space_group_name_H-M "P 21/M"
_symmetry_group_IT_number 11
_symmetry_cell_setting 'monoclinic'
loop_
_space_group_symop_operation_xyz
x,y,z
-x,1/2+y,-z
-x,-y,-z
x,1/2-y,z
loop_
_atom_site_type_symbol
_atom_site_label
_atom_site_fract_x
_atom_site_fract_y
_atom_site_fract_z
Si Si1 0.477530 0.067024 0.254546
Si Si2 0.102047 0.063308 0.643650
Si Si3 0.729669 0.434117 0.057024
Si Si4 0.797313 0.932054 0.227253
Si Si5 0.600982 0.431731 0.483404
Si Si6 0.748900 0.934240 0.655104
Si Si7 0.130829 0.435444 0.231161
O O1 0.479037 0.250000 0.294579
O O2 0.602013 0.016989 0.134328
O O3 0.384249 0.046804 0.234171
O O4 0.429252 0.942230 0.372793
O O5 0.120592 0.250000 0.638152
O O6 0.108766 0.001909 0.761794
O O7 0.194970 0.991017 0.493473
O O8 0.983697 0.025760 0.686838
O O9 0.746867 0.250000 0.017174
O O10 0.775177 0.462646 0.140767
O O11 0.799634 0.539770 0.926129
O O12 0.816405 0.750000 0.177032
O O13 0.695304 0.945608 0.382314
O O14 0.500000 0.500000 0.500000
O O15 0.629491 0.250000 0.430248
O O16 0.780470 0.750000 0.630061
O O17 0.802632 0.008679 0.719688
O O18 0.106382 0.250000 0.261963
#
# Coordination Sequence:
#
# PCOD8075425 Si02
#       7
#     4   4   4   4   4   4   4
#     4  10  20  38  62  89 121 158 200 249 305 359
#     4  10  21  40  66  91 119 155 199 254 314 362
#     4  11  24  40  61  88 124 165 204 246 298 366
#     4  11  22  38  63  91 122 158 198 250 308 364
#     4  12  22  33  55  89 126 161 198 245 299 360
#     4   9  19  39  65  92 120 156 198 253 313 357
#     4  11  24  41  62  86 121 164 208 253 299 359
#
# _framework density 21.485664
#
# number of rings (size 3 to 8) (size 9 to 14) (size 15 to 20)
#    0.000    1.429    2.857    3.000    0.000    2.857 
#    0.000    2.143    0.000    0.000    0.000    0.000 
#    0.000    0.000    0.000    0.000    0.000    0.000 
#
# Total GULP energy -346873.731486 kJ/mol
# GULP energy per Si atom -12388.347553 kJ/mol
# Density = 2.143676 g / cm^3
# Si number density = 21.485664 Si / 1000 Ang^3
#
#
#
# Elastic Constant Matrix: (Units=GPa)
#
#
# Indices 1 2 3 4 5 6 
#
# 1 134.9542 18.2205 27.5643 0.0000 16.6812 0.0000
# 2 18.2205 28.8545 7.7503 0.0000 2.0235 0.0000
# 3 27.5643 7.7503 73.8877 0.0000 4.1680 0.0000
# 4 0.0000 0.0000 0.0000 21.3870 0.0000 -0.7308
# 5 16.6812 2.0235 4.1680 0.0000 27.4332 0.0000
# 6 0.0000 0.0000 0.0000 -0.7308 0.0000 27.2331
#
#
#
# Elastic Compliance Matrix: (Units=1/GPa)
#
#
# Indices 1 2 3 4 5 6 
#
# 1 0.009192 -0.004751 -0.002658 0.000000 -0.004835 0.000000
# 2 -0.004751 0.038235 -0.002261 0.000000 0.000412 0.000000
# 3 -0.002658 -0.002261 0.014789 0.000000 -0.000464 0.000000
# 4 0.000000 0.000000 0.000000 0.046800 0.000000 0.001256
# 5 -0.004835 0.000412 -0.000464 0.000000 0.039432 0.000000
# 6 0.000000 0.000000 0.000000 0.001256 0.000000 0.036754
#
#
# Mechanical properties :
#
#
# Convention : Reuss Voigt Hill
#
# Bulk Modulus (GPa) = 23.32363 38.30740 30.81552
# Shear Modulus (GPa) = 22.84820 27.48809 25.16814
#
# Velocity S-wave (km/s) = 3.26454 3.58071 3.42627
# Velocity P-wave (km/s) = 5.00886 5.91297 5.47960
#
# Compressibility (1/GPa) = 0.04287497
#
# Stress axis : x y z
#
# Youngs Moduli (GPa) = 108.79091 26.15374 67.61777
#
# Poissons Ratio (x) = 0.12427 0.17973
# Poissons Ratio (y) = 0.51690 0.15291
# Poissons Ratio (z) = 0.28917 0.05914
#
# Static dielectric constant tensor:
#      x y z
#    x 4.233540 0.000000 0.113090 
#    y 0.000000 5.239250 0.000000 
#    z 0.113090 0.000000 3.727380 
# 
# 
# High freq. dielectric constant tensor:
#      x y z
#    x 1.868130 0.000000 0.003880 
#    y 0.000000 1.818910 0.000000 
#    z 0.003880 0.000000 1.824620 
# 
# From -- ./inp_files/37834.got.cif
#   From: 2010.06.25/outbox.cif.g09.slc.cpg/sg11_19_cif.got.tgz:37834.got - 2010.06.27 23:14:04.
