data_PCOD8075761
_publ_section_title
;
Structure prediction by ZEFSAII (Michael W. Deem and Ramdas Pophale) SiO2 
 PCOD8075761
Probable space group: P 21/M
;
_chemical_formula_sum "Si O2"
_cell_formula_units_Z 28
_cell_length_a 14.535627
_cell_length_b 9.125642
_cell_length_c 18.631144
_cell_angle_alpha 90.000000
_cell_angle_beta 141.092478
_cell_angle_gamma 90.000000
_cell_volume 1552.177795
_symmetry_space_group_name_H-M "P 21/M"
_symmetry_group_IT_number 11
_symmetry_cell_setting 'monoclinic'
loop_
_space_group_symop_operation_xyz
x,y,z
-x,1/2+y,-z
-x,-y,-z
x,1/2-y,z
loop_
_atom_site_type_symbol
_atom_site_label
_atom_site_fract_x
_atom_site_fract_y
_atom_site_fract_z
Si Si1 0.023774 0.080729 0.234662
Si Si2 0.376414 0.923343 0.103047
Si Si3 0.271057 0.418650 0.910525
Si Si4 0.133096 0.581438 0.423779
Si Si5 0.657028 0.420178 0.320897
Si Si6 0.179233 0.417925 0.702108
Si Si7 0.060745 0.916659 0.969290
O O1 0.988467 0.250000 0.231446
O O2 0.052350 0.064897 0.166473
O O3 0.153976 0.019570 0.364774
O O4 0.889841 0.976819 0.171679
O O5 0.393173 0.750000 0.108129
O O6 0.506579 0.989554 0.229233
O O7 0.222682 0.972012 0.045278
O O8 0.386175 0.987984 0.027734
O O9 0.282930 0.250000 0.941220
O O10 0.292525 0.436471 0.837865
O O11 0.122062 0.750000 0.392904
O O12 0.272793 0.553821 0.558569
O O13 0.985709 0.536319 0.376948
O O14 0.625048 0.250000 0.287449
O O15 0.769804 0.475413 0.329535
O O16 0.182806 0.250000 0.677161
O O17 0.072915 0.750000 0.000556
O O18 0.000000 0.000000 0.000000
#
# Coordination Sequence:
#
# PCOD8075761 Si02
#       7
#     4   4   4   4   4   4   4
#     4   9  17  30  50  77 103 128 161 199 243 292
#     4  10  21  36  51  72 102 132 164 200 247 304
#     4   9  17  31  50  71  97 130 167 207 250 293
#     4   9  19  34  50  71  99 133 175 213 245 286
#     4  11  22  33  48  71  99 134 174 212 249 290
#     4   9  18  32  49  70  97 130 170 215 255 289
#     4   9  19  34  55  82 104 123 152 193 242 298
#
# _framework density 18.039171
#
# number of rings (size 3 to 8) (size 9 to 14) (size 15 to 20)
#    0.000    2.571    0.000    3.857    0.000    8.000 
#    0.000    0.000    0.000    0.857    0.000    0.000 
#    0.000    0.000    0.000    0.000    0.000    0.000 
#
# Total GULP energy -347046.472830 kJ/mol
# GULP energy per Si atom -12394.516887 kJ/mol
# Density = 1.799811 g / cm^3
# Si number density = 18.039171 Si / 1000 Ang^3
#
#
#
# Elastic Constant Matrix: (Units=GPa)
#
#
# Indices 1 2 3 4 5 6 
#
# 1 25.2682 31.0563 27.6209 0.0000 -12.3680 0.0000
# 2 31.0563 96.0150 56.2478 0.0000 -11.8166 0.0000
# 3 27.6209 56.2478 115.7830 0.0000 -9.7607 0.0000
# 4 0.0000 0.0000 0.0000 32.6062 0.0000 -3.4880
# 5 -12.3680 -11.8166 -9.7607 0.0000 20.7880 0.0000
# 6 0.0000 0.0000 0.0000 -3.4880 0.0000 28.5898
#
#
#
# Elastic Compliance Matrix: (Units=1/GPa)
#
#
# Indices 1 2 3 4 5 6 
#
# 1 0.094029 -0.020005 -0.009324 0.000000 0.040194 0.000000
# 2 -0.020005 0.019366 -0.004905 0.000000 -0.003197 0.000000
# 3 -0.009324 -0.004905 0.013058 0.000000 -0.002205 0.000000
# 4 0.000000 0.000000 0.000000 0.031075 0.000000 0.003791
# 5 0.040194 -0.003197 -0.002205 0.000000 0.069166 0.000000
# 6 0.000000 0.000000 0.000000 0.003791 0.000000 0.035440
#
#
# Mechanical properties :
#
#
# Convention : Reuss Voigt Hill
#
# Bulk Modulus (GPa) = 17.24610 51.87958 34.56284
# Shear Modulus (GPa) = 14.28855 24.53953 19.41404
#
# Velocity S-wave (km/s) = 2.81745 3.69229 3.28413
# Velocity P-wave (km/s) = 4.49056 6.85559 5.79501
#
# Compressibility (1/GPa) = 0.05798414
#
# Stress axis : x y z
#
# Youngs Moduli (GPa) = 10.63504 51.63753 76.57917
#
# Poissons Ratio (x) = 1.03300 0.71406
# Poissons Ratio (y) = 0.21275 0.37564
# Poissons Ratio (z) = 0.09917 0.25329
#
# Static dielectric constant tensor:
#      x y z
#    x 2.985330 0.000000 -0.251960 
#    y 0.000000 3.578440 0.000000 
#    z -0.251960 0.000000 3.717100 
# 
# 
# High freq. dielectric constant tensor:
#      x y z
#    x 1.650900 0.000000 -0.018580 
#    y 0.000000 1.709750 0.000000 
#    z -0.018580 0.000000 1.706440 
# 
# From -- ./inp_files/42324.got.cif
#   From: 2010.06.25/outbox.cif.g09.slc.cpg/sg11_22_cif.got.tgz:42324.got - 2010.06.27 23:14:04.
