data_PCOD8075778
_publ_section_title
;
Structure prediction by ZEFSAII (Michael W. Deem and Ramdas Pophale) SiO2 
 PCOD8075778
Probable space group: P 21/M
;
_chemical_formula_sum "Si O2"
_cell_formula_units_Z 28
_cell_length_a 28.279714
_cell_length_b 9.705927
_cell_length_c 10.119669
_cell_angle_alpha 90.000000
_cell_angle_beta 32.029436
_cell_angle_gamma 90.000000
_cell_volume 1473.143023
_symmetry_space_group_name_H-M "P 21/M"
_symmetry_group_IT_number 11
_symmetry_cell_setting 'monoclinic'
loop_
_space_group_symop_operation_xyz
x,y,z
-x,1/2+y,-z
-x,-y,-z
x,1/2-y,z
loop_
_atom_site_type_symbol
_atom_site_label
_atom_site_fract_x
_atom_site_fract_y
_atom_site_fract_z
Si Si1 0.574496 0.092711 0.479592
Si Si2 0.198797 0.090515 0.428308
Si Si3 0.113972 0.591239 0.128125
Si Si4 0.621385 0.592290 0.140894
Si Si5 0.223727 0.910421 0.612643
Si Si6 0.091317 0.408777 0.425801
Si Si7 0.581938 0.408096 0.761606
O O1 0.591363 0.250000 0.398221
O O2 0.469996 0.054713 0.717013
O O3 0.606284 0.063085 0.551951
O O4 0.633063 0.998753 0.244382
O O5 0.185335 0.250000 0.498056
O O6 0.132493 0.046195 0.468179
O O7 0.177725 0.998518 0.606056
O O8 0.299764 0.059291 0.146374
O O9 0.129383 0.750000 0.131069
O O10 0.135253 0.499527 0.205910
O O11 0.013783 0.565296 0.315661
O O12 0.179740 0.545750 0.855369
O O13 0.624301 0.750000 0.180497
O O14 0.205234 0.750000 0.628524
O O15 0.329395 0.942259 0.365677
O O16 0.114569 0.250000 0.340326
O O17 0.552619 0.250000 0.850020
O O18 0.500000 0.500000 0.000000
#
# Coordination Sequence:
#
# PCOD8075778 Si02
#       7
#     4   4   4   4   4   4   4
#     4   9  18  32  50  71  97 133 174 218 264 311
#     4  10  21  36  54  79 110 144 180 224 272 321
#     4   9  19  37  58  82 112 143 179 224 272 325
#     4   9  18  32  49  72 102 132 170 217 265 313
#     4  10  22  37  54  80 112 145 184 226 270 324
#     4   9  19  36  58  83 111 143 180 224 272 325
#     4  10  21  36  53  75 105 142 182 223 269 320
#
# _framework density 19.006979999999999
#
# number of rings (size 3 to 8) (size 9 to 14) (size 15 to 20)
#    0.000    2.571    0.000    0.857    2.000    4.571 
#    0.000    2.857    0.000    0.000    0.000    0.000 
#    0.000    0.000    0.000    0.000    0.000    0.000 
#
# Total GULP energy -347276.330161 kJ/mol
# GULP energy per Si atom -12402.726077 kJ/mol
# Density = 1.896372 g / cm^3
# Si number density = 19.006980 Si / 1000 Ang^3
#
#
#
# Elastic Constant Matrix: (Units=GPa)
#
#
# Indices 1 2 3 4 5 6 
#
# 1 109.0088 55.7160 33.5284 0.0000 17.4977 0.0000
# 2 55.7160 80.4522 52.7775 0.0000 17.5963 0.0000
# 3 33.5284 52.7775 84.3417 0.0000 13.7065 0.0000
# 4 0.0000 0.0000 0.0000 32.7947 0.0000 9.7454
# 5 17.4977 17.5963 13.7065 0.0000 21.5629 0.0000
# 6 0.0000 0.0000 0.0000 9.7454 0.0000 32.9596
#
#
#
# Elastic Compliance Matrix: (Units=1/GPa)
#
#
# Indices 1 2 3 4 5 6 
#
# 1 0.014586 -0.009826 0.001083 0.000000 -0.004506 0.000000
# 2 -0.009826 0.029757 -0.013454 0.000000 -0.007758 0.000000
# 3 0.001083 -0.013454 0.020301 0.000000 -0.002804 0.000000
# 4 0.000000 0.000000 0.000000 0.033430 0.000000 -0.009884
# 5 -0.004506 -0.007758 -0.002804 0.000000 0.058145 0.000000
# 6 0.000000 0.000000 0.000000 -0.009884 0.000000 0.033263
#
#
# Mechanical properties :
#
#
# Convention : Reuss Voigt Hill
#
# Bulk Modulus (GPa) = 49.38472 61.98295 55.68384
# Shear Modulus (GPa) = 20.77905 26.24881 23.51393
#
# Velocity S-wave (km/s) = 3.30999 3.72022 3.52109
# Velocity P-wave (km/s) = 6.37549 7.15086 6.77428
#
# Compressibility (1/GPa) = 0.02024918
#
# Stress axis : x y z
#
# Youngs Moduli (GPa) = 68.55840 33.60515 49.25932
#
# Poissons Ratio (x) = 0.33021 -0.05333
# Poissons Ratio (y) = 0.67366 0.66273
# Poissons Ratio (z) = -0.07422 0.45212
#
# Static dielectric constant tensor:
#      x y z
#    x 3.524870 0.000000 -0.042570 
#    y 0.000000 3.456320 0.000000 
#    z -0.042570 0.000000 3.387660 
# 
# 
# High freq. dielectric constant tensor:
#      x y z
#    x 1.742940 0.000000 -0.001730 
#    y 0.000000 1.733370 0.000000 
#    z -0.001730 0.000000 1.732670 
# 
# From -- ./inp_files/21293.got.cif
#   From: 2010.06.25/outbox.cif.g09.slc.cpg/sg11_11_cif.got.tgz:21293.got - 2010.06.27 23:14:04.
