data_PCOD8075509
_publ_section_title
;
Structure prediction by ZEFSAII (Michael W. Deem and Ramdas Pophale) SiO2 
 PCOD8075509
Probable space group: P 21/M
;
_chemical_formula_sum "Si O2"
_cell_formula_units_Z 32
_cell_length_a 23.366137
_cell_length_b 8.933980
_cell_length_c 16.389433
_cell_angle_alpha 90.000000
_cell_angle_beta 28.564489
_cell_angle_gamma 90.000000
_cell_volume 1635.903983
_symmetry_space_group_name_H-M "P 21/M"
_symmetry_group_IT_number 11
_symmetry_cell_setting 'monoclinic'
loop_
_space_group_symop_operation_xyz
x,y,z
-x,1/2+y,-z
-x,-y,-z
x,1/2-y,z
loop_
_atom_site_type_symbol
_atom_site_label
_atom_site_fract_x
_atom_site_fract_y
_atom_site_fract_z
Si Si1 0.236645 0.571462 0.499852
Si Si2 0.344739 0.921476 0.981271
Si Si3 0.234057 0.575191 0.850807
Si Si4 0.077371 0.921083 0.335556
Si Si5 0.545024 0.926673 0.861289
Si Si6 0.419105 0.073758 0.729761
Si Si7 0.010936 0.572446 0.237690
Si Si8 0.684588 0.425513 0.422998
O O1 0.244820 0.750000 0.483770
O O2 0.329410 0.499547 0.320482
O O3 0.263801 0.509121 0.557084
O O4 0.105923 0.518008 0.639770
O O5 0.357621 0.750000 0.935338
O O6 0.216220 0.945776 0.184416
O O7 0.447669 0.966362 0.914947
O O8 0.348404 0.029724 0.899644
O O9 0.252445 0.750000 0.843180
O O10 0.352677 0.495860 0.735615
O O11 0.226136 0.537262 0.763978
O O12 0.114002 0.520133 0.045625
O O13 0.040321 0.750000 0.385493
O O14 0.050054 0.980180 0.278769
O O15 0.000000 0.000000 0.500000
O O16 0.561055 0.750000 0.853110
O O17 0.500000 0.000000 0.000000
O O18 0.419407 0.250000 0.718420
O O19 0.553410 0.007198 0.568128
O O20 0.988538 0.750000 0.260081
O O21 0.669917 0.250000 0.453133
#
# Coordination Sequence:
#
# PCOD8075509 Si02
#       8
#     4   4   4   4   4   4   4   4
#     4  11  23  41  61  85 121 158 197 246 295 351
#     4  10  21  40  63  87 117 156 195 234 289 353
#     4  10  20  39  62  83 117 159 197 242 298 355
#     4  10  22  40  60  87 117 151 194 240 293 348
#     4  11  24  41  64  92 121 156 200 243 293 351
#     4  11  20  34  58  91 124 150 191 242 293 350
#     4  10  22  40  60  84 115 155 200 245 294 354
#     4   9  20  37  59  87 118 156 195 241 299 349
#
# _framework density 19.561050999999999
#
# number of rings (size 3 to 8) (size 9 to 14) (size 15 to 20)
#    0.000    1.750    2.500    1.500    1.750    2.500 
#    0.000    1.875    0.000    0.000    0.000    0.000 
#    0.000    0.000    0.000    0.000    0.000    0.000 
#
# Total GULP energy -396855.254022 kJ/mol
# GULP energy per Si atom -12401.726688 kJ/mol
# Density = 1.951653 g / cm^3
# Si number density = 19.561051 Si / 1000 Ang^3
#
#
#
# Elastic Constant Matrix: (Units=GPa)
#
#
# Indices 1 2 3 4 5 6 
#
# 1 86.8149 33.0749 50.5424 0.0000 -4.2073 0.0000
# 2 33.0749 50.7011 33.6171 0.0000 -0.3549 0.0000
# 3 50.5424 33.6171 138.9644 0.0000 6.2999 0.0000
# 4 0.0000 0.0000 0.0000 29.0824 0.0000 -2.5112
# 5 -4.2073 -0.3549 6.2999 0.0000 39.0672 0.0000
# 6 0.0000 0.0000 0.0000 -2.5112 0.0000 30.0200
#
#
#
# Elastic Compliance Matrix: (Units=1/GPa)
#
#
# Indices 1 2 3 4 5 6 
#
# 1 0.017416 -0.008419 -0.004412 0.000000 0.002511 0.000000
# 2 -0.008419 0.027611 -0.003614 0.000000 -0.000073 0.000000
# 3 -0.004412 -0.003614 0.009769 0.000000 -0.002083 0.000000
# 4 0.000000 0.000000 0.000000 0.034635 0.000000 0.002897
# 5 0.002511 -0.000073 -0.002083 0.000000 0.026203 0.000000
# 6 0.000000 0.000000 0.000000 0.002897 0.000000 0.033553
#
#
# Mechanical properties :
#
#
# Convention : Reuss Voigt Hill
#
# Bulk Modulus (GPa) = 45.64609 56.77213 51.20911
# Shear Modulus (GPa) = 26.40193 30.25033 28.32613
#
# Velocity S-wave (km/s) = 3.67784 3.93677 3.80950
# Velocity P-wave (km/s) = 6.43593 7.05339 6.75172
#
# Compressibility (1/GPa) = 0.02190768
#
# Stress axis : x y z
#
# Youngs Moduli (GPa) = 57.41771 36.21697 102.36054
#
# Poissons Ratio (x) = 0.30490 0.45157
# Poissons Ratio (y) = 0.48339 0.36995
# Poissons Ratio (z) = 0.25330 0.13090
#
# Static dielectric constant tensor:
#      x y z
#    x 3.928380 0.000000 0.047320 
#    y 0.000000 3.430580 0.000000 
#    z 0.047320 0.000000 3.666050 
# 
# 
# High freq. dielectric constant tensor:
#      x y z
#    x 1.767620 0.000000 0.002360 
#    y 0.000000 1.746920 0.000000 
#    z 0.002360 0.000000 1.774070 
# 
# From -- ./inp_files/55515.got.cif
#   From: 2010.06.25/outbox.cif.g09.slc.cpg/sg11_28_cif.got.tgz:55515.got - 2010.06.27 23:14:04.
