data_PCOD8075616
_publ_section_title
;
Structure prediction by ZEFSAII (Michael W. Deem and Ramdas Pophale) SiO2 
 PCOD8075616
Probable space group: P 21/M
;
_chemical_formula_sum "Si O2"
_cell_formula_units_Z 28
_cell_length_a 17.814910
_cell_length_b 12.989842
_cell_length_c 6.378817
_cell_angle_alpha 90.000000
_cell_angle_beta 111.024670
_cell_angle_gamma 90.000000
_cell_volume 1377.867812
_symmetry_space_group_name_H-M "P 21/M"
_symmetry_group_IT_number 11
_symmetry_cell_setting 'monoclinic'
loop_
_space_group_symop_operation_xyz
x,y,z
-x,1/2+y,-z
-x,-y,-z
x,1/2-y,z
loop_
_atom_site_type_symbol
_atom_site_label
_atom_site_fract_x
_atom_site_fract_y
_atom_site_fract_z
Si Si1 0.962158 0.560469 0.773070
Si Si2 0.268609 0.632347 0.697219
Si Si3 0.427437 0.368628 0.816067
Si Si4 0.840794 0.634432 0.956123
Si Si5 0.593328 0.044105 0.887303
Si Si6 0.888671 0.041891 0.314564
Si Si7 0.691645 0.974044 0.604668
O O1 0.900317 0.641612 0.813519
O O2 0.911754 0.483308 0.575980
O O3 0.037649 0.607194 0.716630
O O4 0.000000 0.500000 0.000000
O O5 0.267061 0.750000 0.621970
O O6 0.191820 0.609572 0.768692
O O7 0.264360 0.561687 0.486991
O O8 0.348730 0.611658 0.908709
O O9 0.423851 0.250000 0.875893
O O10 0.510085 0.394843 0.779343
O O11 0.353107 0.393849 0.590562
O O12 0.421452 0.432351 0.025363
O O13 0.828399 0.750000 0.029602
O O14 0.755423 0.587977 0.805405
O O15 0.876455 0.565659 0.179036
O O16 0.628351 0.030733 0.691252
#
# Coordination Sequence:
#
# PCOD8075616 Si02
#       7
#     4   4   4   4   4   4   4
#     4   9  20  39  64  85 122 160 198 256 299 351
#     4  11  23  39  63  90 120 165 209 253 310 360
#     4  10  22  39  63  91 120 161 205 249 306 364
#     4  11  22  37  62  92 125 166 202 245 310 363
#     4  10  22  42  61  87 128 158 201 257 302 364
#     4  10  20  41  61  88 126 156 206 258 296 359
#     4  11  22  41  59  92 127 158 204 259 296 363
#
# _framework density 20.321252999999999
#
# number of rings (size 3 to 8) (size 9 to 14) (size 15 to 20)
#    0.000    1.714    2.857    1.286    0.000    3.429 
#    0.000    5.714    0.000    0.000    0.000    0.000 
#    0.000    0.000    0.000    0.000    0.000    0.000 
#
# Total GULP energy -347201.772650 kJ/mol
# GULP energy per Si atom -12400.063309 kJ/mol
# Density = 2.027500 g / cm^3
# Si number density = 20.321253 Si / 1000 Ang^3
#
#
#
# Elastic Constant Matrix: (Units=GPa)
#
#
# Indices 1 2 3 4 5 6 
#
# 1 116.4242 35.3406 13.2253 0.0000 -0.6984 0.0000
# 2 35.3406 111.9304 21.6237 0.0000 3.6611 0.0000
# 3 13.2253 21.6237 74.2806 0.0000 3.8693 0.0000
# 4 0.0000 0.0000 0.0000 17.8764 0.0000 0.3772
# 5 -0.6984 3.6611 3.8693 0.0000 34.7721 0.0000
# 6 0.0000 0.0000 0.0000 0.3772 0.0000 15.8898
#
#
#
# Elastic Compliance Matrix: (Units=1/GPa)
#
#
# Indices 1 2 3 4 5 6 
#
# 1 0.009565 -0.002866 -0.000900 0.000000 0.000594 0.000000
# 2 -0.002866 0.010342 -0.002455 0.000000 -0.000873 0.000000
# 3 -0.000900 -0.002455 0.014408 0.000000 -0.001363 0.000000
# 4 0.000000 0.000000 0.000000 0.055968 0.000000 -0.001329
# 5 0.000594 -0.000873 -0.001363 0.000000 0.029014 0.000000
# 6 0.000000 0.000000 0.000000 -0.001329 0.000000 0.062965
#
#
# Mechanical properties :
#
#
# Convention : Reuss Voigt Hill
#
# Bulk Modulus (GPa) = 45.71529 49.22382 47.46956
# Shear Modulus (GPa) = 24.75324 29.20404 26.97864
#
# Velocity S-wave (km/s) = 3.49391 3.79505 3.64759
# Velocity P-wave (km/s) = 6.23070 6.59383 6.41484
#
# Compressibility (1/GPa) = 0.02187452
#
# Stress axis : x y z
#
# Youngs Moduli (GPa) = 104.54888 96.69567 69.40452
#
# Poissons Ratio (x) = 0.27709 0.06244
# Poissons Ratio (y) = 0.29960 0.17038
# Poissons Ratio (z) = 0.09406 0.23738
#
# Static dielectric constant tensor:
#      x y z
#    x 4.199940 0.000000 -0.047820 
#    y 0.000000 3.364310 0.000000 
#    z -0.047820 0.000000 3.641650 
# 
# 
# High freq. dielectric constant tensor:
#      x y z
#    x 1.819190 0.000000 0.005330 
#    y 0.000000 1.765170 0.000000 
#    z 0.005330 0.000000 1.795680 
# 
# From -- ./inp_files/7924.got.cif
#   From: 2010.06.25/outbox.cif.g09.slc.cpg/sg11_4_cif.got.tgz:7924.got - 2010.06.27 23:14:04.
