data_PCOD8075793
_publ_section_title
;
Structure prediction by ZEFSAII (Michael W. Deem and Ramdas Pophale) SiO2 
 PCOD8075793
Probable space group: P 21/M
;
_chemical_formula_sum "Si O2"
_cell_formula_units_Z 32
_cell_length_a 27.891288
_cell_length_b 8.874699
_cell_length_c 14.229189
_cell_angle_alpha 90.000000
_cell_angle_beta 29.711844
_cell_angle_gamma 90.000000
_cell_volume 1745.690054
_symmetry_space_group_name_H-M "P 21/M"
_symmetry_group_IT_number 11
_symmetry_cell_setting 'monoclinic'
loop_
_space_group_symop_operation_xyz
x,y,z
-x,1/2+y,-z
-x,-y,-z
x,1/2-y,z
loop_
_atom_site_type_symbol
_atom_site_label
_atom_site_fract_x
_atom_site_fract_y
_atom_site_fract_z
Si Si1 0.911301 0.924374 0.259881
Si Si2 0.691807 0.077325 0.327008
Si Si3 0.598534 0.426555 0.799660
Si Si4 0.125860 0.927695 0.865932
Si Si5 0.444006 0.073014 0.308612
Si Si6 0.365474 0.424503 0.958098
Si Si7 0.598306 0.076828 0.296905
Si Si8 0.252212 0.421752 0.326459
O O1 0.912310 0.750000 0.231471
O O2 0.857692 0.952337 0.451334
O O3 0.854516 0.005740 0.271213
O O4 0.021251 0.984905 0.081513
O O5 0.672587 0.250000 0.391257
O O6 0.794305 0.019013 0.193594
O O7 0.684719 0.064162 0.226371
O O8 0.605936 0.968992 0.508404
O O9 0.584987 0.250000 0.811739
O O10 0.624017 0.500301 0.655685
O O11 0.682693 0.460495 0.728926
O O12 0.500000 0.500000 0.000000
O O13 0.128928 0.750000 0.851071
O O14 0.454066 0.250000 0.277560
O O15 0.549879 0.999474 0.124439
O O16 0.389422 0.250000 0.900463
O O17 0.356296 0.502782 0.873150
O O18 0.267417 0.445727 0.188030
O O19 0.573129 0.250000 0.317463
O O20 0.500000 0.000000 0.500000
O O21 0.282516 0.250000 0.300507
#
# Coordination Sequence:
#
# PCOD8075793 Si02
#       8
#     4   4   4   4   4   4   4   4
#     4   9  18  34  56  82 110 139 176 218 264 322
#     4  10  21  36  55  78 106 140 177 222 273 323
#     4  12  23  34  49  71 104 142 178 216 257 312
#     4   9  18  34  56  82 109 139 175 218 269 321
#     4  12  23  34  51  75 105 141 179 218 264 318
#     4  11  22  36  53  73 104 141 180 222 266 319
#     4  11  22  36  55  77 105 140 183 228 274 323
#     4  10  21  36  54  76 105 143 181 220 267 320
#
# _framework density 18.330860999999999
#
# number of rings (size 3 to 8) (size 9 to 14) (size 15 to 20)
#    0.000    1.500    2.500    3.750    0.000    4.000 
#    0.000    0.000    0.000    0.750    0.000    0.000 
#    0.000    0.000    0.000    0.000    0.000    0.250 
#
# Total GULP energy -396717.361984 kJ/mol
# GULP energy per Si atom -12397.417562 kJ/mol
# Density = 1.828914 g / cm^3
# Si number density = 18.330861 Si / 1000 Ang^3
#
#
#
# Elastic Constant Matrix: (Units=GPa)
#
#
# Indices 1 2 3 4 5 6 
#
# 1 97.4187 36.1617 47.4726 0.0000 13.3402 0.0000
# 2 36.1617 102.1173 33.9612 0.0000 10.7594 0.0000
# 3 47.4726 33.9612 106.8659 0.0000 17.4679 0.0000
# 4 0.0000 0.0000 0.0000 20.0739 0.0000 5.1802
# 5 13.3402 10.7594 17.4679 0.0000 29.9736 0.0000
# 6 0.0000 0.0000 0.0000 5.1802 0.0000 28.4800
#
#
#
# Elastic Compliance Matrix: (Units=1/GPa)
#
#
# Indices 1 2 3 4 5 6 
#
# 1 0.014134 -0.003130 -0.004907 0.000000 -0.002307 0.000000
# 2 -0.003130 0.011764 -0.002084 0.000000 -0.001615 0.000000
# 3 -0.004907 -0.002084 0.012954 0.000000 -0.004618 0.000000
# 4 0.000000 0.000000 0.000000 0.052269 0.000000 -0.009507
# 5 -0.002307 -0.001615 -0.004618 0.000000 0.037660 0.000000
# 6 0.000000 0.000000 0.000000 -0.009507 0.000000 0.036842
#
#
# Mechanical properties :
#
#
# Convention : Reuss Voigt Hill
#
# Bulk Modulus (GPa) = 53.73282 60.17696 56.95489
# Shear Modulus (GPa) = 26.03223 28.29260 27.16242
#
# Velocity S-wave (km/s) = 3.77255 3.93293 3.85357
# Velocity P-wave (km/s) = 6.95360 7.31597 7.13709
#
# Compressibility (1/GPa) = 0.01861060
#
# Stress axis : x y z
#
# Youngs Moduli (GPa) = 70.75176 85.00216 77.19429
#
# Poissons Ratio (x) = 0.26607 0.37877
# Poissons Ratio (y) = 0.22146 0.16088
# Poissons Ratio (z) = 0.34716 0.17716
#
# Static dielectric constant tensor:
#      x y z
#    x 3.462180 0.000000 0.060240 
#    y 0.000000 3.397580 0.000000 
#    z 0.060240 0.000000 3.517440 
# 
# 
# High freq. dielectric constant tensor:
#      x y z
#    x 1.694960 0.000000 0.016080 
#    y 0.000000 1.716320 0.000000 
#    z 0.016080 0.000000 1.700060 
# 
# From -- ./inp_files/56163.got.cif
#   From: 2010.06.25/outbox.cif.g09.slc.cpg/sg11_29_cif.got.tgz:56163.got - 2010.06.27 23:14:04.
