data_PCOD8075127
_publ_section_title
;
Structure prediction by ZEFSAII (Michael W. Deem and Ramdas Pophale) SiO2 
 PCOD8075127
Probable space group: P 21/M
;
_chemical_formula_sum "Si O2"
_cell_formula_units_Z 32
_cell_length_a 14.050061
_cell_length_b 15.079383
_cell_length_c 11.163307
_cell_angle_alpha 90.000000
_cell_angle_beta 136.661843
_cell_angle_gamma 90.000000
_cell_volume 1623.194141
_symmetry_space_group_name_H-M "P 21/M"
_symmetry_group_IT_number 11
_symmetry_cell_setting 'monoclinic'
loop_
_space_group_symop_operation_xyz
x,y,z
-x,1/2+y,-z
-x,-y,-z
x,1/2-y,z
loop_
_atom_site_type_symbol
_atom_site_label
_atom_site_fract_x
_atom_site_fract_y
_atom_site_fract_z
Si Si1 0.994003 0.346641 0.043153
Si Si2 0.264149 0.100721 0.181724
Si Si3 0.729331 0.854650 0.302160
Si Si4 0.447495 0.849456 0.645256
Si Si5 0.788887 0.538889 0.119303
Si Si6 0.946681 0.562559 0.666586
Si Si7 0.498753 0.013695 0.860058
Si Si8 0.782442 0.053236 0.693044
O O1 0.926920 0.250000 0.972994
O O2 0.158027 0.341954 0.163974
O O3 0.975875 0.380506 0.161374
O O4 0.919679 0.410566 0.881970
O O5 0.409703 0.149951 0.298463
O O6 0.294434 0.009871 0.281656
O O7 0.187117 0.089380 0.983418
O O8 0.700043 0.750000 0.270862
O O9 0.744126 0.891431 0.180846
O O10 0.871728 0.873796 0.502881
O O11 0.602078 0.902576 0.257782
O O12 0.426860 0.750000 0.679646
O O13 0.322569 0.869142 0.439305
O O14 0.445580 0.923639 0.747116
O O15 0.929692 0.489916 0.288360
O O16 0.660397 0.470519 0.973573
O O17 0.832846 0.497006 0.619596
O O18 0.500000 0.000000 0.000000
#
# Coordination Sequence:
#
# PCOD8075127 Si02
#       8
#     4   4   4   4   4   4   4   4
#     4  11  21  35  58  88 120 157 198 241 294 360
#     4  10  20  37  60  85 117 157 199 244 297 351
#     4  11  23  40  63  90 118 157 205 249 300 357
#     4  11  22  37  61  92 120 154 203 254 297 351
#     4  10  20  39  65  84 115 158 202 244 300 350
#     4  11  20  40  60  86 122 162 195 243 303 358
#     4   9  21  39  62  85 118 159 193 250 302 348
#     4  11  20  38  61  84 123 165 189 243 302 357
#
# _framework density 19.714217000000001
#
# number of rings (size 3 to 8) (size 9 to 14) (size 15 to 20)
#    0.000    1.500    3.750    2.625    0.000    5.000 
#    0.000    1.250    0.000    0.750    0.000    0.000 
#    0.000    0.000    0.000    0.000    0.000    0.000 
#
# Total GULP energy -396637.425333 kJ/mol
# GULP energy per Si atom -12394.919542 kJ/mol
# Density = 1.966935 g / cm^3
# Si number density = 19.714217 Si / 1000 Ang^3
#
#
#
# Elastic Constant Matrix: (Units=GPa)
#
#
# Indices 1 2 3 4 5 6 
#
# 1 63.8247 43.6971 28.9783 0.0000 0.9067 0.0000
# 2 43.6971 133.5973 41.8885 0.0000 5.7403 0.0000
# 3 28.9783 41.8885 97.4200 0.0000 8.9013 0.0000
# 4 0.0000 0.0000 0.0000 20.5471 0.0000 -2.0362
# 5 0.9067 5.7403 8.9013 0.0000 23.2791 0.0000
# 6 0.0000 0.0000 0.0000 -2.0362 0.0000 20.8696
#
#
#
# Elastic Compliance Matrix: (Units=1/GPa)
#
#
# Indices 1 2 3 4 5 6 
#
# 1 0.021489 -0.005843 -0.004077 0.000000 0.002163 0.000000
# 2 -0.005843 0.010253 -0.002549 0.000000 -0.001326 0.000000
# 3 -0.004077 -0.002549 0.012954 0.000000 -0.004166 0.000000
# 4 0.000000 0.000000 0.000000 0.049144 0.000000 0.004795
# 5 0.002163 -0.001326 -0.004166 0.000000 0.044793 0.000000
# 6 0.000000 0.000000 0.000000 0.004795 0.000000 0.048384
#
#
# Mechanical properties :
#
#
# Convention : Reuss Voigt Hill
#
# Bulk Modulus (GPa) = 50.61559 58.21885 54.41722
# Shear Modulus (GPa) = 22.87899 24.95771 23.91835
#
# Velocity S-wave (km/s) = 3.41035 3.56191 3.48696
# Velocity P-wave (km/s) = 6.42166 6.81996 6.62381
#
# Compressibility (1/GPa) = 0.01975676
#
# Stress axis : x y z
#
# Youngs Moduli (GPa) = 46.53585 97.53623 77.19408
#
# Poissons Ratio (x) = 0.56992 0.31474
# Poissons Ratio (y) = 0.27191 0.19678
# Poissons Ratio (z) = 0.18974 0.24864
#
# Static dielectric constant tensor:
#      x y z
#    x 2.443570 0.000000 -0.446270 
#    y 0.000000 4.269620 0.000000 
#    z -0.446270 0.000000 3.402920 
# 
# 
# High freq. dielectric constant tensor:
#      x y z
#    x 1.764150 0.000000 0.003470 
#    y 0.000000 1.748630 0.000000 
#    z 0.003470 0.000000 1.780700 
# 
# From -- ./inp_files/39649.got.cif
#   From: 2010.06.25/outbox.cif.g09.slc.cpg/sg11_20_cif.got.tgz:39649.got - 2010.06.27 23:14:04.
