data_PCOD8075122
_publ_section_title
;
Structure prediction by ZEFSAII (Michael W. Deem and Ramdas Pophale) SiO2 
 PCOD8075122
Probable space group: P 21/M
;
_chemical_formula_sum "Si O2"
_cell_formula_units_Z 24
_cell_length_a 12.548785
_cell_length_b 13.926811
_cell_length_c 20.918261
_cell_angle_alpha 90.000000
_cell_angle_beta 161.246020
_cell_angle_gamma 90.000000
_cell_volume 1175.349417
_symmetry_space_group_name_H-M "P 21/M"
_symmetry_group_IT_number 11
_symmetry_cell_setting 'monoclinic'
loop_
_space_group_symop_operation_xyz
x,y,z
-x,1/2+y,-z
-x,-y,-z
x,1/2-y,z
loop_
_atom_site_type_symbol
_atom_site_label
_atom_site_fract_x
_atom_site_fract_y
_atom_site_fract_z
Si Si1 0.602114 0.461151 0.878792
Si Si2 0.211274 0.357379 0.867330
Si Si3 0.582953 0.535954 0.362674
Si Si4 0.254854 0.640376 0.734048
Si Si5 0.768264 0.470728 0.705026
Si Si6 0.960063 0.636918 0.366590
O O1 0.660920 0.445667 0.836283
O O2 0.447900 0.568173 0.796917
O O3 0.340048 0.382575 0.755037
O O4 0.949664 0.449866 0.115319
O O5 0.126082 0.250000 0.801027
O O6 0.157599 0.408634 0.768706
O O7 0.960925 0.383789 0.781847
O O8 0.587149 0.370340 0.105110
O O9 0.399771 0.560538 0.324480
O O10 0.874434 0.613097 0.522742
O O11 0.715600 0.426063 0.433307
O O12 0.292749 0.750000 0.730296
O O13 0.500000 0.500000 0.500000
O O14 0.049154 0.750000 0.419409
#
# Coordination Sequence:
#
# PCOD8075122 Si02
#       6
#     4   4   4   4   4   4
#     4  10  23  37  57  85 116 146 188 230 280 333
#     4   9  19  36  57  85 111 146 192 235 275 327
#     4  11  22  36  58  88 114 148 185 229 281 338
#     4   9  19  35  60  86 112 144 189 235 279 328
#     4  11  22  38  58  78 114 152 187 224 282 330
#     4  10  20  37  60  85 114 145 188 236 280 329
#
# _framework density 20.419460999999998
#
# number of rings (size 3 to 8) (size 9 to 14) (size 15 to 20)
#    0.000    2.000    1.667    2.500    2.333    5.333 
#    0.000    1.667    0.000    4.000    0.000    0.000 
#    0.000    0.000    0.000    0.000    0.000    0.000 
#
# Total GULP energy -297333.632174 kJ/mol
# GULP energy per Si atom -12388.901341 kJ/mol
# Density = 2.037299 g / cm^3
# Si number density = 20.419461 Si / 1000 Ang^3
#
#
#
# Elastic Constant Matrix: (Units=GPa)
#
#
# Indices 1 2 3 4 5 6 
#
# 1 144.2431 3.8781 33.9540 0.0000 -17.8881 0.0000
# 2 3.8781 67.5219 10.8915 0.0000 -4.2462 0.0000
# 3 33.9540 10.8915 79.5858 0.0000 -9.3183 0.0000
# 4 0.0000 0.0000 0.0000 15.5363 0.0000 -3.0481
# 5 -17.8881 -4.2462 -9.3183 0.0000 30.9999 0.0000
# 6 0.0000 0.0000 0.0000 -3.0481 0.0000 17.2272
#
#
#
# Elastic Compliance Matrix: (Units=1/GPa)
#
#
# Indices 1 2 3 4 5 6 
#
# 1 0.008116 0.000266 -0.003054 0.000000 0.003802 0.000000
# 2 0.000266 0.015221 -0.002005 0.000000 0.001635 0.000000
# 3 -0.003054 -0.002005 0.014411 0.000000 0.002295 0.000000
# 4 0.000000 0.000000 0.000000 0.066680 0.000000 0.011798
# 5 0.003802 0.001635 0.002295 0.000000 0.035366 0.000000
# 6 0.000000 0.000000 0.000000 0.011798 0.000000 0.060135
#
#
# Mechanical properties :
#
#
# Convention : Reuss Voigt Hill
#
# Bulk Modulus (GPa) = 35.50913 43.19978 39.35446
# Shear Modulus (GPa) = 22.84126 28.92783 25.88454
#
# Velocity S-wave (km/s) = 3.34818 3.76796 3.56426
# Velocity P-wave (km/s) = 5.68988 6.33500 6.02108
#
# Compressibility (1/GPa) = 0.02816177
#
# Stress axis : x y z
#
# Youngs Moduli (GPa) = 123.21521 65.69871 69.39156
#
# Poissons Ratio (x) = -0.01744 0.21190
# Poissons Ratio (y) = -0.03272 0.13912
# Poissons Ratio (z) = 0.37627 0.13171
#
# Static dielectric constant tensor:
#      x y z
#    x 3.840490 0.000000 -0.208870 
#    y 0.000000 3.477500 0.000000 
#    z -0.208870 0.000000 3.951250 
# 
# 
# High freq. dielectric constant tensor:
#      x y z
#    x 1.807160 0.000000 -0.022770 
#    y 0.000000 1.772420 0.000000 
#    z -0.022770 0.000000 1.801190 
# 
# From -- ./inp_files/22320.got.cif
#   From: 2010.06.25/outbox.cif.g09.slc.cpg/sg11_12_cif.got.tgz:22320.got - 2010.06.27 23:14:04.
