data_PCOD8075860
_publ_section_title
;
Structure prediction by ZEFSAII (Michael W. Deem and Ramdas Pophale) SiO2 
 PCOD8075860
Probable space group: P 21/M
;
_chemical_formula_sum "Si O2"
_cell_formula_units_Z 28
_cell_length_a 31.493267
_cell_length_b 8.619882
_cell_length_c 31.493625
_cell_angle_alpha 90.000000
_cell_angle_beta 170.526515
_cell_angle_gamma 90.000000
_cell_volume 1407.175276
_symmetry_space_group_name_H-M "P 21/M"
_symmetry_group_IT_number 11
_symmetry_cell_setting 'monoclinic'
loop_
_space_group_symop_operation_xyz
x,y,z
-x,1/2+y,-z
-x,-y,-z
x,1/2-y,z
loop_
_atom_site_type_symbol
_atom_site_label
_atom_site_fract_x
_atom_site_fract_y
_atom_site_fract_z
Si Si1 0.689856 0.065504 0.309324
Si Si2 0.738782 0.065765 0.261199
Si Si3 0.550798 0.433756 0.452624
Si Si4 0.116892 0.065723 0.881277
Si Si5 0.405410 0.067486 0.596516
Si Si6 0.834106 0.565284 0.166609
Si Si7 0.975328 0.567921 0.022013
O O1 0.688857 0.250000 0.309874
O O2 0.714361 0.006815 0.285386
O O3 0.927897 0.998899 0.571354
O O4 0.427720 0.998767 0.071125
O O5 0.740283 0.250000 0.259955
O O6 0.000000 0.000000 0.500000
O O7 0.500000 0.000000 0.000000
O O8 0.555643 0.250000 0.448220
O O9 0.570312 0.526797 0.428606
O O10 0.787592 0.488510 0.715359
O O11 0.289726 0.487619 0.218129
O O12 0.115353 0.250000 0.881975
O O13 0.141834 0.005438 0.857710
O O14 0.854642 0.004052 0.642026
O O15 0.355545 0.004394 0.143141
O O16 0.402580 0.250000 0.600185
O O17 0.833309 0.750000 0.166954
O O18 0.979769 0.750000 0.021724
O O19 0.000000 0.500000 0.000000
#
# Coordination Sequence:
#
# PCOD8075860 Si02
#       7
#     4   4   4   4   4   4   4
#     4   9  17  31  53  82 111 142 187 242 286 329
#     4  11  22  37  59  85 117 154 193 240 292 345
#     4  10  21  38  58  82 112 151 196 237 279 335
#     4  11  22  39  64  89 115 152 195 242 292 350
#     4  12  25  40  60  89 123 157 194 242 295 348
#     4   9  17  31  55  84 108 138 191 243 281 332
#     4  10  21  36  57  83 112 146 187 236 286 337
#
# _framework density 19.898019000000001
#
# number of rings (size 3 to 8) (size 9 to 14) (size 15 to 20)
#    0.000    1.714    0.000    5.143    0.000    6.857 
#    0.000    0.000    0.000   17.143    0.000    0.000 
#    0.000    0.000    0.000    0.000    0.000    0.000 
#
# Total GULP energy -347306.615554 kJ/mol
# GULP energy per Si atom -12403.807698 kJ/mol
# Density = 1.985273 g / cm^3
# Si number density = 19.898019 Si / 1000 Ang^3
#
#
#
# Elastic Constant Matrix: (Units=GPa)
#
#
# Indices 1 2 3 4 5 6 
#
# 1 205.2914 45.7610 114.8079 0.0000 -2.9208 0.0000
# 2 45.7610 60.4287 39.6065 0.0000 -0.6855 0.0000
# 3 114.8079 39.6065 224.7817 0.0000 -1.6261 0.0000
# 4 0.0000 0.0000 0.0000 22.7096 0.0000 -0.2900
# 5 -2.9208 -0.6855 -1.6261 0.0000 45.7448 0.0000
# 6 0.0000 0.0000 0.0000 -0.2900 0.0000 27.5838
#
#
#
# Elastic Compliance Matrix: (Units=1/GPa)
#
#
# Indices 1 2 3 4 5 6 
#
# 1 0.007442 -0.003552 -0.003173 0.000000 0.000309 0.000000
# 2 -0.003552 0.020406 -0.001781 0.000000 0.000016 0.000000
# 3 -0.003173 -0.001781 0.006383 0.000000 -0.000002 0.000000
# 4 0.000000 0.000000 0.000000 0.044040 0.000000 0.000463
# 5 0.000309 0.000016 -0.000002 0.000000 0.021880 0.000000
# 6 0.000000 0.000000 0.000000 0.000463 0.000000 0.036258
#
#
# Mechanical properties :
#
#
# Convention : Reuss Voigt Hill
#
# Bulk Modulus (GPa) = 58.07699 98.98361 78.53030
# Shear Modulus (GPa) = 31.41472 38.56274 34.98873
#
# Velocity S-wave (km/s) = 3.97770 4.40707 4.19788
# Velocity P-wave (km/s) = 7.09555 8.70344 7.94030
#
# Compressibility (1/GPa) = 0.01721852
#
# Stress axis : x y z
#
# Youngs Moduli (GPa) = 134.37808 49.00498 156.66568
#
# Poissons Ratio (x) = 0.17409 0.49705
# Poissons Ratio (y) = 0.47737 0.27903
# Poissons Ratio (z) = 0.42634 0.08728
#
# Static dielectric constant tensor:
#      x y z
#    x 3.829450 0.000000 -0.025050 
#    y 0.000000 3.350510 0.000000 
#    z -0.025050 0.000000 3.356250 
# 
# 
# High freq. dielectric constant tensor:
#      x y z
#    x 1.797740 0.000000 0.000300 
#    y 0.000000 1.747080 0.000000 
#    z 0.000300 0.000000 1.801280 
# 
# From -- ./inp_files/73848.got.cif
#   From: 2010.06.25/outbox.cif.g09.slc.cpg/sg11_37_cif.got.tgz:73848.got - 2010.06.27 23:14:04.
