data_PCOD8075048
_publ_section_title
;
Structure prediction by ZEFSAII (Michael W. Deem and Ramdas Pophale) SiO2 
 PCOD8075048
Probable space group: P 21/M
;
_chemical_formula_sum "Si O2"
_cell_formula_units_Z 28
_cell_length_a 12.888672
_cell_length_b 17.874914
_cell_length_c 6.574145
_cell_angle_alpha 90.000000
_cell_angle_beta 113.485965
_cell_angle_gamma 90.000000
_cell_volume 1389.106165
_symmetry_space_group_name_H-M "P 21/M"
_symmetry_group_IT_number 11
_symmetry_cell_setting 'monoclinic'
loop_
_space_group_symop_operation_xyz
x,y,z
-x,1/2+y,-z
-x,-y,-z
x,1/2-y,z
loop_
_atom_site_type_symbol
_atom_site_label
_atom_site_fract_x
_atom_site_fract_y
_atom_site_fract_z
Si Si1 0.220171 0.164807 0.384941
Si Si2 0.939865 0.900899 0.054892
Si Si3 0.492803 0.555884 0.685593
Si Si4 0.018579 0.332378 0.516393
Si Si5 0.887915 0.438790 0.145689
Si Si6 0.524434 0.837834 0.374874
Si Si7 0.370776 0.554975 0.986993
O O1 0.221151 0.250000 0.307063
O O2 0.141069 0.153150 0.516515
O O3 0.344205 0.140527 0.554934
O O4 0.172822 0.113432 0.165223
O O5 0.964737 0.833876 0.228673
O O6 0.920947 0.974256 0.178193
O O7 0.052526 0.904014 0.005910
O O8 0.500000 0.500000 0.500000
O O9 0.498500 0.638223 0.589687
O O10 0.382270 0.555591 0.748273
O O11 0.595998 0.529005 0.911540
O O12 0.972969 0.250000 0.418865
O O13 0.930952 0.395911 0.379041
O O14 0.754166 0.426597 0.034547
O O15 0.499893 0.750000 0.330912
O O16 0.452732 0.882488 0.150835
#
# Coordination Sequence:
#
# PCOD8075048 Si02
#       7
#     4   4   4   4   4   4   4
#     4   9  19  35  55  82 112 142 185 232 271 322
#     4  10  20  37  59  81 106 144 186 230 278 322
#     4   9  20  37  56  79 108 146 190 227 269 326
#     4  10  21  36  56  82 111 144 180 225 281 332
#     4  10  22  37  56  83 111 140 183 229 272 331
#     4  10  21  36  56  84 115 148 187 229 276 334
#     4  10  21  38  57  81 114 150 183 229 284 332
#
# _framework density 20.156848
#
# number of rings (size 3 to 8) (size 9 to 14) (size 15 to 20)
#    0.000    2.286    0.000    1.714    0.000    8.571 
#    0.000    4.286    0.000    0.000    0.000    0.000 
#    0.000    0.000    0.000    0.000    0.000    0.000 
#
# Total GULP energy -346991.598202 kJ/mol
# GULP energy per Si atom -12392.557079 kJ/mol
# Density = 2.011097 g / cm^3
# Si number density = 20.156848 Si / 1000 Ang^3
#
#
#
# Elastic Constant Matrix: (Units=GPa)
#
#
# Indices 1 2 3 4 5 6 
#
# 1 123.3752 37.1063 53.5020 0.0000 11.8071 0.0000
# 2 37.1063 70.5304 40.7901 0.0000 -2.1419 0.0000
# 3 53.5020 40.7901 96.7461 0.0000 -9.7781 0.0000
# 4 0.0000 0.0000 0.0000 34.3589 0.0000 -0.4607
# 5 11.8071 -2.1419 -9.7781 0.0000 28.2188 0.0000
# 6 0.0000 0.0000 0.0000 -0.4607 0.0000 25.9368
#
#
#
# Elastic Compliance Matrix: (Units=1/GPa)
#
#
# Indices 1 2 3 4 5 6 
#
# 1 0.012566 -0.003141 -0.006404 0.000000 -0.007715 0.000000
# 2 -0.003141 0.019586 -0.006464 0.000000 0.000561 0.000000
# 3 -0.006404 -0.006464 0.017435 0.000000 0.008231 0.000000
# 4 0.000000 0.000000 0.000000 0.029112 0.000000 0.000517
# 5 -0.007715 0.000561 0.008231 0.000000 0.041560 0.000000
# 6 0.000000 0.000000 0.000000 0.000517 0.000000 0.038564
#
#
# Mechanical properties :
#
#
# Convention : Reuss Voigt Hill
#
# Bulk Modulus (GPa) = 56.92218 61.49427 59.20822
# Shear Modulus (GPa) = 25.41954 28.31979 26.86966
#
# Velocity S-wave (km/s) = 3.55503 3.75236 3.65503
# Velocity P-wave (km/s) = 6.71952 7.02479 6.87385
#
# Compressibility (1/GPa) = 0.01756784
#
# Stress axis : x y z
#
# Youngs Moduli (GPa) = 79.58119 51.05582 57.35493
#
# Poissons Ratio (x) = 0.16038 0.36732
# Poissons Ratio (y) = 0.24999 0.37075
# Poissons Ratio (z) = 0.50967 0.33003
#
# Static dielectric constant tensor:
#      x y z
#    x 3.663610 0.000000 -0.187850 
#    y 0.000000 3.782210 0.000000 
#    z -0.187850 0.000000 3.608240 
# 
# 
# High freq. dielectric constant tensor:
#      x y z
#    x 1.781060 0.000000 -0.012810 
#    y 0.000000 1.786260 0.000000 
#    z -0.012810 0.000000 1.782970 
# 
# From -- ./inp_files/5089.got.cif
#   From: 2010.06.25/outbox.cif.g09.slc.cpg/sg11_3_cif.got.tgz:5089.got - 2010.06.27 23:14:04.
