data_PCOD8075771
_publ_section_title
;
Structure prediction by ZEFSAII (Michael W. Deem and Ramdas Pophale) SiO2 
 PCOD8075771
Probable space group: P 21/M
;
_chemical_formula_sum "Si O2"
_cell_formula_units_Z 28
_cell_length_a 15.610281
_cell_length_b 8.819885
_cell_length_c 19.671199
_cell_angle_alpha 90.000000
_cell_angle_beta 144.005146
_cell_angle_gamma 90.000000
_cell_volume 1591.730244
_symmetry_space_group_name_H-M "P 21/M"
_symmetry_group_IT_number 11
_symmetry_cell_setting 'monoclinic'
loop_
_space_group_symop_operation_xyz
x,y,z
-x,1/2+y,-z
-x,-y,-z
x,1/2-y,z
loop_
_atom_site_type_symbol
_atom_site_label
_atom_site_fract_x
_atom_site_fract_y
_atom_site_fract_z
Si Si1 0.390990 0.075242 0.251073
Si Si2 0.305361 0.570814 0.611922
Si Si3 0.914791 0.575363 0.007142
Si Si4 0.962722 0.926785 0.637385
Si Si5 0.867480 0.427302 0.376963
Si Si6 0.361848 0.571083 0.375410
Si Si7 0.065491 0.071739 0.228038
O O1 0.409465 0.250000 0.286232
O O2 0.536096 0.010134 0.308109
O O3 0.355944 0.972535 0.292999
O O4 0.258214 0.059627 0.113332
O O5 0.304280 0.750000 0.604424
O O6 0.181582 0.510236 0.481816
O O7 0.276748 0.520605 0.673244
O O8 0.963790 0.750000 0.042872
O O9 0.951570 0.492493 0.100826
O O10 0.000000 0.500000 0.000000
O O11 0.928333 0.750000 0.607331
O O12 0.996412 0.967391 0.736960
O O13 0.109998 0.971717 0.688315
O O14 0.881339 0.250000 0.394248
O O15 0.000000 0.500000 0.500000
O O16 0.500000 0.500000 0.500000
O O17 0.367439 0.750000 0.386981
O O18 0.220458 0.508160 0.321909
O O19 0.085463 0.250000 0.228676
#
# Coordination Sequence:
#
# PCOD8075771 Si02
#       7
#     4   4   4   4   4   4   4
#     4  10  21  36  53  74 101 131 169 213 255 303
#     4   9  17  30  51  77 103 132 164 204 251 304
#     4  11  22  37  56  74  97 132 176 219 260 303
#     4   9  18  31  49  75 105 135 164 203 251 302
#     4   8  14  27  47  72 101 131 164 198 244 301
#     4  12  24  36  52  74 103 136 167 204 256 307
#     4  11  22  36  53  74 102 134 173 215 254 302
#
# _framework density 17.590921999999999
#
# number of rings (size 3 to 8) (size 9 to 14) (size 15 to 20)
#    0.000    2.000    1.429    3.000    0.000    4.571 
#    0.000    0.000    0.000    0.857    0.000    0.000 
#    0.000    0.000    0.000    0.000    0.000    0.286 
#
# Total GULP energy -346985.265539 kJ/mol
# GULP energy per Si atom -12392.330912 kJ/mol
# Density = 1.755088 g / cm^3
# Si number density = 17.590922 Si / 1000 Ang^3
#
#
#
# Elastic Constant Matrix: (Units=GPa)
#
#
# Indices 1 2 3 4 5 6 
#
# 1 112.1660 26.9843 24.6982 0.0000 -25.8348 0.0000
# 2 26.9843 70.5771 24.9365 0.0000 -10.1049 0.0000
# 3 24.6982 24.9365 71.8477 0.0000 -16.7999 0.0000
# 4 0.0000 0.0000 0.0000 26.9041 0.0000 -1.0043
# 5 -25.8348 -10.1049 -16.7999 0.0000 22.6237 0.0000
# 6 0.0000 0.0000 0.0000 -1.0043 0.0000 15.9292
#
#
#
# Elastic Compliance Matrix: (Units=1/GPa)
#
#
# Indices 1 2 3 4 5 6 
#
# 1 0.012656 -0.002871 -0.000332 0.000000 0.012923 0.000000
# 2 -0.002871 0.017060 -0.004742 0.000000 0.000819 0.000000
# 3 -0.000332 -0.004742 0.018266 0.000000 0.011066 0.000000
# 4 0.000000 0.000000 0.000000 0.037257 0.000000 0.002349
# 5 0.012923 0.000819 0.011066 0.000000 0.067542 0.000000
# 6 0.000000 0.000000 0.000000 0.002349 0.000000 0.062926
#
#
# Mechanical properties :
#
#
# Convention : Reuss Voigt Hill
#
# Bulk Modulus (GPa) = 31.16252 45.31431 38.23842
# Shear Modulus (GPa) = 20.63606 24.95618 22.79612
#
# Velocity S-wave (km/s) = 3.42878 3.77065 3.60377
# Velocity P-wave (km/s) = 5.78178 6.69126 6.25308
#
# Compressibility (1/GPa) = 0.03208983
#
# Stress axis : x y z
#
# Youngs Moduli (GPa) = 79.01565 58.61817 54.74617
#
# Poissons Ratio (x) = 0.16830 0.01819
# Poissons Ratio (y) = 0.22686 0.25963
# Poissons Ratio (z) = 0.02626 0.27799
#
# Static dielectric constant tensor:
#      x y z
#    x 4.034140 0.000000 -0.071250 
#    y 0.000000 3.413870 0.000000 
#    z -0.071250 0.000000 3.145210 
# 
# 
# High freq. dielectric constant tensor:
#      x y z
#    x 1.696320 0.000000 -0.007160 
#    y 0.000000 1.685070 0.000000 
#    z -0.007160 0.000000 1.652300 
# 
# From -- ./inp_files/42320.got.cif
#   From: 2010.06.25/outbox.cif.g09.slc.cpg/sg11_22_cif.got.tgz:42320.got - 2010.06.27 23:14:04.
