data_PCOD8075405
_publ_section_title
;
Structure prediction by ZEFSAII (Michael W. Deem and Ramdas Pophale) SiO2 
 PCOD8075405
Probable space group: P 21/M
;
_chemical_formula_sum "Si O2"
_cell_formula_units_Z 28
_cell_length_a 28.222022
_cell_length_b 8.500774
_cell_length_c 9.888587
_cell_angle_alpha 90.000000
_cell_angle_beta 37.351426
_cell_angle_gamma 90.000000
_cell_volume 1439.316682
_symmetry_space_group_name_H-M "P 21/M"
_symmetry_group_IT_number 11
_symmetry_cell_setting 'monoclinic'
loop_
_space_group_symop_operation_xyz
x,y,z
-x,1/2+y,-z
-x,-y,-z
x,1/2-y,z
loop_
_atom_site_type_symbol
_atom_site_label
_atom_site_fract_x
_atom_site_fract_y
_atom_site_fract_z
Si Si1 0.947059 0.932496 0.237043
Si Si2 0.501481 0.934424 0.647923
Si Si3 0.803586 0.568845 0.190631
Si Si4 0.793355 0.431634 0.496470
Si Si5 0.369147 0.435140 0.443406
Si Si6 0.372195 0.066379 0.130246
Si Si7 0.967208 0.932435 0.710133
O O1 0.932069 0.750000 0.244486
O O2 0.863705 0.019630 0.435421
O O3 0.992559 0.959594 0.270932
O O4 0.000000 0.000000 0.000000
O O5 0.511959 0.750000 0.610479
O O6 0.573142 0.008373 0.574283
O O7 0.500000 0.000000 0.500000
O O8 0.422721 0.972363 0.906864
O O9 0.798481 0.750000 0.251151
O O10 0.822181 0.462868 0.278310
O O11 0.720145 0.518988 0.315169
O O12 0.873130 0.545012 0.925637
O O13 0.772479 0.250000 0.564021
O O14 0.717787 0.535525 0.702423
O O15 0.380716 0.250000 0.416433
O O16 0.388806 0.495774 0.246188
O O17 0.390752 0.250000 0.074418
O O18 0.989197 0.750000 0.681058
O O19 0.000000 0.000000 0.500000
#
# Coordination Sequence:
#
# PCOD8075405 Si02
#       7
#     4   4   4   4   4   4   4
#     4  12  23  38  61  88 119 157 200 244 295 349
#     4  11  22  38  58  84 120 156 192 237 290 351
#     4   9  18  36  60  84 113 151 196 244 294 349
#     4  11  21  35  59  91 120 149 192 244 296 347
#     4   8  17  35  61  87 110 145 193 240 288 343
#     4  10  20  38  62  87 115 149 192 241 292 349
#     4  11  23  39  59  84 120 160 202 248 298 354
#
# _framework density 19.453678
#
# number of rings (size 3 to 8) (size 9 to 14) (size 15 to 20)
#    0.000    1.714    1.429    5.143    0.000    0.571 
#    2.571    6.429    0.000    0.000    0.000    0.000 
#    0.000    0.000    0.000    0.000    0.000    0.000 
#
# Total GULP energy -347180.087511 kJ/mol
# GULP energy per Si atom -12399.288840 kJ/mol
# Density = 1.940940 g / cm^3
# Si number density = 19.453678 Si / 1000 Ang^3
#
#
#
# Elastic Constant Matrix: (Units=GPa)
#
#
# Indices 1 2 3 4 5 6 
#
# 1 122.5581 17.8473 71.0180 0.0000 -2.8768 0.0000
# 2 17.8473 64.2940 18.1601 0.0000 1.1627 0.0000
# 3 71.0180 18.1601 130.8322 0.0000 0.3652 0.0000
# 4 0.0000 0.0000 0.0000 31.2314 0.0000 0.3648
# 5 -2.8768 1.1627 0.3652 0.0000 30.2492 0.0000
# 6 0.0000 0.0000 0.0000 0.3648 0.0000 27.7141
#
#
#
# Elastic Compliance Matrix: (Units=1/GPa)
#
#
# Indices 1 2 3 4 5 6 
#
# 1 0.012102 -0.001588 -0.006352 0.000000 0.001289 0.000000
# 2 -0.001588 0.016407 -0.001413 0.000000 -0.000765 0.000000
# 3 -0.006352 -0.001413 0.011290 0.000000 -0.000686 0.000000
# 4 0.000000 0.000000 0.000000 0.032024 0.000000 -0.000422
# 5 0.001289 -0.000765 -0.000686 0.000000 0.033219 0.000000
# 6 0.000000 0.000000 0.000000 -0.000422 0.000000 0.036088
#
#
# Mechanical properties :
#
#
# Convention : Reuss Voigt Hill
#
# Bulk Modulus (GPa) = 47.41273 59.08168 53.24721
# Shear Modulus (GPa) = 29.96383 31.88286 30.92335
#
# Velocity S-wave (km/s) = 3.92888 4.05274 3.99129
# Velocity P-wave (km/s) = 6.70869 7.23436 6.97648
#
# Compressibility (1/GPa) = 0.02109138
#
# Stress axis : x y z
#
# Youngs Moduli (GPa) = 82.63221 60.94802 88.57778
#
# Poissons Ratio (x) = 0.09681 0.56266
# Poissons Ratio (y) = 0.13126 0.12517
# Poissons Ratio (z) = 0.52490 0.08612
#
# Static dielectric constant tensor:
#      x y z
#    x 3.681230 0.000000 -0.305180 
#    y 0.000000 3.495140 0.000000 
#    z -0.305180 0.000000 3.448610 
# 
# 
# High freq. dielectric constant tensor:
#      x y z
#    x 1.755010 0.000000 -0.019420 
#    y 0.000000 1.752290 0.000000 
#    z -0.019420 0.000000 1.754650 
# 
# From -- ./inp_files/28426.got.cif
#   From: 2010.06.25/outbox.cif.g09.slc.cpg/sg11_15_cif.got.tgz:28426.got - 2010.06.27 23:14:04.
