data_PCOD8075300
_publ_section_title
;
Structure prediction by ZEFSAII (Michael W. Deem and Ramdas Pophale) SiO2 
 PCOD8075300
Probable space group: P 21/M
;
_chemical_formula_sum "Si O2"
_cell_formula_units_Z 32
_cell_length_a 14.462593
_cell_length_b 17.949049
_cell_length_c 11.531495
_cell_angle_alpha 90.000000
_cell_angle_beta 31.522438
_cell_angle_gamma 90.000000
_cell_volume 1565.077123
_symmetry_space_group_name_H-M "P 21/M"
_symmetry_group_IT_number 11
_symmetry_cell_setting 'monoclinic'
loop_
_space_group_symop_operation_xyz
x,y,z
-x,1/2+y,-z
-x,-y,-z
x,1/2-y,z
loop_
_atom_site_type_symbol
_atom_site_label
_atom_site_fract_x
_atom_site_fract_y
_atom_site_fract_z
Si Si1 0.593052 0.429215 0.343955
Si Si2 0.164297 0.838649 0.293573
Si Si3 0.317806 0.895980 0.507591
Si Si4 0.464891 0.414782 0.066445
Si Si5 0.355610 0.334748 0.966311
Si Si6 0.990298 0.898651 0.706835
Si Si7 0.069898 0.935699 0.177140
Si Si8 0.689613 0.931221 0.523884
O O1 0.500000 0.500000 0.500000
O O2 0.669011 0.379342 0.368367
O O3 0.438075 0.389186 0.433213
O O4 0.759310 0.449542 0.085155
O O5 0.166926 0.750000 0.278537
O O6 0.103777 0.872088 0.235177
O O7 0.035838 0.863485 0.533880
O O8 0.355940 0.868419 0.121967
O O9 0.458356 0.843434 0.295658
O O10 0.125789 0.874658 0.663301
O O11 0.359098 0.981600 0.433062
O O12 0.358692 0.402871 0.297619
O O13 0.500000 0.500000 0.000000
O O14 0.341766 0.382273 0.098250
O O15 0.324813 0.250000 0.032209
O O16 0.198236 0.364992 0.052297
O O17 0.979370 0.987807 0.704793
O O18 0.898368 0.914628 0.280495
#
# Coordination Sequence:
#
# PCOD8075300 Si02
#       8
#     4   4   4   4   4   4   4   4
#     4  10  21  38  63  94 125 160 215 272 314 360
#     4  12  24  40  63  94 133 171 202 254 328 390
#     4  10  22  39  60  89 125 162 204 266 313 364
#     4  12  20  38  65  92 126 159 203 254 313 380
#     4  12  24  38  61  91 127 168 205 255 320 382
#     4  11  22  39  63  94 126 165 209 257 315 376
#     4  11  22  40  66  94 125 167 211 264 315 371
#     4  10  20  37  64  96 118 157 203 262 317 366
#
# _framework density 20.446278
#
# number of rings (size 3 to 8) (size 9 to 14) (size 15 to 20)
#    0.000    1.000    3.750    4.875    0.000    6.000 
#    0.000    1.250    0.000    1.500    0.000    0.000 
#    0.000    0.000    0.000    0.000    0.000    0.000 
#
# Total GULP energy -396747.560390 kJ/mol
# GULP energy per Si atom -12398.361262 kJ/mol
# Density = 2.039974 g / cm^3
# Si number density = 20.446278 Si / 1000 Ang^3
#
#
#
# Elastic Constant Matrix: (Units=GPa)
#
#
# Indices 1 2 3 4 5 6 
#
# 1 170.4481 51.9613 73.0407 0.0000 -13.9737 0.0000
# 2 51.9613 103.3215 30.9721 0.0000 -5.8795 0.0000
# 3 73.0407 30.9721 91.6554 0.0000 -19.6229 0.0000
# 4 0.0000 0.0000 0.0000 20.1447 0.0000 -5.9704
# 5 -13.9737 -5.8795 -19.6229 0.0000 42.7878 0.0000
# 6 0.0000 0.0000 0.0000 -5.9704 0.0000 12.2754
#
#
#
# Elastic Compliance Matrix: (Units=1/GPa)
#
#
# Indices 1 2 3 4 5 6 
#
# 1 0.009599 -0.002817 -0.006775 0.000000 -0.000359 0.000000
# 2 -0.002817 0.011598 -0.001696 0.000000 -0.000104 0.000000
# 3 -0.006775 -0.001696 0.018140 0.000000 0.005874 0.000000
# 4 0.000000 0.000000 0.000000 0.058002 0.000000 0.028211
# 5 -0.000359 -0.000104 0.005874 0.000000 0.025933 0.000000
# 6 0.000000 0.000000 0.000000 0.028211 0.000000 0.095185
#
#
# Mechanical properties :
#
#
# Convention : Reuss Voigt Hill
#
# Bulk Modulus (GPa) = 59.66380 75.26368 67.46374
# Shear Modulus (GPa) = 20.27403 29.00496 24.63949
#
# Velocity S-wave (km/s) = 3.15235 3.77051 3.47520
# Velocity P-wave (km/s) = 6.51873 7.47302 7.01213
#
# Compressibility (1/GPa) = 0.01676058
#
# Stress axis : x y z
#
# Youngs Moduli (GPa) = 104.17334 86.22222 55.12686
#
# Poissons Ratio (x) = 0.24291 0.37347
# Poissons Ratio (y) = 0.29348 0.09352
# Poissons Ratio (z) = 0.70574 0.14627
#
# Static dielectric constant tensor:
#      x y z
#    x 4.387350 0.000000 -0.174680 
#    y 0.000000 3.355580 0.000000 
#    z -0.174680 0.000000 3.800790 
# 
# 
# High freq. dielectric constant tensor:
#      x y z
#    x 1.819320 0.000000 -0.018610 
#    y 0.000000 1.760520 0.000000 
#    z -0.018610 0.000000 1.805530 
# 
# From -- ./inp_files/39964.got.cif
#   From: 2010.06.25/outbox.cif.g09.slc.cpg/sg11_20_cif.got.tgz:39964.got - 2010.06.27 23:14:04.
