data_PCOD8075929
_publ_section_title
;
Structure prediction by ZEFSAII (Michael W. Deem and Ramdas Pophale) SiO2 
 PCOD8075929
Probable space group: P 21/M
;
_chemical_formula_sum "Si O2"
_cell_formula_units_Z 28
_cell_length_a 11.708615
_cell_length_b 9.325573
_cell_length_c 15.245756
_cell_angle_alpha 90.000000
_cell_angle_beta 118.275896
_cell_angle_gamma 90.000000
_cell_volume 1466.042410
_symmetry_space_group_name_H-M "P 21/M"
_symmetry_group_IT_number 11
_symmetry_cell_setting 'monoclinic'
loop_
_space_group_symop_operation_xyz
x,y,z
-x,1/2+y,-z
-x,-y,-z
x,1/2-y,z
loop_
_atom_site_type_symbol
_atom_site_label
_atom_site_fract_x
_atom_site_fract_y
_atom_site_fract_z
Si Si1 0.964685 0.417446 0.574472
Si Si2 0.900108 0.915549 0.023690
Si Si3 0.420551 0.915789 0.898594
Si Si4 0.673368 0.085396 0.504719
Si Si5 0.635100 0.588334 0.836704
Si Si6 0.446644 0.584606 0.351712
Si Si7 0.844784 0.918222 0.198744
O O1 0.974410 0.250000 0.558071
O O2 0.820716 0.463513 0.549115
O O3 0.000000 0.500000 0.500000
O O4 0.057739 0.460598 0.688285
O O5 0.932150 0.750000 0.020758
O O6 0.913581 0.956791 0.131202
O O7 0.752766 0.953080 0.943785
O O8 0.000000 0.000000 0.000000
O O9 0.403653 0.750000 0.921020
O O10 0.499124 0.927103 0.836898
O O11 0.282397 0.987874 0.832830
O O12 0.500000 0.000000 0.000000
O O13 0.652452 0.250000 0.470322
O O14 0.634574 0.057564 0.590460
O O15 0.586183 0.991596 0.407692
O O16 0.652794 0.750000 0.807969
O O17 0.638988 0.480782 0.756881
O O18 0.471746 0.750000 0.341520
O O19 0.807178 0.750000 0.186279
#
# Coordination Sequence:
#
# PCOD8075929 Si02
#       7
#     4   4   4   4   4   4   4
#     4  10  23  41  62  85 116 157 198 243 294 350
#     4  10  22  40  61  87 122 158 195 239 291 350
#     4  11  22  39  62  86 117 154 194 239 290 348
#     4   9  20  40  60  82 117 155 191 238 300 352
#     4  10  22  39  58  85 121 156 187 236 297 347
#     4  10  21  36  61  90 113 148 196 244 288 345
#     4  10  22  42  63  86 120 159 198 246 298 348
#
# _framework density 19.099039000000001
#
# number of rings (size 3 to 8) (size 9 to 14) (size 15 to 20)
#    0.000    2.000    1.429    0.857    4.000    4.000 
#    0.000    0.000    0.000    0.000    0.000    0.000 
#    0.000    0.000    0.000    0.000    0.000    0.000 
#
# Total GULP energy -347296.967028 kJ/mol
# GULP energy per Si atom -12403.463108 kJ/mol
# Density = 1.905557 g / cm^3
# Si number density = 19.099039 Si / 1000 Ang^3
#
#
#
# Elastic Constant Matrix: (Units=GPa)
#
#
# Indices 1 2 3 4 5 6 
#
# 1 132.0280 61.2130 61.9444 0.0000 12.4491 0.0000
# 2 61.2130 90.2972 67.2385 0.0000 1.0837 0.0000
# 3 61.9444 67.2385 146.8772 0.0000 1.0345 0.0000
# 4 0.0000 0.0000 0.0000 37.9450 0.0000 -0.7392
# 5 12.4491 1.0837 1.0345 0.0000 25.8860 0.0000
# 6 0.0000 0.0000 0.0000 -0.7392 0.0000 35.6622
#
#
#
# Elastic Compliance Matrix: (Units=1/GPa)
#
#
# Indices 1 2 3 4 5 6 
#
# 1 0.012122 -0.006636 -0.002036 0.000000 -0.005470 0.000000
# 2 -0.006636 0.020439 -0.006576 0.000000 0.002598 0.000000
# 3 -0.002036 -0.006576 0.010672 0.000000 0.000828 0.000000
# 4 0.000000 0.000000 0.000000 0.026365 0.000000 0.000546
# 5 -0.005470 0.002598 0.000828 0.000000 0.041120 0.000000
# 6 0.000000 0.000000 0.000000 0.000546 0.000000 0.028052
#
#
# Mechanical properties :
#
#
# Convention : Reuss Voigt Hill
#
# Bulk Modulus (GPa) = 78.51611 83.33268 80.92439
# Shear Modulus (GPa) = 28.81674 31.81907 30.31790
#
# Velocity S-wave (km/s) = 3.88855 4.08610 3.98855
# Velocity P-wave (km/s) = 7.83328 8.12331 7.97961
#
# Compressibility (1/GPa) = 0.01273624
#
# Stress axis : x y z
#
# Youngs Moduli (GPa) = 82.49631 48.92691 93.70495
#
# Poissons Ratio (x) = 0.32466 0.19078
# Poissons Ratio (y) = 0.54742 0.61623
# Poissons Ratio (z) = 0.16796 0.32176
#
# Static dielectric constant tensor:
#      x y z
#    x 3.630480 0.000000 0.087420 
#    y 0.000000 3.555530 0.000000 
#    z 0.087420 0.000000 3.584270 
# 
# 
# High freq. dielectric constant tensor:
#      x y z
#    x 1.746070 0.000000 0.001240 
#    y 0.000000 1.742600 0.000000 
#    z 0.001240 0.000000 1.751070 
# 
# From -- ./inp_files/37472.got.cif
#   From: 2010.06.25/outbox.cif.g09.slc.cpg/sg11_19_cif.got.tgz:37472.got - 2010.06.27 23:14:04.
