data_PCOD8075189
_publ_section_title
;
Structure prediction by ZEFSAII (Michael W. Deem and Ramdas Pophale) SiO2 
 PCOD8075189
Probable space group: P 21/M
;
_chemical_formula_sum "Si O2"
_cell_formula_units_Z 24
_cell_length_a 15.341343
_cell_length_b 10.391696
_cell_length_c 14.573353
_cell_angle_alpha 90.000000
_cell_angle_beta 151.302810
_cell_angle_gamma 90.000000
_cell_volume 1115.613595
_symmetry_space_group_name_H-M "P 21/M"
_symmetry_group_IT_number 11
_symmetry_cell_setting 'monoclinic'
loop_
_space_group_symop_operation_xyz
x,y,z
-x,1/2+y,-z
-x,-y,-z
x,1/2-y,z
loop_
_atom_site_type_symbol
_atom_site_label
_atom_site_fract_x
_atom_site_fract_y
_atom_site_fract_z
Si Si1 0.617927 0.103518 0.898551
Si Si2 0.220488 0.896379 0.137720
Si Si3 0.288480 0.526494 0.820690
Si Si4 0.951550 0.388785 0.556943
Si Si5 0.774354 0.601106 0.505220
Si Si6 0.791183 0.893146 0.731742
O O1 0.614736 0.250000 0.866911
O O2 0.715105 0.040678 0.899762
O O3 0.408716 0.060103 0.717953
O O4 0.729363 0.085592 0.094324
O O5 0.292712 0.750000 0.223405
O O6 0.294255 0.994456 0.283862
O O7 0.005828 0.894398 0.938096
O O8 0.205354 0.618348 0.665986
O O9 0.151906 0.403171 0.694969
O O10 0.500000 0.500000 0.000000
O O11 0.946956 0.250000 0.602908
O O12 0.925686 0.504313 0.605761
O O13 0.833380 0.750000 0.542230
O O14 0.735376 0.577038 0.575942
O O15 0.719855 0.750000 0.694000
#
# Coordination Sequence:
#
# PCOD8075189 Si02
#       6
#     4   4   4   4   4   4
#     4  10  20  37  61  86 116 161 210 252 303 374
#     4   9  18  33  55  82 112 151 200 252 304 357
#     4  11  23  43  64  89 125 171 206 254 310 379
#     4  11  25  41  64  98 129 161 208 263 314 361
#     4  10  21  39  62  88 121 164 207 248 304 374
#     4   9  18  34  56  81 114 155 201 247 300 367
#
# _framework density 21.512823999999998
#
# number of rings (size 3 to 8) (size 9 to 14) (size 15 to 20)
#    0.000    2.000    1.667    1.500    0.000    7.333 
#    0.000    5.000    0.000    0.000    0.000    0.000 
#    0.000    0.000    0.000    0.000    0.000    0.000 
#
# Total GULP energy -297338.771774 kJ/mol
# GULP energy per Si atom -12389.115491 kJ/mol
# Density = 2.146386 g / cm^3
# Si number density = 21.512824 Si / 1000 Ang^3
#
#
#
# Elastic Constant Matrix: (Units=GPa)
#
#
# Indices 1 2 3 4 5 6 
#
# 1 100.2644 55.6246 22.3708 0.0000 -3.8747 0.0000
# 2 55.6246 109.6695 11.1969 0.0000 -5.0848 0.0000
# 3 22.3708 11.1969 82.1541 0.0000 -2.7340 0.0000
# 4 0.0000 0.0000 0.0000 7.5212 0.0000 -3.7104
# 5 -3.8747 -5.0848 -2.7340 0.0000 31.8609 0.0000
# 6 0.0000 0.0000 0.0000 -3.7104 0.0000 26.7059
#
#
#
# Elastic Compliance Matrix: (Units=1/GPa)
#
#
# Indices 1 2 3 4 5 6 
#
# 1 0.014579 -0.007071 -0.002993 0.000000 0.000388 0.000000
# 2 -0.007071 0.012737 0.000229 0.000000 0.001192 0.000000
# 3 -0.002993 0.000229 0.012982 0.000000 0.000787 0.000000
# 4 0.000000 0.000000 0.000000 0.142741 0.000000 0.019832
# 5 0.000388 0.001192 0.000787 0.000000 0.031691 0.000000
# 6 0.000000 0.000000 0.000000 0.019832 0.000000 0.040200
#
#
# Mechanical properties :
#
#
# Convention : Reuss Voigt Hill
#
# Bulk Modulus (GPa) = 48.47803 52.27472 50.37638
# Shear Modulus (GPa) = 17.76344 26.74399 22.25372
#
# Velocity S-wave (km/s) = 2.87664 3.52968 3.21976
# Velocity P-wave (km/s) = 5.79800 6.40028 6.10657
#
# Compressibility (1/GPa) = 0.02062790
#
# Stress axis : x y z
#
# Youngs Moduli (GPa) = 68.59001 78.51354 77.02808
#
# Poissons Ratio (x) = 0.55518 0.23057
# Poissons Ratio (y) = 0.48501 -0.01766
# Poissons Ratio (z) = 0.20532 -0.01800
#
# Static dielectric constant tensor:
#      x y z
#    x 4.021840 0.000000 0.137300 
#    y 0.000000 3.905840 0.000000 
#    z 0.137300 0.000000 4.255090 
# 
# 
# High freq. dielectric constant tensor:
#      x y z
#    x 1.844090 0.000000 -0.000070 
#    y 0.000000 1.818600 0.000000 
#    z -0.000070 0.000000 1.854350 
# 
# From -- ./inp_files/52358.got.cif
#   From: 2010.06.25/outbox.cif.g09.slc.cpg/sg11_27_cif.got.tgz:52358.got - 2010.06.27 23:14:04.
