data_PCOD8075200
_publ_section_title
;
Structure prediction by ZEFSAII (Michael W. Deem and Ramdas Pophale) SiO2 
 PCOD8075200
Probable space group: P 21/M
;
_chemical_formula_sum "Si O2"
_cell_formula_units_Z 32
_cell_length_a 12.109586
_cell_length_b 8.828887
_cell_length_c 27.789780
_cell_angle_alpha 90.000000
_cell_angle_beta 146.649187
_cell_angle_gamma 90.000000
_cell_volume 1633.414984
_symmetry_space_group_name_H-M "P 21/M"
_symmetry_group_IT_number 11
_symmetry_cell_setting 'monoclinic'
loop_
_space_group_symop_operation_xyz
x,y,z
-x,1/2+y,-z
-x,-y,-z
x,1/2-y,z
loop_
_atom_site_type_symbol
_atom_site_label
_atom_site_fract_x
_atom_site_fract_y
_atom_site_fract_z
Si Si1 0.197794 0.425953 0.950501
Si Si2 0.956718 0.569893 0.432853
Si Si3 0.561753 0.575473 0.239848
Si Si4 0.096921 0.928892 0.813966
Si Si5 0.418199 0.425314 0.864484
Si Si6 0.299668 0.573320 0.483223
Si Si7 0.281039 0.573917 0.365917
Si Si8 0.878964 0.074477 0.913084
O O1 0.246162 0.250000 0.960036
O O2 0.185702 0.507791 0.895501
O O3 0.989299 0.450219 0.902667
O O4 0.373048 0.499237 0.045388
O O5 0.952846 0.750000 0.435187
O O6 0.741916 0.503341 0.336814
O O7 0.000000 0.500000 0.500000
O O8 0.125132 0.519730 0.455666
O O9 0.549378 0.750000 0.249486
O O10 0.615806 0.553866 0.204139
O O11 0.344290 0.501163 0.172552
O O12 0.106154 0.750000 0.818923
O O13 0.232356 0.990654 0.820488
O O14 0.869991 0.982413 0.723040
O O15 0.419885 0.250000 0.880469
O O16 0.351113 0.750000 0.507816
O O17 0.232587 0.538675 0.404100
O O18 0.496070 0.476889 0.567376
O O19 0.255688 0.750000 0.345036
O O20 0.860449 0.250000 0.920186
O O21 0.000000 0.000000 0.000000
#
# Coordination Sequence:
#
# PCOD8075200 Si02
#       8
#     4   4   4   4   4   4   4   4
#     4  11  23  38  57  85 120 156 196 242 292 349
#     4  10  21  38  58  84 119 156 197 242 292 349
#     4   9  19  37  62  87 114 154 195 237 295 352
#     4  12  25  39  56  83 121 156 193 240 295 355
#     4  11  21  38  63  85 112 151 198 244 295 355
#     4   9  19  37  60  85 117 153 192 240 296 351
#     4  10  20  37  62  88 113 148 194 242 294 354
#     4  10  20  37  61  87 116 150 194 243 291 346
#
# _framework density 19.590855999999999
#
# number of rings (size 3 to 8) (size 9 to 14) (size 15 to 20)
#    0.000    1.750    1.250    3.375    0.000    4.500 
#    0.000    4.375    0.000    0.000    0.000    0.000 
#    0.000    0.000    0.000    0.000    0.000    0.000 
#
# Total GULP energy -396883.113151 kJ/mol
# GULP energy per Si atom -12402.597286 kJ/mol
# Density = 1.954627 g / cm^3
# Si number density = 19.590856 Si / 1000 Ang^3
#
#
#
# Elastic Constant Matrix: (Units=GPa)
#
#
# Indices 1 2 3 4 5 6 
#
# 1 68.1650 25.7311 58.8360 0.0000 14.6218 0.0000
# 2 25.7311 90.3281 45.9991 0.0000 3.5212 0.0000
# 3 58.8360 45.9991 148.8315 0.0000 8.7877 0.0000
# 4 0.0000 0.0000 0.0000 32.9986 0.0000 0.9453
# 5 14.6218 3.5212 8.7877 0.0000 29.6725 0.0000
# 6 0.0000 0.0000 0.0000 0.9453 0.0000 22.7173
#
#
#
# Elastic Compliance Matrix: (Units=1/GPa)
#
#
# Indices 1 2 3 4 5 6 
#
# 1 0.025028 -0.002381 -0.008597 0.000000 -0.009505 0.000000
# 2 -0.002381 0.013369 -0.003223 0.000000 0.000541 0.000000
# 3 -0.008597 -0.003223 0.011034 0.000000 0.001351 0.000000
# 4 0.000000 0.000000 0.000000 0.030340 0.000000 -0.001262
# 5 -0.009505 0.000541 0.001351 0.000000 0.037920 0.000000
# 6 0.000000 0.000000 0.000000 -0.001262 0.000000 0.044072
#
#
# Mechanical properties :
#
#
# Convention : Reuss Voigt Hill
#
# Bulk Modulus (GPa) = 47.55190 63.16188 55.35689
# Shear Modulus (GPa) = 25.35811 28.86158 27.10985
#
# Velocity S-wave (km/s) = 3.60166 3.84241 3.72398
# Velocity P-wave (km/s) = 6.45144 7.21083 6.84168
#
# Compressibility (1/GPa) = 0.02102966
#
# Stress axis : x y z
#
# Youngs Moduli (GPa) = 39.95456 74.79967 90.63033
#
# Poissons Ratio (x) = 0.17811 0.77916
# Poissons Ratio (y) = 0.09514 0.29206
# Poissons Ratio (z) = 0.34349 0.24105
#
# Static dielectric constant tensor:
#      x y z
#    x 3.798220 0.000000 0.135000 
#    y 0.000000 3.518380 0.000000 
#    z 0.135000 0.000000 3.831360 
# 
# 
# High freq. dielectric constant tensor:
#      x y z
#    x 1.767700 0.000000 0.007940 
#    y 0.000000 1.752050 0.000000 
#    z 0.007940 0.000000 1.776940 
# 
# From -- ./inp_files/73168.got.cif
#   From: 2010.06.25/outbox.cif.g09.slc.cpg/sg11_37_cif.got.tgz:73168.got - 2010.06.27 23:14:04.
