data_PCOD8075552
_publ_section_title
;
Structure prediction by ZEFSAII (Michael W. Deem and Ramdas Pophale) SiO2 
 PCOD8075552
Probable space group: P 21/M
;
_chemical_formula_sum "Si O2"
_cell_formula_units_Z 28
_cell_length_a 16.408948
_cell_length_b 8.813576
_cell_length_c 19.353120
_cell_angle_alpha 90.000000
_cell_angle_beta 149.354516
_cell_angle_gamma 90.000000
_cell_volume 1426.656549
_symmetry_space_group_name_H-M "P 21/M"
_symmetry_group_IT_number 11
_symmetry_cell_setting 'monoclinic'
loop_
_space_group_symop_operation_xyz
x,y,z
-x,1/2+y,-z
-x,-y,-z
x,1/2-y,z
loop_
_atom_site_type_symbol
_atom_site_label
_atom_site_fract_x
_atom_site_fract_y
_atom_site_fract_z
Si Si1 0.024149 0.429714 0.092310
Si Si2 0.666543 0.929022 0.601496
Si Si3 0.158350 0.428077 0.648109
Si Si4 0.129873 0.921044 0.769409
Si Si5 0.405199 0.572764 0.728907
Si Si6 0.742645 0.070888 0.989668
Si Si7 0.754672 0.578316 0.513186
O O1 0.024425 0.250000 0.085932
O O2 0.192758 0.488989 0.245793
O O3 0.000000 0.500000 0.000000
O O4 0.883687 0.482229 0.041467
O O5 0.655179 0.750000 0.598906
O O6 0.703796 0.979298 0.551012
O O7 0.500000 0.000000 0.500000
O O8 0.143359 0.250000 0.626879
O O9 0.177885 0.467242 0.742762
O O10 0.317199 0.485103 0.726313
O O11 0.000000 0.500000 0.500000
O O12 0.181794 0.750000 0.787512
O O13 0.943419 0.926888 0.647022
O O14 0.217162 0.975481 0.902521
O O15 0.397511 0.750000 0.738965
O O16 0.586014 0.518684 0.853238
O O17 0.317940 0.538955 0.593583
O O18 0.714226 0.250000 0.962747
O O19 0.693579 0.750000 0.453767
#
# Coordination Sequence:
#
# PCOD8075552 Si02
#       7
#     4   4   4   4   4   4   4
#     4  10  22  41  63  89 123 163 205 249 305 366
#     4  10  22  40  62  92 125 161 205 253 307 366
#     4  12  24  40  63  93 127 162 203 254 308 366
#     4  10  20  39  68  92 117 161 209 256 307 363
#     4  12  26  41  61  93 127 163 206 256 307 367
#     4  10  22  43  66  89 122 166 209 253 309 370
#     4  10  20  39  65  89 120 163 207 255 309 365
#
# _framework density 19.626307000000001
#
# number of rings (size 3 to 8) (size 9 to 14) (size 15 to 20)
#    0.000    1.429    2.857    2.571    2.000    2.857 
#    0.000    0.000    0.000    0.000    0.000    0.000 
#    0.000    0.000    0.000    0.000    0.000    0.000 
#
# Total GULP energy -347312.713629 kJ/mol
# GULP energy per Si atom -12404.025487 kJ/mol
# Density = 1.958164 g / cm^3
# Si number density = 19.626307 Si / 1000 Ang^3
#
#
#
# Elastic Constant Matrix: (Units=GPa)
#
#
# Indices 1 2 3 4 5 6 
#
# 1 180.1150 75.6060 147.2792 0.0000 -23.8185 0.0000
# 2 75.6060 106.3239 110.1034 0.0000 -14.9989 0.0000
# 3 147.2792 110.1034 341.2843 0.0000 -42.4154 0.0000
# 4 0.0000 0.0000 0.0000 32.7162 0.0000 0.3086
# 5 -23.8185 -14.9989 -42.4154 0.0000 45.0361 0.0000
# 6 0.0000 0.0000 0.0000 0.3086 0.0000 42.7912
#
#
#
# Elastic Compliance Matrix: (Units=1/GPa)
#
#
# Indices 1 2 3 4 5 6 
#
# 1 0.009543 -0.003764 -0.002755 0.000000 0.001199 0.000000
# 2 -0.003764 0.015617 -0.003415 0.000000 -0.000006 0.000000
# 3 -0.002755 -0.003415 0.005548 0.000000 0.002630 0.000000
# 4 0.000000 0.000000 0.000000 0.030568 0.000000 -0.000220
# 5 0.001199 -0.000006 0.002630 0.000000 0.025314 0.000000
# 6 0.000000 0.000000 0.000000 -0.000220 0.000000 0.023371
#
#
# Mechanical properties :
#
#
# Convention : Reuss Voigt Hill
#
# Bulk Modulus (GPa) = 92.24676 143.74448 117.99562
# Shear Modulus (GPa) = 37.46950 43.75767 40.61359
#
# Velocity S-wave (km/s) = 4.37412 4.72692 4.55394
# Velocity P-wave (km/s) = 8.52140 10.15832 9.37565
#
# Compressibility (1/GPa) = 0.01084049
#
# Stress axis : x y z
#
# Youngs Moduli (GPa) = 104.78482 64.03252 180.26020
#
# Poissons Ratio (x) = 0.24103 0.49662
# Poissons Ratio (y) = 0.39442 0.61552
# Poissons Ratio (z) = 0.28868 0.21865
#
# Static dielectric constant tensor:
#      x y z
#    x 3.808890 0.000000 0.020780 
#    y 0.000000 3.480760 0.000000 
#    z 0.020780 0.000000 3.526160 
# 
# 
# High freq. dielectric constant tensor:
#      x y z
#    x 1.779170 0.000000 -0.003100 
#    y 0.000000 1.753860 0.000000 
#    z -0.003100 0.000000 1.773580 
# 
# From -- ./inp_files/60136.got.cif
#   From: 2010.06.25/outbox.cif.g09.slc.cpg/sg11_31_cif.got.tgz:60136.got - 2010.06.27 23:14:04.
