data_PCOD8075311
_publ_section_title
;
Structure prediction by ZEFSAII (Michael W. Deem and Ramdas Pophale) SiO2 
 PCOD8075311
Probable space group: P 21/M
;
_chemical_formula_sum "Si O2"
_cell_formula_units_Z 28
_cell_length_a 6.463674
_cell_length_b 20.049990
_cell_length_c 12.237198
_cell_angle_alpha 90.000000
_cell_angle_beta 117.481887
_cell_angle_gamma 90.000000
_cell_volume 1406.941237
_symmetry_space_group_name_H-M "P 21/M"
_symmetry_group_IT_number 11
_symmetry_cell_setting 'monoclinic'
loop_
_space_group_symop_operation_xyz
x,y,z
-x,1/2+y,-z
-x,-y,-z
x,1/2-y,z
loop_
_atom_site_type_symbol
_atom_site_label
_atom_site_fract_x
_atom_site_fract_y
_atom_site_fract_z
Si Si1 0.055728 0.325277 0.525472
Si Si2 0.373667 0.423284 0.508042
Si Si3 0.832891 0.427698 0.764989
Si Si4 0.217247 0.525973 0.812302
Si Si5 0.608160 0.082921 0.937031
Si Si6 0.782253 0.676540 0.196777
Si Si7 0.277767 0.556064 0.580104
O O1 0.968689 0.250000 0.473118
O O2 0.848735 0.378126 0.497898
O O3 0.220838 0.355686 0.470224
O O4 0.212147 0.323127 0.670847
O O5 0.596692 0.415969 0.640995
O O6 0.200097 0.482500 0.513660
O O7 0.457446 0.438641 0.404766
O O8 0.780955 0.434044 0.880541
O O9 0.957443 0.495053 0.750840
O O10 0.005358 0.365627 0.798365
O O11 0.396703 0.468456 0.883115
O O12 0.274212 0.559203 0.709719
O O13 0.245340 0.581045 0.914453
O O14 0.479114 0.153929 0.898721
O O15 0.817202 0.750000 0.156914
#
# Coordination Sequence:
#
# PCOD8075311 Si02
#       7
#     4   4   4   4   4   4   4
#     4  11  23  38  56  83 119 151 186 233 284 342
#     4  11  22  34  60  89 114 144 189 236 287 337
#     4  11  19  35  57  89 113 138 183 236 286 326
#     4  10  22  35  57  82 115 144 184 227 281 334
#     4  10  20  38  55  82 111 147 183 231 278 328
#     4  10  21  36  56  82 112 147 188 230 278 334
#     4  11  23  37  59  86 115 150 188 235 284 337
#
# _framework density 19.901327999999999
#
# number of rings (size 3 to 8) (size 9 to 14) (size 15 to 20)
#    0.000    1.429    4.286    1.714    4.000    1.714 
#    0.000    0.714    0.000    1.714    0.000    0.000 
#    0.000    0.000    0.000    0.000    0.000    0.000 
#
# Total GULP energy -347027.977862 kJ/mol
# GULP energy per Si atom -12393.856352 kJ/mol
# Density = 1.985603 g / cm^3
# Si number density = 19.901328 Si / 1000 Ang^3
#
#
#
# Elastic Constant Matrix: (Units=GPa)
#
#
# Indices 1 2 3 4 5 6 
#
# 1 90.7798 43.7783 37.7399 0.0000 -17.5936 0.0000
# 2 43.7783 119.8587 25.7188 0.0000 8.1934 0.0000
# 3 37.7399 25.7188 82.1691 0.0000 -19.3659 0.0000
# 4 0.0000 0.0000 0.0000 22.1937 0.0000 1.0508
# 5 -17.5936 8.1934 -19.3659 0.0000 32.9939 0.0000
# 6 0.0000 0.0000 0.0000 1.0508 0.0000 26.8461
#
#
#
# Elastic Compliance Matrix: (Units=1/GPa)
#
#
# Indices 1 2 3 4 5 6 
#
# 1 0.017189 -0.005966 -0.004083 0.000000 0.008251 0.000000
# 2 -0.005966 0.011626 -0.002703 0.000000 -0.007655 0.000000
# 3 -0.004083 -0.002703 0.016870 0.000000 0.008396 0.000000
# 4 0.000000 0.000000 0.000000 0.045142 0.000000 -0.001767
# 5 0.008251 -0.007655 0.008396 0.000000 0.041537 0.000000
# 6 0.000000 0.000000 0.000000 -0.001767 0.000000 0.037319
#
#
# Mechanical properties :
#
#
# Convention : Reuss Voigt Hill
#
# Bulk Modulus (GPa) = 49.55084 56.36464 52.95774
# Shear Modulus (GPa) = 24.76311 28.77810 26.77060
#
# Velocity S-wave (km/s) = 3.53128 3.80681 3.67163
# Velocity P-wave (km/s) = 6.44817 6.90695 6.68150
#
# Compressibility (1/GPa) = 0.02018129
#
# Stress axis : x y z
#
# Youngs Moduli (GPa) = 58.17516 86.01744 59.27702
#
# Poissons Ratio (x) = 0.51321 0.24202
# Poissons Ratio (y) = 0.34710 0.16020
# Poissons Ratio (z) = 0.23752 0.23247
#
# Static dielectric constant tensor:
#      x y z
#    x 3.801260 0.000000 -0.051030 
#    y 0.000000 3.762230 0.000000 
#    z -0.051030 0.000000 3.621060 
# 
# 
# High freq. dielectric constant tensor:
#      x y z
#    x 1.792840 0.000000 -0.008310 
#    y 0.000000 1.757270 0.000000 
#    z -0.008310 0.000000 1.752650 
# 
# From -- ./inp_files/30022.got.cif
#   From: 2010.06.25/outbox.cif.g09.slc.cpg/sg11_16_cif.got.tgz:30022.got - 2010.06.27 23:14:04.
