data_PCOD8075875
_publ_section_title
;
Structure prediction by ZEFSAII (Michael W. Deem and Ramdas Pophale) SiO2 
 PCOD8075875
Probable space group: P 21/M
;
_chemical_formula_sum "Si O2"
_cell_formula_units_Z 32
_cell_length_a 11.791882
_cell_length_b 18.800596
_cell_length_c 9.626236
_cell_angle_alpha 90.000000
_cell_angle_beta 127.840283
_cell_angle_gamma 90.000000
_cell_volume 1685.336118
_symmetry_space_group_name_H-M "P 21/M"
_symmetry_group_IT_number 11
_symmetry_cell_setting 'monoclinic'
loop_
_space_group_symop_operation_xyz
x,y,z
-x,1/2+y,-z
-x,-y,-z
x,1/2-y,z
loop_
_atom_site_type_symbol
_atom_site_label
_atom_site_fract_x
_atom_site_fract_y
_atom_site_fract_z
Si Si1 0.152699 0.412936 0.786479
Si Si2 0.942312 0.170177 0.004492
Si Si3 0.832234 0.400083 0.465103
Si Si4 0.777649 0.561302 0.461664
Si Si5 0.747907 0.834698 0.873133
Si Si6 0.550066 0.580731 0.519736
Si Si7 0.097545 0.925158 0.780738
Si Si8 0.294652 0.828690 0.388361
O O1 0.247755 0.414919 0.716979
O O2 0.135639 0.492519 0.835084
O O3 0.995802 0.383575 0.630575
O O4 0.232716 0.361214 0.954030
O O5 0.930879 0.250000 0.054786
O O6 0.862374 0.118311 0.052098
O O7 0.106973 0.149415 0.102543
O O8 0.861672 0.162718 0.797698
O O9 0.783106 0.476952 0.479885
O O10 0.814454 0.394775 0.285429
O O11 0.724913 0.346636 0.462933
O O12 0.650067 0.591453 0.460507
O O13 0.930034 0.589952 0.628502
O O14 0.710425 0.750000 0.843944
O O15 0.625280 0.883545 0.711255
O O16 0.500000 0.500000 0.500000
O O17 0.403688 0.622793 0.384857
O O18 0.356668 0.750000 0.424088
#
# Coordination Sequence:
#
# PCOD8075875 Si02
#       8
#     4   4   4   4   4   4   4   4
#     4   9  19  34  63  88 115 148 193 251 295 339
#     4  10  21  36  57  86 118 151 196 247 294 346
#     4   9  17  34  57  88 118 148 188 244 298 348
#     4   9  18  37  56  90 117 149 197 240 289 349
#     4  11  23  40  59  88 120 152 199 248 294 353
#     4  12  24  39  62  86 117 160 199 238 297 357
#     4   9  18  33  60  89 119 144 193 253 293 335
#     4  11  23  38  56  84 123 158 191 239 298 360
#
# _framework density 18.987310000000001
#
# number of rings (size 3 to 8) (size 9 to 14) (size 15 to 20)
#    0.000    2.000    3.750    1.875    1.750    1.000 
#    0.000    5.000    0.000    1.500    0.000    0.000 
#    0.000    0.000    0.000    0.000    0.000    0.000 
#
# Total GULP energy -396675.471595 kJ/mol
# GULP energy per Si atom -12396.108487 kJ/mol
# Density = 1.894409 g / cm^3
# Si number density = 18.987310 Si / 1000 Ang^3
#
#
#
# Elastic Constant Matrix: (Units=GPa)
#
#
# Indices 1 2 3 4 5 6 
#
# 1 93.3000 43.0303 21.5179 0.0000 -15.7853 0.0000
# 2 43.0303 100.3525 42.0996 0.0000 -6.6010 0.0000
# 3 21.5179 42.0996 66.2205 0.0000 -12.4187 0.0000
# 4 0.0000 0.0000 0.0000 32.2111 0.0000 -1.2289
# 5 -15.7853 -6.6010 -12.4187 0.0000 30.8345 0.0000
# 6 0.0000 0.0000 0.0000 -1.2289 0.0000 28.6620
#
#
#
# Elastic Compliance Matrix: (Units=1/GPa)
#
#
# Indices 1 2 3 4 5 6 
#
# 1 0.014426 -0.005863 0.000205 0.000000 0.006213 0.000000
# 2 -0.005863 0.015983 -0.008845 0.000000 -0.003142 0.000000
# 3 0.000205 -0.008845 0.021983 0.000000 0.007065 0.000000
# 4 0.000000 0.000000 0.000000 0.031096 0.000000 0.001333
# 5 0.006213 -0.003142 0.007065 0.000000 0.037784 0.000000
# 6 0.000000 0.000000 0.000000 0.001333 0.000000 0.034947
#
#
# Mechanical properties :
#
#
# Convention : Reuss Voigt Hill
#
# Bulk Modulus (GPa) = 42.76277 52.57428 47.66852
# Shear Modulus (GPa) = 25.90396 28.55653 27.23025
#
# Velocity S-wave (km/s) = 3.69762 3.88233 3.79110
# Velocity P-wave (km/s) = 6.38753 6.91707 6.65757
#
# Compressibility (1/GPa) = 0.02338483
#
# Stress axis : x y z
#
# Youngs Moduli (GPa) = 69.31920 62.56666 45.49012
#
# Poissons Ratio (x) = 0.36683 -0.00932
# Poissons Ratio (y) = 0.40642 0.40237
# Poissons Ratio (z) = -0.01420 0.55342
#
# Static dielectric constant tensor:
#      x y z
#    x 3.437290 0.000000 -0.107600 
#    y 0.000000 3.440690 0.000000 
#    z -0.107600 0.000000 3.299210 
# 
# 
# High freq. dielectric constant tensor:
#      x y z
#    x 1.734360 0.000000 -0.013660 
#    y 0.000000 1.732500 0.000000 
#    z -0.013660 0.000000 1.722740 
# 
# From -- ./inp_files/19185.got.cif
#   From: 2010.06.25/outbox.cif.g09.slc.cpg/sg11_10_cif.got.tgz:19185.got - 2010.06.27 23:14:04.
