data_PCOD8075737
_publ_section_title
;
Structure prediction by ZEFSAII (Michael W. Deem and Ramdas Pophale) SiO2 
 PCOD8075737
Probable space group: P 21/M
;
_chemical_formula_sum "Si O2"
_cell_formula_units_Z 20
_cell_length_a 11.940684
_cell_length_b 18.986533
_cell_length_c 7.105685
_cell_angle_alpha 90.000000
_cell_angle_beta 147.742160
_cell_angle_gamma 90.000000
_cell_volume 859.810274
_symmetry_space_group_name_H-M "P 21/M"
_symmetry_group_IT_number 11
_symmetry_cell_setting 'monoclinic'
loop_
_space_group_symop_operation_xyz
x,y,z
-x,1/2+y,-z
-x,-y,-z
x,1/2-y,z
loop_
_atom_site_type_symbol
_atom_site_label
_atom_site_fract_x
_atom_site_fract_y
_atom_site_fract_z
Si Si1 0.807270 0.669686 0.634415
Si Si2 0.022558 0.461445 0.729635
Si Si3 0.949153 0.827987 0.438675
Si Si4 0.802293 0.429160 0.752970
Si Si5 0.394132 0.669311 0.266475
O O1 0.870372 0.750000 0.778976
O O2 0.586466 0.647014 0.409611
O O3 0.784397 0.665094 0.375255
O O4 0.981497 0.615165 0.947298
O O5 0.108758 0.382631 0.808600
O O6 0.799443 0.456597 0.531017
O O7 0.000000 0.500000 0.500000
O O8 0.187756 0.504667 0.090801
O O9 0.940112 0.750000 0.335814
O O10 0.181459 0.844761 0.848688
O O11 0.612767 0.378812 0.552694
O O12 0.409952 0.750000 0.354888
#
# Coordination Sequence:
#
# PCOD8075737 Si02
#       5
#     4   4   4   4   4
#     4   9  17  33  57  83 111 143 183 225 266 320
#     4  11  20  37  58  79 113 143 183 228 266 328
#     4   9  18  34  56  79 107 145 180 222 276 320
#     4  10  21  35  57  79 110 150 180 222 277 317
#     4   9  17  33  57  83 111 143 183 225 266 320
#
# _framework density 23.260945
#
# number of rings (size 3 to 8) (size 9 to 14) (size 15 to 20)
#    0.000    2.400    4.000    1.800    0.000    1.600 
#    0.000   10.000    0.000    4.800    0.000    0.000 
#    0.000    0.000    0.000    0.000    0.000    0.000 
#
# Total GULP energy -247794.142457 kJ/mol
# GULP energy per Si atom -12389.707123 kJ/mol
# Density = 2.320800 g / cm^3
# Si number density = 23.260945 Si / 1000 Ang^3
#
#
#
# Elastic Constant Matrix: (Units=GPa)
#
#
# Indices 1 2 3 4 5 6 
#
# 1 181.6892 64.0525 40.2474 0.0000 7.6685 0.0000
# 2 64.0525 126.3863 14.5873 0.0000 -2.8532 0.0000
# 3 40.2474 14.5873 23.7499 0.0000 11.8711 0.0000
# 4 0.0000 0.0000 0.0000 6.1875 0.0000 3.8677
# 5 7.6685 -2.8532 11.8711 0.0000 39.7882 0.0000
# 6 0.0000 0.0000 0.0000 3.8677 0.0000 57.2717
#
#
#
# Elastic Compliance Matrix: (Units=1/GPa)
#
#
# Indices 1 2 3 4 5 6 
#
# 1 0.010222 -0.003182 -0.016771 0.000000 0.002805 0.000000
# 2 -0.003182 0.009733 -0.001459 0.000000 0.001746 0.000000
# 3 -0.016771 -0.001459 0.082103 0.000000 -0.021368 0.000000
# 4 0.000000 0.000000 0.000000 0.168739 0.000000 -0.011395
# 5 0.002805 0.001746 -0.021368 0.000000 0.031093 0.000000
# 6 0.000000 0.000000 0.000000 -0.011395 0.000000 0.018230
#
#
# Mechanical properties :
#
#
# Convention : Reuss Voigt Hill
#
# Bulk Modulus (GPa) = 16.88206 63.28887 40.08547
# Shear Modulus (GPa) = 13.06547 34.84536 23.95541
#
# Velocity S-wave (km/s) = 2.37257 3.87463 3.21262
# Velocity P-wave (km/s) = 3.84434 6.87635 5.57060
#
# Compressibility (1/GPa) = 0.05923446
#
# Stress axis : x y z
#
# Youngs Moduli (GPa) = 97.82604 102.74850 12.17981
#
# Poissons Ratio (x) = 0.32690 0.20427
# Poissons Ratio (y) = 0.31124 0.01777
# Poissons Ratio (z) = 1.64065 0.14991
#
# Static dielectric constant tensor:
#      x y z
#    x 4.813820 0.000000 0.069320 
#    y 0.000000 4.723830 0.000000 
#    z 0.069320 0.000000 3.363090 
# 
# 
# High freq. dielectric constant tensor:
#      x y z
#    x 1.950430 0.000000 0.002770 
#    y 0.000000 1.946790 0.000000 
#    z 0.002770 0.000000 1.835780 
# 
# From -- ./inp_files/18738.got.cif
#   From: 2010.06.25/outbox.cif.g09.slc.cpg/sg11_10_cif.got.tgz:18738.got - 2010.06.27 23:14:04.
