data_PCOD8075766
_publ_section_title
;
Structure prediction by ZEFSAII (Michael W. Deem and Ramdas Pophale) SiO2 
 PCOD8075766
Probable space group: P 21/M
;
_chemical_formula_sum "Si O2"
_cell_formula_units_Z 32
_cell_length_a 12.087133
_cell_length_b 9.144267
_cell_length_c 23.301293
_cell_angle_alpha 90.000000
_cell_angle_beta 136.645904
_cell_angle_gamma 90.000000
_cell_volume 1768.056081
_symmetry_space_group_name_H-M "P 21/M"
_symmetry_group_IT_number 11
_symmetry_cell_setting 'monoclinic'
loop_
_space_group_symop_operation_xyz
x,y,z
-x,1/2+y,-z
-x,-y,-z
x,1/2-y,z
loop_
_atom_site_type_symbol
_atom_site_label
_atom_site_fract_x
_atom_site_fract_y
_atom_site_fract_z
Si Si1 0.529065 0.413915 0.347691
Si Si2 0.901737 0.088030 0.508839
Si Si3 0.072234 0.578333 0.661901
Si Si4 0.592672 0.423452 0.588013
Si Si5 0.508815 0.921909 0.914015
Si Si6 0.035123 0.917049 0.273877
Si Si7 0.575183 0.423136 0.240682
Si Si8 0.266473 0.083327 0.903163
O O1 0.454898 0.250000 0.328435
O O2 0.718990 0.401257 0.422519
O O3 0.470693 0.524059 0.374403
O O4 0.494252 0.479216 0.270119
O O5 0.975551 0.250000 0.542016
O O6 0.000000 0.000000 0.500000
O O7 0.920547 0.003149 0.575750
O O8 0.046610 0.750000 0.647875
O O9 0.238629 0.527175 0.695088
O O10 0.066069 0.525852 0.724559
O O11 0.500000 0.500000 0.500000
O O12 0.567744 0.250000 0.572538
O O13 0.780539 0.467928 0.661155
O O14 0.474935 0.750000 0.898831
O O15 0.520622 0.979406 0.852314
O O16 0.356160 0.989418 0.888738
O O17 0.673865 0.962157 0.010270
O O18 0.030087 0.750000 0.294508
O O19 0.929348 0.931536 0.175012
O O20 0.571530 0.250000 0.243239
O O21 0.319267 0.250000 0.911723
#
# Coordination Sequence:
#
# PCOD8075766 Si02
#       8
#     4   4   4   4   4   4   4   4
#     4  10  21  38  55  73 102 137 175 218 262 309
#     4  11  21  33  49  72 103 136 168 209 259 313
#     4  11  20  32  50  76 106 137 174 213 258 312
#     4  11  24  41  58  76 101 137 181 226 266 307
#     4   9  16  29  50  77 109 140 170 207 256 315
#     4  10  21  36  52  75 107 139 174 220 268 314
#     4   9  17  31  50  75 107 137 165 206 257 307
#     4   9  17  29  49  77 107 140 173 208 258 315
#
# _framework density 18.098973000000001
#
# number of rings (size 3 to 8) (size 9 to 14) (size 15 to 20)
#    0.000    2.000    2.500    1.875    0.000    5.000 
#    0.000    0.625    0.000    0.750    0.000    0.000 
#    0.000    0.000    0.000    0.000    0.000    0.125 
#
# Total GULP energy -396457.065516 kJ/mol
# GULP energy per Si atom -12389.283297 kJ/mol
# Density = 1.805778 g / cm^3
# Si number density = 18.098973 Si / 1000 Ang^3
#
#
#
# Elastic Constant Matrix: (Units=GPa)
#
#
# Indices 1 2 3 4 5 6 
#
# 1 87.0450 33.0262 53.5028 0.0000 -15.8886 0.0000
# 2 33.0262 68.6714 36.3069 0.0000 -3.5971 0.0000
# 3 53.5028 36.3069 147.7882 0.0000 -14.3159 0.0000
# 4 0.0000 0.0000 0.0000 20.2321 0.0000 -3.5988
# 5 -15.8886 -3.5971 -14.3159 0.0000 32.6928 0.0000
# 6 0.0000 0.0000 0.0000 -3.5988 0.0000 25.0952
#
#
#
# Elastic Compliance Matrix: (Units=1/GPa)
#
#
# Indices 1 2 3 4 5 6 
#
# 1 0.017416 -0.005787 -0.004308 0.000000 0.005941 0.000000
# 2 -0.005787 0.018659 -0.002676 0.000000 -0.001931 0.000000
# 3 -0.004308 -0.002676 0.009140 0.000000 0.001614 0.000000
# 4 0.000000 0.000000 0.000000 0.050720 0.000000 0.007274
# 5 0.005941 -0.001931 0.001614 0.000000 0.033969 0.000000
# 6 0.000000 0.000000 0.000000 0.007274 0.000000 0.040891
#
#
# Mechanical properties :
#
#
# Convention : Reuss Voigt Hill
#
# Bulk Modulus (GPa) = 50.83102 61.01961 55.92531
# Shear Modulus (GPa) = 24.64318 27.64861 26.14589
#
# Velocity S-wave (km/s) = 3.69396 3.91274 3.80492
# Velocity P-wave (km/s) = 6.80733 7.36208 7.09014
#
# Compressibility (1/GPa) = 0.01967303
#
# Stress axis : x y z
#
# Youngs Moduli (GPa) = 57.41703 53.59350 109.41236
#
# Poissons Ratio (x) = 0.31016 0.47134
# Poissons Ratio (y) = 0.33229 0.29277
# Poissons Ratio (z) = 0.24735 0.14341
#
# Static dielectric constant tensor:
#      x y z
#    x 3.279880 0.000000 -0.017470 
#    y 0.000000 3.704080 0.000000 
#    z -0.017470 0.000000 3.937090 
# 
# 
# High freq. dielectric constant tensor:
#      x y z
#    x 1.665290 0.000000 -0.015100 
#    y 0.000000 1.694440 0.000000 
#    z -0.015100 0.000000 1.716410 
# 
# From -- ./inp_files/68343.got.cif
#   From: 2010.06.25/outbox.cif.g09.slc.cpg/sg11_35_cif.got.tgz:68343.got - 2010.06.27 23:14:04.
