data_PCOD8075433
_publ_section_title
;
Structure prediction by ZEFSAII (Michael W. Deem and Ramdas Pophale) SiO2 
 PCOD8075433
Probable space group: P 21/M
;
_chemical_formula_sum "Si O2"
_cell_formula_units_Z 20
_cell_length_a 8.033407
_cell_length_b 9.548874
_cell_length_c 21.317843
_cell_angle_alpha 90.000000
_cell_angle_beta 35.798771
_cell_angle_gamma 90.000000
_cell_volume 956.547893
_symmetry_space_group_name_H-M "P 21/M"
_symmetry_group_IT_number 11
_symmetry_cell_setting 'monoclinic'
loop_
_space_group_symop_operation_xyz
x,y,z
-x,1/2+y,-z
-x,-y,-z
x,1/2-y,z
loop_
_atom_site_type_symbol
_atom_site_label
_atom_site_fract_x
_atom_site_fract_y
_atom_site_fract_z
Si Si1 0.352854 0.955991 0.727955
Si Si2 0.129175 0.512555 0.215185
Si Si3 0.485523 0.750000 0.042664
Si Si4 0.785435 0.750000 0.541569
Si Si5 0.478960 0.250000 0.118218
Si Si6 0.990677 0.750000 0.347890
Si Si7 0.405399 0.750000 0.324492
Si Si8 0.122122 0.750000 0.894729
O O1 0.643309 0.888132 0.613625
O O2 0.260819 0.887640 0.821409
O O3 0.394406 0.119847 0.723293
O O4 0.101286 0.930127 0.755664
O O5 0.324256 0.609724 0.111911
O O6 0.314377 0.390340 0.191068
O O7 0.963245 0.607941 0.316419
O O8 0.498791 0.750000 0.963639
O O9 0.785350 0.750000 0.987436
O O10 0.751732 0.750000 0.475615
O O11 0.122646 0.750000 0.455324
O O12 0.786464 0.250000 0.059557
O O13 0.307303 0.750000 0.281847
#
# Coordination Sequence:
#
# PCOD8075433 Si02
#       8
#     4   4   2   2   2   2   2   2
#     4  11  21  42  65  92 128 176 210 265 331 375
#     4  11  23  43  65  90 136 164 215 273 319 379
#     4  11  24  47  61  98 130 171 218 263 328 378
#     4   9  22  39  64  93 130 164 226 259 317 396
#     4  12  23  42  66  96 125 176 211 271 316 379
#     4   9  22  39  59  94 124 168 206 277 305 380
#     4  10  20  38  62  93 126 166 220 260 316 385
#     4  11  25  41  68  94 131 171 219 264 320 392
#
# _framework density 20.908518999999998
#
# number of rings (size 3 to 8) (size 9 to 14) (size 15 to 20)
#    0.600    0.800    2.000    4.200    0.000    1.600 
#    7.200    0.000    0.000    0.000    0.000    0.000 
#    0.000    0.000    0.000    0.000    0.000    0.000 
#
# Total GULP energy -247978.061491 kJ/mol
# GULP energy per Si atom -12398.903075 kJ/mol
# Density = 2.086093 g / cm^3
# Si number density = 20.908519 Si / 1000 Ang^3
#
#
#
# Elastic Constant Matrix: (Units=GPa)
#
#
# Indices 1 2 3 4 5 6 
#
# 1 99.1742 -3.9373 -4.6823 0.0000 -11.6146 0.0000
# 2 -3.9373 114.0055 10.3739 0.0000 4.2967 0.0000
# 3 -4.6823 10.3739 48.0218 0.0000 -8.7248 0.0000
# 4 0.0000 0.0000 0.0000 -2.4521 0.0000 -8.1096
# 5 -11.6146 4.2967 -8.7248 0.0000 28.9823 0.0000
# 6 0.0000 0.0000 0.0000 -8.1096 0.0000 30.5916
#
#
#
# Elastic Compliance Matrix: (Units=1/GPa)
#
#
# Indices 1 2 3 4 5 6 
#
# 1 0.010747 0.000011 0.001933 0.000000 0.004887 0.000000
# 2 0.000011 0.009060 -0.002327 0.000000 -0.002039 0.000000
# 3 0.001933 -0.002327 0.022975 0.000000 0.008036 0.000000
# 4 0.000000 0.000000 0.000000 -0.217303 0.000000 -0.057606
# 5 0.004887 -0.002039 0.008036 0.000000 0.039184 0.000000
# 6 0.000000 0.000000 0.000000 -0.057606 0.000000 0.017418
#
#
# Mechanical properties :
#
#
# Convention : Reuss Voigt Hill
#
# Bulk Modulus (GPa) = 23.79901 29.41224 26.60563
# Shear Modulus (GPa) = -48.47414 28.72084 -9.87665
#
# Velocity S-wave (km/s) = -4.82019 3.71029 -2.17578
# Velocity P-wave (km/s) = 4.42401 5.69672 2.53780
#
# Compressibility (1/GPa) = 0.04201855
#
# Stress axis : x y z
#
# Youngs Moduli (GPa) = 93.04597 110.36962 43.52542
#
# Poissons Ratio (x) = -0.00122 -0.08416
# Poissons Ratio (y) = -0.00103 0.10127
# Poissons Ratio (z) = -0.17990 0.25680
#
# Static dielectric constant tensor:
#      x y z
#    x 3.680410 0.000000 -0.014340 
#    y 0.000000 3.801210 0.000000 
#    z -0.014340 0.000000 3.611820 
# 
# 
# High freq. dielectric constant tensor:
#      x y z
#    x 1.815710 0.000000 -0.005450 
#    y 0.000000 1.835050 0.000000 
#    z -0.005450 0.000000 1.806790 
# 
# From -- ./inp_files/46446.got.cif
#   From: 2010.06.25/outbox.cif.g09.slc.cpg/sg11_24_cif.got.tgz:46446.got - 2010.06.27 23:14:04.
