data_PCOD8075941
_publ_section_title
;
Structure prediction by ZEFSAII (Michael W. Deem and Ramdas Pophale) SiO2 
 PCOD8075941
Probable space group: P 21/M
;
_chemical_formula_sum "Si O2"
_cell_formula_units_Z 28
_cell_length_a 11.381040
_cell_length_b 9.136573
_cell_length_c 14.414928
_cell_angle_alpha 90.000000
_cell_angle_beta 77.130905
_cell_angle_gamma 90.000000
_cell_volume 1461.266986
_symmetry_space_group_name_H-M "P 21/M"
_symmetry_group_IT_number 11
_symmetry_cell_setting 'monoclinic'
loop_
_space_group_symop_operation_xyz
x,y,z
-x,1/2+y,-z
-x,-y,-z
x,1/2-y,z
loop_
_atom_site_type_symbol
_atom_site_label
_atom_site_fract_x
_atom_site_fract_y
_atom_site_fract_z
Si Si1 0.055393 0.421819 0.401110
Si Si2 0.094240 0.580596 0.047729
Si Si3 0.289413 0.575399 0.390314
Si Si4 0.258791 0.917349 0.858228
Si Si5 0.623109 0.581283 0.460367
Si Si6 0.971006 0.419493 0.216302
Si Si7 0.550931 0.915214 0.274483
O O1 0.074167 0.250000 0.418575
O O2 0.181651 0.500315 0.352476
O O3 0.969187 0.445579 0.327222
O O4 0.000000 0.500000 0.500000
O O5 0.060266 0.750000 0.062668
O O6 0.085176 0.506370 0.150811
O O7 0.223311 0.561867 0.973184
O O8 0.000000 0.500000 0.000000
O O9 0.274939 0.750000 0.398588
O O10 0.278220 0.507477 0.496885
O O11 0.416319 0.527105 0.321740
O O12 0.281284 0.750000 0.829408
O O13 0.153297 0.977123 0.807975
O O14 0.386066 0.997370 0.819608
O O15 0.500000 0.500000 0.500000
O O16 0.617259 0.750000 0.494325
O O17 0.642165 0.572670 0.346436
O O18 0.989907 0.250000 0.188469
O O19 0.537678 0.750000 0.243062
#
# Coordination Sequence:
#
# PCOD8075941 Si02
#       7
#     4   4   4   4   4   4   4
#     4  11  24  40  57  79 107 142 184 224 265 318
#     4   9  17  31  52  79 108 139 174 215 265 320
#     4  10  21  37  53  72 103 141 182 225 267 313
#     4   9  18  31  51  81 111 136 167 212 268 321
#     4   9  17  30  47  71  99 133 175 217 263 314
#     4   9  20  37  54  77 108 141 176 219 268 317
#     4   9  19  32  49  76 105 135 173 217 266 317
#
# _framework density 19.161453000000002
#
# number of rings (size 3 to 8) (size 9 to 14) (size 15 to 20)
#    0.000    2.571    0.000    3.429    2.000    7.429 
#    0.000    0.000    0.000    0.857    0.000    0.000 
#    0.000    0.000    0.000    0.000    0.000    0.000 
#
# Total GULP energy -346947.927091 kJ/mol
# GULP energy per Si atom -12390.997396 kJ/mol
# Density = 1.911784 g / cm^3
# Si number density = 19.161453 Si / 1000 Ang^3
#
#
#
# Elastic Constant Matrix: (Units=GPa)
#
#
# Indices 1 2 3 4 5 6 
#
# 1 57.4693 24.7487 29.2469 0.0000 -13.7476 0.0000
# 2 24.7487 94.7555 48.4582 0.0000 -13.5514 0.0000
# 3 29.2469 48.4582 98.7642 0.0000 -18.9689 0.0000
# 4 0.0000 0.0000 0.0000 35.1337 0.0000 -4.5251
# 5 -13.7476 -13.5514 -18.9689 0.0000 26.1355 0.0000
# 6 0.0000 0.0000 0.0000 -4.5251 0.0000 28.2420
#
#
#
# Elastic Compliance Matrix: (Units=1/GPa)
#
#
# Indices 1 2 3 4 5 6 
#
# 1 0.022346 -0.002823 -0.003783 0.000000 0.007545 0.000000
# 2 -0.002823 0.014606 -0.005997 0.000000 0.001736 0.000000
# 3 -0.003783 -0.005997 0.015348 0.000000 0.006040 0.000000
# 4 0.000000 0.000000 0.000000 0.029062 0.000000 0.004657
# 5 0.007545 0.001736 0.006040 0.000000 0.047515 0.000000
# 6 0.000000 0.000000 0.000000 0.004657 0.000000 0.036154
#
#
# Mechanical properties :
#
#
# Convention : Reuss Voigt Hill
#
# Bulk Modulus (GPa) = 36.90842 50.65518 43.78180
# Shear Modulus (GPa) = 25.09168 27.80459 26.44814
#
# Velocity S-wave (km/s) = 3.62261 3.81342 3.71924
# Velocity P-wave (km/s) = 6.06641 6.77370 6.42979
#
# Compressibility (1/GPa) = 0.02709409
#
# Stress axis : x y z
#
# Youngs Moduli (GPa) = 44.74975 68.46562 65.15535
#
# Poissons Ratio (x) = 0.19326 0.24651
# Poissons Ratio (y) = 0.12632 0.39074
# Poissons Ratio (z) = 0.16930 0.41059
#
# Static dielectric constant tensor:
#      x y z
#    x 3.363030 0.000000 0.025090 
#    y 0.000000 3.700760 0.000000 
#    z 0.025090 0.000000 4.046910 
# 
# 
# High freq. dielectric constant tensor:
#      x y z
#    x 1.711520 0.000000 -0.014170 
#    y 0.000000 1.753340 0.000000 
#    z -0.014170 0.000000 1.736050 
# 
# From -- ./inp_files/48934.got.cif
#   From: 2010.06.25/outbox.cif.g09.slc.cpg/sg11_25_cif.got.tgz:48934.got - 2010.06.27 23:14:04.
