data_PCOD8075421
_publ_section_title
;
Structure prediction by ZEFSAII (Michael W. Deem and Ramdas Pophale) SiO2 
 PCOD8075421
Probable space group: P 21/M
;
_chemical_formula_sum "Si O2"
_cell_formula_units_Z 28
_cell_length_a 15.034265
_cell_length_b 8.970908
_cell_length_c 10.795332
_cell_angle_alpha 90.000000
_cell_angle_beta 66.544353
_cell_angle_gamma 90.000000
_cell_volume 1335.667683
_symmetry_space_group_name_H-M "P 21/M"
_symmetry_group_IT_number 11
_symmetry_cell_setting 'monoclinic'
loop_
_space_group_symop_operation_xyz
x,y,z
-x,1/2+y,-z
-x,-y,-z
x,1/2-y,z
loop_
_atom_site_type_symbol
_atom_site_label
_atom_site_fract_x
_atom_site_fract_y
_atom_site_fract_z
Si Si1 0.439717 0.084555 0.686032
Si Si2 0.412628 0.086295 0.987849
Si Si3 0.649886 0.077838 0.593345
Si Si4 0.746634 0.078916 0.296118
Si Si5 0.742163 0.426841 0.791436
Si Si6 0.037239 0.926157 0.352971
Si Si7 0.942668 0.926389 0.145248
O O1 0.424201 0.250000 0.633819
O O2 0.547146 0.012856 0.597189
O O3 0.357934 0.967779 0.695410
O O4 0.436014 0.103589 0.833354
O O5 0.403688 0.250000 0.053732
O O6 0.311080 0.998349 0.061228
O O7 0.500000 0.000000 0.000000
O O8 0.626363 0.250000 0.630079
O O9 0.738855 0.057930 0.448670
O O10 0.686486 0.007464 0.701502
O O11 0.767702 0.250000 0.247855
O O12 0.831004 0.975717 0.195145
O O13 0.735887 0.250000 0.802961
O O14 0.852864 0.478836 0.728119
O O15 0.028236 0.750000 0.375263
O O16 0.980724 0.978618 0.259775
O O17 0.000000 0.000000 0.500000
O O18 0.951493 0.750000 0.125873
O O19 0.000000 0.000000 0.000000
#
# Coordination Sequence:
#
# PCOD8075421 Si02
#       7
#     4   4   4   4   4   4   4
#     4  10  21  38  58  85 123 162 200 247 301 358
#     4  11  22  37  58  86 120 160 201 246 300 358
#     4   9  18  36  60  87 122 159 195 240 302 362
#     4  11  23  39  63  90 117 160 209 252 306 366
#     4  10  20  38  62  88 121 158 197 248 303 361
#     4  10  23  42  68  97 127 163 208 263 320 376
#     4  11  25  45  65  93 129 167 213 265 318 376
#
# _framework density 20.963298000000002
#
# number of rings (size 3 to 8) (size 9 to 14) (size 15 to 20)
#    0.000    1.714    1.429    2.571    2.000    4.000 
#    0.000    2.143    0.000    0.000    0.000    0.000 
#    0.000    0.000    0.000    0.000    0.000    0.000 
#
# Total GULP energy -347114.155818 kJ/mol
# GULP energy per Si atom -12396.934136 kJ/mol
# Density = 2.091558 g / cm^3
# Si number density = 20.963298 Si / 1000 Ang^3
#
#
#
# Elastic Constant Matrix: (Units=GPa)
#
#
# Indices 1 2 3 4 5 6 
#
# 1 101.8104 29.5973 33.2772 0.0000 -18.6326 0.0000
# 2 29.5973 69.3943 35.8097 0.0000 -7.0817 0.0000
# 3 33.2772 35.8097 106.0304 0.0000 -23.4885 0.0000
# 4 0.0000 0.0000 0.0000 33.1604 0.0000 -2.9450
# 5 -18.6326 -7.0817 -23.4885 0.0000 41.3666 0.0000
# 6 0.0000 0.0000 0.0000 -2.9450 0.0000 24.6327
#
#
#
# Elastic Compliance Matrix: (Units=1/GPa)
#
#
# Indices 1 2 3 4 5 6 
#
# 1 0.012224 -0.003974 -0.001630 0.000000 0.003900 0.000000
# 2 -0.003974 0.018750 -0.005457 0.000000 -0.001679 0.000000
# 3 -0.001630 -0.005457 0.013059 0.000000 0.005746 0.000000
# 4 0.000000 0.000000 0.000000 0.030480 0.000000 0.003644
# 5 0.003900 -0.001679 0.005746 0.000000 0.028906 0.000000
# 6 0.000000 0.000000 0.000000 0.003644 0.000000 0.041032
#
#
# Mechanical properties :
#
#
# Convention : Reuss Voigt Hill
#
# Bulk Modulus (GPa) = 45.64170 52.73369 49.18770
# Shear Modulus (GPa) = 28.75569 31.73535 30.24552
#
# Velocity S-wave (km/s) = 3.70769 3.89505 3.80252
# Velocity P-wave (km/s) = 6.33630 6.74080 6.54168
#
# Compressibility (1/GPa) = 0.02190979
#
# Stress axis : x y z
#
# Youngs Moduli (GPa) = 81.80486 53.33265 76.57600
#
# Poissons Ratio (x) = 0.21197 0.12484
# Poissons Ratio (y) = 0.32513 0.41788
# Poissons Ratio (z) = 0.13336 0.29104
#
# Static dielectric constant tensor:
#      x y z
#    x 3.195000 0.000000 -1.533500 
#    y 0.000000 3.597860 0.000000 
#    z -1.533500 0.000000 0.993230 
# 
# 
# High freq. dielectric constant tensor:
#      x y z
#    x 1.824850 0.000000 -0.008090 
#    y 0.000000 1.805340 0.000000 
#    z -0.008090 0.000000 1.835640 
# 
# From -- ./inp_files/37906.got.cif
#   From: 2010.06.25/outbox.cif.g09.slc.cpg/sg11_19_cif.got.tgz:37906.got - 2010.06.27 23:14:04.
