data_PCOD8075298
_publ_section_title
;
Structure prediction by ZEFSAII (Michael W. Deem and Ramdas Pophale) SiO2 
 PCOD8075298
Probable space group: P 21/M
;
_chemical_formula_sum "Si O2"
_cell_formula_units_Z 28
_cell_length_a 9.576290
_cell_length_b 13.975321
_cell_length_c 11.693256
_cell_angle_alpha 90.000000
_cell_angle_beta 59.184341
_cell_angle_gamma 90.000000
_cell_volume 1343.991896
_symmetry_space_group_name_H-M "P 21/M"
_symmetry_group_IT_number 11
_symmetry_cell_setting 'monoclinic'
loop_
_space_group_symop_operation_xyz
x,y,z
-x,1/2+y,-z
-x,-y,-z
x,1/2-y,z
loop_
_atom_site_type_symbol
_atom_site_label
_atom_site_fract_x
_atom_site_fract_y
_atom_site_fract_z
Si Si1 0.098341 0.137396 0.796400
Si Si2 0.225846 0.645900 0.198023
Si Si3 0.244332 0.049234 0.319581
Si Si4 0.315421 0.013413 0.543739
Si Si5 0.135211 0.141581 0.032768
Si Si6 0.550991 0.606881 0.966328
Si Si7 0.949311 0.135585 0.331533
O O1 0.137236 0.250000 0.780106
O O2 0.920699 0.113931 0.822131
O O3 0.235446 0.086842 0.664656
O O4 0.105701 0.093312 0.921786
O O5 0.187621 0.750000 0.272424
O O6 0.253226 0.563079 0.279925
O O7 0.384563 0.665149 0.051661
O O8 0.361735 0.117853 0.193595
O O9 0.061606 0.091214 0.385288
O O10 0.303378 0.059813 0.423609
O O11 0.228982 0.909517 0.582123
O O12 0.500000 0.000000 0.500000
O O13 0.077883 0.250000 0.046317
O O14 0.324907 0.135842 0.985561
O O15 0.025380 0.096451 0.179810
O O16 0.500000 0.500000 0.000000
O O17 0.940501 0.250000 0.344585
#
# Coordination Sequence:
#
# PCOD8075298 Si02
#       7
#     4   4   4   4   4   4   4
#     4  10  23  41  62  90 124 161 203 256 316 372
#     4  10  20  37  64  95 123 158 206 259 312 366
#     4  10  22  43  60  91 129 164 213 251 306 375
#     4  12  27  42  60  91 129 168 211 258 310 376
#     4   9  19  38  62  90 122 155 200 252 308 369
#     4   9  19  34  59  91 119 152 198 250 305 358
#     4  10  22  43  68  91 120 168 214 257 312 371
#
# _framework density 20.833459999999999
#
# number of rings (size 3 to 8) (size 9 to 14) (size 15 to 20)
#    0.000    2.000    1.429    0.857    4.000    4.000 
#    0.000    0.000    0.000    0.000    0.000    0.000 
#    0.000    0.000    0.000    0.000    0.000    0.000 
#
# Total GULP energy -347092.899998 kJ/mol
# GULP energy per Si atom -12396.175000 kJ/mol
# Density = 2.078604 g / cm^3
# Si number density = 20.833460 Si / 1000 Ang^3
#
#
#
# Elastic Constant Matrix: (Units=GPa)
#
#
# Indices 1 2 3 4 5 6 
#
# 1 146.7433 17.5220 72.8060 0.0000 -7.5504 0.0000
# 2 17.5220 73.6948 15.4060 0.0000 -1.3518 0.0000
# 3 72.8060 15.4060 85.7754 0.0000 8.4335 0.0000
# 4 0.0000 0.0000 0.0000 25.4248 0.0000 0.1411
# 5 -7.5504 -1.3518 8.4335 0.0000 48.3240 0.0000
# 6 0.0000 0.0000 0.0000 0.1411 0.0000 23.3828
#
#
#
# Elastic Compliance Matrix: (Units=1/GPa)
#
#
# Indices 1 2 3 4 5 6 
#
# 1 0.012467 -0.000627 -0.010845 0.000000 0.003823 0.000000
# 2 -0.000627 0.014165 -0.002077 0.000000 0.000661 0.000000
# 3 -0.010845 -0.002077 0.021783 0.000000 -0.005554 0.000000
# 4 0.000000 0.000000 0.000000 0.039333 0.000000 -0.000237
# 5 0.003823 0.000661 -0.005554 0.000000 0.022279 0.000000
# 6 0.000000 0.000000 0.000000 -0.000237 0.000000 0.042768
#
#
# Mechanical properties :
#
#
# Convention : Reuss Voigt Hill
#
# Bulk Modulus (GPa) = 46.91204 57.52017 52.21611
# Shear Modulus (GPa) = 26.73821 32.79162 29.76491
#
# Velocity S-wave (km/s) = 3.58638 3.97166 3.78392
# Velocity P-wave (km/s) = 6.30206 6.97865 6.64897
#
# Compressibility (1/GPa) = 0.02131649
#
# Stress axis : x y z
#
# Youngs Moduli (GPa) = 80.21171 70.59732 45.90748
#
# Poissons Ratio (x) = 0.04426 0.49788
# Poissons Ratio (y) = 0.05028 0.09535
# Poissons Ratio (z) = 0.86992 0.14663
#
# Static dielectric constant tensor:
#      x y z
#    x 3.930660 0.000000 -0.350010 
#    y 0.000000 4.358120 0.000000 
#    z -0.350010 0.000000 4.400410 
# 
# 
# High freq. dielectric constant tensor:
#      x y z
#    x 1.808760 0.000000 -0.005910 
#    y 0.000000 1.820990 0.000000 
#    z -0.005910 0.000000 1.813930 
# 
# From -- ./inp_files/18145.got.cif
#   From: 2010.06.25/outbox.cif.g09.slc.cpg/sg11_10_cif.got.tgz:18145.got - 2010.06.27 23:14:04.
