data_PCOD8075194
_publ_section_title
;
Structure prediction by ZEFSAII (Michael W. Deem and Ramdas Pophale) SiO2 
 PCOD8075194
Probable space group: P 21/M
;
_chemical_formula_sum "Si O2"
_cell_formula_units_Z 28
_cell_length_a 9.692018
_cell_length_b 8.887420
_cell_length_c 27.450827
_cell_angle_alpha 90.000000
_cell_angle_beta 141.762269
_cell_angle_gamma 90.000000
_cell_volume 1463.470310
_symmetry_space_group_name_H-M "P 21/M"
_symmetry_group_IT_number 11
_symmetry_cell_setting 'monoclinic'
loop_
_space_group_symop_operation_xyz
x,y,z
-x,1/2+y,-z
-x,-y,-z
x,1/2-y,z
loop_
_atom_site_type_symbol
_atom_site_label
_atom_site_fract_x
_atom_site_fract_y
_atom_site_fract_z
Si Si1 0.861519 0.073028 0.505086
Si Si2 0.226628 0.920220 0.050803
Si Si3 0.015756 0.428106 0.799201
Si Si4 0.330168 0.923506 0.809347
Si Si5 0.950062 0.921628 0.629202
Si Si6 0.727841 0.420024 0.050980
Si Si7 0.348490 0.072705 0.363937
O O1 0.883616 0.250000 0.505844
O O2 0.604054 0.021983 0.431459
O O3 0.956969 0.025001 0.583687
O O4 0.000000 0.000000 0.500000
O O5 0.228444 0.750000 0.071232
O O6 0.425123 0.011014 0.132141
O O7 0.245805 0.924159 0.998743
O O8 0.000000 0.000000 0.000000
O O9 0.009068 0.250000 0.799045
O O10 0.216438 0.480908 0.820350
O O11 0.064985 0.492979 0.866549
O O12 0.778956 0.489123 0.714915
O O13 0.342451 0.750000 0.829140
O O14 0.190126 0.939370 0.720953
O O15 0.906778 0.750000 0.601123
O O16 0.755698 0.975064 0.612684
O O17 0.722093 0.250000 0.069265
O O18 0.500000 0.500000 0.000000
O O19 0.314063 0.250000 0.347184
#
# Coordination Sequence:
#
# PCOD8075194 Si02
#       7
#     4   4   4   4   4   4   4
#     4  11  23  39  60  86 119 156 191 232 287 345
#     4  11  24  40  59  85 117 156 200 243 293 349
#     4  11  21  34  58  91 119 149 193 244 294 340
#     4  10  20  37  61  86 118 155 193 240 291 344
#     4   9  19  37  62  89 114 147 191 237 289 342
#     4  11  22  37  60  87 117 155 197 240 290 345
#     4   9  20  39  61  86 116 152 192 238 289 343
#
# _framework density 19.132605999999999
#
# number of rings (size 3 to 8) (size 9 to 14) (size 15 to 20)
#    0.000    1.714    1.429    4.286    0.000    5.714 
#    2.571    0.000    0.000    0.000    0.000    0.000 
#    0.000    0.000    0.000    0.000    0.000    0.000 
#
# Total GULP energy -347282.875734 kJ/mol
# GULP energy per Si atom -12402.959848 kJ/mol
# Density = 1.908906 g / cm^3
# Si number density = 19.132606 Si / 1000 Ang^3
#
#
#
# Elastic Constant Matrix: (Units=GPa)
#
#
# Indices 1 2 3 4 5 6 
#
# 1 89.2927 44.0101 56.4296 0.0000 14.2267 0.0000
# 2 44.0101 114.2534 62.1548 0.0000 1.3810 0.0000
# 3 56.4296 62.1548 129.7067 0.0000 9.8091 0.0000
# 4 0.0000 0.0000 0.0000 39.3037 0.0000 -0.2912
# 5 14.2267 1.3810 9.8091 0.0000 29.5130 0.0000
# 6 0.0000 0.0000 0.0000 -0.2912 0.0000 30.8114
#
#
#
# Elastic Compliance Matrix: (Units=1/GPa)
#
#
# Indices 1 2 3 4 5 6 
#
# 1 0.017424 -0.003754 -0.005292 0.000000 -0.006465 0.000000
# 2 -0.003754 0.012702 -0.004662 0.000000 0.002765 0.000000
# 3 -0.005292 -0.004662 0.012347 0.000000 -0.001334 0.000000
# 4 0.000000 0.000000 0.000000 0.025445 0.000000 0.000240
# 5 -0.006465 0.002765 -0.001334 0.000000 0.037314 0.000000
# 6 0.000000 0.000000 0.000000 0.000240 0.000000 0.032458
#
#
# Mechanical properties :
#
#
# Convention : Reuss Voigt Hill
#
# Bulk Modulus (GPa) = 66.42456 73.16021 69.79239
# Shear Modulus (GPa) = 29.39000 31.30285 30.34642
#
# Velocity S-wave (km/s) = 3.92359 4.04926 3.98692
# Velocity P-wave (km/s) = 7.43770 7.75780 7.59944
#
# Compressibility (1/GPa) = 0.01505467
#
# Stress axis : x y z
#
# Youngs Moduli (GPa) = 57.39128 78.73058 80.98969
#
# Poissons Ratio (x) = 0.29559 0.42864
# Poissons Ratio (y) = 0.21547 0.37759
# Poissons Ratio (z) = 0.30374 0.36706
#
# Static dielectric constant tensor:
#      x y z
#    x 3.225350 0.000000 0.052770 
#    y 0.000000 3.675800 0.000000 
#    z 0.052770 0.000000 3.779370 
# 
# 
# High freq. dielectric constant tensor:
#      x y z
#    x 1.723650 0.000000 0.000150 
#    y 0.000000 1.755110 0.000000 
#    z 0.000150 0.000000 1.758570 
# 
# From -- ./inp_files/28386.got.cif
#   From: 2010.06.25/outbox.cif.g09.slc.cpg/sg11_15_cif.got.tgz:28386.got - 2010.06.27 23:14:04.
