data_PCOD8075352
_publ_section_title
;
Structure prediction by ZEFSAII (Michael W. Deem and Ramdas Pophale) SiO2 
 PCOD8075352
Probable space group: P 21/M
;
_chemical_formula_sum "Si O2"
_cell_formula_units_Z 24
_cell_length_a 10.258934
_cell_length_b 8.645730
_cell_length_c 23.288673
_cell_angle_alpha 90.000000
_cell_angle_beta 39.086636
_cell_angle_gamma 90.000000
_cell_volume 1302.357284
_symmetry_space_group_name_H-M "P 21/M"
_symmetry_group_IT_number 11
_symmetry_cell_setting 'monoclinic'
loop_
_space_group_symop_operation_xyz
x,y,z
-x,1/2+y,-z
-x,-y,-z
x,1/2-y,z
loop_
_atom_site_type_symbol
_atom_site_label
_atom_site_fract_x
_atom_site_fract_y
_atom_site_fract_z
Si Si1 0.642027 0.068108 0.761339
Si Si2 0.206376 0.068106 0.954728
Si Si3 0.015518 0.067116 0.431326
Si Si4 0.925622 0.067840 0.766082
Si Si5 0.712234 0.066520 0.949707
Si Si6 0.275865 0.433917 0.565055
O O1 0.676242 0.250000 0.739063
O O2 0.399179 0.024652 0.847237
O O3 0.737675 0.013772 0.789410
O O4 0.758547 0.977870 0.670688
O O5 0.188515 0.250000 0.966599
O O6 0.231323 0.999526 0.008708
O O7 0.000000 0.000000 0.000000
O O8 0.992080 0.250000 0.441119
O O9 0.000000 0.000000 0.500000
O O10 0.828667 0.998430 0.457072
O O11 0.928260 0.250000 0.765170
O O12 0.887787 0.010020 0.843964
O O13 0.141475 0.008469 0.665877
O O14 0.698026 0.250000 0.957698
O O15 0.500000 0.000000 0.000000
O O16 0.500000 0.500000 0.500000
O O17 0.284144 0.250000 0.557013
#
# Coordination Sequence:
#
# PCOD8075352 Si02
#       6
#     4   4   4   4   4   4
#     4   9  18  37  60  81 112 152 190 234 287 342
#     4  11  23  40  58  83 118 156 192 236 291 340
#     4  11  22  38  61  88 114 148 193 238 285 342
#     4   8  16  33  57  82 111 147 186 226 281 338
#     4  11  20  35  59  87 114 150 192 235 281 336
#     4  10  20  38  60  85 117 153 189 233 287 340
#
# _framework density 18.428122999999999
#
# number of rings (size 3 to 8) (size 9 to 14) (size 15 to 20)
#    0.000    2.000    1.667    4.000    0.000    1.333 
#    3.000    2.500    0.000    0.000    0.000    0.000 
#    0.000    0.000    0.000    0.000    0.000    0.000 
#
# Total GULP energy -297496.705330 kJ/mol
# GULP energy per Si atom -12395.696055 kJ/mol
# Density = 1.838618 g / cm^3
# Si number density = 18.428123 Si / 1000 Ang^3
#
#
#
# Elastic Constant Matrix: (Units=GPa)
#
#
# Indices 1 2 3 4 5 6 
#
# 1 138.8436 55.8834 95.4705 0.0000 -5.7144 0.0000
# 2 55.8834 95.2657 54.8137 0.0000 -2.4425 0.0000
# 3 95.4705 54.8137 146.3262 0.0000 -1.0289 0.0000
# 4 0.0000 0.0000 0.0000 31.2717 0.0000 -0.6495
# 5 -5.7144 -2.4425 -1.0289 0.0000 37.7367 0.0000
# 6 0.0000 0.0000 0.0000 -0.6495 0.0000 34.2713
#
#
#
# Elastic Compliance Matrix: (Units=1/GPa)
#
#
# Indices 1 2 3 4 5 6 
#
# 1 0.014164 -0.003767 -0.007818 0.000000 0.001688 0.000000
# 2 -0.003767 0.014403 -0.002936 0.000000 0.000282 0.000000
# 3 -0.007818 -0.002936 0.013028 0.000000 -0.001019 0.000000
# 4 0.000000 0.000000 0.000000 0.031990 0.000000 0.000606
# 5 0.001688 0.000282 -0.001019 0.000000 0.026745 0.000000
# 6 0.000000 0.000000 0.000000 0.000606 0.000000 0.029190
#
#
# Mechanical properties :
#
#
# Convention : Reuss Voigt Hill
#
# Bulk Modulus (GPa) = 79.66338 88.08563 83.87450
# Shear Modulus (GPa) = 30.72258 32.27379 31.49819
#
# Velocity S-wave (km/s) = 4.08751 4.18943 4.13879
# Velocity P-wave (km/s) = 8.09939 8.44424 8.27361
#
# Compressibility (1/GPa) = 0.01255282
#
# Stress axis : x y z
#
# Youngs Moduli (GPa) = 70.60197 69.43009 76.76000
#
# Poissons Ratio (x) = 0.26154 0.60013
# Poissons Ratio (y) = 0.26595 0.22534
# Poissons Ratio (z) = 0.55199 0.20382
#
# Static dielectric constant tensor:
#      x y z
#    x 3.344590 0.000000 -0.059080 
#    y 0.000000 3.560010 0.000000 
#    z -0.059080 0.000000 3.788890 
# 
# 
# High freq. dielectric constant tensor:
#      x y z
#    x 1.700810 0.000000 0.000510 
#    y 0.000000 1.713100 0.000000 
#    z 0.000510 0.000000 1.732320 
# 
# From -- ./inp_files/61846.got.cif
#   From: 2010.06.25/outbox.cif.g09.slc.cpg/sg11_31_cif.got.tgz:61846.got - 2010.06.27 23:14:04.
