data_PCOD8075350
_publ_section_title
;
Structure prediction by ZEFSAII (Michael W. Deem and Ramdas Pophale) SiO2 
 PCOD8075350
Probable space group: P 21/M
;
_chemical_formula_sum "Si O2"
_cell_formula_units_Z 32
_cell_length_a 9.295813
_cell_length_b 14.263527
_cell_length_c 13.192100
_cell_angle_alpha 90.000000
_cell_angle_beta 115.322680
_cell_angle_gamma 90.000000
_cell_volume 1581.084295
_symmetry_space_group_name_H-M "P 21/M"
_symmetry_group_IT_number 11
_symmetry_cell_setting 'monoclinic'
loop_
_space_group_symop_operation_xyz
x,y,z
-x,1/2+y,-z
-x,-y,-z
x,1/2-y,z
loop_
_atom_site_type_symbol
_atom_site_label
_atom_site_fract_x
_atom_site_fract_y
_atom_site_fract_z
Si Si1 0.433909 0.599358 0.012434
Si Si2 0.308806 0.490681 0.149801
Si Si3 0.256515 0.147765 0.966052
Si Si4 0.764923 0.355413 0.611648
Si Si5 0.165210 0.641997 0.773617
Si Si6 0.490442 0.043321 0.607513
Si Si7 0.819907 0.036841 0.431520
Si Si8 0.980539 0.016774 0.809355
O O1 0.591372 0.664240 0.062276
O O2 0.311265 0.642110 0.895374
O O3 0.500000 0.500000 0.000000
O O4 0.357123 0.584116 0.100226
O O5 0.321059 0.393133 0.092285
O O6 0.417738 0.479469 0.282085
O O7 0.125313 0.507831 0.122677
O O8 0.174614 0.250000 0.956779
O O9 0.142090 0.070415 0.883963
O O10 0.826742 0.250000 0.640667
O O11 0.594506 0.361808 0.620869
O O12 0.762190 0.383492 0.492767
O O13 0.892888 0.425784 0.696244
O O14 0.117739 0.750000 0.735268
O O15 0.207383 0.583970 0.685354
O O16 0.017407 0.587923 0.780628
O O17 0.500000 0.000000 0.500000
O O18 0.305874 0.050773 0.589685
O O19 0.000000 0.000000 0.500000
#
# Coordination Sequence:
#
# PCOD8075350 Si02
#       8
#     4   4   4   4   4   4   4   4
#     4  10  20  38  60  84 122 163 202 253 314 373
#     4  10  21  39  63  82 124 170 202 246 314 370
#     4  11  22  37  61  94 122 159 211 257 310 378
#     4  10  21  41  64  90 127 171 212 255 316 385
#     4  12  24  39  63  95 127 167 213 260 320 387
#     4   9  21  39  64  88 120 164 209 253 316 374
#     4  11  21  39  68  92 125 170 206 269 326 368
#     4  11  22  40  61  89 129 167 203 267 311 363
#
# _framework density 20.239276
#
# number of rings (size 3 to 8) (size 9 to 14) (size 15 to 20)
#    0.000    1.500    3.750    3.000    0.000    0.500 
#    0.000    9.375    0.000    0.750    0.000    0.000 
#    0.000    0.000    0.000    0.000    0.000    0.000 
#
# Total GULP energy -396432.541641 kJ/mol
# GULP energy per Si atom -12388.516926 kJ/mol
# Density = 2.019321 g / cm^3
# Si number density = 20.239276 Si / 1000 Ang^3
#
#
#
# Elastic Constant Matrix: (Units=GPa)
#
#
# Indices 1 2 3 4 5 6 
#
# 1 160.1245 38.7889 45.7921 0.0000 0.7455 0.0000
# 2 38.7889 97.1789 23.5727 0.0000 -1.2950 0.0000
# 3 45.7921 23.5727 100.3340 0.0000 -6.3272 0.0000
# 4 0.0000 0.0000 0.0000 12.3640 0.0000 -2.1290
# 5 0.7455 -1.2950 -6.3272 0.0000 36.8343 0.0000
# 6 0.0000 0.0000 0.0000 -2.1290 0.0000 20.8145
#
#
#
# Elastic Compliance Matrix: (Units=1/GPa)
#
#
# Indices 1 2 3 4 5 6 
#
# 1 0.007675 -0.002346 -0.002999 0.000000 -0.000753 0.000000
# 2 -0.002346 0.011629 -0.001651 0.000000 0.000173 0.000000
# 3 -0.002999 -0.001651 0.011852 0.000000 0.002038 0.000000
# 4 0.000000 0.000000 0.000000 0.082330 0.000000 0.008421
# 5 -0.000753 0.000173 0.002038 0.000000 0.027520 0.000000
# 6 0.000000 0.000000 0.000000 0.008421 0.000000 0.048905
#
#
# Mechanical properties :
#
#
# Convention : Reuss Voigt Hill
#
# Bulk Modulus (GPa) = 58.25925 63.77163 61.01544
# Shear Modulus (GPa) = 23.85231 30.63480 27.24356
#
# Velocity S-wave (km/s) = 3.43668 3.89476 3.67287
# Velocity P-wave (km/s) = 6.67798 7.19742 6.94256
#
# Compressibility (1/GPa) = 0.01716466
#
# Stress axis : x y z
#
# Youngs Moduli (GPa) = 130.30067 85.98920 84.37540
#
# Poissons Ratio (x) = 0.20172 0.25304
# Poissons Ratio (y) = 0.30567 0.13928
# Poissons Ratio (z) = 0.39077 0.14194
#
# Static dielectric constant tensor:
#      x y z
#    x 4.362450 0.000000 -0.061520 
#    y 0.000000 3.576510 0.000000 
#    z -0.061520 0.000000 3.801350 
# 
# 
# High freq. dielectric constant tensor:
#      x y z
#    x 1.806380 0.000000 -0.002040 
#    y 0.000000 1.761050 0.000000 
#    z -0.002040 0.000000 1.797810 
# 
# From -- ./inp_files/47633.got.cif
#   From: 2010.06.25/outbox.cif.g09.slc.cpg/sg11_24_cif.got.tgz:47633.got - 2010.06.27 23:14:04.
