data_PCOD8075151
_publ_section_title
;
Structure prediction by ZEFSAII (Michael W. Deem and Ramdas Pophale) SiO2 
 PCOD8075151
Probable space group: P 21/M
;
_chemical_formula_sum "Si O2"
_cell_formula_units_Z 24
_cell_length_a 12.118113
_cell_length_b 13.844444
_cell_length_c 14.003759
_cell_angle_alpha 90.000000
_cell_angle_beta 149.803159
_cell_angle_gamma 90.000000
_cell_volume 1181.678157
_symmetry_space_group_name_H-M "P 21/M"
_symmetry_group_IT_number 11
_symmetry_cell_setting 'monoclinic'
loop_
_space_group_symop_operation_xyz
x,y,z
-x,1/2+y,-z
-x,-y,-z
x,1/2-y,z
loop_
_atom_site_type_symbol
_atom_site_label
_atom_site_fract_x
_atom_site_fract_y
_atom_site_fract_z
Si Si1 0.836309 0.638243 0.612228
Si Si2 0.773600 0.458074 0.983577
Si Si3 0.354061 0.639755 0.300393
Si Si4 0.053225 0.638800 0.456928
Si Si5 0.712447 0.544897 0.324920
Si Si6 0.016741 0.858462 0.207067
O O1 0.867930 0.750000 0.612582
O O2 0.612699 0.618225 0.503999
O O3 0.831975 0.582396 0.509457
O O4 0.036540 0.602544 0.825052
O O5 0.824276 0.571866 0.026645
O O6 0.757248 0.428925 0.861094
O O7 0.546417 0.436399 0.868108
O O8 0.317491 0.750000 0.239251
O O9 0.241537 0.619787 0.318011
O O10 0.096197 0.750000 0.518220
O O11 0.233149 0.569762 0.642678
O O12 0.811082 0.604217 0.309317
O O13 0.072834 0.624305 0.358734
O O14 0.932151 0.750000 0.125064
#
# Coordination Sequence:
#
# PCOD8075151 Si02
#       6
#     4   4   4   4   4   4
#     4  10  20  37  60  88 118 153 196 240 288 335
#     4  11  21  37  62  90 115 153 195 242 288 338
#     4   9  20  38  59  86 121 155 193 239 282 339
#     4  10  21  41  63  83 116 157 191 235 294 348
#     4  10  22  40  62  87 116 148 196 245 285 343
#     4  10  21  39  59  85 121 157 193 235 288 347
#
# _framework density 20.310098
#
# number of rings (size 3 to 8) (size 9 to 14) (size 15 to 20)
#    0.000    2.000    1.667    1.500    0.000    4.000 
#    3.000    0.000    0.000    0.000    0.000    0.000 
#    0.000    0.000    0.000    0.000    0.000    0.000 
#
# Total GULP energy -297644.132372 kJ/mol
# GULP energy per Si atom -12401.838849 kJ/mol
# Density = 2.026387 g / cm^3
# Si number density = 20.310098 Si / 1000 Ang^3
#
#
#
# Elastic Constant Matrix: (Units=GPa)
#
#
# Indices 1 2 3 4 5 6 
#
# 1 116.8894 37.1342 33.6021 0.0000 15.3407 0.0000
# 2 37.1342 129.1883 40.1627 0.0000 -0.3998 0.0000
# 3 33.6021 40.1627 105.8417 0.0000 12.2149 0.0000
# 4 0.0000 0.0000 0.0000 28.0238 0.0000 2.2582
# 5 15.3407 -0.3998 12.2149 0.0000 17.9050 0.0000
# 6 0.0000 0.0000 0.0000 2.2582 0.0000 26.7804
#
#
#
# Elastic Compliance Matrix: (Units=1/GPa)
#
#
# Indices 1 2 3 4 5 6 
#
# 1 0.010948 -0.002716 -0.001472 0.000000 -0.008437 0.000000
# 2 -0.002716 0.009569 -0.003324 0.000000 0.004808 0.000000
# 3 -0.001472 -0.003324 0.011983 0.000000 -0.006988 0.000000
# 4 0.000000 0.000000 0.000000 0.035928 0.000000 -0.003030
# 5 -0.008437 0.004808 -0.006988 0.000000 0.067954 0.000000
# 6 0.000000 0.000000 0.000000 -0.003030 0.000000 0.037596
#
#
# Mechanical properties :
#
#
# Convention : Reuss Voigt Hill
#
# Bulk Modulus (GPa) = 57.21371 63.74636 60.48003
# Shear Modulus (GPa) = 25.66377 30.60986 28.13682
#
# Velocity S-wave (km/s) = 3.55857 3.88638 3.72608
# Velocity P-wave (km/s) = 6.71683 7.18285 6.95374
#
# Compressibility (1/GPa) = 0.01747833
#
# Stress axis : x y z
#
# Youngs Moduli (GPa) = 91.34007 104.49910 83.45087
#
# Poissons Ratio (x) = 0.28377 0.12281
# Poissons Ratio (y) = 0.24804 0.27739
# Poissons Ratio (z) = 0.13442 0.34735
#
# Static dielectric constant tensor:
#      x y z
#    x 3.827720 0.000000 0.194520 
#    y 0.000000 4.006340 0.000000 
#    z 0.194520 0.000000 3.340380 
# 
# 
# High freq. dielectric constant tensor:
#      x y z
#    x 1.805560 0.000000 0.013160 
#    y 0.000000 1.811890 0.000000 
#    z 0.013160 0.000000 1.766470 
# 
# From -- ./inp_files/50445.got.cif
#   From: 2010.06.25/outbox.cif.g09.slc.cpg/sg11_26_cif.got.tgz:50445.got - 2010.06.27 23:14:04.
