data_PCOD8075243
_publ_section_title
;
Structure prediction by ZEFSAII (Michael W. Deem and Ramdas Pophale) SiO2 
 PCOD8075243
Probable space group: P 21/M
;
_chemical_formula_sum "Si O2"
_cell_formula_units_Z 32
_cell_length_a 12.144196
_cell_length_b 8.524163
_cell_length_c 15.553840
_cell_angle_alpha 90.000000
_cell_angle_beta 90.349312
_cell_angle_gamma 90.000000
_cell_volume 1610.089692
_symmetry_space_group_name_H-M "P 21/M"
_symmetry_group_IT_number 11
_symmetry_cell_setting 'monoclinic'
loop_
_space_group_symop_operation_xyz
x,y,z
-x,1/2+y,-z
-x,-y,-z
x,1/2-y,z
loop_
_atom_site_type_symbol
_atom_site_label
_atom_site_fract_x
_atom_site_fract_y
_atom_site_fract_z
Si Si1 0.731146 0.932232 0.663013
Si Si2 0.622557 0.565002 0.998608
Si Si3 0.876084 0.936465 0.501301
Si Si4 0.228429 0.062855 0.843245
Si Si5 0.764379 0.066922 0.846680
Si Si6 0.273137 0.067807 0.655647
Si Si7 0.514550 0.432813 0.592778
Si Si8 0.002250 0.935150 0.093591
O O1 0.750415 0.750000 0.683762
O O2 0.815149 0.990525 0.588822
O O3 0.743204 0.036144 0.747314
O O4 0.606198 0.959107 0.635432
O O5 0.616835 0.750000 0.004510
O O6 0.679841 0.520009 0.909183
O O7 0.500000 0.500000 0.000000
O O8 0.690713 0.497786 0.081238
O O9 0.878497 0.750000 0.497586
O O10 0.805986 0.004551 0.419450
O O11 0.000000 0.000000 0.500000
O O12 0.236635 0.250000 0.843085
O O13 0.255037 0.991714 0.749511
O O14 0.105017 0.001398 0.858426
O O15 0.753159 0.250000 0.866512
O O16 0.887483 0.002224 0.861380
O O17 0.244020 0.250000 0.658833
O O18 0.400686 0.039040 0.640178
O O19 0.500000 0.500000 0.500000
O O20 0.548659 0.250000 0.592812
O O21 0.000162 0.750000 0.091321
O O22 0.000000 0.000000 0.000000
#
# Coordination Sequence:
#
# PCOD8075243 Si02
#       8
#     4   4   4   4   4   4   4   4
#     4  11  24  42  61  89 125 162 205 257 310 362
#     4  11  23  40  62  88 125 164 202 252 307 366
#     4  10  22  40  61  86 122 161 200 247 304 363
#     4   9  19  36  60  87 116 155 197 244 304 356
#     4  11  24  40  62  92 121 160 209 254 305 371
#     4   9  19  37  60  86 118 155 196 247 299 354
#     4  11  21  38  64  90 121 159 204 255 307 364
#     4  10  20  37  62  88 116 152 200 250 302 362
#
# _framework density 19.874669000000001
#
# number of rings (size 3 to 8) (size 9 to 14) (size 15 to 20)
#    0.000    1.750    2.500    1.500    3.500    1.500 
#    0.000    0.000    0.000    3.000    0.000    0.000 
#    0.000    0.000    0.000    0.000    0.000    0.000 
#
# Total GULP energy -396709.790667 kJ/mol
# GULP energy per Si atom -12397.180958 kJ/mol
# Density = 1.982943 g / cm^3
# Si number density = 19.874669 Si / 1000 Ang^3
#
#
#
# Elastic Constant Matrix: (Units=GPa)
#
#
# Indices 1 2 3 4 5 6 
#
# 1 151.5371 24.5016 71.2274 0.0000 -2.1333 0.0000
# 2 24.5016 26.5949 12.3032 0.0000 -6.8267 0.0000
# 3 71.2274 12.3032 164.5882 0.0000 -8.8315 0.0000
# 4 0.0000 0.0000 0.0000 23.0050 0.0000 1.6613
# 5 -2.1333 -6.8267 -8.8315 0.0000 38.5819 0.0000
# 6 0.0000 0.0000 0.0000 1.6613 0.0000 29.8672
#
#
#
# Elastic Compliance Matrix: (Units=1/GPa)
#
#
# Indices 1 2 3 4 5 6 
#
# 1 0.009496 -0.007485 -0.003638 0.000000 -0.001632 0.000000
# 2 -0.007485 0.046422 0.000190 0.000000 0.007844 0.000000
# 3 -0.003638 0.000190 0.007722 0.000000 0.001600 0.000000
# 4 0.000000 0.000000 0.000000 0.043644 0.000000 -0.002428
# 5 -0.001632 0.007844 0.001600 0.000000 0.027583 0.000000
# 6 0.000000 0.000000 0.000000 -0.002428 0.000000 0.033617
#
#
# Mechanical properties :
#
#
# Convention : Reuss Voigt Hill
#
# Bulk Modulus (GPa) = 23.93768 62.08717 43.01243
# Shear Modulus (GPa) = 24.47699 33.93669 29.20684
#
# Velocity S-wave (km/s) = 3.51318 4.13672 3.83763
# Velocity P-wave (km/s) = 5.34107 7.35688 6.42848
#
# Compressibility (1/GPa) = 0.04177514
#
# Stress axis : x y z
#
# Youngs Moduli (GPa) = 105.30709 21.54132 129.50621
#
# Poissons Ratio (x) = 0.16123 0.47109
# Poissons Ratio (y) = 0.78819 -0.02458
# Poissons Ratio (z) = 0.38306 -0.00409
#
# Static dielectric constant tensor:
#      x y z
#    x 3.869330 0.000000 0.046700 
#    y 0.000000 3.379030 0.000000 
#    z 0.046700 0.000000 3.912360 
# 
# 
# High freq. dielectric constant tensor:
#      x y z
#    x 1.792400 0.000000 0.000170 
#    y 0.000000 1.749070 0.000000 
#    z 0.000170 0.000000 1.790290 
# 
# From -- ./inp_files/38134.got.cif
#   From: 2010.06.25/outbox.cif.g09.slc.cpg/sg11_20_cif.got.tgz:38134.got - 2010.06.27 23:14:04.
