data_PCOD8075866
_publ_section_title
;
Structure prediction by ZEFSAII (Michael W. Deem and Ramdas Pophale) SiO2 
 PCOD8075866
Probable space group: P 21/M
;
_chemical_formula_sum "Si O2"
_cell_formula_units_Z 28
_cell_length_a 10.625167
_cell_length_b 9.382538
_cell_length_c 16.203115
_cell_angle_alpha 90.000000
_cell_angle_beta 62.374924
_cell_angle_gamma 90.000000
_cell_volume 1431.161650
_symmetry_space_group_name_H-M "P 21/M"
_symmetry_group_IT_number 11
_symmetry_cell_setting 'monoclinic'
loop_
_space_group_symop_operation_xyz
x,y,z
-x,1/2+y,-z
-x,-y,-z
x,1/2-y,z
loop_
_atom_site_type_symbol
_atom_site_label
_atom_site_fract_x
_atom_site_fract_y
_atom_site_fract_z
Si Si1 0.577067 0.416529 0.049837
Si Si2 0.699817 0.090021 0.597478
Si Si3 0.423369 0.411833 0.593357
Si Si4 0.669839 0.588720 0.761998
Si Si5 0.187304 0.586602 0.611188
Si Si6 0.075838 0.410790 0.203138
Si Si7 0.906453 0.419496 0.960514
O O1 0.569713 0.250000 0.028989
O O2 0.490689 0.448530 0.160998
O O3 0.500000 0.500000 0.000000
O O4 0.739836 0.462636 0.017707
O O5 0.752090 0.250000 0.597755
O O6 0.528204 0.084239 0.639697
O O7 0.783670 0.030150 0.491109
O O8 0.734305 0.001947 0.668069
O O9 0.500000 0.500000 0.500000
O O10 0.394156 0.250000 0.574251
O O11 0.274418 0.493119 0.652426
O O12 0.680610 0.750000 0.727922
O O13 0.764942 0.562473 0.814295
O O14 0.241066 0.750000 0.599450
O O15 0.024164 0.570080 0.686106
O O16 0.058322 0.250000 0.172829
O O17 0.037495 0.525195 0.144859
O O18 0.929114 0.250000 0.961128
O O19 0.000000 0.500000 0.000000
#
# Coordination Sequence:
#
# PCOD8075866 Si02
#       7
#     4   4   4   4   4   4   4
#     4  10  21  39  63  88 114 150 195 241 296 356
#     4   9  19  34  51  78 114 148 188 235 281 335
#     4   9  17  31  51  75 105 143 188 236 286 339
#     4  10  21  36  57  84 112 147 193 239 289 350
#     4   9  19  35  55  79 112 154 192 234 290 346
#     4  10  21  39  60  82 114 154 194 241 297 352
#     4  11  24  41  63  92 123 155 196 247 302 363
#
# _framework density 19.564526999999998
#
# number of rings (size 3 to 8) (size 9 to 14) (size 15 to 20)
#    0.000    2.286    1.429    1.714    0.000    6.857 
#    0.000    4.286    0.000    0.000    0.000    0.000 
#    0.000    0.000    0.000    0.000    0.000    0.000 
#
# Total GULP energy -347026.302133 kJ/mol
# GULP energy per Si atom -12393.796505 kJ/mol
# Density = 1.952000 g / cm^3
# Si number density = 19.564527 Si / 1000 Ang^3
#
#
#
# Elastic Constant Matrix: (Units=GPa)
#
#
# Indices 1 2 3 4 5 6 
#
# 1 90.4170 46.1633 46.2837 0.0000 -7.0217 0.0000
# 2 46.1633 92.1209 47.1311 0.0000 5.8594 0.0000
# 3 46.2837 47.1311 107.5851 0.0000 2.5020 0.0000
# 4 0.0000 0.0000 0.0000 32.0509 0.0000 5.8270
# 5 -7.0217 5.8594 2.5020 0.0000 25.2007 0.0000
# 6 0.0000 0.0000 0.0000 5.8270 0.0000 33.7978
#
#
#
# Elastic Compliance Matrix: (Units=1/GPa)
#
#
# Indices 1 2 3 4 5 6 
#
# 1 0.017470 -0.006788 -0.004703 0.000000 0.006913 0.000000
# 2 -0.006788 0.016808 -0.004318 0.000000 -0.005371 0.000000
# 3 -0.004703 -0.004318 0.013247 0.000000 -0.001622 0.000000
# 4 0.000000 0.000000 0.000000 0.032210 0.000000 -0.005553
# 5 0.006913 -0.005371 -0.001622 0.000000 0.043017 0.000000
# 6 0.000000 0.000000 0.000000 -0.005553 0.000000 0.030545
#
#
# Mechanical properties :
#
#
# Convention : Reuss Voigt Hill
#
# Bulk Modulus (GPa) = 62.86357 63.25325 63.05841
# Shear Modulus (GPa) = 26.28581 28.24621 27.26601
#
# Velocity S-wave (km/s) = 3.66942 3.80379 3.73721
# Velocity P-wave (km/s) = 7.08195 7.18975 7.13605
#
# Compressibility (1/GPa) = 0.01590746
#
# Stress axis : x y z
#
# Youngs Moduli (GPa) = 57.24224 59.49657 75.48667
#
# Poissons Ratio (x) = 0.40387 0.35498
# Poissons Ratio (y) = 0.38856 0.32595
# Poissons Ratio (z) = 0.26918 0.25691
#
# Static dielectric constant tensor:
#      x y z
#    x 3.994230 0.000000 -0.314950 
#    y 0.000000 3.895170 0.000000 
#    z -0.314950 0.000000 3.405970 
# 
# 
# High freq. dielectric constant tensor:
#      x y z
#    x 1.758090 0.000000 -0.012580 
#    y 0.000000 1.762280 0.000000 
#    z -0.012580 0.000000 1.749240 
# 
# From -- ./inp_files/49138.got.cif
#   From: 2010.06.25/outbox.cif.g09.slc.cpg/sg11_25_cif.got.tgz:49138.got - 2010.06.27 23:14:04.
