data_PCOD8075275
_publ_section_title
;
Structure prediction by ZEFSAII (Michael W. Deem and Ramdas Pophale) SiO2 
 PCOD8075275
Probable space group: P 21/M
;
_chemical_formula_sum "Si O2"
_cell_formula_units_Z 32
_cell_length_a 8.291422
_cell_length_b 28.100217
_cell_length_c 11.361602
_cell_angle_alpha 90.000000
_cell_angle_beta 37.221734
_cell_angle_gamma 90.000000
_cell_volume 1601.263207
_symmetry_space_group_name_H-M "P 21/M"
_symmetry_group_IT_number 11
_symmetry_cell_setting 'monoclinic'
loop_
_space_group_symop_operation_xyz
x,y,z
-x,1/2+y,-z
-x,-y,-z
x,1/2-y,z
loop_
_atom_site_type_symbol
_atom_site_label
_atom_site_fract_x
_atom_site_fract_y
_atom_site_fract_z
Si Si1 0.276318 0.976783 0.875027
Si Si2 0.280564 0.302909 0.271216
Si Si3 0.230759 0.537200 0.389707
Si Si4 0.659204 0.072001 0.931927
Si Si5 0.131088 0.663190 0.084503
Si Si6 0.646373 0.696494 0.504444
Si Si7 0.790465 0.377818 0.204650
Si Si8 0.073573 0.391748 0.274631
O O1 0.331380 0.926225 0.779476
O O2 0.515823 0.011511 0.698314
O O3 0.272433 0.971454 0.019643
O O4 0.000000 0.000000 0.000000
O O5 0.192738 0.250000 0.286402
O O6 0.234150 0.312652 0.435835
O O7 0.085070 0.337691 0.313938
O O8 0.592507 0.308861 0.059161
O O9 0.309464 0.559643 0.220700
O O10 0.000000 0.500000 0.500000
O O11 0.150115 0.578702 0.526250
O O12 0.858517 0.115003 0.845588
O O13 0.355466 0.084606 0.136647
O O14 0.884773 0.694290 0.272027
O O15 0.078020 0.652088 0.977728
O O16 0.521461 0.750000 0.569934
O O17 0.431590 0.655098 0.602526
O O18 0.012315 0.391440 0.171408
#
# Coordination Sequence:
#
# PCOD8075275 Si02
#       8
#     4   4   4   4   4   4   4   4
#     4  11  24  42  63  88 125 165 210 259 310 371
#     4   9  19  37  62  91 119 156 201 249 307 369
#     4  12  25  38  65  90 120 165 210 254 312 363
#     4  10  22  40  59  87 123 156 206 259 301 359
#     4   9  19  37  63  85 120 158 201 248 309 366
#     4  10  20  37  63  90 119 155 203 253 302 371
#     4  10  24  39  58  88 125 160 202 252 312 364
#     4  11  23  41  61  89 125 162 203 256 309 368
#
# _framework density 19.984221999999999
#
# number of rings (size 3 to 8) (size 9 to 14) (size 15 to 20)
#    0.000    1.750    1.250    3.000    3.500    4.500 
#    0.000    0.000    0.000    0.000    0.000    0.000 
#    0.000    0.000    0.000    0.000    0.000    0.000 
#
# Total GULP energy -396880.265429 kJ/mol
# GULP energy per Si atom -12402.508295 kJ/mol
# Density = 1.993874 g / cm^3
# Si number density = 19.984222 Si / 1000 Ang^3
#
#
#
# Elastic Constant Matrix: (Units=GPa)
#
#
# Indices 1 2 3 4 5 6 
#
# 1 92.5060 32.4427 25.9239 0.0000 -0.7495 0.0000
# 2 32.4427 101.0081 42.0931 0.0000 -2.4813 0.0000
# 3 25.9239 42.0931 94.9583 0.0000 -0.6559 0.0000
# 4 0.0000 0.0000 0.0000 31.6347 0.0000 -2.9207
# 5 -0.7495 -2.4813 -0.6559 0.0000 28.4887 0.0000
# 6 0.0000 0.0000 0.0000 -2.9207 0.0000 27.3015
#
#
#
# Elastic Compliance Matrix: (Units=1/GPa)
#
#
# Indices 1 2 3 4 5 6 
#
# 1 0.012485 -0.003176 -0.002000 0.000000 0.000006 0.000000
# 2 -0.003176 0.012976 -0.004879 0.000000 0.000934 0.000000
# 3 -0.002000 -0.004879 0.013238 0.000000 -0.000173 0.000000
# 4 0.000000 0.000000 0.000000 0.031926 0.000000 0.003415
# 5 0.000006 0.000934 -0.000173 0.000000 0.035179 0.000000
# 6 0.000000 0.000000 0.000000 0.003415 0.000000 0.036993
#
#
# Mechanical properties :
#
#
# Convention : Reuss Voigt Hill
#
# Bulk Modulus (GPa) = 53.79481 54.37686 54.08584
# Shear Modulus (GPa) = 29.56745 30.01917 29.79331
#
# Velocity S-wave (km/s) = 3.85065 3.87995 3.86533
# Velocity P-wave (km/s) = 6.83719 6.88048 6.85887
#
# Compressibility (1/GPa) = 0.01858915
#
# Stress axis : x y z
#
# Youngs Moduli (GPa) = 80.09828 77.06326 75.53757
#
# Poissons Ratio (x) = 0.24477 0.15110
# Poissons Ratio (y) = 0.25441 0.36852
# Poissons Ratio (z) = 0.16023 0.37596
#
# Static dielectric constant tensor:
#      x y z
#    x 3.514730 0.000000 0.097280 
#    y 0.000000 3.816280 0.000000 
#    z 0.097280 0.000000 3.559180 
# 
# 
# High freq. dielectric constant tensor:
#      x y z
#    x 1.769670 0.000000 0.008510 
#    y 0.000000 1.793100 0.000000 
#    z 0.008510 0.000000 1.772400 
# 
# From -- ./inp_files/33203.got.cif
#   From: 2010.06.25/outbox.cif.g09.slc.cpg/sg11_17_cif.got.tgz:33203.got - 2010.06.27 23:14:04.
