data_PCOD8075894
_publ_section_title
;
Structure prediction by ZEFSAII (Michael W. Deem and Ramdas Pophale) SiO2 
 PCOD8075894
Probable space group: P 21/M
;
_chemical_formula_sum "Si O2"
_cell_formula_units_Z 32
_cell_length_a 11.952657
_cell_length_b 9.110271
_cell_length_c 14.887266
_cell_angle_alpha 90.000000
_cell_angle_beta 89.802741
_cell_angle_gamma 90.000000
_cell_volume 1621.093735
_symmetry_space_group_name_H-M "P 21/M"
_symmetry_group_IT_number 11
_symmetry_cell_setting 'monoclinic'
loop_
_space_group_symop_operation_xyz
x,y,z
-x,1/2+y,-z
-x,-y,-z
x,1/2-y,z
loop_
_atom_site_type_symbol
_atom_site_label
_atom_site_fract_x
_atom_site_fract_y
_atom_site_fract_z
Si Si1 0.335098 0.423472 0.895209
Si Si2 0.835865 0.419376 0.557719
Si Si3 0.876560 0.586252 0.209844
Si Si4 0.459246 0.577232 0.223111
Si Si5 0.296955 0.075360 0.092910
Si Si6 0.960395 0.081207 0.372256
Si Si7 0.420318 0.922608 0.428153
Si Si8 0.931251 0.415878 0.925855
O O1 0.335597 0.250000 0.896615
O O2 0.215595 0.479374 0.858690
O O3 0.430174 0.482027 0.827658
O O4 0.352462 0.478124 0.997925
O O5 0.837830 0.250000 0.586421
O O6 0.885462 0.446303 0.459587
O O7 0.708247 0.478815 0.562484
O O8 0.918042 0.503806 0.625706
O O9 0.840535 0.750000 0.241512
O O10 0.882347 0.481157 0.294682
O O11 0.996484 0.593117 0.163926
O O12 0.440782 0.750000 0.208889
O O13 0.357792 0.491697 0.178441
O O14 0.465490 0.538787 0.328496
O O15 0.294995 0.250000 0.100283
O O16 0.173278 0.014391 0.098055
O O17 0.985150 0.250000 0.354904
O O18 0.425581 0.750000 0.447173
O O19 0.500000 0.000000 0.500000
O O20 0.899362 0.250000 0.957268
O O21 0.000000 0.500000 0.000000
#
# Coordination Sequence:
#
# PCOD8075894 Si02
#       8
#     4   4   4   4   4   4   4   4
#     4   9  19  38  60  84 118 156 198 241 286 342
#     4   9  20  40  59  81 118 154 186 234 295 348
#     4  10  21  37  58  83 117 156 188 233 293 348
#     4  10  22  40  62  88 115 154 203 241 286 349
#     4  11  22  39  61  87 121 156 194 245 294 343
#     4  10  21  36  58  88 115 147 193 241 283 343
#     4  10  23  41  62  86 116 152 192 240 291 345
#     4  11  22  38  59  84 117 155 192 234 288 348
#
# _framework density 19.73976
#
# number of rings (size 3 to 8) (size 9 to 14) (size 15 to 20)
#    0.000    2.000    1.250    1.500    3.500    2.500 
#    0.000    1.250    0.000    0.000    0.000    0.000 
#    0.000    0.000    0.000    0.000    0.000    0.000 
#
# Total GULP energy -396774.456576 kJ/mol
# GULP energy per Si atom -12399.201768 kJ/mol
# Density = 1.969483 g / cm^3
# Si number density = 19.739760 Si / 1000 Ang^3
#
#
#
# Elastic Constant Matrix: (Units=GPa)
#
#
# Indices 1 2 3 4 5 6 
#
# 1 114.9130 31.9696 42.0282 0.0000 4.2226 0.0000
# 2 31.9696 58.2761 52.5734 0.0000 3.2032 0.0000
# 3 42.0282 52.5734 101.8454 0.0000 20.7973 0.0000
# 4 0.0000 0.0000 0.0000 32.6045 0.0000 7.3828
# 5 4.2226 3.2032 20.7973 0.0000 28.5523 0.0000
# 6 0.0000 0.0000 0.0000 7.3828 0.0000 31.3267
#
#
#
# Elastic Compliance Matrix: (Units=1/GPa)
#
#
# Indices 1 2 3 4 5 6 
#
# 1 0.010636 -0.003295 -0.002869 0.000000 0.000887 0.000000
# 2 -0.003295 0.035740 -0.019230 0.000000 0.010485 0.000000
# 3 -0.002869 -0.019230 0.023967 0.000000 -0.014876 0.000000
# 4 0.000000 0.000000 0.000000 0.032400 0.000000 -0.007636
# 5 0.000887 0.010485 -0.014876 0.000000 0.044552 0.000000
# 6 0.000000 0.000000 0.000000 -0.007636 0.000000 0.033721
#
#
# Mechanical properties :
#
#
# Convention : Reuss Voigt Hill
#
# Bulk Modulus (GPa) = 51.14143 58.68630 54.91387
# Shear Modulus (GPa) = 20.98002 28.39424 24.68713
#
# Velocity S-wave (km/s) = 3.26364 3.79678 3.54026
# Velocity P-wave (km/s) = 6.33766 7.00109 6.67762
#
# Compressibility (1/GPa) = 0.01955362
#
# Stress axis : x y z
#
# Youngs Moduli (GPa) = 94.02293 27.98024 41.72327
#
# Poissons Ratio (x) = 0.09219 0.11971
# Poissons Ratio (y) = 0.30980 0.80236
# Poissons Ratio (z) = 0.26977 0.53807
#
# Static dielectric constant tensor:
#      x y z
#    x 3.590730 0.000000 -0.092980 
#    y 0.000000 3.494880 0.000000 
#    z -0.092980 0.000000 3.635610 
# 
# 
# High freq. dielectric constant tensor:
#      x y z
#    x 1.776680 0.000000 0.001450 
#    y 0.000000 1.755940 0.000000 
#    z 0.001450 0.000000 1.774420 
# 
# From -- ./inp_files/49330.got.cif
#   From: 2010.06.25/outbox.cif.g09.slc.cpg/sg11_25_cif.got.tgz:49330.got - 2010.06.27 23:14:04.
