data_PCOD8075662
_publ_section_title
;
Structure prediction by ZEFSAII (Michael W. Deem and Ramdas Pophale) SiO2 
 PCOD8075662
Probable space group: P 21/M
;
_chemical_formula_sum "Si O2"
_cell_formula_units_Z 32
_cell_length_a 16.907677
_cell_length_b 13.996048
_cell_length_c 20.271088
_cell_angle_alpha 90.000000
_cell_angle_beta 160.174437
_cell_angle_gamma 90.000000
_cell_volume 1626.926997
_symmetry_space_group_name_H-M "P 21/M"
_symmetry_group_IT_number 11
_symmetry_cell_setting 'monoclinic'
loop_
_space_group_symop_operation_xyz
x,y,z
-x,1/2+y,-z
-x,-y,-z
x,1/2-y,z
loop_
_atom_site_type_symbol
_atom_site_label
_atom_site_fract_x
_atom_site_fract_y
_atom_site_fract_z
Si Si1 0.944839 0.359936 0.801229
Si Si2 0.635399 0.524820 0.541352
Si Si3 0.197561 0.044286 0.608674
Si Si4 0.306831 0.489414 0.031180
Si Si5 0.225645 0.642030 0.187074
Si Si6 0.164281 0.528634 0.777238
Si Si7 0.067901 0.858636 0.922406
Si Si8 0.625014 0.858883 0.133124
O O1 0.904107 0.250000 0.750519
O O2 0.760320 0.426308 0.615537
O O3 0.914746 0.381098 0.855728
O O4 0.205045 0.392758 0.984487
O O5 0.500000 0.500000 0.500000
O O6 0.442361 0.570609 0.341702
O O7 0.825013 0.606329 0.702948
O O8 0.419787 0.973451 0.771268
O O9 0.304062 0.133548 0.733425
O O10 0.077888 0.069593 0.444361
O O11 0.000000 0.000000 0.500000
O O12 0.148831 0.515285 0.843268
O O13 0.280351 0.578374 0.060415
O O14 0.323774 0.750000 0.268729
O O15 0.051843 0.631010 0.989182
O O16 0.207463 0.423918 0.780018
O O17 0.362969 0.604890 0.914862
O O18 0.112614 0.750000 0.935942
O O19 0.646852 0.750000 0.126880
#
# Coordination Sequence:
#
# PCOD8075662 Si02
#       8
#     4   4   4   4   4   4   4   4
#     4   9  19  35  53  78 113 151 190 230 273 324
#     4   9  18  32  55  79 102 137 180 225 272 326
#     4   9  19  38  58  77 106 141 181 228 273 324
#     4  10  21  34  54  81 112 149 184 227 279 332
#     4   9  18  35  58  82 110 145 187 233 278 325
#     4   9  19  36  54  78 112 141 171 223 278 325
#     4  10  21  36  55  81 113 147 185 232 281 330
#     4   9  18  34  58  84 105 134 178 221 270 333
#
# _framework density 19.668983999999998
#
# number of rings (size 3 to 8) (size 9 to 14) (size 15 to 20)
#    0.000    2.750    0.000    1.125    0.000   10.000 
#    0.000    3.750    0.000    9.000    0.000    0.000 
#    0.000    0.000    0.000    0.000    0.000    0.000 
#
# Total GULP energy -396466.826942 kJ/mol
# GULP energy per Si atom -12389.588342 kJ/mol
# Density = 1.962422 g / cm^3
# Si number density = 19.668984 Si / 1000 Ang^3
#
#
#
# Elastic Constant Matrix: (Units=GPa)
#
#
# Indices 1 2 3 4 5 6 
#
# 1 73.9324 23.1630 28.5736 0.0000 5.5893 0.0000
# 2 23.1630 116.5448 26.8556 0.0000 7.6201 0.0000
# 3 28.5736 26.8556 100.6355 0.0000 1.9855 0.0000
# 4 0.0000 0.0000 0.0000 19.1502 0.0000 -0.1706
# 5 5.5893 7.6201 1.9855 0.0000 37.2230 0.0000
# 6 0.0000 0.0000 0.0000 -0.1706 0.0000 21.6048
#
#
#
# Elastic Compliance Matrix: (Units=1/GPa)
#
#
# Indices 1 2 3 4 5 6 
#
# 1 0.015830 -0.002136 -0.003890 0.000000 -0.001732 0.000000
# 2 -0.002136 0.009545 -0.001910 0.000000 -0.001531 0.000000
# 3 -0.003890 -0.001910 0.011544 0.000000 0.000359 0.000000
# 4 0.000000 0.000000 0.000000 0.052223 0.000000 0.000412
# 5 -0.001732 -0.001531 0.000359 0.000000 0.027420 0.000000
# 6 0.000000 0.000000 0.000000 0.000412 0.000000 0.046289
#
#
# Mechanical properties :
#
#
# Convention : Reuss Voigt Hill
#
# Bulk Modulus (GPa) = 47.51741 49.81079 48.66410
# Shear Modulus (GPa) = 26.91940 29.76363 28.34151
#
# Velocity S-wave (km/s) = 3.70350 3.89424 3.80007
# Velocity P-wave (km/s) = 6.51912 6.75275 6.63696
#
# Compressibility (1/GPa) = 0.02104492
#
# Stress axis : x y z
#
# Youngs Moduli (GPa) = 63.17252 104.76300 86.62399
#
# Poissons Ratio (x) = 0.22382 0.33699
# Poissons Ratio (y) = 0.13496 0.16549
# Poissons Ratio (z) = 0.24576 0.20015
#
# Static dielectric constant tensor:
#      x y z
#    x 3.608780 0.000000 -0.084790 
#    y 0.000000 3.549510 0.000000 
#    z -0.084790 0.000000 3.896410 
# 
# 
# High freq. dielectric constant tensor:
#      x y z
#    x 1.759570 0.000000 0.001730 
#    y 0.000000 1.750720 0.000000 
#    z 0.001730 0.000000 1.760770 
# 
# From -- ./inp_files/66289.got.cif
#   From: 2010.06.25/outbox.cif.g09.slc.cpg/sg11_34_cif.got.tgz:66289.got - 2010.06.27 23:14:04.
