data_PCOD8075946
_publ_section_title
;
Structure prediction by ZEFSAII (Michael W. Deem and Ramdas Pophale) SiO2 
 PCOD8075946
Probable space group: P 21/M
;
_chemical_formula_sum "Si O2"
_cell_formula_units_Z 32
_cell_length_a 20.068380
_cell_length_b 8.825259
_cell_length_c 28.092318
_cell_angle_alpha 90.000000
_cell_angle_beta 20.999855
_cell_angle_gamma 90.000000
_cell_volume 1783.009471
_symmetry_space_group_name_H-M "P 21/M"
_symmetry_group_IT_number 11
_symmetry_cell_setting 'monoclinic'
loop_
_space_group_symop_operation_xyz
x,y,z
-x,1/2+y,-z
-x,-y,-z
x,1/2-y,z
loop_
_atom_site_type_symbol
_atom_site_label
_atom_site_fract_x
_atom_site_fract_y
_atom_site_fract_z
Si Si1 0.827032 0.428695 0.904172
Si Si2 0.925760 0.574609 0.390894
Si Si3 0.274455 0.072137 0.933209
Si Si4 0.680678 0.422876 0.899633
Si Si5 0.600093 0.427943 0.647231
Si Si6 0.177164 0.573320 0.637296
Si Si7 0.446614 0.071640 0.649553
Si Si8 0.964255 0.929862 0.075033
O O1 0.814586 0.250000 0.919802
O O2 0.739017 0.484332 0.912923
O O3 0.045613 0.476790 0.760211
O O4 0.713878 0.513436 0.020734
O O5 0.885272 0.750000 0.404555
O O6 0.797517 0.518643 0.520599
O O7 0.874514 0.462239 0.382457
O O8 0.147295 0.554992 0.252159
O O9 0.235470 0.250000 0.957154
O O10 0.471188 0.031275 0.778030
O O11 0.107198 0.988890 0.018374
O O12 0.627389 0.250000 0.941182
O O13 0.500000 0.500000 0.000000
O O14 0.641813 0.250000 0.617299
O O15 0.496373 0.491174 0.669070
O O16 0.145880 0.750000 0.669058
O O17 0.396881 0.526273 0.494479
O O18 0.446746 0.250000 0.655382
O O19 0.242047 0.016605 0.770405
O O20 0.979236 0.750000 0.061058
O O21 0.000000 0.000000 0.000000
#
# Coordination Sequence:
#
# PCOD8075946 Si02
#       8
#     4   4   4   4   4   4   4   4
#     4  10  21  37  53  77 107 134 168 213 258 308
#     4   9  17  29  47  77 108 131 164 211 253 296
#     4  11  22  36  52  74 103 139 180 218 258 314
#     4   9  19  34  55  82 110 133 162 204 250 303
#     4   9  17  31  49  71 100 134 174 216 254 302
#     4   9  16  30  51  72  96 133 171 210 257 306
#     4   8  15  29  48  70  98 128 167 219 261 298
#     4  11  20  33  50  73 104 138 175 223 269 309
#
# _framework density 17.947185999999999
#
# number of rings (size 3 to 8) (size 9 to 14) (size 15 to 20)
#    0.000    2.500    1.250    3.375    0.000    4.000 
#    0.000    2.500    0.000    0.750    0.000    0.000 
#    0.000    0.000    0.000    0.000    0.000    0.000 
#
# Total GULP energy -396536.912526 kJ/mol
# GULP energy per Si atom -12391.778516 kJ/mol
# Density = 1.790634 g / cm^3
# Si number density = 17.947186 Si / 1000 Ang^3
#
#
#
# Elastic Constant Matrix: (Units=GPa)
#
#
# Indices 1 2 3 4 5 6 
#
# 1 59.2371 25.6668 55.1416 0.0000 2.2206 0.0000
# 2 25.6668 58.8026 50.5837 0.0000 -1.8386 0.0000
# 3 55.1416 50.5837 156.8801 0.0000 1.6280 0.0000
# 4 0.0000 0.0000 0.0000 32.3792 0.0000 1.1234
# 5 2.2206 -1.8386 1.6280 0.0000 25.7879 0.0000
# 6 0.0000 0.0000 0.0000 1.1234 0.0000 24.9368
#
#
#
# Elastic Compliance Matrix: (Units=1/GPa)
#
#
# Indices 1 2 3 4 5 6 
#
# 1 0.026163 -0.004975 -0.007570 0.000000 -0.002130 0.000000
# 2 -0.004975 0.024600 -0.006210 0.000000 0.002574 0.000000
# 3 -0.007570 -0.006210 0.011042 0.000000 -0.000488 0.000000
# 4 0.000000 0.000000 0.000000 0.030932 0.000000 -0.001393
# 5 -0.002130 0.002574 -0.000488 0.000000 0.039176 0.000000
# 6 0.000000 0.000000 0.000000 -0.001393 0.000000 0.040164
#
#
# Mechanical properties :
#
#
# Convention : Reuss Voigt Hill
#
# Bulk Modulus (GPa) = 41.15861 59.74489 50.45175
# Shear Modulus (GPa) = 22.96885 26.18930 24.57907
#
# Velocity S-wave (km/s) = 3.58131 3.82415 3.70472
# Velocity P-wave (km/s) = 6.33120 7.27051 6.81705
#
# Compressibility (1/GPa) = 0.02429625
#
# Stress axis : x y z
#
# Youngs Moduli (GPa) = 38.22157 40.65033 90.55945
#
# Poissons Ratio (x) = 0.20222 0.68553
# Poissons Ratio (y) = 0.19014 0.56238
# Poissons Ratio (z) = 0.28934 0.25244
#
# Static dielectric constant tensor:
#      x y z
#    x 3.340620 0.000000 0.353500 
#    y 0.000000 3.321570 0.000000 
#    z 0.353500 0.000000 4.305150 
# 
# 
# High freq. dielectric constant tensor:
#      x y z
#    x 1.639030 0.000000 0.008510 
#    y 0.000000 1.693960 0.000000 
#    z 0.008510 0.000000 1.716070 
# 
# From -- ./inp_files/73628.got.cif
#   From: 2010.06.25/outbox.cif.g09.slc.cpg/sg11_37_cif.got.tgz:73628.got - 2010.06.27 23:14:04.
