data_PCOD8075308
_publ_section_title
;
Structure prediction by ZEFSAII (Michael W. Deem and Ramdas Pophale) SiO2 
 PCOD8075308
Probable space group: P 21/M
;
_chemical_formula_sum "Si O2"
_cell_formula_units_Z 18
_cell_length_a 7.627645
_cell_length_b 18.492531
_cell_length_c 7.044174
_cell_angle_alpha 90.000000
_cell_angle_beta 138.469349
_cell_angle_gamma 90.000000
_cell_volume 658.785353
_symmetry_space_group_name_H-M "P 21/M"
_symmetry_group_IT_number 11
_symmetry_cell_setting 'monoclinic'
loop_
_space_group_symop_operation_xyz
x,y,z
-x,1/2+y,-z
-x,-y,-z
x,1/2-y,z
loop_
_atom_site_type_symbol
_atom_site_label
_atom_site_fract_x
_atom_site_fract_y
_atom_site_fract_z
Si Si1 0.183550 0.871528 0.876197
Si Si2 0.175365 0.250000 0.365505
Si Si3 0.123401 0.901920 0.406945
Si Si4 0.427303 0.250000 0.928787
Si Si5 0.617759 0.514951 0.889522
Si Si6 0.354948 0.750000 0.508418
O O1 0.061217 0.904809 0.583019
O O2 0.973868 0.822488 0.823180
O O3 0.274570 0.935995 0.093002
O O4 0.430327 0.823680 0.014280
O O5 0.156742 0.250000 0.585489
O O6 0.483542 0.250000 0.558220
O O7 0.170545 0.820046 0.374180
O O8 0.863534 0.929906 0.089571
O O9 0.382226 0.951962 0.569347
O O10 0.408266 0.250000 0.141050
O O11 0.500000 0.500000 0.000000
#
# Coordination Sequence:
#
# PCOD8075308 Si02
#       6
#     4   2   4   2   4   2
#     4   9  20  37  59  99 125 166 229 266 325 404
#     4  11  23  41  67  95 131 179 220 277 330 386
#     4  10  22  39  66  97 130 180 214 277 337 394
#     4   9  21  39  66  89 129 178 213 274 333 387
#     4  10  20  37  67  99 131 172 223 273 335 398
#     4  10  24  46  61 100 136 169 231 273 327 405
#
# _framework density 27.323011999999999
#
# number of rings (size 3 to 8) (size 9 to 14) (size 15 to 20)
#    0.000    2.222    0.000    3.333   12.444    0.889 
#    8.000    2.222    0.000    0.000    0.000    0.000 
#    0.000    0.000    0.000    0.000    0.000    0.000 
#
# Total GULP energy -223114.950681 kJ/mol
# GULP energy per Si atom -12395.275038 kJ/mol
# Density = 2.726082 g / cm^3
# Si number density = 27.323012 Si / 1000 Ang^3
#
#
#
# Elastic Constant Matrix: (Units=GPa)
#
#
# Indices 1 2 3 4 5 6 
#
# 1 40.8390 18.4838 13.5787 0.0000 17.7203 0.0000
# 2 18.4838 180.3412 38.5982 0.0000 28.8601 0.0000
# 3 13.5787 38.5982 112.6678 0.0000 27.3221 0.0000
# 4 0.0000 0.0000 0.0000 28.0699 0.0000 14.4684
# 5 17.7203 28.8601 27.3221 0.0000 36.0504 0.0000
# 6 0.0000 0.0000 0.0000 14.4684 0.0000 15.7847
#
#
#
# Elastic Compliance Matrix: (Units=1/GPa)
#
#
# Indices 1 2 3 4 5 6 
#
# 1 0.031240 -0.000865 0.000107 0.000000 -0.014744 0.000000
# 2 -0.000865 0.006509 -0.001182 0.000000 -0.003889 0.000000
# 3 0.000107 -0.001182 0.011089 0.000000 -0.007510 0.000000
# 4 0.000000 0.000000 0.000000 0.067531 0.000000 -0.061900
# 5 -0.014744 -0.003889 -0.007510 0.000000 0.043792 0.000000
# 6 0.000000 0.000000 0.000000 -0.061900 0.000000 0.120090
#
#
# Mechanical properties :
#
#
# Convention : Reuss Voigt Hill
#
# Bulk Modulus (GPa) = 22.24369 52.79661 37.52015
# Shear Modulus (GPa) = 16.71577 33.52682 25.12130
#
# Velocity S-wave (km/s) = 2.47611 3.50673 3.03548
# Velocity P-wave (km/s) = 4.04147 5.98008 5.10367
#
# Compressibility (1/GPa) = 0.04495658
#
# Stress axis : x y z
#
# Youngs Moduli (GPa) = 32.01020 153.62765 90.17869
#
# Poissons Ratio (x) = 0.13293 -0.00963
# Poissons Ratio (y) = 0.02770 0.10663
# Poissons Ratio (z) = -0.00342 0.18166
#
# Static dielectric constant tensor:
#      x y z
#    x 4.468970 0.000000 0.004750 
#    y 0.000000 5.827500 0.000000 
#    z 0.004750 0.000000 4.952960 
# 
# 
# High freq. dielectric constant tensor:
#      x y z
#    x 2.067120 0.000000 0.007350 
#    y 0.000000 2.122750 0.000000 
#    z 0.007350 0.000000 2.094120 
# 
# From -- ./inp_files/1713.got.cif
#   From: 2010.06.25/outbox.cif.g09.slc.cpg/sg11_1_cif.got.tgz:1713.got - 2010.06.27 23:14:04.
