data_PCOD8075333
_publ_section_title
;
Structure prediction by ZEFSAII (Michael W. Deem and Ramdas Pophale) SiO2 
 PCOD8075333
Probable space group: P 21/M
;
_chemical_formula_sum "Si O2"
_cell_formula_units_Z 32
_cell_length_a 10.174698
_cell_length_b 23.065728
_cell_length_c 6.651664
_cell_angle_alpha 90.000000
_cell_angle_beta 74.281085
_cell_angle_gamma 90.000000
_cell_volume 1502.677971
_symmetry_space_group_name_H-M "P 21/M"
_symmetry_group_IT_number 11
_symmetry_cell_setting 'monoclinic'
loop_
_space_group_symop_operation_xyz
x,y,z
-x,1/2+y,-z
-x,-y,-z
x,1/2-y,z
loop_
_atom_site_type_symbol
_atom_site_label
_atom_site_fract_x
_atom_site_fract_y
_atom_site_fract_z
Si Si1 0.147811 0.683572 0.171267
Si Si2 0.103768 0.117318 0.539198
Si Si3 0.232642 0.394254 0.078590
Si Si4 0.128620 0.015256 0.819172
Si Si5 0.306711 0.315150 0.710998
Si Si6 0.611720 0.150213 0.654333
Si Si7 0.745394 0.104927 0.213878
Si Si8 0.517613 0.432710 0.009307
O O1 0.111646 0.750000 0.129250
O O2 0.292986 0.684813 0.227325
O O3 0.028128 0.656358 0.357727
O O4 0.155165 0.643965 0.966890
O O5 0.112524 0.109229 0.293863
O O6 0.089649 0.053297 0.640672
O O7 0.244552 0.147098 0.554695
O O8 0.225223 0.448600 0.929039
O O9 0.233448 0.335547 0.947549
O O10 0.376923 0.401616 0.129291
O O11 0.188834 0.953722 0.724606
O O12 0.000000 0.000000 0.000000
O O13 0.261104 0.250000 0.690444
O O14 0.471002 0.317296 0.659020
O O15 0.699727 0.143982 0.417840
O O16 0.573140 0.088638 0.769725
O O17 0.615376 0.084548 0.146516
O O18 0.500000 0.500000 0.000000
#
# Coordination Sequence:
#
# PCOD8075333 Si02
#       8
#     4   4   4   4   4   4   4   4
#     4  11  25  43  61  89 124 159 212 263 302 366
#     4  11  24  40  64  94 124 162 206 252 314 371
#     4  10  23  40  61  93 124 161 201 251 310 363
#     4  11  23  39  60  93 129 161 202 251 306 375
#     4  10  22  43  63  88 123 159 210 259 298 364
#     4  10  24  40  63  93 120 162 209 249 309 366
#     4  11  23  41  64  92 125 165 202 252 316 365
#     4  10  20  38  59  93 127 158 200 248 300 367
#
# _framework density 21.295314000000001
#
# number of rings (size 3 to 8) (size 9 to 14) (size 15 to 20)
#    0.000    1.500    2.500    1.500    3.500    3.000 
#    0.000    0.000    0.000    0.000    0.000    0.000 
#    0.000    0.000    0.000    0.000    0.000    0.000 
#
# Total GULP energy -396755.577571 kJ/mol
# GULP energy per Si atom -12398.611799 kJ/mol
# Density = 2.124684 g / cm^3
# Si number density = 21.295314 Si / 1000 Ang^3
#
#
#
# Elastic Constant Matrix: (Units=GPa)
#
#
# Indices 1 2 3 4 5 6 
#
# 1 58.2189 0.7835 -1.5438 0.0000 -10.3055 0.0000
# 2 0.7835 117.0236 32.1914 0.0000 -6.4215 0.0000
# 3 -1.5438 32.1914 108.7919 0.0000 -21.3574 0.0000
# 4 0.0000 0.0000 0.0000 15.6882 0.0000 -2.4523
# 5 -10.3055 -6.4215 -21.3574 0.0000 29.6685 0.0000
# 6 0.0000 0.0000 0.0000 -2.4523 0.0000 25.1090
#
#
#
# Elastic Compliance Matrix: (Units=1/GPa)
#
#
# Indices 1 2 3 4 5 6 
#
# 1 0.018599 -0.000207 0.001846 0.000000 0.007744 0.000000
# 2 -0.000207 0.009305 -0.002766 0.000000 -0.000049 0.000000
# 3 0.001846 -0.002766 0.011698 0.000000 0.008463 0.000000
# 4 0.000000 0.000000 0.000000 0.064730 0.000000 0.006322
# 5 0.007744 -0.000049 0.008463 0.000000 0.042478 0.000000
# 6 0.000000 0.000000 0.000000 0.006322 0.000000 0.040444
#
#
# Mechanical properties :
#
#
# Convention : Reuss Voigt Hill
#
# Bulk Modulus (GPa) = 26.77608 38.54408 32.66008
# Shear Modulus (GPa) = 24.75763 30.93335 27.84549
#
# Velocity S-wave (km/s) = 3.41337 3.81542 3.61998
# Velocity P-wave (km/s) = 5.30432 6.12772 5.73083
#
# Compressibility (1/GPa) = 0.03734677
#
# Stress axis : x y z
#
# Youngs Moduli (GPa) = 53.76597 107.47110 85.48494
#
# Poissons Ratio (x) = 0.02227 -0.15777
# Poissons Ratio (y) = 0.01114 0.23644
# Poissons Ratio (z) = -0.09923 0.29725
#
# Static dielectric constant tensor:
#      x y z
#    x 3.911830 0.000000 -0.982560 
#    y 0.000000 1.698690 0.000000 
#    z -0.982560 0.000000 2.203070 
# 
# 
# High freq. dielectric constant tensor:
#      x y z
#    x 1.847190 0.000000 -0.002020 
#    y 0.000000 1.834040 0.000000 
#    z -0.002020 0.000000 1.826110 
# 
# From -- ./inp_files/5477.got.cif
#   From: 2010.06.25/outbox.cif.g09.slc.cpg/sg11_3_cif.got.tgz:5477.got - 2010.06.27 23:14:04.
