data_PCOD8075299
_publ_section_title
;
Structure prediction by ZEFSAII (Michael W. Deem and Ramdas Pophale) SiO2 
 PCOD8075299
Probable space group: P 21/M
;
_chemical_formula_sum "Si O2"
_cell_formula_units_Z 32
_cell_length_a 17.289866
_cell_length_b 15.225852
_cell_length_c 11.722208
_cell_angle_alpha 90.000000
_cell_angle_beta 29.538144
_cell_angle_gamma 90.000000
_cell_volume 1521.360412
_symmetry_space_group_name_H-M "P 21/M"
_symmetry_group_IT_number 11
_symmetry_cell_setting 'monoclinic'
loop_
_space_group_symop_operation_xyz
x,y,z
-x,1/2+y,-z
-x,-y,-z
x,1/2-y,z
loop_
_atom_site_type_symbol
_atom_site_label
_atom_site_fract_x
_atom_site_fract_y
_atom_site_fract_z
Si Si1 0.880390 0.014568 0.336134
Si Si2 0.703502 0.650626 0.259442
Si Si3 0.162745 0.532439 0.858768
Si Si4 0.663586 0.649383 0.045317
Si Si5 0.359962 0.845786 0.739102
Si Si6 0.295011 0.846014 0.068655
Si Si7 0.475620 0.497979 0.163780
Si Si8 0.991839 0.085452 0.432582
O O1 0.707558 0.977331 0.580143
O O2 0.941520 0.070516 0.365421
O O3 0.870516 0.066396 0.226977
O O4 0.015651 0.942452 0.131631
O O5 0.776457 0.750000 0.177520
O O6 0.816878 0.574416 0.161062
O O7 0.657985 0.631314 0.186707
O O8 0.542614 0.644119 0.537802
O O9 0.317920 0.580152 0.701895
O O10 0.619611 0.750000 0.072504
O O11 0.536567 0.587297 0.145322
O O12 0.839781 0.631055 0.775576
O O13 0.331950 0.750000 0.718862
O O14 0.252680 0.855595 0.989384
O O15 0.367134 0.750000 0.000701
O O16 0.139946 0.853376 0.343577
O O17 0.427096 0.916542 0.918938
O O18 0.500000 0.500000 0.000000
O O19 0.000000 0.000000 0.500000
#
# Coordination Sequence:
#
# PCOD8075299 Si02
#       8
#     4   4   4   4   4   4   4   4
#     4  11  24  39  63  94 125 168 209 253 320 377
#     4  10  20  37  64  95 124 159 208 262 314 374
#     4  11  21  40  62  90 130 164 206 254 322 377
#     4  11  23  40  66  95 123 164 215 261 313 375
#     4  10  21  38  62  94 124 160 209 257 314 375
#     4  11  23  39  65  92 123 168 214 256 310 376
#     4  12  23  42  60  90 130 167 207 262 314 370
#     4  12  21  43  67  91 126 169 211 264 310 368
#
# _framework density 21.033805999999998
#
# number of rings (size 3 to 8) (size 9 to 14) (size 15 to 20)
#    0.000    1.000    3.750    3.750    0.000    0.500 
#    0.000    5.000    0.000    1.500    0.000    0.000 
#    0.000    0.000    0.000    0.000    0.000    0.000 
#
# Total GULP energy -396457.807030 kJ/mol
# GULP energy per Si atom -12389.306470 kJ/mol
# Density = 2.098593 g / cm^3
# Si number density = 21.033806 Si / 1000 Ang^3
#
#
#
# Elastic Constant Matrix: (Units=GPa)
#
#
# Indices 1 2 3 4 5 6 
#
# 1 93.1918 52.4226 25.4455 0.0000 7.3397 0.0000
# 2 52.4226 118.1481 19.1429 0.0000 -1.6842 0.0000
# 3 25.4455 19.1429 123.3834 0.0000 6.1568 0.0000
# 4 0.0000 0.0000 0.0000 14.1860 0.0000 11.7594
# 5 7.3397 -1.6842 6.1568 0.0000 38.8908 0.0000
# 6 0.0000 0.0000 0.0000 11.7594 0.0000 2.0561
#
#
#
# Elastic Compliance Matrix: (Units=1/GPa)
#
#
# Indices 1 2 3 4 5 6 
#
# 1 0.015105 -0.006422 -0.001978 0.000000 -0.002816 0.000000
# 2 -0.006422 0.011426 -0.000538 0.000000 0.001792 0.000000
# 3 -0.001978 -0.000538 0.008647 0.000000 -0.001019 0.000000
# 4 0.000000 0.000000 0.000000 -0.018844 0.000000 0.107771
# 5 -0.002816 0.001792 -0.001019 0.000000 0.026483 0.000000
# 6 0.000000 0.000000 0.000000 0.107771 0.000000 -0.130011
#
#
# Mechanical properties :
#
#
# Convention : Reuss Voigt Hill
#
# Bulk Modulus (GPa) = 57.79550 58.74948 58.27249
# Shear Modulus (GPa) = -78.67762 26.87408 -25.90177
#
# Velocity S-wave (km/s) = -6.12262 3.57832 -3.51299
# Velocity P-wave (km/s) = 4.73761 6.71298 3.36297
#
# Compressibility (1/GPa) = 0.01730239
#
# Stress axis : x y z
#
# Youngs Moduli (GPa) = 66.20412 87.52015 115.64601
#
# Poissons Ratio (x) = 0.56202 0.22878
# Poissons Ratio (y) = 0.42514 0.06220
# Poissons Ratio (z) = 0.13097 0.04707
#
# Static dielectric constant tensor:
#      x y z
#    x 4.318980 0.000000 0.853180 
#    y 0.000000 4.272500 0.000000 
#    z 0.853180 0.000000 5.240400 
# 
# 
# High freq. dielectric constant tensor:
#      x y z
#    x 1.819390 0.000000 0.009390 
#    y 0.000000 1.805490 0.000000 
#    z 0.009390 0.000000 1.851790 
# 
# From -- ./inp_files/41666.got.cif
#   From: 2010.06.25/outbox.cif.g09.slc.cpg/sg11_21_cif.got.tgz:41666.got - 2010.06.27 23:14:04.
