data_PCOD8075058
_publ_section_title
;
Structure prediction by ZEFSAII (Michael W. Deem and Ramdas Pophale) SiO2 
 PCOD8075058
Probable space group: P 21/M
;
_chemical_formula_sum "Si O2"
_cell_formula_units_Z 24
_cell_length_a 9.367155
_cell_length_b 8.879845
_cell_length_c 15.240837
_cell_angle_alpha 90.000000
_cell_angle_beta 90.194826
_cell_angle_gamma 90.000000
_cell_volume 1267.708491
_symmetry_space_group_name_H-M "P 21/M"
_symmetry_group_IT_number 11
_symmetry_cell_setting 'monoclinic'
loop_
_space_group_symop_operation_xyz
x,y,z
-x,1/2+y,-z
-x,-y,-z
x,1/2-y,z
loop_
_atom_site_type_symbol
_atom_site_label
_atom_site_fract_x
_atom_site_fract_y
_atom_site_fract_z
Si Si1 0.403495 0.069797 0.230010
Si Si2 0.917567 0.922489 0.577982
Si Si3 0.895511 0.073061 0.760833
Si Si4 0.584579 0.929463 0.080424
Si Si5 0.587432 0.919017 0.574074
Si Si6 0.910951 0.574978 0.076196
O O1 0.402046 0.250000 0.220631
O O2 0.440703 0.015486 0.328770
O O3 0.246451 0.010060 0.204811
O O4 0.521896 0.995292 0.169724
O O5 0.967009 0.750000 0.589527
O O6 0.752929 0.931783 0.551695
O O7 0.948947 0.009494 0.668136
O O8 0.000000 0.000000 0.500000
O O9 0.864012 0.250000 0.752500
O O10 0.020779 0.037328 0.829629
O O11 0.569200 0.750000 0.079340
O O12 0.748312 0.983001 0.075000
O O13 0.500000 0.000000 0.000000
O O14 0.532630 0.750000 0.573061
O O15 0.500000 0.000000 0.500000
O O16 0.914547 0.750000 0.056667
O O17 0.000000 0.500000 0.000000
#
# Coordination Sequence:
#
# PCOD8075058 Si02
#       6
#     4   4   4   4   4   4
#     4  10  21  38  57  82 113 146 184 228 273 325
#     4  10  21  37  56  82 113 147 185 229 276 327
#     4  10  20  37  59  83 110 145 185 228 276 327
#     4  11  23  39  58  83 112 145 182 226 275 327
#     4   9  20  36  55  80 111 144 183 227 273 323
#     4  10  23  39  57  82 112 143 181 226 274 325
#
# _framework density 18.931797
#
# number of rings (size 3 to 8) (size 9 to 14) (size 15 to 20)
#    0.000    2.000    0.000    4.000    0.000   10.667 
#    0.000    5.000    0.000    0.000    0.000    0.000 
#    0.000    0.000    0.000    0.000    0.000    0.000 
#
# Total GULP energy -297642.947965 kJ/mol
# GULP energy per Si atom -12401.789499 kJ/mol
# Density = 1.888871 g / cm^3
# Si number density = 18.931797 Si / 1000 Ang^3
#
#
#
# Elastic Constant Matrix: (Units=GPa)
#
#
# Indices 1 2 3 4 5 6 
#
# 1 137.9737 59.5112 91.6126 0.0000 -3.4649 0.0000
# 2 59.5112 92.4860 59.7420 0.0000 0.1162 0.0000
# 3 91.6126 59.7420 134.3631 0.0000 -7.9519 0.0000
# 4 0.0000 0.0000 0.0000 40.3583 0.0000 -2.4152
# 5 -3.4649 0.1162 -7.9519 0.0000 43.2813 0.0000
# 6 0.0000 0.0000 0.0000 -2.4152 0.0000 34.2520
#
#
#
# Elastic Compliance Matrix: (Units=1/GPa)
#
#
# Indices 1 2 3 4 5 6 
#
# 1 0.014257 -0.004044 -0.007941 0.000000 -0.000307 0.000000
# 2 -0.004044 0.016388 -0.004601 0.000000 -0.001213 0.000000
# 3 -0.007941 -0.004601 0.015029 0.000000 0.002138 0.000000
# 4 0.000000 0.000000 0.000000 0.024883 0.000000 0.001755
# 5 -0.000307 -0.001213 0.002138 0.000000 0.023476 0.000000
# 6 0.000000 0.000000 0.000000 0.001755 0.000000 0.029319
#
#
# Mechanical properties :
#
#
# Convention : Reuss Voigt Hill
#
# Bulk Modulus (GPa) = 79.98530 87.39493 83.69012
# Shear Modulus (GPa) = 31.11534 33.84211 32.47872
#
# Velocity S-wave (km/s) = 4.05847 4.23257 4.14643
# Velocity P-wave (km/s) = 8.01888 8.37552 8.19914
#
# Compressibility (1/GPa) = 0.01250230
#
# Stress axis : x y z
#
# Youngs Moduli (GPa) = 70.14136 61.01909 66.53696
#
# Poissons Ratio (x) = 0.24676 0.52836
# Poissons Ratio (y) = 0.28365 0.30616
# Poissons Ratio (z) = 0.55698 0.28077
#
# Static dielectric constant tensor:
#      x y z
#    x 3.499060 0.000000 -0.060570 
#    y 0.000000 3.636760 0.000000 
#    z -0.060570 0.000000 3.395020 
# 
# 
# High freq. dielectric constant tensor:
#      x y z
#    x 1.736080 0.000000 -0.001400 
#    y 0.000000 1.745480 0.000000 
#    z -0.001400 0.000000 1.750030 
# 
# From -- ./inp_files/20550.got.cif
#   From: 2010.06.25/outbox.cif.g09.slc.cpg/sg11_11_cif.got.tgz:20550.got - 2010.06.27 23:14:04.
