data_PCOD8075776
_publ_section_title
;
Structure prediction by ZEFSAII (Michael W. Deem and Ramdas Pophale) SiO2 
 PCOD8075776
Probable space group: P 21/M
;
_chemical_formula_sum "Si O2"
_cell_formula_units_Z 28
_cell_length_a 30.141232
_cell_length_b 9.026090
_cell_length_c 9.653880
_cell_angle_alpha 90.000000
_cell_angle_beta 36.907011
_cell_angle_gamma 90.000000
_cell_volume 1577.206793
_symmetry_space_group_name_H-M "P 21/M"
_symmetry_group_IT_number 11
_symmetry_cell_setting 'monoclinic'
loop_
_space_group_symop_operation_xyz
x,y,z
-x,1/2+y,-z
-x,-y,-z
x,1/2-y,z
loop_
_atom_site_type_symbol
_atom_site_label
_atom_site_fract_x
_atom_site_fract_y
_atom_site_fract_z
Si Si1 0.937676 0.423055 0.066229
Si Si2 0.493870 0.923686 0.662429
Si Si3 0.655217 0.576990 0.264037
Si Si4 0.937532 0.423452 0.745223
Si Si5 0.787558 0.578034 0.438969
Si Si6 0.649151 0.925274 0.965343
Si Si7 0.786587 0.923460 0.122539
O O1 0.938783 0.250000 0.094314
O O2 0.858552 0.486087 0.310085
O O3 0.952584 0.458786 0.868355
O O4 0.000000 0.500000 0.000000
O O5 0.479292 0.750000 0.681434
O O6 0.573924 0.953392 0.534337
O O7 0.500000 0.000000 0.500000
O O8 0.424806 0.998501 0.914699
O O9 0.669979 0.750000 0.218951
O O10 0.718576 0.508779 0.203741
O O11 0.661335 0.515385 0.091765
O O12 0.937467 0.250000 0.714954
O O13 0.000000 0.500000 0.500000
O O14 0.859297 0.489763 0.893664
O O15 0.804876 0.750000 0.421979
O O16 0.718531 0.523490 0.701658
O O17 0.767846 0.546121 0.329106
O O18 0.637268 0.750000 0.989291
O O19 0.799797 0.750000 0.062162
#
# Coordination Sequence:
#
# PCOD8075776 Si02
#       7
#     4   4   4   4   4   4   4
#     4  10  21  36  54  75 101 131 165 204 247 294
#     4   9  16  28  46  68  94 124 157 196 239 283
#     4   8  15  28  47  68  91 121 158 195 234 280
#     4  10  21  36  53  75 101 130 163 202 246 293
#     4   9  18  32  50  70  96 128 161 197 241 290
#     4   9  17  30  47  69  95 124 158 197 238 284
#     4   9  17  32  51  69  93 128 162 195 239 290
#
# _framework density 17.752904000000001
#
# number of rings (size 3 to 8) (size 9 to 14) (size 15 to 20)
#    0.000    2.857    0.000    2.143    0.000    3.429 
#    0.000    7.143    0.000    0.000    0.000    0.000 
#    0.000    0.000    0.000    0.000    0.000    0.000 
#
# Total GULP energy -347089.906896 kJ/mol
# GULP energy per Si atom -12396.068103 kJ/mol
# Density = 1.771250 g / cm^3
# Si number density = 17.752904 Si / 1000 Ang^3
#
#
#
# Elastic Constant Matrix: (Units=GPa)
#
#
# Indices 1 2 3 4 5 6 
#
# 1 128.7326 49.4514 74.5021 0.0000 -33.9673 0.0000
# 2 49.4514 69.8873 59.5863 0.0000 -18.3943 0.0000
# 3 74.5021 59.5863 159.7291 0.0000 -32.5652 0.0000
# 4 0.0000 0.0000 0.0000 30.8083 0.0000 -7.9683
# 5 -33.9673 -18.3943 -32.5652 0.0000 25.2010 0.0000
# 6 0.0000 0.0000 0.0000 -7.9683 0.0000 24.4849
#
#
#
# Elastic Compliance Matrix: (Units=1/GPa)
#
#
# Indices 1 2 3 4 5 6 
#
# 1 0.014322 -0.004823 -0.002258 0.000000 0.012866 0.000000
# 2 -0.004823 0.023574 -0.005922 0.000000 0.003054 0.000000
# 3 -0.002258 -0.005922 0.010890 0.000000 0.006707 0.000000
# 4 0.000000 0.000000 0.000000 0.035442 0.000000 0.011534
# 5 0.012866 0.003054 0.006707 0.000000 0.067918 0.000000
# 6 0.000000 0.000000 0.000000 0.011534 0.000000 0.044595
#
#
# Mechanical properties :
#
#
# Convention : Reuss Voigt Hill
#
# Bulk Modulus (GPa) = 43.89597 80.60319 62.24958
# Shear Modulus (GPa) = 21.70681 27.75279 24.72980
#
# Velocity S-wave (km/s) = 3.50053 3.95813 3.73634
# Velocity P-wave (km/s) = 6.41234 8.14803 7.33173
#
# Compressibility (1/GPa) = 0.02278113
#
# Stress axis : x y z
#
# Youngs Moduli (GPa) = 69.82067 42.41898 91.82363
#
# Poissons Ratio (x) = 0.20457 0.20735
# Poissons Ratio (y) = 0.33672 0.54381
# Poissons Ratio (z) = 0.15766 0.25122
#
# Static dielectric constant tensor:
#      x y z
#    x 3.497420 0.000000 -0.281370 
#    y 0.000000 3.260770 0.000000 
#    z -0.281370 0.000000 3.461130 
# 
# 
# High freq. dielectric constant tensor:
#      x y z
#    x 1.679650 0.000000 -0.020870 
#    y 0.000000 1.676730 0.000000 
#    z -0.020870 0.000000 1.686870 
# 
# From -- ./inp_files/28979.got.cif
#   From: 2010.06.25/outbox.cif.g09.slc.cpg/sg11_15_cif.got.tgz:28979.got - 2010.06.27 23:14:04.
