data_PCOD8075930
_publ_section_title
;
Structure prediction by ZEFSAII (Michael W. Deem and Ramdas Pophale) SiO2 
 PCOD8075930
Probable space group: P 21/M
;
_chemical_formula_sum "Si O2"
_cell_formula_units_Z 32
_cell_length_a 14.988773
_cell_length_b 9.444778
_cell_length_c 11.654443
_cell_angle_alpha 90.000000
_cell_angle_beta 87.377369
_cell_angle_gamma 90.000000
_cell_volume 1648.140491
_symmetry_space_group_name_H-M "P 21/M"
_symmetry_group_IT_number 11
_symmetry_cell_setting 'monoclinic'
loop_
_space_group_symop_operation_xyz
x,y,z
-x,1/2+y,-z
-x,-y,-z
x,1/2-y,z
loop_
_atom_site_type_symbol
_atom_site_label
_atom_site_fract_x
_atom_site_fract_y
_atom_site_fract_z
Si Si1 0.789828 0.905277 0.903013
Si Si2 0.772289 0.414458 0.493186
Si Si3 0.378079 0.914054 0.069012
Si Si4 0.424248 0.916479 0.573551
Si Si5 0.067776 0.411062 0.921225
Si Si6 0.123125 0.090861 0.337268
Si Si7 0.073069 0.914177 0.693948
Si Si8 0.470602 0.913162 0.829224
O O1 0.743828 0.750000 0.891869
O O2 0.863782 0.926178 0.799914
O O3 0.719629 0.030443 0.898336
O O4 0.836930 0.912520 0.022648
O O5 0.770336 0.250000 0.522174
O O6 0.673421 0.466468 0.463409
O O7 0.805041 0.492456 0.605031
O O8 0.842669 0.448922 0.389794
O O9 0.382670 0.750000 0.098291
O O10 0.443699 0.991008 0.153415
O O11 0.399421 0.944909 0.934168
O O12 0.438587 0.750000 0.551617
O O13 0.429052 0.952619 0.708623
O O14 0.500000 0.000000 0.500000
O O15 0.032572 0.250000 0.908230
O O16 0.083244 0.482177 0.798964
O O17 0.000000 0.500000 0.000000
O O18 0.142382 0.250000 0.378043
O O19 0.019526 0.051332 0.367770
O O20 0.072731 0.750000 0.734116
O O21 0.500637 0.750000 0.831087
#
# Coordination Sequence:
#
# PCOD8075930 Si02
#       8
#     4   4   4   4   4   4   4   4
#     4  10  22  38  56  84 122 157 188 235 293 348
#     4  10  23  40  62  89 117 152 200 252 293 341
#     4  10  21  36  61  91 114 148 194 239 284 348
#     4  10  23  42  61  85 116 153 195 241 296 351
#     4  11  22  38  59  86 120 156 195 238 287 347
#     4  10  21  39  60  84 120 160 198 238 292 351
#     4  10  21  40  63  87 121 159 194 244 298 349
#     4   9  20  40  61  83 117 153 187 235 299 352
#
# _framework density 19.41582
#
# number of rings (size 3 to 8) (size 9 to 14) (size 15 to 20)
#    0.000    2.000    1.250    1.125    3.500    4.000 
#    0.000    0.000    0.000    0.000    0.000    0.000 
#    0.000    0.000    0.000    0.000    0.000    0.000 
#
# Total GULP energy -396828.405830 kJ/mol
# GULP energy per Si atom -12400.887682 kJ/mol
# Density = 1.937163 g / cm^3
# Si number density = 19.415820 Si / 1000 Ang^3
#
#
#
# Elastic Constant Matrix: (Units=GPa)
#
#
# Indices 1 2 3 4 5 6 
#
# 1 135.2415 50.0423 47.3986 0.0000 5.3112 0.0000
# 2 50.0423 77.3267 46.8761 0.0000 7.8329 0.0000
# 3 47.3986 46.8761 95.6906 0.0000 18.2076 0.0000
# 4 0.0000 0.0000 0.0000 36.4348 0.0000 0.4616
# 5 5.3112 7.8329 18.2076 0.0000 27.0876 0.0000
# 6 0.0000 0.0000 0.0000 0.4616 0.0000 33.5691
#
#
#
# Elastic Compliance Matrix: (Units=1/GPa)
#
#
# Indices 1 2 3 4 5 6 
#
# 1 0.010193 -0.005002 -0.002859 0.000000 0.001370 0.000000
# 2 -0.005002 0.020866 -0.007777 0.000000 0.000175 0.000000
# 3 -0.002859 -0.007777 0.017363 0.000000 -0.008861 0.000000
# 4 0.000000 0.000000 0.000000 0.027451 0.000000 -0.000377
# 5 0.001370 0.000175 -0.008861 0.000000 0.042554 0.000000
# 6 0.000000 0.000000 0.000000 -0.000377 0.000000 0.029794
#
#
# Mechanical properties :
#
#
# Convention : Reuss Voigt Hill
#
# Bulk Modulus (GPa) = 58.32694 66.32141 62.32417
# Shear Modulus (GPa) = 26.99571 30.34777 28.67174
#
# Velocity S-wave (km/s) = 3.73285 3.95782 3.84698
# Velocity P-wave (km/s) = 6.97747 7.42418 7.20428
#
# Compressibility (1/GPa) = 0.01714474
#
# Stress axis : x y z
#
# Youngs Moduli (GPa) = 98.10271 47.92435 57.59499
#
# Poissons Ratio (x) = 0.23972 0.16469
# Poissons Ratio (y) = 0.49072 0.44793
# Poissons Ratio (z) = 0.28051 0.37272
#
# Static dielectric constant tensor:
#      x y z
#    x 3.551310 0.000000 0.013950 
#    y 0.000000 3.600730 0.000000 
#    z 0.013950 0.000000 3.600670 
# 
# 
# High freq. dielectric constant tensor:
#      x y z
#    x 1.757260 0.000000 0.001220 
#    y 0.000000 1.758070 0.000000 
#    z 0.001220 0.000000 1.757440 
# 
# From -- ./inp_files/38240.got.cif
#   From: 2010.06.25/outbox.cif.g09.slc.cpg/sg11_20_cif.got.tgz:38240.got - 2010.06.27 23:14:04.
