data_PCOD8075615
_publ_section_title
;
Structure prediction by ZEFSAII (Michael W. Deem and Ramdas Pophale) SiO2 
 PCOD8075615
Probable space group: P 21/M
;
_chemical_formula_sum "Si O2"
_cell_formula_units_Z 18
_cell_length_a 9.104666
_cell_length_b 7.636035
_cell_length_c 22.443721
_cell_angle_alpha 90.000000
_cell_angle_beta 142.504475
_cell_angle_gamma 90.000000
_cell_volume 949.794629
_symmetry_space_group_name_H-M "P 21/M"
_symmetry_group_IT_number 11
_symmetry_cell_setting 'monoclinic'
loop_
_space_group_symop_operation_xyz
x,y,z
-x,1/2+y,-z
-x,-y,-z
x,1/2-y,z
loop_
_atom_site_type_symbol
_atom_site_label
_atom_site_fract_x
_atom_site_fract_y
_atom_site_fract_z
Si Si1 0.128628 0.250000 0.913177
Si Si2 0.267649 0.554131 0.759573
Si Si3 0.624600 0.250000 0.706512
Si Si4 0.775496 0.450442 0.968413
Si Si5 0.969412 0.750000 0.248167
Si Si6 0.803699 0.941267 0.389890
O O1 0.200494 0.250000 0.866131
O O2 0.835694 0.250000 0.824754
O O3 0.234693 0.424729 0.977274
O O4 0.246327 0.750000 0.779556
O O5 0.534526 0.476461 0.852536
O O6 0.078000 0.427072 0.730712
O O7 0.209892 0.569624 0.670651
O O8 0.457808 0.423588 0.661307
O O9 0.748421 0.250000 0.680868
O O10 0.796452 0.250000 0.996618
O O11 0.000000 0.500000 0.000000
O O12 0.878280 0.750000 0.388693
O O13 0.000000 0.000000 0.500000
#
# Coordination Sequence:
#
# PCOD8075615 Si02
#       6
#     2   4   2   4   2   4
#     4  10  22  40  61  88 132 170 214 255 315 379
#     4  12  23  41  66  93 132 172 217 264 323 375
#     4   8  21  41  65  89 133 161 207 265 324 365
#     4  12  22  37  62  95 126 171 220 270 311 361
#     4  10  23  45  62  87 143 173 203 268 315 392
#     4  10  20  40  71  96 125 156 218 271 323 376
#
# _framework density 18.951466
#
# number of rings (size 3 to 8) (size 9 to 14) (size 15 to 20)
#    1.333    0.000    4.444    2.000    0.000    1.778 
#    0.000    4.444    0.000    0.000    0.000    0.000 
#    0.000    0.000    0.000    0.000    0.000    0.000 
#
# Total GULP energy -223091.191156 kJ/mol
# GULP energy per Si atom -12393.955064 kJ/mol
# Density = 1.890833 g / cm^3
# Si number density = 18.951466 Si / 1000 Ang^3
#
#
#
# Elastic Constant Matrix: (Units=GPa)
#
#
# Indices 1 2 3 4 5 6 
#
# 1 109.5863 43.2760 33.5191 0.0000 -7.2732 0.0000
# 2 43.2760 148.6790 23.8523 0.0000 -0.8753 0.0000
# 3 33.5191 23.8523 111.1531 0.0000 -3.8484 0.0000
# 4 0.0000 0.0000 0.0000 30.4317 0.0000 -2.5555
# 5 -7.2732 -0.8753 -3.8484 0.0000 17.2224 0.0000
# 6 0.0000 0.0000 0.0000 -2.5555 0.0000 13.5905
#
#
#
# Elastic Compliance Matrix: (Units=1/GPa)
#
#
# Indices 1 2 3 4 5 6 
#
# 1 0.011334 -0.002847 -0.002667 0.000000 0.004046 0.000000
# 2 -0.002847 0.007681 -0.000824 0.000000 -0.000996 0.000000
# 3 -0.002667 -0.000824 0.010015 0.000000 0.001070 0.000000
# 4 0.000000 0.000000 0.000000 0.033388 0.000000 0.006278
# 5 0.004046 -0.000996 0.001070 0.000000 0.059961 0.000000
# 6 0.000000 0.000000 0.000000 0.006278 0.000000 0.074761
#
#
# Mechanical properties :
#
#
# Convention : Reuss Voigt Hill
#
# Bulk Modulus (GPa) = 61.15019 63.41256 62.28138
# Shear Modulus (GPa) = 23.22699 30.16698 26.69698
#
# Velocity S-wave (km/s) = 3.50466 3.99407 3.75734
# Velocity P-wave (km/s) = 6.97952 7.40292 7.19433
#
# Compressibility (1/GPa) = 0.01635318
#
# Stress axis : x y z
#
# Youngs Moduli (GPa) = 88.23149 130.19113 99.85361
#
# Poissons Ratio (x) = 0.37069 0.26628
# Poissons Ratio (y) = 0.25122 0.08229
# Poissons Ratio (z) = 0.23529 0.10729
#
# Static dielectric constant tensor:
#      x y z
#    x 3.264640 0.000000 0.028320 
#    y 0.000000 3.572970 0.000000 
#    z 0.028320 0.000000 3.357950 
# 
# 
# High freq. dielectric constant tensor:
#      x y z
#    x 1.720510 0.000000 -0.001050 
#    y 0.000000 1.739500 0.000000 
#    z -0.001050 0.000000 1.731930 
# 
# From -- ./inp_files/63125.got.cif
#   From: 2010.06.25/outbox.cif.g09.slc.cpg/sg11_32_cif.got.tgz:63125.got - 2010.06.27 23:14:04.
