data_PCOD8075876
_publ_section_title
;
Structure prediction by ZEFSAII (Michael W. Deem and Ramdas Pophale) SiO2 
 PCOD8075876
Probable space group: P 21/M
;
_chemical_formula_sum "Si O2"
_cell_formula_units_Z 28
_cell_length_a 15.708460
_cell_length_b 8.819291
_cell_length_c 20.662877
_cell_angle_alpha 90.000000
_cell_angle_beta 28.687268
_cell_angle_gamma 90.000000
_cell_volume 1374.121580
_symmetry_space_group_name_H-M "P 21/M"
_symmetry_group_IT_number 11
_symmetry_cell_setting 'monoclinic'
loop_
_space_group_symop_operation_xyz
x,y,z
-x,1/2+y,-z
-x,-y,-z
x,1/2-y,z
loop_
_atom_site_type_symbol
_atom_site_label
_atom_site_fract_x
_atom_site_fract_y
_atom_site_fract_z
Si Si1 0.973293 0.426465 0.613542
Si Si2 0.274719 0.572196 0.338048
Si Si3 0.258310 0.924448 0.620594
Si Si4 0.920095 0.423518 0.795230
Si Si5 0.173213 0.071588 0.915652
Si Si6 0.343011 0.575130 0.920974
Si Si7 0.412402 0.924790 0.655680
O O1 0.017742 0.250000 0.576520
O O2 0.820771 0.475204 0.665057
O O3 0.901184 0.468280 0.732657
O O4 0.154267 0.517530 0.478536
O O5 0.305161 0.750000 0.323611
O O6 0.463195 0.493217 0.214281
O O7 0.297585 0.750000 0.577809
O O8 0.289663 0.955887 0.675341
O O9 0.385719 0.029697 0.492843
O O10 0.058269 0.966249 0.737736
O O11 0.985261 0.250000 0.759003
O O12 0.730508 0.445727 0.956808
O O13 0.146889 0.250000 0.936831
O O14 0.203981 0.008255 0.966840
O O15 0.344158 0.029184 0.759111
O O16 0.000000 0.000000 0.000000
O O17 0.352038 0.750000 0.894890
O O18 0.405899 0.750000 0.681360
#
# Coordination Sequence:
#
# PCOD8075876 Si02
#       7
#     4   4   4   4   4   4   4
#     4   9  20  40  64  89 121 160 201 250 305 364
#     4  10  21  39  63  92 123 157 201 252 305 364
#     4  10  21  36  57  86 119 153 197 250 302 356
#     4  10  22  39  60  86 118 160 203 248 302 363
#     4  12  25  41  61  86 119 159 204 251 303 360
#     4  11  24  41  62  89 123 163 205 251 307 366
#     4  10  21  38  59  83 114 157 202 249 302 355
#
# _framework density 20.376656000000001
#
# number of rings (size 3 to 8) (size 9 to 14) (size 15 to 20)
#    0.000    1.714    0.000    3.857    2.000    6.857 
#    0.000    0.000    0.000    0.000    0.000    0.000 
#    0.000    0.000    0.000    0.000    0.000    0.000 
#
# Total GULP energy -347349.932345 kJ/mol
# GULP energy per Si atom -12405.354727 kJ/mol
# Density = 2.033028 g / cm^3
# Si number density = 20.376656 Si / 1000 Ang^3
#
#
#
# Elastic Constant Matrix: (Units=GPa)
#
#
# Indices 1 2 3 4 5 6 
#
# 1 90.9261 44.5135 60.0409 0.0000 7.9840 0.0000
# 2 44.5135 109.6356 51.2145 0.0000 2.0453 0.0000
# 3 60.0409 51.2145 112.3473 0.0000 5.5569 0.0000
# 4 0.0000 0.0000 0.0000 34.5224 0.0000 -2.5778
# 5 7.9840 2.0453 5.5569 0.0000 36.7473 0.0000
# 6 0.0000 0.0000 0.0000 -2.5778 0.0000 29.9514
#
#
#
# Elastic Compliance Matrix: (Units=1/GPa)
#
#
# Indices 1 2 3 4 5 6 
#
# 1 0.018276 -0.003645 -0.007979 0.000000 -0.002561 0.000000
# 2 -0.003645 0.012317 -0.003700 0.000000 0.000666 0.000000
# 3 -0.007979 -0.003700 0.014867 0.000000 -0.000309 0.000000
# 4 0.000000 0.000000 0.000000 0.029154 0.000000 0.002509
# 5 -0.002561 0.000666 -0.000309 0.000000 0.027779 0.000000
# 6 0.000000 0.000000 0.000000 0.002509 0.000000 0.033603
#
#
# Mechanical properties :
#
#
# Convention : Reuss Voigt Hill
#
# Bulk Modulus (GPa) = 67.51070 69.38295 68.44682
# Shear Modulus (GPa) = 29.14084 30.72024 29.93054
#
# Velocity S-wave (km/s) = 3.78578 3.88702 3.83673
# Velocity P-wave (km/s) = 7.23276 7.36677 7.30008
#
# Compressibility (1/GPa) = 0.01481247
#
# Stress axis : x y z
#
# Youngs Moduli (GPa) = 54.71671 81.18880 67.26471
#
# Poissons Ratio (x) = 0.29597 0.53668
# Poissons Ratio (y) = 0.19947 0.24885
# Poissons Ratio (z) = 0.43656 0.30036
#
# Static dielectric constant tensor:
#      x y z
#    x 3.765340 0.000000 0.169110 
#    y 0.000000 3.752870 0.000000 
#    z 0.169110 0.000000 3.706200 
# 
# 
# High freq. dielectric constant tensor:
#      x y z
#    x 1.793510 0.000000 0.007730 
#    y 0.000000 1.802510 0.000000 
#    z 0.007730 0.000000 1.801950 
# 
# From -- ./inp_files/51911.got.cif
#   From: 2010.06.25/outbox.cif.g09.slc.cpg/sg11_26_cif.got.tgz:51911.got - 2010.06.27 23:14:04.
