data_PCOD8075389
_publ_section_title
;
Structure prediction by ZEFSAII (Michael W. Deem and Ramdas Pophale) SiO2 
 PCOD8075389
Probable space group: P 21/M
;
_chemical_formula_sum "Si O2"
_cell_formula_units_Z 28
_cell_length_a 11.971633
_cell_length_b 13.993957
_cell_length_c 10.357437
_cell_angle_alpha 90.000000
_cell_angle_beta 130.524049
_cell_angle_gamma 90.000000
_cell_volume 1318.973258
_symmetry_space_group_name_H-M "P 21/M"
_symmetry_group_IT_number 11
_symmetry_cell_setting 'monoclinic'
loop_
_space_group_symop_operation_xyz
x,y,z
-x,1/2+y,-z
-x,-y,-z
x,1/2-y,z
loop_
_atom_site_type_symbol
_atom_site_label
_atom_site_fract_x
_atom_site_fract_y
_atom_site_fract_z
Si Si1 0.128647 0.950505 0.443296
Si Si2 0.888840 0.860391 0.430024
Si Si3 0.423398 0.098862 0.408744
Si Si4 0.424838 0.640589 0.740172
Si Si5 0.564866 0.637743 0.108721
Si Si6 0.842658 0.483479 0.820471
Si Si7 0.395146 0.854649 0.226078
O O1 0.287235 0.928433 0.620948
O O2 0.131539 0.928625 0.293940
O O3 0.012982 0.876902 0.416388
O O4 0.086698 0.062246 0.436822
O O5 0.895312 0.750000 0.485212
O O6 0.735924 0.886102 0.247324
O O7 0.469397 0.138521 0.304356
O O8 0.480683 0.163966 0.569155
O O9 0.500000 0.000000 0.500000
O O10 0.246334 0.082901 0.273604
O O11 0.374240 0.750000 0.723553
O O12 0.506875 0.598567 0.928134
O O13 0.541592 0.750000 0.097520
O O14 0.472907 0.594845 0.161009
O O15 0.742968 0.418973 0.838706
O O16 0.000000 0.500000 0.000000
O O17 0.332520 0.750000 0.144143
#
# Coordination Sequence:
#
# PCOD8075389 Si02
#       7
#     4   4   4   4   4   4   4
#     4  11  23  41  66  92 126 172 213 260 321 384
#     4  10  23  42  63  93 130 166 207 262 324 381
#     4  10  20  38  61  88 122 165 212 259 309 380
#     4  11  22  39  65  97 128 165 216 264 314 377
#     4   9  21  38  62  96 126 160 211 263 315 373
#     4  11  25  41  60  92 130 167 213 263 322 386
#     4  10  20  40  67  91 124 170 215 265 317 375
#
# _framework density 21.228634
#
# number of rings (size 3 to 8) (size 9 to 14) (size 15 to 20)
#    0.000    1.714    2.857    1.714    4.000    3.429 
#    0.000    4.286    0.000    0.000    0.000    0.000 
#    0.000    0.000    0.000    0.000    0.000    0.000 
#
# Total GULP energy -347077.861981 kJ/mol
# GULP energy per Si atom -12395.637928 kJ/mol
# Density = 2.118032 g / cm^3
# Si number density = 21.228634 Si / 1000 Ang^3
#
#
#
# Elastic Constant Matrix: (Units=GPa)
#
#
# Indices 1 2 3 4 5 6 
#
# 1 118.0736 8.6789 56.1760 0.0000 3.9791 0.0000
# 2 8.6789 68.9195 8.4243 0.0000 6.1507 0.0000
# 3 56.1760 8.4243 125.2138 0.0000 -1.7849 0.0000
# 4 0.0000 0.0000 0.0000 25.7602 0.0000 -0.3913
# 5 3.9791 6.1507 -1.7849 0.0000 48.6342 0.0000
# 6 0.0000 0.0000 0.0000 -0.3913 0.0000 34.3869
#
#
#
# Elastic Compliance Matrix: (Units=1/GPa)
#
#
# Indices 1 2 3 4 5 6 
#
# 1 0.010854 -0.000688 -0.004837 0.000000 -0.000979 0.000000
# 2 -0.000688 0.014849 -0.000717 0.000000 -0.001848 0.000000
# 3 -0.004837 -0.000717 0.010217 0.000000 0.000861 0.000000
# 4 0.000000 0.000000 0.000000 0.038826 0.000000 0.000442
# 5 -0.000979 -0.001848 0.000861 0.000000 0.020907 0.000000
# 6 0.000000 0.000000 0.000000 0.000442 0.000000 0.029086
#
#
# Mechanical properties :
#
#
# Convention : Reuss Voigt Hill
#
# Bulk Modulus (GPa) = 42.66958 50.97392 46.82175
# Shear Modulus (GPa) = 34.47428 37.68479 36.07954
#
# Velocity S-wave (km/s) = 4.03420 4.21787 4.12706
# Velocity P-wave (km/s) = 6.46864 6.91264 6.69432
#
# Compressibility (1/GPa) = 0.02343590
#
# Stress axis : x y z
#
# Youngs Moduli (GPa) = 92.12921 67.34526 97.87557
#
# Poissons Ratio (x) = 0.04635 0.47346
# Poissons Ratio (y) = 0.06341 0.07014
# Poissons Ratio (z) = 0.44566 0.04826
#
# Static dielectric constant tensor:
#      x y z
#    x 4.102120 0.000000 -0.134640 
#    y 0.000000 4.003430 0.000000 
#    z -0.134640 0.000000 4.205320 
# 
# 
# High freq. dielectric constant tensor:
#      x y z
#    x 1.839350 0.000000 -0.009570 
#    y 0.000000 1.831960 0.000000 
#    z -0.009570 0.000000 1.821190 
# 
# From -- ./inp_files/18162.got.cif
#   From: 2010.06.25/outbox.cif.g09.slc.cpg/sg11_10_cif.got.tgz:18162.got - 2010.06.27 23:14:04.
