data_PCOD8075236
_publ_section_title
;
Structure prediction by ZEFSAII (Michael W. Deem and Ramdas Pophale) SiO2 
 PCOD8075236
Probable space group: P 21/M
;
_chemical_formula_sum "Si O2"
_cell_formula_units_Z 24
_cell_length_a 16.284197
_cell_length_b 10.534580
_cell_length_c 16.488409
_cell_angle_alpha 90.000000
_cell_angle_beta 25.944921
_cell_angle_gamma 90.000000
_cell_volume 1237.505837
_symmetry_space_group_name_H-M "P 21/M"
_symmetry_group_IT_number 11
_symmetry_cell_setting 'monoclinic'
loop_
_space_group_symop_operation_xyz
x,y,z
-x,1/2+y,-z
-x,-y,-z
x,1/2-y,z
loop_
_atom_site_type_symbol
_atom_site_label
_atom_site_fract_x
_atom_site_fract_y
_atom_site_fract_z
Si Si1 0.137921 0.395463 0.646893
Si Si2 0.588436 0.892165 0.089217
Si Si3 0.067256 0.457128 0.311177
Si Si4 0.940105 0.104885 0.988803
Si Si5 0.755069 0.111329 0.707288
Si Si6 0.437383 0.893458 0.756667
O O1 0.093860 0.250000 0.668164
O O2 0.359171 0.421990 0.461492
O O3 0.063946 0.469027 0.634826
O O4 0.035426 0.437602 0.819885
O O5 0.533242 0.750000 0.171428
O O6 0.423739 0.951121 0.178922
O O7 0.619726 0.997501 0.129737
O O8 0.784344 0.871125 0.868296
O O9 0.194201 0.546399 0.254147
O O10 0.932196 0.377556 0.489367
O O11 0.001469 0.250000 0.958454
O O12 0.714807 0.100001 0.180221
O O13 0.000000 0.000000 0.000000
O O14 0.689245 0.250000 0.791066
O O15 0.431759 0.750000 0.800379
#
# Coordination Sequence:
#
# PCOD8075236 Si02
#       6
#     4   4   4   4   4   4
#     4  10  20  37  62  87 116 154 198 240 286 345
#     4  11  22  37  56  86 122 156 197 248 294 341
#     4  11  20  36  58  81 115 161 203 239 291 343
#     4  10  22  41  63  90 120 148 191 239 291 354
#     4  10  22  36  52  82 121 156 201 250 290 337
#     4  10  21  39  62  89 116 153 197 239 286 354
#
# _framework density 19.393848999999999
#
# number of rings (size 3 to 8) (size 9 to 14) (size 15 to 20)
#    0.000    1.667    3.333    1.500    0.000    2.000 
#    0.000    1.667    0.000    0.000    0.000    0.000 
#    0.000    0.000    0.000    0.000    0.000    0.000 
#
# Total GULP energy -297457.863532 kJ/mol
# GULP energy per Si atom -12394.077647 kJ/mol
# Density = 1.934971 g / cm^3
# Si number density = 19.393849 Si / 1000 Ang^3
#
#
#
# Elastic Constant Matrix: (Units=GPa)
#
#
# Indices 1 2 3 4 5 6 
#
# 1 103.0969 57.5602 22.1651 0.0000 -10.6350 0.0000
# 2 57.5602 96.7000 14.3060 0.0000 2.6463 0.0000
# 3 22.1651 14.3060 81.0062 0.0000 -17.8304 0.0000
# 4 0.0000 0.0000 0.0000 -107.6093 0.0000 -210.5581
# 5 -10.6350 2.6463 -17.8304 0.0000 30.5908 0.0000
# 6 0.0000 0.0000 0.0000 -210.5581 0.0000 -333.7798
#
#
#
# Elastic Compliance Matrix: (Units=1/GPa)
#
#
# Indices 1 2 3 4 5 6 
#
# 1 0.015784 -0.009326 -0.001476 0.000000 0.005434 0.000000
# 2 -0.009326 0.016273 -0.001544 0.000000 -0.005550 0.000000
# 3 -0.001476 -0.001544 0.014842 0.000000 0.008271 0.000000
# 4 0.000000 0.000000 0.000000 0.039656 0.000000 -0.025016
# 5 0.005434 -0.005550 0.008271 0.000000 0.039880 0.000000
# 6 0.000000 0.000000 0.000000 -0.025016 0.000000 0.012785
#
#
# Mechanical properties :
#
#
# Convention : Reuss Voigt Hill
#
# Bulk Modulus (GPa) = 45.02863 52.09618 48.56241
# Shear Modulus (GPa) = 29.18642 -69.70821 -20.26090
#
# Velocity S-wave (km/s) = 3.88355 -6.00179 -3.23570
# Velocity P-wave (km/s) = 6.58618 4.59436 3.33688
#
# Compressibility (1/GPa) = 0.02220809
#
# Stress axis : x y z
#
# Youngs Moduli (GPa) = 63.35467 61.45286 67.37740
#
# Poissons Ratio (x) = 0.57310 0.09944
# Poissons Ratio (y) = 0.59083 0.10400
# Poissons Ratio (z) = 0.09350 0.09486
#
# Static dielectric constant tensor:
#      x y z
#    x 3.432000 0.000000 -0.167330 
#    y 0.000000 3.422440 0.000000 
#    z -0.167330 0.000000 3.753400 
# 
# 
# High freq. dielectric constant tensor:
#      x y z
#    x 1.741720 0.000000 -0.021570 
#    y 0.000000 1.752540 0.000000 
#    z -0.021570 0.000000 1.765170 
# 
# From -- ./inp_files/52205.got.cif
#   From: 2010.06.25/outbox.cif.g09.slc.cpg/sg11_27_cif.got.tgz:52205.got - 2010.06.27 23:14:04.
