data_PCOD8075636
_publ_section_title
;
Structure prediction by ZEFSAII (Michael W. Deem and Ramdas Pophale) SiO2 
 PCOD8075636
Probable space group: P 21/M
;
_chemical_formula_sum "Si O2"
_cell_formula_units_Z 20
_cell_length_a 7.912883
_cell_length_b 14.312664
_cell_length_c 8.316232
_cell_angle_alpha 90.000000
_cell_angle_beta 50.641413
_cell_angle_gamma 90.000000
_cell_volume 728.231152
_symmetry_space_group_name_H-M "P 21/M"
_symmetry_group_IT_number 11
_symmetry_cell_setting 'monoclinic'
loop_
_space_group_symop_operation_xyz
x,y,z
-x,1/2+y,-z
-x,-y,-z
x,1/2-y,z
loop_
_atom_site_type_symbol
_atom_site_label
_atom_site_fract_x
_atom_site_fract_y
_atom_site_fract_z
Si Si1 0.002846 0.250000 0.847200
Si Si2 0.909173 0.250000 0.550420
Si Si3 0.616220 0.750000 0.859905
Si Si4 0.895839 0.447845 0.412085
Si Si5 0.361212 0.094653 0.619460
Si Si6 0.344614 0.435482 0.988834
Si Si7 0.357999 0.750000 0.704613
O O1 0.848182 0.250000 0.777913
O O2 0.145989 0.157219 0.748781
O O3 0.899937 0.250000 0.091985
O O4 0.170754 0.250000 0.381941
O O5 0.821223 0.342325 0.508997
O O6 0.596052 0.833003 0.994320
O O7 0.424637 0.750000 0.849627
O O8 0.085413 0.451566 0.164236
O O9 0.000000 0.500000 0.500000
O O10 0.684891 0.503798 0.467316
O O11 0.566871 0.155169 0.428728
O O12 0.412284 0.054321 0.764115
O O13 0.500000 0.500000 0.000000
#
# Coordination Sequence:
#
# PCOD8075636 Si02
#       7
#     2   2   2   4   4   4   2
#     4  11  22  43  83 114 148 213 259 316 400 464
#     4  10  20  42  75 109 155 204 258 320 401 466
#     4  10  20  44  71 104 153 201 247 327 384 455
#     4  11  22  45  77 114 154 209 255 327 398 462
#     4  11  23  49  77 117 163 199 262 331 382 471
#     4  11  26  46  77 112 156 208 259 318 389 469
#     4  11  24  45  83 115 152 200 266 327 393 467
#
# _framework density 27.463804
#
# number of rings (size 3 to 8) (size 9 to 14) (size 15 to 20)
#    0.000    1.200    4.000    3.000    2.800    0.000 
#    3.600    4.000    8.800    0.000    0.000    0.000 
#    0.000    0.000    0.000    0.000    0.000    0.000 
#
# Total GULP energy -248000.937007 kJ/mol
# GULP energy per Si atom -12400.046850 kJ/mol
# Density = 2.740130 g / cm^3
# Si number density = 27.463804 Si / 1000 Ang^3
#
#
#
# Elastic Constant Matrix: (Units=GPa)
#
#
# Indices 1 2 3 4 5 6 
#
# 1 125.8663 55.6386 53.1318 0.0000 38.5393 0.0000
# 2 55.6386 230.3666 76.5709 0.0000 16.0124 0.0000
# 3 53.1318 76.5709 213.0179 0.0000 15.9642 0.0000
# 4 0.0000 0.0000 0.0000 76.0210 0.0000 -2.8681
# 5 38.5393 16.0124 15.9642 0.0000 40.6241 0.0000
# 6 0.0000 0.0000 0.0000 -2.8681 0.0000 47.6459
#
#
#
# Elastic Compliance Matrix: (Units=1/GPa)
#
#
# Indices 1 2 3 4 5 6 
#
# 1 0.012733 -0.001752 -0.001744 0.000000 -0.010704 0.000000
# 2 -0.001752 0.005237 -0.001458 0.000000 0.000171 0.000000
# 3 -0.001744 -0.001458 0.005653 0.000000 0.000008 0.000000
# 4 0.000000 0.000000 0.000000 0.013184 0.000000 0.000794
# 5 -0.010704 0.000171 0.000008 0.000000 0.034700 0.000000
# 6 0.000000 0.000000 0.000000 0.000794 0.000000 0.021036
#
#
# Mechanical properties :
#
#
# Convention : Reuss Voigt Hill
#
# Bulk Modulus (GPa) = 72.91423 104.43704 88.67564
# Shear Modulus (GPa) = 46.71932 58.45219 52.58576
#
# Velocity S-wave (km/s) = 4.12894 4.61839 4.38051
# Velocity P-wave (km/s) = 7.02408 8.15776 7.61206
#
# Compressibility (1/GPa) = 0.01371474
#
# Stress axis : x y z
#
# Youngs Moduli (GPa) = 78.53747 190.95588 176.89495
#
# Poissons Ratio (x) = 0.33447 0.30852
# Poissons Ratio (y) = 0.13756 0.25797
# Poissons Ratio (z) = 0.13698 0.27847
#
# Static dielectric constant tensor:
#      x y z
#    x 5.212640 0.000000 -0.272380 
#    y 0.000000 5.402670 0.000000 
#    z -0.272380 0.000000 5.441930 
# 
# 
# High freq. dielectric constant tensor:
#      x y z
#    x 2.124520 0.000000 -0.005320 
#    y 0.000000 2.123530 0.000000 
#    z -0.005320 0.000000 2.134650 
# 
# From -- ./inp_files/13084.got.cif
#   From: 2010.06.25/outbox.cif.g09.slc.cpg/sg11_7_cif.got.tgz:13084.got - 2010.06.27 23:14:04.
