data_PCOD8075117
_publ_section_title
;
Structure prediction by ZEFSAII (Michael W. Deem and Ramdas Pophale) SiO2 
 PCOD8075117
Probable space group: P 21/M
;
_chemical_formula_sum "Si O2"
_cell_formula_units_Z 24
_cell_length_a 12.222129
_cell_length_b 8.995328
_cell_length_c 23.188343
_cell_angle_alpha 90.000000
_cell_angle_beta 152.288880
_cell_angle_gamma 90.000000
_cell_volume 1185.494365
_symmetry_space_group_name_H-M "P 21/M"
_symmetry_group_IT_number 11
_symmetry_cell_setting 'monoclinic'
loop_
_space_group_symop_operation_xyz
x,y,z
-x,1/2+y,-z
-x,-y,-z
x,1/2-y,z
loop_
_atom_site_type_symbol
_atom_site_label
_atom_site_fract_x
_atom_site_fract_y
_atom_site_fract_z
Si Si1 0.228275 0.423671 0.132863
Si Si2 0.150083 0.079946 0.301532
Si Si3 0.927907 0.924599 0.606922
Si Si4 0.426497 0.575547 0.336286
Si Si5 0.563488 0.423425 0.186849
Si Si6 0.639229 0.418685 0.015116
O O1 0.174842 0.250000 0.114205
O O2 0.284074 0.488728 0.221315
O O3 0.455644 0.454915 0.199235
O O4 0.000000 0.500000 0.000000
O O5 0.241895 0.250000 0.347829
O O6 0.104574 0.010748 0.343715
O O7 0.342426 0.977289 0.360060
O O8 0.914608 0.071417 0.154497
O O9 0.953438 0.750000 0.626357
O O10 0.704954 0.963529 0.462544
O O11 0.168132 0.985839 0.689986
O O12 0.380316 0.750000 0.307514
O O13 0.555342 0.250000 0.167620
O O14 0.403729 0.506702 0.066242
O O15 0.550229 0.250000 0.971899
O O16 0.500000 0.500000 0.000000
#
# Coordination Sequence:
#
# PCOD8075117 Si02
#       6
#     4   4   4   4   4   4
#     4  11  24  42  65  88 116 152 195 244 292 348
#     4  10  20  37  60  84 119 159 197 244 292 341
#     4   9  19  38  60  85 118 156 194 241 296 345
#     4  11  23  38  60  87 119 157 197 240 290 350
#     4  10  21  40  62  85 116 155 197 242 292 344
#     4  11  21  34  57  87 118 152 189 237 291 344
#
# _framework density 20.244719
#
# number of rings (size 3 to 8) (size 9 to 14) (size 15 to 20)
#    0.000    1.667    1.667    3.000    0.000    6.000 
#    0.000    2.500    0.000    0.000    0.000    0.000 
#    0.000    0.000    0.000    0.000    0.000    0.000 
#
# Total GULP energy -297652.813393 kJ/mol
# GULP energy per Si atom -12402.200558 kJ/mol
# Density = 2.019864 g / cm^3
# Si number density = 20.244719 Si / 1000 Ang^3
#
#
#
# Elastic Constant Matrix: (Units=GPa)
#
#
# Indices 1 2 3 4 5 6 
#
# 1 98.9499 39.9417 41.8069 0.0000 9.2730 0.0000
# 2 39.9417 81.1497 34.1834 0.0000 6.0261 0.0000
# 3 41.8069 34.1834 108.5242 0.0000 4.6252 0.0000
# 4 0.0000 0.0000 0.0000 27.2864 0.0000 -0.8843
# 5 9.2730 6.0261 4.6252 0.0000 30.6018 0.0000
# 6 0.0000 0.0000 0.0000 -0.8843 0.0000 28.1337
#
#
#
# Elastic Compliance Matrix: (Units=1/GPa)
#
#
# Indices 1 2 3 4 5 6 
#
# 1 0.013974 -0.005142 -0.003650 0.000000 -0.002670 0.000000
# 2 -0.005142 0.016240 -0.003084 0.000000 -0.001174 0.000000
# 3 -0.003650 -0.003084 0.011594 0.000000 -0.000039 0.000000
# 4 0.000000 0.000000 0.000000 0.036686 0.000000 0.001153
# 5 -0.002670 -0.001174 -0.000039 0.000000 0.033724 0.000000
# 6 0.000000 0.000000 0.000000 0.001153 0.000000 0.035581
#
#
# Mechanical properties :
#
#
# Convention : Reuss Voigt Hill
#
# Bulk Modulus (GPa) = 55.38562 57.83199 56.60880
# Shear Modulus (GPa) = 28.15789 28.71717 28.43753
#
# Velocity S-wave (km/s) = 3.73349 3.77039 3.75198
# Velocity P-wave (km/s) = 6.78253 6.89803 6.84053
#
# Compressibility (1/GPa) = 0.01805523
#
# Stress axis : x y z
#
# Youngs Moduli (GPa) = 71.56087 61.57482 86.25348
#
# Poissons Ratio (x) = 0.31664 0.31480
# Poissons Ratio (y) = 0.36799 0.26605
# Poissons Ratio (z) = 0.26118 0.18993
#
# Static dielectric constant tensor:
#      x y z
#    x 4.533830 0.000000 -2.210220 
#    y 0.000000 3.740800 0.000000 
#    z -2.210220 0.000000 11.462830 
# 
# 
# High freq. dielectric constant tensor:
#      x y z
#    x 1.795410 0.000000 0.006640 
#    y 0.000000 1.776870 0.000000 
#    z 0.006640 0.000000 1.799910 
# 
# From -- ./inp_files/44028.got.cif
#   From: 2010.06.25/outbox.cif.g09.slc.cpg/sg11_23_cif.got.tgz:44028.got - 2010.06.27 23:14:04.
