data_PCOD8075848
_publ_section_title
;
Structure prediction by ZEFSAII (Michael W. Deem and Ramdas Pophale) SiO2 
 PCOD8075848
Probable space group: P 21/M
;
_chemical_formula_sum "Si O2"
_cell_formula_units_Z 28
_cell_length_a 13.948752
_cell_length_b 9.056375
_cell_length_c 20.809057
_cell_angle_alpha 90.000000
_cell_angle_beta 145.091538
_cell_angle_gamma 90.000000
_cell_volume 1504.322146
_symmetry_space_group_name_H-M "P 21/M"
_symmetry_group_IT_number 11
_symmetry_cell_setting 'monoclinic'
loop_
_space_group_symop_operation_xyz
x,y,z
-x,1/2+y,-z
-x,-y,-z
x,1/2-y,z
loop_
_atom_site_type_symbol
_atom_site_label
_atom_site_fract_x
_atom_site_fract_y
_atom_site_fract_z
Si Si1 0.547380 0.579082 0.619934
Si Si2 0.831864 0.575347 0.385345
Si Si3 0.658971 0.918417 0.953698
Si Si4 0.892930 0.079497 0.171288
Si Si5 0.700022 0.080961 0.193190
Si Si6 0.522483 0.078494 0.274039
Si Si7 0.237559 0.577636 0.362388
O O1 0.589638 0.750000 0.631277
O O2 0.550865 0.538271 0.696840
O O3 0.365639 0.540518 0.490509
O O4 0.690936 0.483106 0.665450
O O5 0.848307 0.750000 0.399012
O O6 0.800005 0.528529 0.294542
O O7 0.683915 0.521319 0.350493
O O8 0.000000 0.500000 0.500000
O O9 0.716559 0.750000 0.992895
O O10 0.497247 0.951294 0.909068
O O11 0.618356 0.955643 0.857025
O O12 0.813027 0.019083 0.061376
O O13 0.934584 0.250000 0.184743
O O14 0.758043 0.050186 0.152940
O O15 0.063228 0.998264 0.283742
O O16 0.737280 0.250000 0.234565
O O17 0.577106 0.250000 0.300281
O O18 0.206664 0.750000 0.337750
#
# Coordination Sequence:
#
# PCOD8075848 Si02
#       7
#     4   4   4   4   4   4   4
#     4   9  19  38  61  82 108 141 177 222 279 332
#     4  11  22  34  51  78 112 146 183 225 266 321
#     4   9  18  35  56  79 111 145 181 225 273 327
#     4  11  22  35  55  81 112 145 186 231 272 322
#     4   9  20  37  54  77 109 147 185 227 273 319
#     4   9  19  37  59  81 108 143 181 223 276 329
#     4  10  21  36  56  84 112 140 180 225 274 331
#
# _framework density 18.613033000000001
#
# number of rings (size 3 to 8) (size 9 to 14) (size 15 to 20)
#    0.000    2.286    0.000    3.429    2.000    4.571 
#    0.000    0.714    0.000    0.000    0.000    0.000 
#    0.000    0.000    0.000    0.000    0.000    0.000 
#
# Total GULP energy -347273.995415 kJ/mol
# GULP energy per Si atom -12402.642693 kJ/mol
# Density = 1.857067 g / cm^3
# Si number density = 18.613033 Si / 1000 Ang^3
#
#
#
# Elastic Constant Matrix: (Units=GPa)
#
#
# Indices 1 2 3 4 5 6 
#
# 1 86.3334 32.4659 37.0090 0.0000 -17.0104 0.0000
# 2 32.4659 93.2225 34.6233 0.0000 -1.5173 0.0000
# 3 37.0090 34.6233 66.9516 0.0000 -3.5992 0.0000
# 4 0.0000 0.0000 0.0000 34.2353 0.0000 3.2191
# 5 -17.0104 -1.5173 -3.5992 0.0000 23.5544 0.0000
# 6 0.0000 0.0000 0.0000 3.2191 0.0000 30.5618
#
#
#
# Elastic Compliance Matrix: (Units=1/GPa)
#
#
# Indices 1 2 3 4 5 6 
#
# 1 0.018594 -0.003345 -0.007903 0.000000 0.012005 0.000000
# 2 -0.003345 0.013880 -0.005455 0.000000 -0.002355 0.000000
# 3 -0.007903 -0.005455 0.021981 0.000000 -0.002700 0.000000
# 4 0.000000 0.000000 0.000000 0.029502 0.000000 -0.003107
# 5 0.012005 -0.002355 -0.002700 0.000000 0.050560 0.000000
# 6 0.000000 0.000000 0.000000 -0.003107 0.000000 0.033048
#
#
# Mechanical properties :
#
#
# Convention : Reuss Voigt Hill
#
# Bulk Modulus (GPa) = 47.51096 50.52267 49.01682
# Shear Modulus (GPa) = 24.03986 27.16426 25.60206
#
# Velocity S-wave (km/s) = 3.59773 3.82438 3.71279
# Velocity P-wave (km/s) = 6.54517 6.83402 6.69115
#
# Compressibility (1/GPa) = 0.02104777
#
# Stress axis : x y z
#
# Youngs Moduli (GPa) = 53.78026 72.04731 45.49416
#
# Poissons Ratio (x) = 0.24100 0.35955
# Poissons Ratio (y) = 0.17989 0.24819
# Poissons Ratio (z) = 0.42503 0.39304
#
# Static dielectric constant tensor:
#      x y z
#    x 2.957990 0.000000 0.169950 
#    y 0.000000 3.433440 0.000000 
#    z 0.169950 0.000000 3.191530 
# 
# 
# High freq. dielectric constant tensor:
#      x y z
#    x 1.713090 0.000000 -0.006770 
#    y 0.000000 1.725330 0.000000 
#    z -0.006770 0.000000 1.721220 
# 
# From -- ./inp_files/37948.got.cif
#   From: 2010.06.25/outbox.cif.g09.slc.cpg/sg11_19_cif.got.tgz:37948.got - 2010.06.27 23:14:04.
