data_PCOD8075170
_publ_section_title
;
Structure prediction by ZEFSAII (Michael W. Deem and Ramdas Pophale) SiO2 
 PCOD8075170
Probable space group: P 21/M
;
_chemical_formula_sum "Si O2"
_cell_formula_units_Z 28
_cell_length_a 6.834070
_cell_length_b 20.502202
_cell_length_c 10.284579
_cell_angle_alpha 90.000000
_cell_angle_beta 111.874013
_cell_angle_gamma 90.000000
_cell_volume 1337.263283
_symmetry_space_group_name_H-M "P 21/M"
_symmetry_group_IT_number 11
_symmetry_cell_setting 'monoclinic'
loop_
_space_group_symop_operation_xyz
x,y,z
-x,1/2+y,-z
-x,-y,-z
x,1/2-y,z
loop_
_atom_site_type_symbol
_atom_site_label
_atom_site_fract_x
_atom_site_fract_y
_atom_site_fract_z
Si Si1 0.632584 0.826473 0.940004
Si Si2 0.784580 0.825797 0.475967
Si Si3 0.120542 0.564976 0.574197
Si Si4 0.996874 0.969525 0.811220
Si Si5 0.949614 0.100064 0.913587
Si Si6 0.575605 0.603647 0.662190
Si Si7 0.457524 0.674966 0.171177
O O1 0.622475 0.750000 0.919336
O O2 0.536038 0.857960 0.786732
O O3 0.874804 0.845823 0.019594
O O4 0.504691 0.848800 0.036043
O O5 0.848514 0.750000 0.509968
O O6 0.646349 0.847298 0.565936
O O7 0.657779 0.836648 0.311927
O O8 0.993917 0.868948 0.510811
O O9 0.353452 0.569559 0.569060
O O10 0.000000 0.500000 0.500000
O O11 0.144826 0.558715 0.735349
O O12 0.752055 0.951303 0.726898
O O13 0.091681 0.940186 0.965509
O O14 0.012360 0.048344 0.817195
O O15 0.735601 0.134768 0.817674
O O16 0.391177 0.750000 0.154277
#
# Coordination Sequence:
#
# PCOD8075170 Si02
#       7
#     4   4   4   4   4   4   4
#     4  10  21  37  60  88 113 149 202 246 294 360
#     4  10  24  42  60  90 124 158 204 250 299 364
#     4  11  25  39  63  91 122 161 204 251 299 354
#     4   9  22  38  57  91 115 152 200 241 294 357
#     4  10  20  37  61  82 120 154 189 244 301 356
#     4  10  22  41  62  85 117 160 199 245 303 352
#     4  10  22  37  58  87 118 154 194 246 300 351
#
# _framework density 20.938286999999999
#
# number of rings (size 3 to 8) (size 9 to 14) (size 15 to 20)
#    0.000    2.000    0.000    1.714    6.000    2.286 
#    0.000   10.714    0.000    0.000    0.000    0.000 
#    0.000    0.000    0.000    0.000    0.000    0.000 
#
# Total GULP energy -347237.442006 kJ/mol
# GULP energy per Si atom -12401.337214 kJ/mol
# Density = 2.089063 g / cm^3
# Si number density = 20.938287 Si / 1000 Ang^3
#
#
#
# Elastic Constant Matrix: (Units=GPa)
#
#
# Indices 1 2 3 4 5 6 
#
# 1 61.3272 14.3995 10.4692 0.0000 5.4350 0.0000
# 2 14.3995 57.5100 32.5030 0.0000 -2.1909 0.0000
# 3 10.4692 32.5030 62.6063 0.0000 0.7420 0.0000
# 4 0.0000 0.0000 0.0000 31.1372 0.0000 -1.3922
# 5 5.4350 -2.1909 0.7420 0.0000 19.7821 0.0000
# 6 0.0000 0.0000 0.0000 -1.3922 0.0000 25.4761
#
#
#
# Elastic Compliance Matrix: (Units=1/GPa)
#
#
# Indices 1 2 3 4 5 6 
#
# 1 0.017909 -0.004291 -0.000703 0.000000 -0.005369 0.000000
# 2 -0.004291 0.025842 -0.012752 0.000000 0.004519 0.000000
# 3 -0.000703 -0.012752 0.022736 0.000000 -0.002072 0.000000
# 4 0.000000 0.000000 0.000000 0.032195 0.000000 0.001759
# 5 -0.005369 0.004519 -0.002072 0.000000 0.052604 0.000000
# 6 0.000000 0.000000 0.000000 0.001759 0.000000 0.039349
#
#
# Mechanical properties :
#
#
# Convention : Reuss Voigt Hill
#
# Bulk Modulus (GPa) = 32.26500 32.90965 32.58732
# Shear Modulus (GPa) = 21.14527 23.55054 22.34790
#
# Velocity S-wave (km/s) = 3.18132 3.35738 3.27053
# Velocity P-wave (km/s) = 5.37935 5.54806 5.46435
#
# Compressibility (1/GPa) = 0.03099334
#
# Stress axis : x y z
#
# Youngs Moduli (GPa) = 55.83635 38.69655 43.98399
#
# Poissons Ratio (x) = 0.16606 0.03094
# Poissons Ratio (y) = 0.23961 0.56090
# Poissons Ratio (z) = 0.03927 0.49347
#
# Static dielectric constant tensor:
#      x y z
#    x 3.643190 0.000000 -0.226080 
#    y 0.000000 3.860830 0.000000 
#    z -0.226080 0.000000 3.937020 
# 
# 
# High freq. dielectric constant tensor:
#      x y z
#    x 1.811180 0.000000 -0.005910 
#    y 0.000000 1.826190 0.000000 
#    z -0.005910 0.000000 1.829260 
# 
# From -- ./inp_files/29977.got.cif
#   From: 2010.06.25/outbox.cif.g09.slc.cpg/sg11_15_cif.got.tgz:29977.got - 2010.06.27 23:14:04.
