data_PCOD8075622
_publ_section_title
;
Structure prediction by ZEFSAII (Michael W. Deem and Ramdas Pophale) SiO2 
 PCOD8075622
Probable space group: P 21/M
;
_chemical_formula_sum "Si O2"
_cell_formula_units_Z 32
_cell_length_a 15.437343
_cell_length_b 18.298127
_cell_length_c 12.121972
_cell_angle_alpha 90.000000
_cell_angle_beta 26.648894
_cell_angle_gamma 90.000000
_cell_volume 1535.805365
_symmetry_space_group_name_H-M "P 21/M"
_symmetry_group_IT_number 11
_symmetry_cell_setting 'monoclinic'
loop_
_space_group_symop_operation_xyz
x,y,z
-x,1/2+y,-z
-x,-y,-z
x,1/2-y,z
loop_
_atom_site_type_symbol
_atom_site_label
_atom_site_fract_x
_atom_site_fract_y
_atom_site_fract_z
Si Si1 0.879112 0.435195 0.500975
Si Si2 0.407542 0.831667 0.298830
Si Si3 0.796923 0.492612 0.172385
Si Si4 0.454089 0.051847 0.713396
Si Si5 0.819201 0.669721 0.736111
Si Si6 0.338312 0.937201 0.029619
Si Si7 0.966373 0.419833 0.788734
Si Si8 0.300147 0.333089 0.366488
O O1 0.763390 0.378286 0.558690
O O2 0.938366 0.502761 0.357384
O O3 0.072740 0.394406 0.321914
O O4 0.749638 0.463061 0.752277
O O5 0.331141 0.750000 0.409075
O O6 0.481037 0.866581 0.330160
O O7 0.589173 0.831355 0.011823
O O8 0.726624 0.556691 0.166549
O O9 0.634539 0.486276 0.448904
O O10 0.000000 0.500000 0.000000
O O11 0.825756 0.424973 0.055375
O O12 0.406763 0.007297 0.880383
O O13 0.901415 0.750000 0.677589
O O14 0.834257 0.659126 0.588631
O O15 0.508487 0.880545 0.857152
O O16 0.171386 0.892987 0.154357
O O17 0.140260 0.366688 0.631581
O O18 0.355910 0.250000 0.332343
#
# Coordination Sequence:
#
# PCOD8075622 Si02
#       8
#     4   4   4   4   4   4   4   4
#     4  12  22  36  59  90 126 159 202 246 297 362
#     4  11  23  39  59  89 127 166 201 242 303 368
#     4  10  20  41  66  87 114 149 197 254 311 349
#     4  10  23  39  62  91 117 153 205 257 298 357
#     4  10  21  35  52  80 123 165 197 234 286 356
#     4  11  22  37  58  88 121 159 200 246 300 356
#     4  11  24  38  61  91 116 153 201 258 304 353
#     4  11  23  37  54  82 120 162 198 234 294 364
#
# _framework density 20.835972000000002
#
# number of rings (size 3 to 8) (size 9 to 14) (size 15 to 20)
#    0.000    1.250    2.500    4.500    1.750    2.000 
#    0.000    0.625    0.000    9.750    0.000    0.000 
#    0.000    0.000    0.000    0.000    0.000    0.000 
#
# Total GULP energy -396453.419479 kJ/mol
# GULP energy per Si atom -12389.169359 kJ/mol
# Density = 2.078855 g / cm^3
# Si number density = 20.835972 Si / 1000 Ang^3
#
#
#
# Elastic Constant Matrix: (Units=GPa)
#
#
# Indices 1 2 3 4 5 6 
#
# 1 98.9449 38.4500 23.2849 0.0000 -13.7204 0.0000
# 2 38.4500 85.6679 21.5930 0.0000 -8.1285 0.0000
# 3 23.2849 21.5930 72.1823 0.0000 -10.1001 0.0000
# 4 0.0000 0.0000 0.0000 12.5406 0.0000 -2.9721
# 5 -13.7204 -8.1285 -10.1001 0.0000 37.5562 0.0000
# 6 0.0000 0.0000 0.0000 -2.9721 0.0000 18.8781
#
#
#
# Elastic Compliance Matrix: (Units=1/GPa)
#
#
# Indices 1 2 3 4 5 6 
#
# 1 0.012998 -0.004969 -0.002278 0.000000 0.003060 0.000000
# 2 -0.004969 0.014641 -0.002689 0.000000 0.000630 0.000000
# 3 -0.002278 -0.002689 0.015789 0.000000 0.002832 0.000000
# 4 0.000000 0.000000 0.000000 0.082831 0.000000 0.013041
# 5 0.003060 0.000630 0.002832 0.000000 0.028643 0.000000
# 6 0.000000 0.000000 0.000000 0.013041 0.000000 0.055025
#
#
# Mechanical properties :
#
#
# Convention : Reuss Voigt Hill
#
# Bulk Modulus (GPa) = 42.45178 47.05011 44.75094
# Shear Modulus (GPa) = 21.03921 25.35946 23.19933
#
# Velocity S-wave (km/s) = 3.18111 3.49248 3.34043
# Velocity P-wave (km/s) = 5.82333 6.23646 6.03343
#
# Compressibility (1/GPa) = 0.02355614
#
# Stress axis : x y z
#
# Youngs Moduli (GPa) = 76.93348 68.30226 63.33416
#
# Poissons Ratio (x) = 0.33942 0.14429
# Poissons Ratio (y) = 0.38231 0.17027
# Poissons Ratio (z) = 0.17527 0.18363
#
# Static dielectric constant tensor:
#      x y z
#    x 3.999140 0.000000 0.008740 
#    y 0.000000 3.683530 0.000000 
#    z 0.008740 0.000000 4.110190 
# 
# 
# High freq. dielectric constant tensor:
#      x y z
#    x 1.815410 0.000000 -0.015910 
#    y 0.000000 1.788380 0.000000 
#    z -0.015910 0.000000 1.832060 
# 
# From -- ./inp_files/39980.got.cif
#   From: 2010.06.25/outbox.cif.g09.slc.cpg/sg11_20_cif.got.tgz:39980.got - 2010.06.27 23:14:04.
