data_PCOD8075288
_publ_section_title
;
Structure prediction by ZEFSAII (Michael W. Deem and Ramdas Pophale) SiO2 
 PCOD8075288
Probable space group: P 21/M
;
_chemical_formula_sum "Si O2"
_cell_formula_units_Z 32
_cell_length_a 11.971941
_cell_length_b 8.738520
_cell_length_c 21.670514
_cell_angle_alpha 90.000000
_cell_angle_beta 45.525316
_cell_angle_gamma 90.000000
_cell_volume 1617.715725
_symmetry_space_group_name_H-M "P 21/M"
_symmetry_group_IT_number 11
_symmetry_cell_setting 'monoclinic'
loop_
_space_group_symop_operation_xyz
x,y,z
-x,1/2+y,-z
-x,-y,-z
x,1/2-y,z
loop_
_atom_site_type_symbol
_atom_site_label
_atom_site_fract_x
_atom_site_fract_y
_atom_site_fract_z
Si Si1 0.941279 0.069435 0.256076
Si Si2 0.929062 0.073804 0.467052
Si Si3 0.432850 0.428384 0.226847
Si Si4 0.246937 0.072391 0.913185
Si Si5 0.386178 0.430076 0.594571
Si Si6 0.043723 0.571647 0.891282
Si Si7 0.128929 0.569500 0.285667
Si Si8 0.579241 0.424228 0.637597
O O1 0.938012 0.250000 0.265248
O O2 0.958382 0.019876 0.178533
O O3 0.784776 0.001482 0.346705
O O4 0.091977 0.002086 0.233104
O O5 0.982353 0.250000 0.442559
O O6 0.743208 0.056772 0.539183
O O7 0.000000 0.000000 0.500000
O O8 0.992113 0.983876 0.384084
O O9 0.405756 0.250000 0.228008
O O10 0.596790 0.477616 0.133213
O O11 0.297087 0.516943 0.244079
O O12 0.431833 0.465149 0.299844
O O13 0.289667 0.250000 0.894198
O O14 0.177103 0.024865 0.873959
O O15 0.125320 0.033248 0.014465
O O16 0.500000 0.500000 0.500000
O O17 0.378168 0.250000 0.586920
O O18 0.446676 0.470103 0.639883
O O19 0.083960 0.750000 0.883854
O O20 0.128334 0.750000 0.281124
O O21 0.558685 0.250000 0.669027
#
# Coordination Sequence:
#
# PCOD8075288 Si02
#       8
#     4   4   4   4   4   4   4   4
#     4  11  23  41  62  86 119 157 200 244 294 356
#     4  11  21  36  58  85 117 155 198 244 293 346
#     4  12  24  38  59  87 118 153 196 244 297 352
#     4  10  20  37  63  93 125 154 189 240 295 352
#     4  11  23  39  59  86 119 157 199 243 294 346
#     4   9  20  39  64  93 122 156 194 237 292 354
#     4  12  25  41  60  84 117 157 202 248 298 354
#     4  10  22  38  58  84 117 153 195 244 295 350
#
# _framework density 19.780978999999999
#
# number of rings (size 3 to 8) (size 9 to 14) (size 15 to 20)
#    0.000    1.250    1.250    5.250    0.000    6.000 
#    0.000    0.625    0.000    0.000    0.000    0.000 
#    0.000    0.000    0.000    0.000    0.000    0.000 
#
# Total GULP energy -397005.142489 kJ/mol
# GULP energy per Si atom -12406.410703 kJ/mol
# Density = 1.973596 g / cm^3
# Si number density = 19.780979 Si / 1000 Ang^3
#
#
#
# Elastic Constant Matrix: (Units=GPa)
#
#
# Indices 1 2 3 4 5 6 
#
# 1 100.2925 41.6265 41.5307 0.0000 1.1552 0.0000
# 2 41.6265 102.5334 34.7069 0.0000 8.6095 0.0000
# 3 41.5307 34.7069 94.2298 0.0000 3.3673 0.0000
# 4 0.0000 0.0000 0.0000 31.3452 0.0000 -0.4385
# 5 1.1552 8.6095 3.3673 0.0000 29.9654 0.0000
# 6 0.0000 0.0000 0.0000 -0.4385 0.0000 35.6507
#
#
#
# Elastic Compliance Matrix: (Units=1/GPa)
#
#
# Indices 1 2 3 4 5 6 
#
# 1 0.013504 -0.004056 -0.004499 0.000000 0.001150 0.000000
# 2 -0.004056 0.012591 -0.002737 0.000000 -0.003154 0.000000
# 3 -0.004499 -0.002737 0.013624 0.000000 -0.000571 0.000000
# 4 0.000000 0.000000 0.000000 0.031908 0.000000 0.000393
# 5 0.001150 -0.003154 -0.000571 0.000000 0.034298 0.000000
# 6 0.000000 0.000000 0.000000 0.000393 0.000000 0.028055
#
#
# Mechanical properties :
#
#
# Convention : Reuss Voigt Hill
#
# Bulk Modulus (GPa) = 58.36206 59.19820 58.78013
# Shear Modulus (GPa) = 30.81184 31.33837 31.07511
#
# Velocity S-wave (km/s) = 3.95099 3.98460 3.96783
# Velocity P-wave (km/s) = 7.09802 7.15271 7.12542
#
# Compressibility (1/GPa) = 0.01713442
#
# Stress axis : x y z
#
# Youngs Moduli (GPa) = 74.05181 79.42234 73.40120
#
# Poissons Ratio (x) = 0.32215 0.33023
# Poissons Ratio (y) = 0.30036 0.20091
# Poissons Ratio (z) = 0.33315 0.21739
#
# Static dielectric constant tensor:
#      x y z
#    x 3.681040 0.000000 -0.078090 
#    y 0.000000 3.665220 0.000000 
#    z -0.078090 0.000000 3.751870 
# 
# 
# High freq. dielectric constant tensor:
#      x y z
#    x 1.778430 0.000000 -0.005060 
#    y 0.000000 1.781600 0.000000 
#    z -0.005060 0.000000 1.768550 
# 
# From -- ./inp_files/64365.got.cif
#   From: 2010.06.25/outbox.cif.g09.slc.cpg/sg11_33_cif.got.tgz:64365.got - 2010.06.27 23:14:04.
