data_PCOD8075251
_publ_section_title
;
Structure prediction by ZEFSAII (Michael W. Deem and Ramdas Pophale) SiO2 
 PCOD8075251
Probable space group: P 21/M
;
_chemical_formula_sum "Si O2"
_cell_formula_units_Z 28
_cell_length_a 9.541468
_cell_length_b 8.702847
_cell_length_c 26.872631
_cell_angle_alpha 90.000000
_cell_angle_beta 41.876609
_cell_angle_gamma 90.000000
_cell_volume 1489.555315
_symmetry_space_group_name_H-M "P 21/M"
_symmetry_group_IT_number 11
_symmetry_cell_setting 'monoclinic'
loop_
_space_group_symop_operation_xyz
x,y,z
-x,1/2+y,-z
-x,-y,-z
x,1/2-y,z
loop_
_atom_site_type_symbol
_atom_site_label
_atom_site_fract_x
_atom_site_fract_y
_atom_site_fract_z
Si Si1 0.717906 0.079012 0.450426
Si Si2 0.336862 0.933808 0.081805
Si Si3 0.882339 0.073763 0.198563
Si Si4 0.470264 0.932725 0.263031
Si Si5 0.056109 0.931617 0.431442
Si Si6 0.046970 0.916085 0.711035
Si Si7 0.359202 0.574985 0.185830
O O1 0.698208 0.250000 0.479285
O O2 0.788954 0.090887 0.375495
O O3 0.500000 0.000000 0.500000
O O4 0.871405 0.977400 0.443001
O O5 0.329225 0.750000 0.082173
O O6 0.413951 0.993616 0.116465
O O7 0.107968 0.997756 0.127905
O O8 0.500000 0.000000 0.000000
O O9 0.886568 0.250000 0.179077
O O10 0.827057 0.058544 0.271252
O O11 0.697708 0.983249 0.220480
O O12 0.454156 0.750000 0.265455
O O13 0.279253 0.993006 0.349271
O O14 0.455349 0.002096 0.210337
O O15 0.063921 0.750000 0.434826
O O16 0.000000 0.000000 0.500000
O O17 0.926002 0.750000 0.746424
O O18 0.890776 0.056842 0.742764
O O19 0.427273 0.750000 0.167744
#
# Coordination Sequence:
#
# PCOD8075251 Si02
#       7
#     4   4   4   4   4   4   4
#     4  11  23  38  56  81 111 149 194 243 296 349
#     4  10  20  37  62  89 118 150 184 230 281 338
#     4  10  21  36  57  86 116 149 189 232 280 337
#     4  10  21  38  58  83 114 150 191 236 286 342
#     4  11  24  41  59  82 115 155 198 247 300 352
#     4   9  19  35  54  78 107 141 185 235 282 332
#     4   9  18  35  59  83 109 145 186 227 277 334
#
# _framework density 18.797556
#
# number of rings (size 3 to 8) (size 9 to 14) (size 15 to 20)
#    0.000    2.000    1.429    1.714    2.000    3.429 
#    0.000    0.714    0.000    0.000    0.000    0.000 
#    0.000    0.000    0.000    0.000    0.000    0.000 
#
# Total GULP energy -346888.687437 kJ/mol
# GULP energy per Si atom -12388.881694 kJ/mol
# Density = 1.875477 g / cm^3
# Si number density = 18.797556 Si / 1000 Ang^3
#
#
#
# Elastic Constant Matrix: (Units=GPa)
#
#
# Indices 1 2 3 4 5 6 
#
# 1 141.7869 24.5216 81.0195 0.0000 4.1822 0.0000
# 2 24.5216 43.3984 34.1733 0.0000 6.2608 0.0000
# 3 81.0195 34.1733 127.6711 0.0000 9.6278 0.0000
# 4 0.0000 0.0000 0.0000 27.8836 0.0000 -3.8438
# 5 4.1822 6.2608 9.6278 0.0000 26.0100 0.0000
# 6 0.0000 0.0000 0.0000 -3.8438 0.0000 28.9871
#
#
#
# Elastic Compliance Matrix: (Units=1/GPa)
#
#
# Indices 1 2 3 4 5 6 
#
# 1 0.011119 -0.001028 -0.006856 0.000000 0.000997 0.000000
# 2 -0.001028 0.029756 -0.006980 0.000000 -0.004414 0.000000
# 3 -0.006856 -0.006980 0.014239 0.000000 -0.002488 0.000000
# 4 0.000000 0.000000 0.000000 0.036531 0.000000 0.004844
# 5 0.000997 -0.004414 -0.002488 0.000000 0.040270 0.000000
# 6 0.000000 0.000000 0.000000 0.004844 0.000000 0.035141
#
#
# Mechanical properties :
#
#
# Convention : Reuss Voigt Hill
#
# Bulk Modulus (GPa) = 39.39012 65.80946 52.59979
# Shear Modulus (GPa) = 24.36116 28.11892 26.24004
#
# Velocity S-wave (km/s) = 3.60387 3.87186 3.74027
# Velocity P-wave (km/s) = 6.19012 7.42118 6.83343
#
# Compressibility (1/GPa) = 0.02538708
#
# Stress axis : x y z
#
# Youngs Moduli (GPa) = 89.93730 33.60701 70.22799
#
# Poissons Ratio (x) = 0.03454 0.48149
# Poissons Ratio (y) = 0.09243 0.49016
# Poissons Ratio (z) = 0.61662 0.23456
#
# Static dielectric constant tensor:
#      x y z
#    x 3.536700 0.000000 0.329590 
#    y 0.000000 3.693040 0.000000 
#    z 0.329590 0.000000 3.482880 
# 
# 
# High freq. dielectric constant tensor:
#      x y z
#    x 1.736100 0.000000 0.015050 
#    y 0.000000 1.731780 0.000000 
#    z 0.015050 0.000000 1.721820 
# 
# From -- ./inp_files/28469.got.cif
#   From: 2010.06.25/outbox.cif.g09.slc.cpg/sg11_15_cif.got.tgz:28469.got - 2010.06.27 23:14:04.
