data_PCOD8075112
_publ_section_title
;
Structure prediction by ZEFSAII (Michael W. Deem and Ramdas Pophale) SiO2 
 PCOD8075112
Probable space group: P 21/M
;
_chemical_formula_sum "Si O2"
_cell_formula_units_Z 24
_cell_length_a 14.280072
_cell_length_b 14.257760
_cell_length_c 9.119120
_cell_angle_alpha 90.000000
_cell_angle_beta 41.837994
_cell_angle_gamma 90.000000
_cell_volume 1238.448133
_symmetry_space_group_name_H-M "P 21/M"
_symmetry_group_IT_number 11
_symmetry_cell_setting 'monoclinic'
loop_
_space_group_symop_operation_xyz
x,y,z
-x,1/2+y,-z
-x,-y,-z
x,1/2-y,z
loop_
_atom_site_type_symbol
_atom_site_label
_atom_site_fract_x
_atom_site_fract_y
_atom_site_fract_z
Si Si1 0.079845 0.360355 0.034773
Si Si2 0.274268 0.361208 0.067535
Si Si3 0.233764 0.641742 0.557922
Si Si4 0.312178 0.147855 0.552563
Si Si5 0.503424 0.099856 0.572219
Si Si6 0.650496 0.518498 0.758712
O O1 0.096700 0.250000 0.003465
O O2 0.144315 0.391398 0.116011
O O3 0.919288 0.392535 0.208544
O O4 0.173461 0.399224 0.789817
O O5 0.277754 0.250000 0.097310
O O6 0.255801 0.419790 0.239287
O O7 0.419970 0.394083 0.823242
O O8 0.229202 0.750000 0.511672
O O9 0.337685 0.629806 0.575336
O O10 0.275776 0.580170 0.366836
O O11 0.280594 0.250000 0.518105
O O12 0.429408 0.167671 0.541292
O O13 0.370250 0.075620 0.366937
O O14 0.500000 0.000000 0.500000
O O15 0.500000 0.500000 0.000000
#
# Coordination Sequence:
#
# PCOD8075112 Si02
#       6
#     4   4   4   4   4   4
#     4   8  19  38  61  85 109 147 195 232 282 346
#     4  10  20  38  60  82 116 155 187 230 287 342
#     4  11  22  38  60  84 117 151 186 241 293 328
#     4  10  20  37  60  84 111 147 191 237 280 335
#     4  11  19  36  57  86 112 147 192 233 278 343
#     4  12  23  35  56  90 116 148 196 234 273 346
#
# _framework density 19.379090999999999
#
# number of rings (size 3 to 8) (size 9 to 14) (size 15 to 20)
#    0.000    1.667    3.333    3.000    0.000    2.000 
#    0.000    0.000    3.667    0.000    0.000    0.000 
#    0.000    0.000    0.000    0.000    0.000    0.000 
#
# Total GULP energy -297498.008997 kJ/mol
# GULP energy per Si atom -12395.750375 kJ/mol
# Density = 1.933498 g / cm^3
# Si number density = 19.379091 Si / 1000 Ang^3
#
#
#
# Elastic Constant Matrix: (Units=GPa)
#
#
# Indices 1 2 3 4 5 6 
#
# 1 108.4642 26.1600 70.5422 0.0000 -14.7947 0.0000
# 2 26.1600 104.8587 49.9344 0.0000 4.1075 0.0000
# 3 70.5422 49.9344 130.7403 0.0000 -9.2532 0.0000
# 4 0.0000 0.0000 0.0000 29.9898 0.0000 10.4369
# 5 -14.7947 4.1075 -9.2532 0.0000 39.8894 0.0000
# 6 0.0000 0.0000 0.0000 10.4369 0.0000 30.4125
#
#
#
# Elastic Compliance Matrix: (Units=1/GPa)
#
#
# Indices 1 2 3 4 5 6 
#
# 1 0.014719 -0.000197 -0.007604 0.000000 0.003716 0.000000
# 2 -0.000197 0.011865 -0.004593 0.000000 -0.002360 0.000000
# 3 -0.007604 -0.004593 0.013562 0.000000 0.000799 0.000000
# 4 0.000000 0.000000 0.000000 0.037867 0.000000 -0.012995
# 5 0.003716 -0.002360 0.000799 0.000000 0.026876 0.000000
# 6 0.000000 0.000000 0.000000 -0.012995 0.000000 0.037341
#
#
# Mechanical properties :
#
#
# Convention : Reuss Voigt Hill
#
# Bulk Modulus (GPa) = 65.10330 70.81517 67.95923
# Shear Modulus (GPa) = 29.04668 33.22009 31.13339
#
# Velocity S-wave (km/s) = 3.87572 4.14481 4.01252
# Velocity P-wave (km/s) = 7.32774 7.71539 7.52407
#
# Compressibility (1/GPa) = 0.01536020
#
# Stress axis : x y z
#
# Youngs Moduli (GPa) = 67.93855 84.27994 73.73501
#
# Poissons Ratio (x) = 0.01658 0.56066
# Poissons Ratio (y) = 0.01336 0.33864
# Poissons Ratio (z) = 0.51659 0.38707
#
# Static dielectric constant tensor:
#      x y z
#    x 3.739120 0.000000 -0.060100 
#    y 0.000000 3.616830 0.000000 
#    z -0.060100 0.000000 3.604910 
# 
# 
# High freq. dielectric constant tensor:
#      x y z
#    x 1.750390 0.000000 -0.003140 
#    y 0.000000 1.760930 0.000000 
#    z -0.003140 0.000000 1.741470 
# 
# From -- ./inp_files/21980.got.cif
#   From: 2010.06.25/outbox.cif.g09.slc.cpg/sg11_11_cif.got.tgz:21980.got - 2010.06.27 23:14:04.
