data_PCOD8075113
_publ_section_title
;
Structure prediction by ZEFSAII (Michael W. Deem and Ramdas Pophale) SiO2 
 PCOD8075113
Probable space group: P 21/M
;
_chemical_formula_sum "Si O2"
_cell_formula_units_Z 32
_cell_length_a 12.210997
_cell_length_b 8.933989
_cell_length_c 15.006513
_cell_angle_alpha 90.000000
_cell_angle_beta 88.074750
_cell_angle_gamma 90.000000
_cell_volume 1636.180082
_symmetry_space_group_name_H-M "P 21/M"
_symmetry_group_IT_number 11
_symmetry_cell_setting 'monoclinic'
loop_
_space_group_symop_operation_xyz
x,y,z
-x,1/2+y,-z
-x,-y,-z
x,1/2-y,z
loop_
_atom_site_type_symbol
_atom_site_label
_atom_site_fract_x
_atom_site_fract_y
_atom_site_fract_z
Si Si1 0.036459 0.577870 0.909326
Si Si2 0.484608 0.576250 0.632538
Si Si3 0.327930 0.575409 0.473202
Si Si4 0.099813 0.071719 0.444393
Si Si5 0.698326 0.422197 0.862430
Si Si6 0.719340 0.078369 0.063950
Si Si7 0.454980 0.076752 0.814100
Si Si8 0.115694 0.073352 0.242331
O O1 0.004679 0.750000 0.921660
O O2 0.165446 0.557497 0.889189
O O3 0.974394 0.509436 0.824870
O O4 0.000000 0.500000 0.000000
O O5 0.515766 0.750000 0.634719
O O6 0.389811 0.544195 0.563861
O O7 0.595586 0.485078 0.608661
O O8 0.436283 0.522765 0.727386
O O9 0.305416 0.750000 0.457518
O O10 0.213960 0.487747 0.480852
O O11 0.096328 0.250000 0.454117
O O12 0.087931 0.017910 0.342368
O O13 0.000000 0.000000 0.500000
O O14 0.725242 0.250000 0.843409
O O15 0.571279 0.458816 0.854678
O O16 0.764471 0.517101 0.788349
O O17 0.734203 0.468760 0.960733
O O18 0.677591 0.250000 0.071445
O O19 0.634239 0.966994 0.110681
O O20 0.442248 0.250000 0.788971
O O21 0.116851 0.250000 0.240994
#
# Coordination Sequence:
#
# PCOD8075113 Si02
#       8
#     4   4   4   4   4   4   4   4
#     4  10  20  37  60  84 112 147 190 238 284 339
#     4  10  21  38  61  87 116 152 192 240 298 358
#     4  10  21  39  63  88 115 150 195 245 295 353
#     4  11  24  41  60  87 123 160 199 247 300 355
#     4  10  21  37  57  83 115 151 193 238 286 343
#     4  10  21  37  56  80 114 155 192 234 290 344
#     4  11  23  36  54  84 119 152 193 241 288 346
#     4  10  22  38  60  88 115 149 193 239 292 348
#
# _framework density 19.557749000000001
#
# number of rings (size 3 to 8) (size 9 to 14) (size 15 to 20)
#    0.000    1.750    1.250    2.625    0.000    7.500 
#    0.000    2.500    0.000    0.000    0.000    0.000 
#    0.000    0.000    0.000    0.000    0.000    0.000 
#
# Total GULP energy -396955.957953 kJ/mol
# GULP energy per Si atom -12404.873686 kJ/mol
# Density = 1.951323 g / cm^3
# Si number density = 19.557749 Si / 1000 Ang^3
#
#
#
# Elastic Constant Matrix: (Units=GPa)
#
#
# Indices 1 2 3 4 5 6 
#
# 1 117.9064 41.7800 49.9015 0.0000 -6.2294 0.0000
# 2 41.7800 53.6634 33.4296 0.0000 1.3655 0.0000
# 3 49.9015 33.4296 96.3380 0.0000 -8.4343 0.0000
# 4 0.0000 0.0000 0.0000 33.8540 0.0000 -5.0139
# 5 -6.2294 1.3655 -8.4343 0.0000 30.0758 0.0000
# 6 0.0000 0.0000 0.0000 -5.0139 0.0000 33.1907
#
#
#
# Elastic Compliance Matrix: (Units=1/GPa)
#
#
# Indices 1 2 3 4 5 6 
#
# 1 0.012958 -0.007736 -0.003857 0.000000 0.001954 0.000000
# 2 -0.007736 0.028752 -0.006381 0.000000 -0.004697 0.000000
# 3 -0.003857 -0.006381 0.014914 0.000000 0.003673 0.000000
# 4 0.000000 0.000000 0.000000 0.030215 0.000000 0.004564
# 5 0.001954 -0.004697 0.003673 0.000000 0.034897 0.000000
# 6 0.000000 0.000000 0.000000 0.004564 0.000000 0.030818
#
#
# Mechanical properties :
#
#
# Convention : Reuss Voigt Hill
#
# Bulk Modulus (GPa) = 48.36430 57.56999 52.96715
# Shear Modulus (GPa) = 25.58938 28.94388 27.26663
#
# Velocity S-wave (km/s) = 3.62111 3.85114 3.73790
# Velocity P-wave (km/s) = 6.50122 7.01961 6.76538
#
# Compressibility (1/GPa) = 0.02067641
#
# Stress axis : x y z
#
# Youngs Moduli (GPa) = 77.17308 34.78007 67.05220
#
# Poissons Ratio (x) = 0.26905 0.25860
# Poissons Ratio (y) = 0.59698 0.42788
# Poissons Ratio (z) = 0.29763 0.22194
#
# Static dielectric constant tensor:
#      x y z
#    x 3.625570 0.000000 0.194670 
#    y 0.000000 3.571350 0.000000 
#    z 0.194670 0.000000 3.733580 
# 
# 
# High freq. dielectric constant tensor:
#      x y z
#    x 1.767040 0.000000 0.007570 
#    y 0.000000 1.761680 0.000000 
#    z 0.007570 0.000000 1.768170 
# 
# From -- ./inp_files/49353.got.cif
#   From: 2010.06.25/outbox.cif.g09.slc.cpg/sg11_25_cif.got.tgz:49353.got - 2010.06.27 23:14:04.
