data_PCOD8075891
_publ_section_title
;
Structure prediction by ZEFSAII (Michael W. Deem and Ramdas Pophale) SiO2 
 PCOD8075891
Probable space group: P 21/M
;
_chemical_formula_sum "Si O2"
_cell_formula_units_Z 32
_cell_length_a 11.776848
_cell_length_b 11.929618
_cell_length_c 11.521915
_cell_angle_alpha 90.000000
_cell_angle_beta 103.746923
_cell_angle_gamma 90.000000
_cell_volume 1572.382420
_symmetry_space_group_name_H-M "P 21/M"
_symmetry_group_IT_number 11
_symmetry_cell_setting 'monoclinic'
loop_
_space_group_symop_operation_xyz
x,y,z
-x,1/2+y,-z
-x,-y,-z
x,1/2-y,z
loop_
_atom_site_type_symbol
_atom_site_label
_atom_site_fract_x
_atom_site_fract_y
_atom_site_fract_z
Si Si1 0.337832 0.526479 0.223941
Si Si2 0.064964 0.537563 0.832184
Si Si3 0.427803 0.123432 0.659944
Si Si4 0.974755 0.618157 0.566826
Si Si5 0.671207 0.528798 0.140964
Si Si6 0.530834 0.872839 0.921045
Si Si7 0.720547 0.624954 0.586549
Si Si8 0.105970 0.875635 0.088484
O O1 0.431909 0.613300 0.298217
O O2 0.409998 0.439409 0.167359
O O3 0.268740 0.462500 0.307589
O O4 0.240946 0.586563 0.122582
O O5 0.030579 0.606031 0.708769
O O6 0.192065 0.483396 0.846547
O O7 0.972288 0.440404 0.836507
O O8 0.061801 0.616536 0.945045
O O9 0.390500 0.250000 0.677611
O O10 0.355208 0.045311 0.730037
O O11 0.388845 0.090678 0.520720
O O12 0.011283 0.750000 0.532455
O O13 0.000000 0.500000 0.500000
O O14 0.836016 0.619048 0.537139
O O15 0.596885 0.421659 0.076185
O O16 0.617019 0.631576 0.053597
O O17 0.508759 0.750000 0.868205
O O18 0.703717 0.750000 0.633568
O O19 0.097192 0.750000 0.129748
#
# Coordination Sequence:
#
# PCOD8075891 Si02
#       8
#     4   4   4   4   4   4   4   4
#     4  11  20  40  59  89 123 158 204 258 312 380
#     4  11  23  44  62  93 127 167 215 261 320 383
#     4  10  21  36  60  88 118 158 204 258 315 371
#     4  11  24  43  67  93 130 173 219 268 321 381
#     4  10  21  38  58  86 120 157 203 252 304 385
#     4  10  21  36  58  87 119 158 198 251 314 375
#     4  10  21  39  61  86 118 161 208 258 315 379
#     4  11  24  40  63  93 128 167 211 266 321 381
#
# _framework density 20.351284
#
# number of rings (size 3 to 8) (size 9 to 14) (size 15 to 20)
#    0.000    1.500    2.500    2.625    0.000    2.500 
#    0.000    0.000    0.000    3.000    0.000    0.000 
#    0.000    0.000    0.000    0.000    0.000    0.000 
#
# Total GULP energy -396503.960767 kJ/mol
# GULP energy per Si atom -12390.748774 kJ/mol
# Density = 2.030496 g / cm^3
# Si number density = 20.351284 Si / 1000 Ang^3
#
#
#
# Elastic Constant Matrix: (Units=GPa)
#
#
# Indices 1 2 3 4 5 6 
#
# 1 103.0464 29.9492 14.6289 0.0000 12.8090 0.0000
# 2 29.9492 107.4034 33.5892 0.0000 -0.4018 0.0000
# 3 14.6289 33.5892 85.0833 0.0000 11.8184 0.0000
# 4 0.0000 0.0000 0.0000 -3.9028 0.0000 0.5377
# 5 12.8090 -0.4018 11.8184 0.0000 32.0530 0.0000
# 6 0.0000 0.0000 0.0000 0.5377 0.0000 23.0250
#
#
#
# Elastic Compliance Matrix: (Units=1/GPa)
#
#
# Indices 1 2 3 4 5 6 
#
# 1 0.011175 -0.003111 -0.000071 0.000000 -0.004479 0.000000
# 2 -0.003111 0.011584 -0.004460 0.000000 0.003033 0.000000
# 3 -0.000071 -0.004460 0.014260 0.000000 -0.005285 0.000000
# 4 0.000000 0.000000 0.000000 -0.255405 0.000000 0.005964
# 5 -0.004479 0.003033 -0.005285 0.000000 0.034975 0.000000
# 6 0.000000 0.000000 0.000000 0.005964 0.000000 0.043292
#
#
# Mechanical properties :
#
#
# Convention : Reuss Voigt Hill
#
# Bulk Modulus (GPa) = 46.00571 50.20751 48.10661
# Shear Modulus (GPa) = -42.52054 24.72610 -8.89722
#
# Velocity S-wave (km/s) = -4.57588 3.48942 -2.09316
# Velocity P-wave (km/s) = 2.29419 6.39990 4.22465
#
# Compressibility (1/GPa) = 0.02173643
#
# Stress axis : x y z
#
# Youngs Moduli (GPa) = 89.48344 86.32514 70.12548
#
# Poissons Ratio (x) = 0.26853 0.00500
# Poissons Ratio (y) = 0.27835 0.31273
# Poissons Ratio (z) = 0.00638 0.38497
#
# Static dielectric constant tensor:
#      x y z
#    x 3.698770 0.000000 0.194610 
#    y 0.000000 3.930540 0.000000 
#    z 0.194610 0.000000 3.808420 
# 
# 
# High freq. dielectric constant tensor:
#      x y z
#    x 1.795270 0.000000 0.011690 
#    y 0.000000 1.790830 0.000000 
#    z 0.011690 0.000000 1.799110 
# 
# From -- ./inp_files/35093.got.cif
#   From: 2010.06.25/outbox.cif.g09.slc.cpg/sg11_18_cif.got.tgz:35093.got - 2010.06.27 23:14:04.
