data_PCOD8075086
_publ_section_title
;
Structure prediction by ZEFSAII (Michael W. Deem and Ramdas Pophale) SiO2 
 PCOD8075086
Probable space group: P 21/M
;
_chemical_formula_sum "Si O2"
_cell_formula_units_Z 32
_cell_length_a 13.693119
_cell_length_b 9.072413
_cell_length_c 22.148804
_cell_angle_alpha 90.000000
_cell_angle_beta 143.040531
_cell_angle_gamma 90.000000
_cell_volume 1654.361844
_symmetry_space_group_name_H-M "P 21/M"
_symmetry_group_IT_number 11
_symmetry_cell_setting 'monoclinic'
loop_
_space_group_symop_operation_xyz
x,y,z
-x,1/2+y,-z
-x,-y,-z
x,1/2-y,z
loop_
_atom_site_type_symbol
_atom_site_label
_atom_site_fract_x
_atom_site_fract_y
_atom_site_fract_z
Si Si1 0.671699 0.922097 0.085664
Si Si2 0.798556 0.578039 0.509852
Si Si3 0.478447 0.576521 0.425867
Si Si4 0.795844 0.577364 0.784463
Si Si5 0.120942 0.075465 0.698013
Si Si6 0.131822 0.421347 0.937305
Si Si7 0.309551 0.075894 0.673489
Si Si8 0.650712 0.579921 0.841284
O O1 0.638612 0.750000 0.075769
O O2 0.776380 0.980337 0.194002
O O3 0.766967 0.960419 0.072052
O O4 0.500000 0.000000 0.000000
O O5 0.837354 0.750000 0.533256
O O6 0.631752 0.537440 0.460254
O O7 0.783218 0.524877 0.432896
O O8 0.941980 0.491815 0.613819
O O9 0.500000 0.500000 0.500000
O O10 0.457263 0.750000 0.424451
O O11 0.318850 0.512857 0.316398
O O12 0.779608 0.750000 0.762235
O O13 0.751663 0.540518 0.831510
O O14 0.977114 0.525638 0.861313
O O15 0.103246 0.250000 0.689369
O O16 0.208338 0.017239 0.680598
O O17 0.079417 0.250000 0.912728
O O18 0.239686 0.463449 0.047963
O O19 0.327523 0.250000 0.683662
O O20 0.489072 0.013759 0.764105
O O21 0.600113 0.750000 0.817877
#
# Coordination Sequence:
#
# PCOD8075086 Si02
#       8
#     4   4   4   4   4   4   4   4
#     4  10  22  40  60  87 118 153 195 237 290 348
#     4  10  22  39  59  86 116 152 195 240 293 352
#     4  11  24  42  63  88 121 158 196 241 294 354
#     4  11  23  39  60  90 119 152 201 248 297 355
#     4  10  22  37  58  87 118 153 196 244 291 348
#     4  10  22  39  59  85 120 159 199 245 297 353
#     4  10  20  37  59  85 118 154 196 244 298 352
#     4  10  21  37  59  87 118 155 200 247 298 353
#
# _framework density 19.342804999999998
#
# number of rings (size 3 to 8) (size 9 to 14) (size 15 to 20)
#    0.000    1.750    1.250    2.250    1.750    4.000 
#    0.000    0.000    0.000    0.000    0.000    0.000 
#    0.000    0.000    0.000    0.000    0.000    0.000 
#
# Total GULP energy -396975.330135 kJ/mol
# GULP energy per Si atom -12405.479067 kJ/mol
# Density = 1.929878 g / cm^3
# Si number density = 19.342805 Si / 1000 Ang^3
#
#
#
# Elastic Constant Matrix: (Units=GPa)
#
#
# Indices 1 2 3 4 5 6 
#
# 1 66.3811 23.9579 34.9459 0.0000 -19.0789 0.0000
# 2 23.9579 44.1454 34.3240 0.0000 0.0339 0.0000
# 3 34.9459 34.3240 132.8779 0.0000 -12.3312 0.0000
# 4 0.0000 0.0000 0.0000 40.0071 0.0000 6.0193
# 5 -19.0789 0.0339 -12.3312 0.0000 41.1373 0.0000
# 6 0.0000 0.0000 0.0000 6.0193 0.0000 26.9865
#
#
#
# Elastic Compliance Matrix: (Units=1/GPa)
#
#
# Indices 1 2 3 4 5 6 
#
# 1 0.023030 -0.010657 -0.002378 0.000000 0.009977 0.000000
# 2 -0.010657 0.033487 -0.006489 0.000000 -0.006915 0.000000
# 3 -0.002378 -0.006489 0.010004 0.000000 0.001901 0.000000
# 4 0.000000 0.000000 0.000000 0.025864 0.000000 -0.005769
# 5 0.009977 -0.006915 0.001901 0.000000 0.029512 0.000000
# 6 0.000000 0.000000 0.000000 -0.005769 0.000000 0.038342
#
#
# Mechanical properties :
#
#
# Convention : Reuss Voigt Hill
#
# Bulk Modulus (GPa) = 36.40050 47.76224 42.08137
# Shear Modulus (GPa) = 23.98719 31.63796 27.81257
#
# Velocity S-wave (km/s) = 3.52534 4.04870 3.79605
# Velocity P-wave (km/s) = 5.95232 6.82657 6.40438
#
# Compressibility (1/GPa) = 0.02747215
#
# Stress axis : x y z
#
# Youngs Moduli (GPa) = 43.42095 29.86245 99.96276
#
# Poissons Ratio (x) = 0.31826 0.23771
# Poissons Ratio (y) = 0.46275 0.64866
# Poissons Ratio (z) = 0.10325 0.19378
#
# Static dielectric constant tensor:
#      x y z
#    x 3.932310 0.000000 -0.309610 
#    y 0.000000 3.423640 0.000000 
#    z -0.309610 0.000000 3.588290 
# 
# 
# High freq. dielectric constant tensor:
#      x y z
#    x 1.767330 0.000000 -0.004600 
#    y 0.000000 1.747280 0.000000 
#    z -0.004600 0.000000 1.767880 
# 
# From -- ./inp_files/69156.got.cif
#   From: 2010.06.25/outbox.cif.g09.slc.cpg/sg11_35_cif.got.tgz:69156.got - 2010.06.27 23:14:04.
