data_PCOD8075741
_publ_section_title
;
Structure prediction by ZEFSAII (Michael W. Deem and Ramdas Pophale) SiO2 
 PCOD8075741
Probable space group: P 21/M
;
_chemical_formula_sum "Si O2"
_cell_formula_units_Z 24
_cell_length_a 14.963273
_cell_length_b 13.712907
_cell_length_c 5.510080
_cell_angle_alpha 90.000000
_cell_angle_beta 103.360256
_cell_angle_gamma 90.000000
_cell_volume 1100.014693
_symmetry_space_group_name_H-M "P 21/M"
_symmetry_group_IT_number 11
_symmetry_cell_setting 'monoclinic'
loop_
_space_group_symop_operation_xyz
x,y,z
-x,1/2+y,-z
-x,-y,-z
x,1/2-y,z
loop_
_atom_site_type_symbol
_atom_site_label
_atom_site_fract_x
_atom_site_fract_y
_atom_site_fract_z
Si Si1 0.698388 0.481957 0.925555
Si Si2 0.871470 0.004812 0.762236
Si Si3 0.444652 0.137244 0.042833
Si Si4 0.017953 0.641820 0.852277
Si Si5 0.552498 0.137152 0.607971
Si Si6 0.800637 0.141936 0.340069
O O1 0.798275 0.527688 0.921245
O O2 0.645022 0.569403 0.024173
O O3 0.641095 0.433671 0.666830
O O4 0.718678 0.388223 0.109069
O O5 0.802856 0.057087 0.536351
O O6 0.947737 0.083479 0.891028
O O7 0.926261 0.911623 0.691099
O O8 0.414006 0.250000 0.029407
O O9 0.497501 0.110516 0.327319
O O10 0.500156 0.114778 0.830485
O O11 0.989676 0.750000 0.916590
O O12 0.097833 0.644847 0.707519
O O13 0.581644 0.250000 0.615725
O O14 0.777007 0.250000 0.428250
#
# Coordination Sequence:
#
# PCOD8075741 Si02
#       6
#     4   4   4   4   4   4
#     4  11  23  36  58  88 119 150 198 249 304 354
#     4  10  21  35  58  86 114 153 193 246 297 364
#     4  10  23  41  62  87 123 165 206 248 300 363
#     4   9  19  38  57  81 115 153 195 239 295 362
#     4  10  22  40  62  88 119 164 208 248 301 362
#     4  10  21  36  57  85 117 151 195 246 300 357
#
# _framework density 21.817888
#
# number of rings (size 3 to 8) (size 9 to 14) (size 15 to 20)
#    0.000    2.000    0.000    2.500    4.667    2.667 
#    0.000    0.833    0.000    0.000    0.000    0.000 
#    0.000    0.000    0.000    0.000    0.000    0.000 
#
# Total GULP energy -297412.081868 kJ/mol
# GULP energy per Si atom -12392.170078 kJ/mol
# Density = 2.176823 g / cm^3
# Si number density = 21.817888 Si / 1000 Ang^3
#
#
#
# Elastic Constant Matrix: (Units=GPa)
#
#
# Indices 1 2 3 4 5 6 
#
# 1 84.4635 68.1295 35.9193 0.0000 17.4977 0.0000
# 2 68.1295 116.8186 28.4442 0.0000 16.5067 0.0000
# 3 35.9193 28.4442 81.5797 0.0000 -4.9350 0.0000
# 4 0.0000 0.0000 0.0000 31.6212 0.0000 4.1054
# 5 17.4977 16.5067 -4.9350 0.0000 23.2278 0.0000
# 6 0.0000 0.0000 0.0000 4.1054 0.0000 30.1176
#
#
#
# Elastic Compliance Matrix: (Units=1/GPa)
#
#
# Indices 1 2 3 4 5 6 
#
# 1 0.028997 -0.012541 -0.009296 0.000000 -0.014906 0.000000
# 2 -0.012541 0.016245 -0.000273 0.000000 -0.002155 0.000000
# 3 -0.009296 -0.000273 0.017101 0.000000 0.010830 0.000000
# 4 0.000000 0.000000 0.000000 0.032194 0.000000 -0.004388
# 5 -0.014906 -0.002155 0.010830 0.000000 0.058113 0.000000
# 6 0.000000 0.000000 0.000000 -0.004388 0.000000 0.033801
#
#
# Mechanical properties :
#
#
# Convention : Reuss Voigt Hill
#
# Bulk Modulus (GPa) = 55.17841 60.87197 58.02519
# Shear Modulus (GPa) = 21.12259 27.01793 24.07026
#
# Velocity S-wave (km/s) = 3.11486 3.52282 3.32510
# Velocity P-wave (km/s) = 6.18723 6.67140 6.43387
#
# Compressibility (1/GPa) = 0.01812303
#
# Stress axis : x y z
#
# Youngs Moduli (GPa) = 34.48661 61.55581 58.47526
#
# Poissons Ratio (x) = 0.77199 0.54359
# Poissons Ratio (y) = 0.43251 0.01595
# Poissons Ratio (z) = 0.32059 0.01679
#
# Static dielectric constant tensor:
#      x y z
#    x 3.817480 0.000000 0.005780 
#    y 0.000000 4.129410 0.000000 
#    z 0.005780 0.000000 3.849810 
# 
# 
# High freq. dielectric constant tensor:
#      x y z
#    x 1.856640 0.000000 0.002260 
#    y 0.000000 1.862250 0.000000 
#    z 0.002260 0.000000 1.844150 
# 
# From -- ./inp_files/6396.got.cif
#   From: 2010.06.25/outbox.cif.g09.slc.cpg/sg11_4_cif.got.tgz:6396.got - 2010.06.27 23:14:04.
