data_PCOD8075692
_publ_section_title
;
Structure prediction by ZEFSAII (Michael W. Deem and Ramdas Pophale) SiO2 
 PCOD8075692
Probable space group: P 21/M
;
_chemical_formula_sum "Si O2"
_cell_formula_units_Z 28
_cell_length_a 21.878133
_cell_length_b 9.084726
_cell_length_c 24.098160
_cell_angle_alpha 90.000000
_cell_angle_beta 17.332647
_cell_angle_gamma 90.000000
_cell_volume 1426.934218
_symmetry_space_group_name_H-M "P 21/M"
_symmetry_group_IT_number 11
_symmetry_cell_setting 'monoclinic'
loop_
_space_group_symop_operation_xyz
x,y,z
-x,1/2+y,-z
-x,-y,-z
x,1/2-y,z
loop_
_atom_site_type_symbol
_atom_site_label
_atom_site_fract_x
_atom_site_fract_y
_atom_site_fract_z
Si Si1 0.880924 0.577862 0.028776
Si Si2 0.291429 0.076334 0.702012
Si Si3 0.804102 0.079873 0.876216
Si Si4 0.054795 0.911710 0.507046
Si Si5 0.373307 0.411802 0.064782
Si Si6 0.225070 0.419958 0.455002
Si Si7 0.664146 0.079456 0.118021
O O1 0.931900 0.750000 0.980448
O O2 0.746862 0.543314 0.199825
O O3 0.743905 0.527041 0.096399
O O4 0.095364 0.489974 0.839921
O O5 0.305935 0.250000 0.677102
O O6 0.500000 0.000000 0.500000
O O7 0.755465 0.250000 0.907773
O O8 0.033741 0.037432 0.659475
O O9 0.631712 0.993353 0.990172
O O10 0.785806 0.040507 0.956534
O O11 0.136235 0.750000 0.419598
O O12 0.857285 0.898267 0.715863
O O13 0.226078 0.993038 0.395683
O O14 0.000000 0.000000 0.500000
O O15 0.472173 0.250000 0.971816
O O16 0.500000 0.500000 0.000000
O O17 0.221700 0.250000 0.440842
O O18 0.425784 0.458525 0.316147
O O19 0.695445 0.250000 0.107789
#
# Coordination Sequence:
#
# PCOD8075692 Si02
#       7
#     4   4   4   4   4   4   4
#     4  10  22  39  59  90 126 159 201 245 287 344
#     4  10  21  39  64  92 125 163 201 244 292 340
#     4   9  19  36  54  75 106 142 183 232 284 339
#     4  10  21  35  52  75 102 133 174 225 283 343
#     4  10  21  35  52  75 102 134 175 226 284 344
#     4   9  19  36  54  74 105 142 182 231 283 336
#     4  10  21  36  57  83 113 152 194 235 285 345
#
# _framework density 19.622487
#
# number of rings (size 3 to 8) (size 9 to 14) (size 15 to 20)
#    0.000    2.286    0.000    1.714    2.000    5.714 
#    0.000    1.429    0.000    0.000    0.000    0.000 
#    0.000    0.000    0.000    0.000    0.000    0.000 
#
# Total GULP energy -347171.287069 kJ/mol
# GULP energy per Si atom -12398.974538 kJ/mol
# Density = 1.957783 g / cm^3
# Si number density = 19.622487 Si / 1000 Ang^3
#
#
#
# Elastic Constant Matrix: (Units=GPa)
#
#
# Indices 1 2 3 4 5 6 
#
# 1 137.3408 71.4832 48.9330 0.0000 -14.8484 0.0000
# 2 71.4832 125.3490 51.8649 0.0000 -8.9155 0.0000
# 3 48.9330 51.8649 110.2652 0.0000 -4.1704 0.0000
# 4 0.0000 0.0000 0.0000 24.2359 0.0000 -5.5566
# 5 -14.8484 -8.9155 -4.1704 0.0000 25.8053 0.0000
# 6 0.0000 0.0000 0.0000 -5.5566 0.0000 41.1154
#
#
#
# Elastic Compliance Matrix: (Units=1/GPa)
#
#
# Indices 1 2 3 4 5 6 
#
# 1 0.011280 -0.005117 -0.002435 0.000000 0.004329 0.000000
# 2 -0.005117 0.012416 -0.003540 0.000000 0.000773 0.000000
# 3 -0.002435 -0.003540 0.011787 0.000000 -0.000719 0.000000
# 4 0.000000 0.000000 0.000000 0.042581 0.000000 0.005755
# 5 0.004329 0.000773 -0.000719 0.000000 0.041393 0.000000
# 6 0.000000 0.000000 0.000000 0.005755 0.000000 0.025100
#
#
# Mechanical properties :
#
#
# Convention : Reuss Voigt Hill
#
# Bulk Modulus (GPa) = 75.19388 79.72413 77.45900
# Shear Modulus (GPa) = 29.21002 31.60959 30.40980
#
# Velocity S-wave (km/s) = 3.86242 4.01794 3.94095
# Velocity P-wave (km/s) = 7.63509 7.88938 7.76327
#
# Compressibility (1/GPa) = 0.01329896
#
# Stress axis : x y z
#
# Youngs Moduli (GPa) = 88.65016 80.54400 84.83607
#
# Poissons Ratio (x) = 0.41217 0.20659
# Poissons Ratio (y) = 0.45365 0.30029
# Poissons Ratio (z) = 0.21588 0.28510
#
# Static dielectric constant tensor:
#      x y z
#    x 3.537380 0.000000 0.069310 
#    y 0.000000 3.894390 0.000000 
#    z 0.069310 0.000000 3.811030 
# 
# 
# High freq. dielectric constant tensor:
#      x y z
#    x 1.760310 0.000000 0.000490 
#    y 0.000000 1.770120 0.000000 
#    z 0.000490 0.000000 1.769930 
# 
# From -- ./inp_files/69789.got.cif
#   From: 2010.06.25/outbox.cif.g09.slc.cpg/sg11_35_cif.got.tgz:69789.got - 2010.06.27 23:14:04.
