data_PCOD8075356
_publ_section_title
;
Structure prediction by ZEFSAII (Michael W. Deem and Ramdas Pophale) SiO2 
 PCOD8075356
Probable space group: P 21/M
;
_chemical_formula_sum "Si O2"
_cell_formula_units_Z 32
_cell_length_a 6.585921
_cell_length_b 27.978827
_cell_length_c 8.646713
_cell_angle_alpha 90.000000
_cell_angle_beta 96.898691
_cell_angle_gamma 90.000000
_cell_volume 1581.762853
_symmetry_space_group_name_H-M "P 21/M"
_symmetry_group_IT_number 11
_symmetry_cell_setting 'monoclinic'
loop_
_space_group_symop_operation_xyz
x,y,z
-x,1/2+y,-z
-x,-y,-z
x,1/2-y,z
loop_
_atom_site_type_symbol
_atom_site_label
_atom_site_fract_x
_atom_site_fract_y
_atom_site_fract_z
Si Si1 0.438336 0.645759 0.546654
Si Si2 0.185541 0.197064 0.559388
Si Si3 0.009051 0.377189 0.070107
Si Si4 0.927615 0.377666 0.702993
Si Si5 0.747738 0.038613 0.087889
Si Si6 0.106531 0.979633 0.229427
Si Si7 0.366441 0.433499 0.242206
Si Si8 0.146869 0.697877 0.731524
O O1 0.606875 0.682942 0.505949
O O2 0.280626 0.642359 0.389506
O O3 0.530780 0.594376 0.604964
O O4 0.339511 0.666977 0.693425
O O5 0.213450 0.250000 0.641968
O O6 0.123121 0.153357 0.666418
O O7 0.006782 0.202649 0.422313
O O8 0.859824 0.412731 0.150723
O O9 0.975276 0.325048 0.137071
O O10 0.238369 0.396784 0.121658
O O11 0.941048 0.374321 0.887626
O O12 0.926021 0.434511 0.657692
O O13 0.522740 0.039501 0.140668
O O14 0.751975 0.036553 0.902296
O O15 0.875727 0.992902 0.158697
O O16 0.224100 0.025760 0.310818
O O17 0.223504 0.750000 0.792242
#
# Coordination Sequence:
#
# PCOD8075356 Si02
#       8
#     4   4   4   4   4   4   4   4
#     4  11  22  39  61  89 117 158 199 245 299 359
#     4  10  22  42  63  83 116 160 197 240 305 368
#     4  10  20  38  60  89 116 155 198 248 298 352
#     4  10  24  39  59  88 128 155 192 248 303 351
#     4   9  18  35  58  85 123 159 199 240 290 351
#     4   9  20  35  55  90 122 163 197 239 296 350
#     4  11  20  34  64  86 120 160 207 244 286 353
#     4  10  20  38  64  87 113 149 200 254 298 356
#
# _framework density 20.230594
#
# number of rings (size 3 to 8) (size 9 to 14) (size 15 to 20)
#    0.000    2.000    2.500    1.500    0.000    4.500 
#    0.000    1.250    0.000    0.000    0.000    0.000 
#    0.000    0.000    0.000    0.000    0.000    0.000 
#
# Total GULP energy -396496.886908 kJ/mol
# GULP energy per Si atom -12390.527716 kJ/mol
# Density = 2.018455 g / cm^3
# Si number density = 20.230594 Si / 1000 Ang^3
#
#
#
# Elastic Constant Matrix: (Units=GPa)
#
#
# Indices 1 2 3 4 5 6 
#
# 1 100.4499 48.0391 26.3197 0.0000 -12.3719 0.0000
# 2 48.0391 138.6120 39.4471 0.0000 -12.9177 0.0000
# 3 26.3197 39.4471 53.3929 0.0000 -3.3227 0.0000
# 4 0.0000 0.0000 0.0000 28.4200 0.0000 -0.3023
# 5 -12.3719 -12.9177 -3.3227 0.0000 16.3889 0.0000
# 6 0.0000 0.0000 0.0000 -0.3023 0.0000 14.3064
#
#
#
# Elastic Compliance Matrix: (Units=1/GPa)
#
#
# Indices 1 2 3 4 5 6 
#
# 1 0.013194 -0.002782 -0.004016 0.000000 0.006953 0.000000
# 2 -0.002782 0.010323 -0.005955 0.000000 0.004830 0.000000
# 3 -0.004016 -0.005955 0.024942 0.000000 -0.002669 0.000000
# 4 0.000000 0.000000 0.000000 0.035194 0.000000 0.000744
# 5 0.006953 0.004830 -0.002669 0.000000 0.069532 0.000000
# 6 0.000000 0.000000 0.000000 0.000744 0.000000 0.069915
#
#
# Mechanical properties :
#
#
# Convention : Reuss Voigt Hill
#
# Bulk Modulus (GPa) = 43.56550 57.78517 50.67533
# Shear Modulus (GPa) = 19.51158 23.73298 21.62228
#
# Velocity S-wave (km/s) = 3.10894 3.42880 3.27278
# Velocity P-wave (km/s) = 5.87099 6.65589 6.27572
#
# Compressibility (1/GPa) = 0.02295394
#
# Stress axis : x y z
#
# Youngs Moduli (GPa) = 75.79029 96.86813 40.09235
#
# Poissons Ratio (x) = 0.26947 0.16101
# Poissons Ratio (y) = 0.21084 0.23875
# Poissons Ratio (z) = 0.30438 0.57686
#
# Static dielectric constant tensor:
#      x y z
#    x 3.702650 0.000000 0.006010 
#    y 0.000000 4.441420 0.000000 
#    z 0.006010 0.000000 3.259970 
# 
# 
# High freq. dielectric constant tensor:
#      x y z
#    x 1.792040 0.000000 0.001960 
#    y 0.000000 1.806710 0.000000 
#    z 0.001960 0.000000 1.753010 
# 
# From -- ./inp_files/10847.got.cif
#   From: 2010.06.25/outbox.cif.g09.slc.cpg/sg11_6_cif.got.tgz:10847.got - 2010.06.27 23:14:04.
