data_PCOD8075940
_publ_section_title
;
Structure prediction by ZEFSAII (Michael W. Deem and Ramdas Pophale) SiO2 
 PCOD8075940
Probable space group: P 21/M
;
_chemical_formula_sum "Si O2"
_cell_formula_units_Z 32
_cell_length_a 12.445582
_cell_length_b 8.802273
_cell_length_c 18.271710
_cell_angle_alpha 90.000000
_cell_angle_beta 117.214690
_cell_angle_gamma 90.000000
_cell_volume 1780.070140
_symmetry_space_group_name_H-M "P 21/M"
_symmetry_group_IT_number 11
_symmetry_cell_setting 'monoclinic'
loop_
_space_group_symop_operation_xyz
x,y,z
-x,1/2+y,-z
-x,-y,-z
x,1/2-y,z
loop_
_atom_site_type_symbol
_atom_site_label
_atom_site_fract_x
_atom_site_fract_y
_atom_site_fract_z
Si Si1 0.728938 0.569625 0.666548
Si Si2 0.763410 0.929713 0.146942
Si Si3 0.065602 0.578819 0.454817
Si Si4 0.555361 0.572784 0.189020
Si Si5 0.974674 0.069233 0.719050
Si Si6 0.607050 0.073129 0.988677
Si Si7 0.335208 0.575042 0.507273
Si Si8 0.485033 0.930634 0.325056
O O1 0.726058 0.750000 0.658540
O O2 0.677314 0.493690 0.577014
O O3 0.644397 0.512187 0.706301
O O4 0.864658 0.512845 0.726625
O O5 0.752971 0.750000 0.140147
O O6 0.670779 0.995466 0.180279
O O7 0.899401 0.981660 0.206172
O O8 0.730452 0.995535 0.055998
O O9 0.020459 0.750000 0.441980
O O10 0.208746 0.564483 0.510521
O O11 0.000000 0.500000 0.500000
O O12 0.025988 0.508591 0.364670
O O13 0.580385 0.750000 0.202860
O O14 0.543326 0.506739 0.267254
O O15 0.427339 0.542459 0.107039
O O16 0.953379 0.250000 0.715235
O O17 0.614912 0.250000 0.008030
O O18 0.500000 0.000000 0.000000
O O19 0.378293 0.750000 0.514344
O O20 0.430713 0.476613 0.581354
O O21 0.467373 0.750000 0.317824
#
# Coordination Sequence:
#
# PCOD8075940 Si02
#       8
#     4   4   4   4   4   4   4   4
#     4  11  22  37  54  73 100 133 174 218 257 299
#     4   9  17  32  54  79 106 135 167 204 249 306
#     4   9  19  32  48  69 100 136 166 204 249 297
#     4   8  17  31  50  77 106 135 164 199 252 308
#     4   9  19  35  54  74 101 135 171 210 251 301
#     4   9  16  30  50  74 105 137 168 203 247 301
#     4  10  21  37  52  72 100 133 174 214 255 300
#     4  11  21  34  55  77 100 133 172 213 257 305
#
# _framework density 17.976821000000001
#
# number of rings (size 3 to 8) (size 9 to 14) (size 15 to 20)
#    0.000    2.500    0.000    4.125    1.750    3.000 
#    0.000    6.250    0.000    0.750    0.000    0.000 
#    0.000    0.000    0.000    0.000    0.000    0.000 
#
# Total GULP energy -396633.084797 kJ/mol
# GULP energy per Si atom -12394.783900 kJ/mol
# Density = 1.793590 g / cm^3
# Si number density = 17.976821 Si / 1000 Ang^3
#
#
#
# Elastic Constant Matrix: (Units=GPa)
#
#
# Indices 1 2 3 4 5 6 
#
# 1 82.0346 28.4402 42.7517 0.0000 12.3162 0.0000
# 2 28.4402 56.3189 22.8814 0.0000 5.8284 0.0000
# 3 42.7517 22.8814 87.0363 0.0000 23.1447 0.0000
# 4 0.0000 0.0000 0.0000 27.9934 0.0000 3.9116
# 5 12.3162 5.8284 23.1447 0.0000 25.7143 0.0000
# 6 0.0000 0.0000 0.0000 3.9116 0.0000 27.2518
#
#
#
# Elastic Compliance Matrix: (Units=1/GPa)
#
#
# Indices 1 2 3 4 5 6 
#
# 1 0.018149 -0.006211 -0.007027 0.000000 -0.000961 0.000000
# 2 -0.006211 0.022006 -0.002891 0.000000 0.000589 0.000000
# 3 -0.007027 -0.002891 0.019236 0.000000 -0.013293 0.000000
# 4 0.000000 0.000000 0.000000 0.036454 0.000000 -0.005232
# 5 -0.000961 0.000589 -0.013293 0.000000 0.051180 0.000000
# 6 0.000000 0.000000 0.000000 -0.005232 0.000000 0.037446
#
#
# Mechanical properties :
#
#
# Convention : Reuss Voigt Hill
#
# Bulk Modulus (GPa) = 36.85441 45.94850 41.40146
# Shear Modulus (GPa) = 22.14618 24.94635 23.54627
#
# Velocity S-wave (km/s) = 3.51369 3.72922 3.62306
# Velocity P-wave (km/s) = 6.08334 6.64516 6.37044
#
# Compressibility (1/GPa) = 0.02713380
#
# Stress axis : x y z
#
# Youngs Moduli (GPa) = 55.09863 45.44188 51.98656
#
# Poissons Ratio (x) = 0.28224 0.36528
# Poissons Ratio (y) = 0.34221 0.15031
# Poissons Ratio (z) = 0.38715 0.13138
#
# Static dielectric constant tensor:
#      x y z
#    x 3.475140 0.000000 0.002800 
#    y 0.000000 3.277060 0.000000 
#    z 0.002800 0.000000 3.857690 
# 
# 
# High freq. dielectric constant tensor:
#      x y z
#    x 1.683520 0.000000 0.010410 
#    y 0.000000 1.688100 0.000000 
#    z 0.010410 0.000000 1.689300 
# 
# From -- ./inp_files/64245.got.cif
#   From: 2010.06.25/outbox.cif.g09.slc.cpg/sg11_33_cif.got.tgz:64245.got - 2010.06.27 23:14:04.
