data_PCOD8075702
_publ_section_title
;
Structure prediction by ZEFSAII (Michael W. Deem and Ramdas Pophale) SiO2 
 PCOD8075702
Probable space group: P 21/M
;
_chemical_formula_sum "Si O2"
_cell_formula_units_Z 32
_cell_length_a 10.823440
_cell_length_b 8.828676
_cell_length_c 16.339733
_cell_angle_alpha 90.000000
_cell_angle_beta 86.676497
_cell_angle_gamma 90.000000
_cell_volume 1558.744027
_symmetry_space_group_name_H-M "P 21/M"
_symmetry_group_IT_number 11
_symmetry_cell_setting 'monoclinic'
loop_
_space_group_symop_operation_xyz
x,y,z
-x,1/2+y,-z
-x,-y,-z
x,1/2-y,z
loop_
_atom_site_type_symbol
_atom_site_label
_atom_site_fract_x
_atom_site_fract_y
_atom_site_fract_z
Si Si1 0.625594 0.925986 0.463502
Si Si2 0.124329 0.070097 0.456590
Si Si3 0.222248 0.570368 0.949083
Si Si4 0.729390 0.071478 0.876913
Si Si5 0.116181 0.928061 0.281253
Si Si6 0.361080 0.583241 0.702281
Si Si7 0.097829 0.580181 0.796900
Si Si8 0.474464 0.926177 0.864012
O O1 0.614615 0.750000 0.481232
O O2 0.751704 0.987590 0.501491
O O3 0.500000 0.000000 0.500000
O O4 0.635412 0.956163 0.366878
O O5 0.110893 0.250000 0.462535
O O6 0.140601 0.019609 0.362662
O O7 0.000000 0.000000 0.500000
O O8 0.231249 0.750000 0.940608
O O9 0.113886 0.518492 0.890182
O O10 0.355358 0.505997 0.915349
O O11 0.196050 0.518510 0.043764
O O12 0.733047 0.250000 0.871233
O O13 0.791587 0.006938 0.792155
O O14 0.590130 0.018502 0.892384
O O15 0.130953 0.750000 0.297984
O O16 0.979777 0.961025 0.252566
O O17 0.386029 0.750000 0.662441
O O18 0.231339 0.585764 0.752182
O O19 0.464109 0.546619 0.766589
O O20 0.039039 0.750000 0.797120
O O21 0.494244 0.750000 0.882556
#
# Coordination Sequence:
#
# PCOD8075702 Si02
#       8
#     4   4   4   4   4   4   4   4
#     4  11  25  41  61  90 121 154 194 242 299 359
#     4  11  25  45  68  92 119 157 203 250 300 363
#     4   8  16  34  57  81 111 149 193 239 290 341
#     4  10  21  35  52  79 117 155 190 235 288 341
#     4  11  24  38  55  84 120 154 190 238 291 345
#     4   9  19  36  58  84 112 144 185 236 289 343
#     4   9  18  36  61  83 108 150 197 239 288 343
#     4   9  18  33  56  82 110 147 191 236 282 342
#
# _framework density 20.529347999999999
#
# number of rings (size 3 to 8) (size 9 to 14) (size 15 to 20)
#    0.000    2.250    0.000    3.750    1.750    6.500 
#    0.000    2.500    0.000    0.000    0.000    0.000 
#    0.000    0.000    0.000    0.000    0.000    0.000 
#
# Total GULP energy -396656.008717 kJ/mol
# GULP energy per Si atom -12395.500272 kJ/mol
# Density = 2.048262 g / cm^3
# Si number density = 20.529348 Si / 1000 Ang^3
#
#
#
# Elastic Constant Matrix: (Units=GPa)
#
#
# Indices 1 2 3 4 5 6 
#
# 1 74.8237 25.1714 31.7793 0.0000 8.7216 0.0000
# 2 25.1714 35.2509 28.5812 0.0000 -0.6909 0.0000
# 3 31.7793 28.5812 134.1538 0.0000 2.6498 0.0000
# 4 0.0000 0.0000 0.0000 19.6024 0.0000 1.3017
# 5 8.7216 -0.6909 2.6498 0.0000 26.0743 0.0000
# 6 0.0000 0.0000 0.0000 1.3017 0.0000 29.6327
#
#
#
# Elastic Compliance Matrix: (Units=1/GPa)
#
#
# Indices 1 2 3 4 5 6 
#
# 1 0.018996 -0.012266 -0.001758 0.000000 -0.006500 0.000000
# 2 -0.012266 0.042283 -0.006218 0.000000 0.005855 0.000000
# 3 -0.001758 -0.006218 0.009206 0.000000 -0.000512 0.000000
# 4 0.000000 0.000000 0.000000 0.051163 0.000000 -0.002248
# 5 -0.006500 0.005855 -0.000512 0.000000 0.040733 0.000000
# 6 0.000000 0.000000 0.000000 -0.002248 0.000000 0.033845
#
#
# Mechanical properties :
#
#
# Convention : Reuss Voigt Hill
#
# Bulk Modulus (GPa) = 33.33397 46.14359 39.73878
# Shear Modulus (GPa) = 20.26660 25.64164 22.95412
#
# Velocity S-wave (km/s) = 3.14539 3.53799 3.34745
# Velocity P-wave (km/s) = 5.42805 6.26223 5.86000
#
# Compressibility (1/GPa) = 0.02999943
#
# Stress axis : x y z
#
# Youngs Moduli (GPa) = 52.64401 23.64996 108.63005
#
# Poissons Ratio (x) = 0.29009 0.19099
# Poissons Ratio (y) = 0.64573 0.67551
# Poissons Ratio (z) = 0.09256 0.14707
#
# Static dielectric constant tensor:
#      x y z
#    x 3.721740 0.000000 0.106630 
#    y 0.000000 3.817200 0.000000 
#    z 0.106630 0.000000 4.269280 
# 
# 
# High freq. dielectric constant tensor:
#      x y z
#    x 1.799190 0.000000 0.007500 
#    y 0.000000 1.780370 0.000000 
#    z 0.007500 0.000000 1.820350 
# 
# From -- ./inp_files/49333.got.cif
#   From: 2010.06.25/outbox.cif.g09.slc.cpg/sg11_25_cif.got.tgz:49333.got - 2010.06.27 23:14:04.
