data_PCOD8075129
_publ_section_title
;
Structure prediction by ZEFSAII (Michael W. Deem and Ramdas Pophale) SiO2 
 PCOD8075129
Probable space group: P 21/M
;
_chemical_formula_sum "Si O2"
_cell_formula_units_Z 32
_cell_length_a 9.601072
_cell_length_b 13.611334
_cell_length_c 12.159505
_cell_angle_alpha 90.000000
_cell_angle_beta 83.965218
_cell_angle_gamma 90.000000
_cell_volume 1580.239347
_symmetry_space_group_name_H-M "P 21/M"
_symmetry_group_IT_number 11
_symmetry_cell_setting 'monoclinic'
loop_
_space_group_symop_operation_xyz
x,y,z
-x,1/2+y,-z
-x,-y,-z
x,1/2-y,z
loop_
_atom_site_type_symbol
_atom_site_label
_atom_site_fract_x
_atom_site_fract_y
_atom_site_fract_z
Si Si1 0.450767 0.638464 0.994303
Si Si2 0.868323 0.478171 0.252106
Si Si3 0.161778 0.638189 0.531050
Si Si4 0.104300 0.362734 0.115570
Si Si5 0.114089 0.362394 0.579509
Si Si6 0.370082 0.358341 0.237705
Si Si7 0.703286 0.962839 0.067140
Si Si8 0.357638 0.022577 0.449696
O O1 0.401959 0.750000 0.023027
O O2 0.521502 0.628165 0.869484
O O3 0.319586 0.563752 0.001990
O O4 0.562640 0.603783 0.076652
O O5 0.821653 0.396490 0.344342
O O6 0.930332 0.572470 0.311494
O O7 0.735464 0.513156 0.191434
O O8 0.975144 0.431450 0.156971
O O9 0.209554 0.750000 0.518743
O O10 0.266371 0.576522 0.445303
O O11 0.001573 0.623224 0.506170
O O12 0.056072 0.250000 0.101807
O O13 0.213320 0.369625 0.206035
O O14 0.169257 0.402390 0.996721
O O15 0.123383 0.250000 0.616803
O O16 0.264710 0.396398 0.521410
O O17 0.387660 0.250000 0.288726
O O18 0.399163 0.439963 0.326156
O O19 0.500000 0.000000 0.500000
#
# Coordination Sequence:
#
# PCOD8075129 Si02
#       8
#     4   4   4   4   4   4   4   4
#     4   9  20  38  59  80 111 154 193 232 285 350
#     4  11  21  35  60  88 112 149 190 242 287 340
#     4  10  22  40  60  84 117 157 201 242 286 349
#     4  10  20  37  60  86 113 145 189 239 286 341
#     4  10  22  40  59  83 120 165 200 234 292 355
#     4   9  18  34  59  81 107 150 191 225 277 344
#     4  10  21  36  56  85 115 143 189 244 292 341
#     4  11  22  34  56  87 120 148 188 250 296 337
#
# _framework density 20.250097
#
# number of rings (size 3 to 8) (size 9 to 14) (size 15 to 20)
#    0.000    2.000    0.000    5.250    3.500    5.000 
#    0.000    0.625    0.000    4.500    0.000    0.000 
#    0.000    0.000    0.000    0.000    0.000    0.000 
#
# Total GULP energy -396802.222874 kJ/mol
# GULP energy per Si atom -12400.069465 kJ/mol
# Density = 2.020401 g / cm^3
# Si number density = 20.250097 Si / 1000 Ang^3
#
#
#
# Elastic Constant Matrix: (Units=GPa)
#
#
# Indices 1 2 3 4 5 6 
#
# 1 66.7004 31.8418 31.1639 0.0000 7.4306 0.0000
# 2 31.8418 153.9074 38.1724 0.0000 7.9745 0.0000
# 3 31.1639 38.1724 82.0735 0.0000 22.0906 0.0000
# 4 0.0000 0.0000 0.0000 33.0941 0.0000 -3.4934
# 5 7.4306 7.9745 22.0906 0.0000 23.6861 0.0000
# 6 0.0000 0.0000 0.0000 -3.4934 0.0000 19.3703
#
#
#
# Elastic Compliance Matrix: (Units=1/GPa)
#
#
# Indices 1 2 3 4 5 6 
#
# 1 0.019000 -0.002409 -0.006286 0.000000 0.000713 0.000000
# 2 -0.002409 0.007666 -0.002883 0.000000 0.000864 0.000000
# 3 -0.006286 -0.002883 0.020188 0.000000 -0.015885 0.000000
# 4 0.000000 0.000000 0.000000 0.030803 0.000000 0.005555
# 5 0.000713 0.000864 -0.015885 0.000000 0.056519 0.000000
# 6 0.000000 0.000000 0.000000 0.005555 0.000000 0.052627
#
#
# Mechanical properties :
#
#
# Convention : Reuss Voigt Hill
#
# Bulk Modulus (GPa) = 42.19883 56.11527 49.15705
# Shear Modulus (GPa) = 22.95062 28.66365 25.80713
#
# Velocity S-wave (km/s) = 3.37019 3.76637 3.57378
# Velocity P-wave (km/s) = 6.00236 6.83267 6.43093
#
# Compressibility (1/GPa) = 0.02369734
#
# Stress axis : x y z
#
# Youngs Moduli (GPa) = 52.63202 130.44361 49.53516
#
# Poissons Ratio (x) = 0.31421 0.31138
# Poissons Ratio (y) = 0.12678 0.14283
# Poissons Ratio (z) = 0.33085 0.37612
#
# Static dielectric constant tensor:
#      x y z
#    x 3.580400 0.000000 0.100460 
#    y 0.000000 3.952710 0.000000 
#    z 0.100460 0.000000 3.510480 
# 
# 
# High freq. dielectric constant tensor:
#      x y z
#    x 1.779490 0.000000 0.010550 
#    y 0.000000 1.805540 0.000000 
#    z 0.010550 0.000000 1.772920 
# 
# From -- ./inp_files/31860.got.cif
#   From: 2010.06.25/outbox.cif.g09.slc.cpg/sg11_16_cif.got.tgz:31860.got - 2010.06.27 23:14:04.
