data_PCOD8075673
_publ_section_title
;
Structure prediction by ZEFSAII (Michael W. Deem and Ramdas Pophale) SiO2 
 PCOD8075673
Probable space group: P 21/M
;
_chemical_formula_sum "Si O2"
_cell_formula_units_Z 28
_cell_length_a 14.553792
_cell_length_b 8.897396
_cell_length_c 13.685911
_cell_angle_alpha 90.000000
_cell_angle_beta 104.343460
_cell_angle_gamma 90.000000
_cell_volume 1716.957407
_symmetry_space_group_name_H-M "P 21/M"
_symmetry_group_IT_number 11
_symmetry_cell_setting 'monoclinic'
loop_
_space_group_symop_operation_xyz
x,y,z
-x,1/2+y,-z
-x,-y,-z
x,1/2-y,z
loop_
_atom_site_type_symbol
_atom_site_label
_atom_site_fract_x
_atom_site_fract_y
_atom_site_fract_z
Si Si1 0.899526 0.927860 0.580351
Si Si2 0.924399 0.928569 0.275852
Si Si3 0.208108 0.571264 0.624289
Si Si4 0.595525 0.426269 0.410834
Si Si5 0.797696 0.423957 0.725333
Si Si6 0.408188 0.923273 0.367741
Si Si7 0.974499 0.076301 0.893023
O O1 0.916687 0.750000 0.580560
O O2 0.861104 0.987902 0.468393
O O3 0.823235 0.967430 0.643279
O O4 0.997076 0.013476 0.627545
O O5 0.914640 0.750000 0.281272
O O6 0.955436 0.978677 0.174968
O O7 0.824937 0.010406 0.277660
O O8 0.196974 0.750000 0.612710
O O9 0.316282 0.520039 0.632299
O O10 0.587421 0.250000 0.404002
O O11 0.610565 0.481295 0.526463
O O12 0.497232 0.492362 0.342424
O O13 0.813164 0.250000 0.695961
O O14 0.686932 0.452320 0.721409
O O15 0.864924 0.459758 0.835632
O O16 0.435435 0.750000 0.376890
O O17 0.989490 0.250000 0.914283
O O18 0.000000 0.000000 0.000000
#
# Coordination Sequence:
#
# PCOD8075673 Si02
#       7
#     4   4   4   4   4   4   4
#     4  11  20  29  44  67  93 126 162 195 227 272
#     4  10  21  35  48  66  92 123 156 193 233 280
#     4  11  20  32  46  64  94 130 161 193 230 273
#     4   9  18  29  43  64  93 127 160 195 229 265
#     4   9  17  32  49  68  95 128 158 193 236 277
#     4   9  16  29  46  64  91 126 161 194 229 270
#     4   9  19  34  53  72  95 119 148 191 238 285
#
# _framework density 16.307918000000001
#
# number of rings (size 3 to 8) (size 9 to 14) (size 15 to 20)
#    0.000    2.286    1.429    3.429    0.000    4.571 
#    0.000    0.000    0.000    0.000    0.000    1.000 
#    0.000    0.000    0.000    0.000    0.000    0.000 
#
# Total GULP energy -347076.995364 kJ/mol
# GULP energy per Si atom -12395.606977 kJ/mol
# Density = 1.627080 g / cm^3
# Si number density = 16.307918 Si / 1000 Ang^3
#
#
#
# Elastic Constant Matrix: (Units=GPa)
#
#
# Indices 1 2 3 4 5 6 
#
# 1 147.3582 39.3286 56.4248 0.0000 -6.1652 0.0000
# 2 39.3286 48.5342 25.3250 0.0000 -3.4022 0.0000
# 3 56.4248 25.3250 75.0932 0.0000 0.8998 0.0000
# 4 0.0000 0.0000 0.0000 23.9147 0.0000 -1.3706
# 5 -6.1652 -3.4022 0.8998 0.0000 13.7378 0.0000
# 6 0.0000 0.0000 0.0000 -1.3706 0.0000 29.8551
#
#
#
# Elastic Compliance Matrix: (Units=1/GPa)
#
#
# Indices 1 2 3 4 5 6 
#
# 1 0.010774 -0.005098 -0.006424 0.000000 0.003993 0.000000
# 2 -0.005098 0.028058 -0.005692 0.000000 0.005034 0.000000
# 3 -0.006424 -0.005692 0.020130 0.000000 -0.005611 0.000000
# 4 0.000000 0.000000 0.000000 0.041926 0.000000 0.001925
# 5 0.003993 0.005034 -0.005611 0.000000 0.076198 0.000000
# 6 0.000000 0.000000 0.000000 0.001925 0.000000 0.033583
#
#
# Mechanical properties :
#
#
# Convention : Reuss Voigt Hill
#
# Bulk Modulus (GPa) = 40.75955 57.01583 48.88769
# Shear Modulus (GPa) = 19.74133 23.49534 21.61834
#
# Velocity S-wave (km/s) = 3.48305 3.79982 3.64488
# Velocity P-wave (km/s) = 6.42055 7.36814 6.91061
#
# Compressibility (1/GPa) = 0.02453413
#
# Stress axis : x y z
#
# Youngs Moduli (GPa) = 92.81897 35.64005 49.67608
#
# Poissons Ratio (x) = 0.18171 0.31911
# Poissons Ratio (y) = 0.47323 0.28276
# Poissons Ratio (z) = 0.59624 0.20286
#
# Static dielectric constant tensor:
#      x y z
#    x 3.367680 0.000000 -0.057110 
#    y 0.000000 3.098560 0.000000 
#    z -0.057110 0.000000 2.817540 
# 
# 
# High freq. dielectric constant tensor:
#      x y z
#    x 1.634990 0.000000 -0.002200 
#    y 0.000000 1.631180 0.000000 
#    z -0.002200 0.000000 1.575670 
# 
# From -- ./inp_files/50976.got.cif
#   From: 2010.06.25/outbox.cif.g09.slc.cpg/sg11_26_cif.got.tgz:50976.got - 2010.06.27 23:14:04.
