data_PCOD8075565
_publ_section_title
;
Structure prediction by ZEFSAII (Michael W. Deem and Ramdas Pophale) SiO2 
 PCOD8075565
Probable space group: P 21/M
;
_chemical_formula_sum "Si O2"
_cell_formula_units_Z 24
_cell_length_a 16.186144
_cell_length_b 13.861563
_cell_length_c 12.138054
_cell_angle_alpha 90.000000
_cell_angle_beta 153.610844
_cell_angle_gamma 90.000000
_cell_volume 1210.438884
_symmetry_space_group_name_H-M "P 21/M"
_symmetry_group_IT_number 11
_symmetry_cell_setting 'monoclinic'
loop_
_space_group_symop_operation_xyz
x,y,z
-x,1/2+y,-z
-x,-y,-z
x,1/2-y,z
loop_
_atom_site_type_symbol
_atom_site_label
_atom_site_fract_x
_atom_site_fract_y
_atom_site_fract_z
Si Si1 0.669928 0.636834 0.414715
Si Si2 0.558308 0.135996 0.067731
Si Si3 0.951081 0.135996 0.460504
Si Si4 0.660255 0.864578 0.980690
Si Si5 0.925147 0.363168 0.180348
Si Si6 0.432799 0.521147 0.298421
O O1 0.630050 0.750000 0.382291
O O2 0.565689 0.597063 0.181291
O O3 0.592291 0.581504 0.427567
O O4 0.888736 0.616078 0.666225
O O5 0.550055 0.250000 0.055447
O O6 0.475510 0.099685 0.083869
O O7 0.768915 0.097888 0.306782
O O8 0.955316 0.250000 0.460695
O O9 0.950048 0.097069 0.334436
O O10 0.132804 0.099670 0.741147
O O11 0.649305 0.750000 0.947836
O O12 0.599034 0.917846 0.797033
O O13 0.877830 0.250000 0.125595
O O14 0.757029 0.418492 0.921740
O O15 0.500000 0.500000 0.500000
#
# Coordination Sequence:
#
# PCOD8075565 Si02
#       6
#     4   4   4   4   4   4
#     4  10  20  39  66  92 119 152 196 253 308 357
#     4   9  16  32  60  91 120 146 185 244 310 369
#     4   9  16  32  60  91 120 146 185 244 310 369
#     4  10  22  39  58  87 125 159 192 248 312 357
#     4  10  20  39  66  92 119 152 196 253 308 357
#     4  12  27  41  58  85 123 169 213 248 277 353
#
# _framework density 19.82752
#
# number of rings (size 3 to 8) (size 9 to 14) (size 15 to 20)
#    0.000    2.000    3.333    0.500    0.000    4.667 
#    0.000    0.000    0.000    4.000    0.000    0.000 
#    0.000    0.000    0.000    0.000    0.000    0.000 
#
# Total GULP energy -297625.760804 kJ/mol
# GULP energy per Si atom -12401.073367 kJ/mol
# Density = 1.978239 g / cm^3
# Si number density = 19.827520 Si / 1000 Ang^3
#
#
#
# Elastic Constant Matrix: (Units=GPa)
#
#
# Indices 1 2 3 4 5 6 
#
# 1 140.8373 54.5980 109.5172 0.0000 -1.0283 0.0000
# 2 54.5980 76.7213 54.9136 0.0000 2.0788 0.0000
# 3 109.5172 54.9136 141.2653 0.0000 3.2719 0.0000
# 4 0.0000 0.0000 0.0000 27.9007 0.0000 -3.3452
# 5 -1.0283 2.0788 3.2719 0.0000 45.1309 0.0000
# 6 0.0000 0.0000 0.0000 -3.3452 0.0000 28.3933
#
#
#
# Elastic Compliance Matrix: (Units=1/GPa)
#
#
# Indices 1 2 3 4 5 6 
#
# 1 0.018864 -0.004120 -0.013059 0.000000 0.001566 0.000000
# 2 -0.004120 0.018963 -0.004162 0.000000 -0.000666 0.000000
# 3 -0.013059 -0.004162 0.018855 0.000000 -0.001473 0.000000
# 4 0.000000 0.000000 0.000000 0.036355 0.000000 0.004283
# 5 0.001566 -0.000666 -0.001473 0.000000 0.022331 0.000000
# 6 0.000000 0.000000 0.000000 0.004283 0.000000 0.035724
#
#
# Mechanical properties :
#
#
# Convention : Reuss Voigt Hill
#
# Bulk Modulus (GPa) = 71.42870 88.54236 79.98553
# Shear Modulus (GPa) = 25.19631 29.60465 27.40048
#
# Velocity S-wave (km/s) = 3.56866 3.86827 3.72148
# Velocity P-wave (km/s) = 7.28585 8.04392 7.67425
#
# Compressibility (1/GPa) = 0.01399997
#
# Stress axis : x y z
#
# Youngs Moduli (GPa) = 53.01091 52.73414 53.03507
#
# Poissons Ratio (x) = 0.21724 0.69261
# Poissons Ratio (y) = 0.21838 0.22075
# Poissons Ratio (z) = 0.69229 0.21950
#
# Static dielectric constant tensor:
#      x y z
#    x 3.588980 0.000000 0.377940 
#    y 0.000000 3.506440 0.000000 
#    z 0.377940 0.000000 3.643680 
# 
# 
# High freq. dielectric constant tensor:
#      x y z
#    x 1.760130 0.000000 0.029650 
#    y 0.000000 1.783090 0.000000 
#    z 0.029650 0.000000 1.764430 
# 
# From -- ./inp_files/39724.got.cif
#   From: 2010.06.25/outbox.cif.g09.slc.cpg/sg11_20_cif.got.tgz:39724.got - 2010.06.27 23:14:04.
