data_PCOD8075260
_publ_section_title
;
Structure prediction by ZEFSAII (Michael W. Deem and Ramdas Pophale) SiO2 
 PCOD8075260
Probable space group: P 21/M
;
_chemical_formula_sum "Si O2"
_cell_formula_units_Z 28
_cell_length_a 9.148791
_cell_length_b 13.521110
_cell_length_c 17.985759
_cell_angle_alpha 90.000000
_cell_angle_beta 142.493202
_cell_angle_gamma 90.000000
_cell_volume 1354.625025
_symmetry_space_group_name_H-M "P 21/M"
_symmetry_group_IT_number 11
_symmetry_cell_setting 'monoclinic'
loop_
_space_group_symop_operation_xyz
x,y,z
-x,1/2+y,-z
-x,-y,-z
x,1/2-y,z
loop_
_atom_site_type_symbol
_atom_site_label
_atom_site_fract_x
_atom_site_fract_y
_atom_site_fract_z
Si Si1 0.836017 0.140720 0.941518
Si Si2 0.846842 0.532245 0.180410
Si Si3 0.216655 0.364572 0.552475
Si Si4 0.380433 0.861159 0.994559
Si Si5 0.236059 0.523693 0.685985
Si Si6 0.384963 0.964247 0.376561
Si Si7 0.711431 0.947205 0.810067
O O1 0.825664 0.250000 0.900632
O O2 0.626191 0.129560 0.918306
O O3 0.807697 0.059198 0.866122
O O4 0.085568 0.131228 0.087646
O O5 0.647866 0.611605 0.073272
O O6 0.781221 0.505199 0.236761
O O7 0.115360 0.576456 0.282720
O O8 0.822225 0.433706 0.120598
O O9 0.195836 0.250000 0.564152
O O10 0.240790 0.424110 0.638758
O O11 0.444745 0.380512 0.590162
O O12 0.978959 0.401573 0.416219
O O13 0.320770 0.750000 0.944401
O O14 0.483473 0.581119 0.768870
O O15 0.363862 0.054137 0.307683
O O16 0.500000 0.000000 0.500000
#
# Coordination Sequence:
#
# PCOD8075260 Si02
#       7
#     4   4   4   4   4   4   4
#     4  10  20  37  62  90 121 159 207 262 311 365
#     4  11  21  40  64  90 128 164 203 261 317 374
#     4  10  23  41  62  90 121 163 210 253 303 369
#     4  10  22  38  62  93 122 163 210 262 319 371
#     4  10  21  39  63  85 123 164 202 254 307 371
#     4  11  22  40  63  88 128 167 206 255 316 378
#     4  10  21  38  61  91 119 163 207 253 312 372
#
# _framework density 20.669927000000001
#
# number of rings (size 3 to 8) (size 9 to 14) (size 15 to 20)
#    0.000    1.714    4.286    0.000    0.000    4.571 
#    0.000    2.143    0.000    0.000    0.000    0.000 
#    0.000    0.000    0.000    0.000    0.000    0.000 
#
# Total GULP energy -347118.575660 kJ/mol
# GULP energy per Si atom -12397.091988 kJ/mol
# Density = 2.062288 g / cm^3
# Si number density = 20.669927 Si / 1000 Ang^3
#
#
#
# Elastic Constant Matrix: (Units=GPa)
#
#
# Indices 1 2 3 4 5 6 
#
# 1 68.9748 -7.8584 17.1278 0.0000 6.3780 0.0000
# 2 -7.8584 76.5543 2.5202 0.0000 -3.0766 0.0000
# 3 17.1278 2.5202 74.5671 0.0000 2.7506 0.0000
# 4 0.0000 0.0000 0.0000 10.8037 0.0000 3.2433
# 5 6.3780 -3.0766 2.7506 0.0000 47.6768 0.0000
# 6 0.0000 0.0000 0.0000 3.2433 0.0000 13.4557
#
#
#
# Elastic Compliance Matrix: (Units=1/GPa)
#
#
# Indices 1 2 3 4 5 6 
#
# 1 0.015749 0.001663 -0.003608 0.000000 -0.001791 0.000000
# 2 0.001663 0.013289 -0.000856 0.000000 0.000684 0.000000
# 3 -0.003608 -0.000856 0.014283 0.000000 -0.000397 0.000000
# 4 0.000000 0.000000 0.000000 0.099781 0.000000 -0.024051
# 5 -0.001791 0.000684 -0.000397 0.000000 0.021281 0.000000
# 6 0.000000 0.000000 0.000000 -0.024051 0.000000 0.080115
#
#
# Mechanical properties :
#
#
# Convention : Reuss Voigt Hill
#
# Bulk Modulus (GPa) = 26.51130 27.07505 26.79317
# Shear Modulus (GPa) = 19.03509 28.27434 23.65471
#
# Velocity S-wave (km/s) = 3.03794 3.70252 3.38657
# Velocity P-wave (km/s) = 5.01590 5.60405 5.31812
#
# Compressibility (1/GPa) = 0.03771976
#
# Stress axis : x y z
#
# Youngs Moduli (GPa) = 63.49582 75.24972 70.01337
#
# Poissons Ratio (x) = -0.12517 0.25258
# Poissons Ratio (y) = -0.10562 0.05996
# Poissons Ratio (z) = 0.22907 0.06445
#
# Static dielectric constant tensor:
#      x y z
#    x 4.027170 0.000000 0.318260 
#    y 0.000000 3.399270 0.000000 
#    z 0.318260 0.000000 4.094810 
# 
# 
# High freq. dielectric constant tensor:
#      x y z
#    x 1.821030 0.000000 0.010240 
#    y 0.000000 1.770480 0.000000 
#    z 0.010240 0.000000 1.822620 
# 
# From -- ./inp_files/58147.got.cif
#   From: 2010.06.25/outbox.cif.g09.slc.cpg/sg11_30_cif.got.tgz:58147.got - 2010.06.27 23:14:04.
