data_PCOD8075365
_publ_section_title
;
Structure prediction by ZEFSAII (Michael W. Deem and Ramdas Pophale) SiO2 
 PCOD8075365
Probable space group: P 21/M
;
_chemical_formula_sum "Si O2"
_cell_formula_units_Z 32
_cell_length_a 19.478128
_cell_length_b 12.528987
_cell_length_c 15.365017
_cell_angle_alpha 90.000000
_cell_angle_beta 153.251843
_cell_angle_gamma 90.000000
_cell_volume 1687.625238
_symmetry_space_group_name_H-M "P 21/M"
_symmetry_group_IT_number 11
_symmetry_cell_setting 'monoclinic'
loop_
_space_group_symop_operation_xyz
x,y,z
-x,1/2+y,-z
-x,-y,-z
x,1/2-y,z
loop_
_atom_site_type_symbol
_atom_site_label
_atom_site_fract_x
_atom_site_fract_y
_atom_site_fract_z
Si Si1 0.173173 0.025056 0.212659
Si Si2 0.396630 0.870148 0.551446
Si Si3 0.811515 0.127266 0.403572
Si Si4 0.082694 0.492277 0.802727
Si Si5 0.278348 0.873376 0.891611
Si Si6 0.148418 0.369812 0.359148
Si Si7 0.590381 0.507747 0.264242
Si Si8 0.719207 0.629830 0.838907
O O1 0.188644 0.116902 0.302994
O O2 0.251907 0.060865 0.213525
O O3 0.252146 0.918075 0.337655
O O4 0.000000 0.000000 0.000000
O O5 0.353508 0.750000 0.529643
O O6 0.538827 0.872865 0.647838
O O7 0.438365 0.934909 0.684687
O O8 0.801179 0.250000 0.422581
O O9 0.814400 0.119025 0.302907
O O10 0.663258 0.064943 0.271188
O O11 0.969146 0.077510 0.615679
O O12 0.173074 0.577464 0.847239
O O13 0.990677 0.553346 0.773649
O O14 0.199958 0.414943 0.983580
O O15 0.314830 0.750000 0.956455
O O16 0.433121 0.940463 0.055229
O O17 0.098291 0.250000 0.321845
O O18 0.295251 0.396115 0.583757
O O19 0.778615 0.750000 0.891593
#
# Coordination Sequence:
#
# PCOD8075365 Si02
#       8
#     4   4   4   4   4   4   4   4
#     4  11  22  39  58  87 117 149 189 238 288 339
#     4  10  22  39  61  86 118 154 192 237 284 345
#     4  10  22  38  59  88 119 155 196 244 299 351
#     4  11  21  39  59  85 119 156 197 243 290 346
#     4  11  22  38  60  87 119 155 197 244 299 354
#     4  10  21  37  57  82 114 153 195 237 287 344
#     4  10  20  38  61  84 119 151 197 240 292 345
#     4  11  22  39  60  84 118 155 195 237 286 345
#
# _framework density 18.961556000000002
#
# number of rings (size 3 to 8) (size 9 to 14) (size 15 to 20)
#    0.000    1.500    2.500    3.000    0.000    1.000 
#    0.000    0.000    0.000    6.000    0.000    0.000 
#    0.000    0.000    0.000    0.000    0.000    0.000 
#
# Total GULP energy -396911.139541 kJ/mol
# GULP energy per Si atom -12403.473111 kJ/mol
# Density = 1.891840 g / cm^3
# Si number density = 18.961556 Si / 1000 Ang^3
#
#
#
# Elastic Constant Matrix: (Units=GPa)
#
#
# Indices 1 2 3 4 5 6 
#
# 1 72.9187 19.0309 16.5675 0.0000 -2.8310 0.0000
# 2 19.0309 118.2058 43.7030 0.0000 -4.1972 0.0000
# 3 16.5675 43.7030 98.3367 0.0000 1.1865 0.0000
# 4 0.0000 0.0000 0.0000 20.8590 0.0000 2.6121
# 5 -2.8310 -4.1972 1.1865 0.0000 28.2449 0.0000
# 6 0.0000 0.0000 0.0000 2.6121 0.0000 14.7528
#
#
#
# Elastic Compliance Matrix: (Units=1/GPa)
#
#
# Indices 1 2 3 4 5 6 
#
# 1 0.014592 -0.001662 -0.001735 0.000000 0.001288 0.000000
# 2 -0.001662 0.010394 -0.004358 0.000000 0.001561 0.000000
# 3 -0.001735 -0.004358 0.012415 0.000000 -0.001343 0.000000
# 4 0.000000 0.000000 0.000000 0.049028 0.000000 -0.008681
# 5 0.001288 0.001561 -0.001343 0.000000 0.035822 0.000000
# 6 0.000000 0.000000 0.000000 -0.008681 0.000000 0.069321
#
#
# Mechanical properties :
#
#
# Convention : Reuss Voigt Hill
#
# Bulk Modulus (GPa) = 45.68364 49.78490 47.73427
# Shear Modulus (GPa) = 23.32318 26.78200 25.05259
#
# Velocity S-wave (km/s) = 3.51098 3.76232 3.63882
# Velocity P-wave (km/s) = 6.37032 6.72206 6.54855
#
# Compressibility (1/GPa) = 0.02188967
#
# Stress axis : x y z
#
# Youngs Moduli (GPa) = 68.53093 96.20804 80.55021
#
# Poissons Ratio (x) = 0.15989 0.13978
# Poissons Ratio (y) = 0.11389 0.35106
# Poissons Ratio (z) = 0.11893 0.41930
#
# Static dielectric constant tensor:
#      x y z
#    x 3.583090 0.000000 0.016560 
#    y 0.000000 3.652620 0.000000 
#    z 0.016560 0.000000 3.431630 
# 
# 
# High freq. dielectric constant tensor:
#      x y z
#    x 1.745300 0.000000 0.000730 
#    y 0.000000 1.744070 0.000000 
#    z 0.000730 0.000000 1.740670 
# 
# From -- ./inp_files/21516.got.cif
#   From: 2010.06.25/outbox.cif.g09.slc.cpg/sg11_11_cif.got.tgz:21516.got - 2010.06.27 23:14:04.
