data_PCOD8075492
_publ_section_title
;
Structure prediction by ZEFSAII (Michael W. Deem and Ramdas Pophale) SiO2 
 PCOD8075492
Probable space group: P 21/M
;
_chemical_formula_sum "Si O2"
_cell_formula_units_Z 32
_cell_length_a 23.241540
_cell_length_b 12.900056
_cell_length_c 5.369964
_cell_angle_alpha 90.000000
_cell_angle_beta 109.435651
_cell_angle_gamma 90.000000
_cell_volume 1518.262406
_symmetry_space_group_name_H-M "P 21/M"
_symmetry_group_IT_number 11
_symmetry_cell_setting 'monoclinic'
loop_
_space_group_symop_operation_xyz
x,y,z
-x,1/2+y,-z
-x,-y,-z
x,1/2-y,z
loop_
_atom_site_type_symbol
_atom_site_label
_atom_site_fract_x
_atom_site_fract_y
_atom_site_fract_z
Si Si1 0.754221 0.372614 0.409389
Si Si2 0.981896 0.868452 0.725573
Si Si3 0.315570 0.128938 0.211509
Si Si4 0.558809 0.942073 0.854221
Si Si5 0.446682 0.864904 0.462941
Si Si6 0.358826 0.981866 0.645238
Si Si7 0.209776 0.979982 0.015818
Si Si8 0.925578 0.950756 0.144547
O O1 0.754969 0.250000 0.432313
O O2 0.686033 0.415464 0.241764
O O3 0.773455 0.418085 0.707026
O O4 0.796577 0.405319 0.236187
O O5 0.003466 0.750000 0.752285
O O6 0.942119 0.890477 0.421783
O O7 0.944179 0.887887 0.924156
O O8 0.042898 0.936818 0.811330
O O9 0.300941 0.250000 0.198947
O O10 0.379984 0.106178 0.174486
O O11 0.320956 0.081341 0.495335
O O12 0.258916 0.068194 0.007192
O O13 0.502216 0.863537 0.746801
O O14 0.535913 0.053858 0.723319
O O15 0.578005 0.970114 0.160868
O O16 0.439952 0.750000 0.341675
O O17 0.380695 0.899314 0.470630
O O18 0.146416 0.036566 0.970850
#
# Coordination Sequence:
#
# PCOD8075492 Si02
#       8
#     4   4   4   4   4   4   4   4
#     4  11  23  40  64  90 124 165 205 257 314 369
#     4  10  21  39  64  94 127 169 212 252 311 366
#     4  10  22  38  58  82 114 158 199 248 306 361
#     4  10  20  39  55  79 115 145 194 252 304 372
#     4  10  21  34  56  83 109 147 194 248 313 374
#     4  10  21  39  55  82 114 149 199 256 305 372
#     4  11  23  43  61  94 130 159 212 253 302 371
#     4  10  22  40  63  93 132 167 205 266 305 354
#
# _framework density 21.076723999999999
#
# number of rings (size 3 to 8) (size 9 to 14) (size 15 to 20)
#    0.000    1.750    1.250    2.625    0.000    4.000 
#    0.000    0.000    0.000    0.000    0.000    0.000 
#    0.000    0.000    0.000    0.000    0.000    0.000 
#
# Total GULP energy -396487.554099 kJ/mol
# GULP energy per Si atom -12390.236066 kJ/mol
# Density = 2.102875 g / cm^3
# Si number density = 21.076724 Si / 1000 Ang^3
#
#
#
# Elastic Constant Matrix: (Units=GPa)
#
#
# Indices 1 2 3 4 5 6 
#
# 1 80.3510 30.0831 21.1791 0.0000 3.2004 0.0000
# 2 30.0831 157.3232 38.6890 0.0000 -1.6086 0.0000
# 3 21.1791 38.6890 96.1067 0.0000 -11.2378 0.0000
# 4 0.0000 0.0000 0.0000 20.1813 0.0000 -2.6738
# 5 3.2004 -1.6086 -11.2378 0.0000 31.4224 0.0000
# 6 0.0000 0.0000 0.0000 -2.6738 0.0000 18.3242
#
#
#
# Elastic Compliance Matrix: (Units=1/GPa)
#
#
# Indices 1 2 3 4 5 6 
#
# 1 0.013987 -0.002077 -0.002531 0.000000 -0.002436 0.000000
# 2 -0.002077 0.007377 -0.002550 0.000000 -0.000323 0.000000
# 3 -0.002531 -0.002550 0.012528 0.000000 0.004608 0.000000
# 4 0.000000 0.000000 0.000000 0.050528 0.000000 0.007373
# 5 -0.002436 -0.000323 0.004608 0.000000 0.033704 0.000000
# 6 0.000000 0.000000 0.000000 0.007373 0.000000 0.055648
#
#
# Mechanical properties :
#
#
# Convention : Reuss Voigt Hill
#
# Bulk Modulus (GPa) = 51.08121 57.07591 54.07856
# Shear Modulus (GPa) = 25.69187 30.24091 27.96639
#
# Velocity S-wave (km/s) = 3.49516 3.79199 3.64660
# Velocity P-wave (km/s) = 6.36998 6.80522 6.59120
#
# Compressibility (1/GPa) = 0.01957667
#
# Stress axis : x y z
#
# Youngs Moduli (GPa) = 71.49383 135.55148 79.82041
#
# Poissons Ratio (x) = 0.28155 0.20203
# Poissons Ratio (y) = 0.14850 0.20353
# Poissons Ratio (z) = 0.18096 0.34563
#
# Static dielectric constant tensor:
#      x y z
#    x 3.785210 0.000000 -0.002540 
#    y 0.000000 3.719730 0.000000 
#    z -0.002540 0.000000 3.944210 
# 
# 
# High freq. dielectric constant tensor:
#      x y z
#    x 1.824150 0.000000 -0.001340 
#    y 0.000000 1.822550 0.000000 
#    z -0.001340 0.000000 1.825620 
# 
# From -- ./inp_files/9393.got.cif
#   From: 2010.06.25/outbox.cif.g09.slc.cpg/sg11_5_cif.got.tgz:9393.got - 2010.06.27 23:14:04.
