data_PCOD8075527
_publ_section_title
;
Structure prediction by ZEFSAII (Michael W. Deem and Ramdas Pophale) SiO2 
 PCOD8075527
Probable space group: P 21/M
;
_chemical_formula_sum "Si O2"
_cell_formula_units_Z 32
_cell_length_a 11.618929
_cell_length_b 17.729484
_cell_length_c 14.638022
_cell_angle_alpha 90.000000
_cell_angle_beta 149.170175
_cell_angle_gamma 90.000000
_cell_volume 1545.360898
_symmetry_space_group_name_H-M "P 21/M"
_symmetry_group_IT_number 11
_symmetry_cell_setting 'monoclinic'
loop_
_space_group_symop_operation_xyz
x,y,z
-x,1/2+y,-z
-x,-y,-z
x,1/2-y,z
loop_
_atom_site_type_symbol
_atom_site_label
_atom_site_fract_x
_atom_site_fract_y
_atom_site_fract_z
Si Si1 0.422964 0.096281 0.272952
Si Si2 0.912099 0.337123 0.607278
Si Si3 0.886525 0.928648 0.091705
Si Si4 0.373007 0.945138 0.981789
Si Si5 0.341217 0.335307 0.409636
Si Si6 0.993394 0.335598 0.324920
Si Si7 0.260712 0.336582 0.685502
Si Si8 0.356838 0.956961 0.326965
O O1 0.680068 0.118943 0.436609
O O2 0.312465 0.132233 0.288153
O O3 0.395309 0.004776 0.260649
O O4 0.285507 0.119181 0.088922
O O5 0.861939 0.250000 0.594702
O O6 0.049912 0.372599 0.783966
O O7 0.052261 0.347733 0.611230
O O8 0.097283 0.953394 0.175131
O O9 0.777128 0.005333 0.053319
O O10 0.540342 0.893472 0.154572
O O11 0.218291 0.890897 0.814423
O O12 0.500000 0.000000 0.000000
O O13 0.419412 0.250000 0.454517
O O14 0.538517 0.373489 0.604750
O O15 0.106248 0.344041 0.302188
O O16 0.909497 0.250000 0.283909
O O17 0.173247 0.357469 0.525153
O O18 0.348663 0.250000 0.749882
O O19 0.500000 0.000000 0.500000
#
# Coordination Sequence:
#
# PCOD8075527 Si02
#       8
#     4   4   4   4   4   4   4   4
#     4  11  24  40  66  95 130 171 210 264 329 388
#     4  11  24  43  65  94 132 169 216 269 321 386
#     4  12  25  41  64 100 131 172 212 264 332 382
#     4  12  25  40  65  98 132 168 218 269 317 388
#     4  10  21  41  67  94 125 170 218 265 316 381
#     4  10  24  45  69  92 128 175 217 267 323 377
#     4  10  24  45  68  93 128 174 218 267 323 381
#     4  10  20  39  63  88 130 167 205 259 319 378
#
# _framework density 20.707136999999999
#
# number of rings (size 3 to 8) (size 9 to 14) (size 15 to 20)
#    0.000    1.250    3.750    2.625    3.500    1.500 
#    0.000    0.000    0.000    0.000    0.000    0.000 
#    0.000    0.000    0.000    0.000    0.000    0.000 
#
# Total GULP energy -396819.704957 kJ/mol
# GULP energy per Si atom -12400.615780 kJ/mol
# Density = 2.066001 g / cm^3
# Si number density = 20.707137 Si / 1000 Ang^3
#
#
#
# Elastic Constant Matrix: (Units=GPa)
#
#
# Indices 1 2 3 4 5 6 
#
# 1 56.6038 39.2801 44.3895 0.0000 0.3564 0.0000
# 2 39.2801 128.4132 63.4576 0.0000 0.9365 0.0000
# 3 44.3895 63.4576 132.3117 0.0000 -10.9191 0.0000
# 4 0.0000 0.0000 0.0000 24.9859 0.0000 2.5958
# 5 0.3564 0.9365 -10.9191 0.0000 24.2883 0.0000
# 6 0.0000 0.0000 0.0000 2.5958 0.0000 24.9055
#
#
#
# Elastic Compliance Matrix: (Units=1/GPa)
#
#
# Indices 1 2 3 4 5 6 
#
# 1 0.026284 -0.004618 -0.006875 0.000000 -0.003298 0.000000
# 2 -0.004618 0.011190 -0.003996 0.000000 -0.002160 0.000000
# 3 -0.006875 -0.003996 0.012257 0.000000 0.005765 0.000000
# 4 0.000000 0.000000 0.000000 0.040461 0.000000 -0.004217
# 5 -0.003298 -0.002160 0.005765 0.000000 0.043896 0.000000
# 6 0.000000 0.000000 0.000000 -0.004217 0.000000 0.040591
#
#
# Mechanical properties :
#
#
# Convention : Reuss Voigt Hill
#
# Bulk Modulus (GPa) = 53.32716 67.95367 60.64042
# Shear Modulus (GPa) = 23.59508 26.18270 24.88889
#
# Velocity S-wave (km/s) = 3.37926 3.55974 3.47067
# Velocity P-wave (km/s) = 6.40584 7.05574 6.73863
#
# Compressibility (1/GPa) = 0.01875217
#
# Stress axis : x y z
#
# Youngs Moduli (GPa) = 38.04594 89.36204 81.58795
#
# Poissons Ratio (x) = 0.41271 0.56094
# Poissons Ratio (y) = 0.17571 0.32601
# Poissons Ratio (z) = 0.26158 0.35708
#
# Static dielectric constant tensor:
#      x y z
#    x 3.846910 0.000000 -0.370120 
#    y 0.000000 4.314000 0.000000 
#    z -0.370120 0.000000 5.325000 
# 
# 
# High freq. dielectric constant tensor:
#      x y z
#    x 1.814580 0.000000 0.002220 
#    y 0.000000 1.820670 0.000000 
#    z 0.002220 0.000000 1.808910 
# 
# From -- ./inp_files/50726.got.cif
#   From: 2010.06.25/outbox.cif.g09.slc.cpg/sg11_26_cif.got.tgz:50726.got - 2010.06.27 23:14:04.
