data_PCOD8075198
_publ_section_title
;
Structure prediction by ZEFSAII (Michael W. Deem and Ramdas Pophale) SiO2 
 PCOD8075198
Probable space group: P 21/M
;
_chemical_formula_sum "Si O2"
_cell_formula_units_Z 28
_cell_length_a 9.423577
_cell_length_b 8.688509
_cell_length_c 29.330601
_cell_angle_alpha 90.000000
_cell_angle_beta 36.590138
_cell_angle_gamma 90.000000
_cell_volume 1431.500221
_symmetry_space_group_name_H-M "P 21/M"
_symmetry_group_IT_number 11
_symmetry_cell_setting 'monoclinic'
loop_
_space_group_symop_operation_xyz
x,y,z
-x,1/2+y,-z
-x,-y,-z
x,1/2-y,z
loop_
_atom_site_type_symbol
_atom_site_label
_atom_site_fract_x
_atom_site_fract_y
_atom_site_fract_z
Si Si1 0.346450 0.929315 0.624788
Si Si2 0.950927 0.570279 0.375654
Si Si3 0.761440 0.431423 0.930987
Si Si4 0.903847 0.928275 0.801854
Si Si5 0.921735 0.931035 0.067705
Si Si6 0.385315 0.928087 0.200778
Si Si7 0.850827 0.431559 0.497662
O O1 0.412977 0.750000 0.606107
O O2 0.152847 0.966913 0.713365
O O3 0.248876 0.978193 0.600675
O O4 0.576216 0.028933 0.577182
O O5 0.887031 0.750000 0.390628
O O6 0.951955 0.510075 0.426381
O O7 0.211079 0.536533 0.287851
O O8 0.740853 0.250000 0.939293
O O9 0.896673 0.476225 0.850020
O O10 0.914336 0.497283 0.933970
O O11 0.500000 0.500000 0.000000
O O12 0.877737 0.750000 0.820453
O O13 0.686526 0.974273 0.825020
O O14 0.950895 0.750000 0.057133
O O15 0.648648 0.977115 0.148400
O O16 0.000000 0.000000 0.000000
O O17 0.372410 0.750000 0.189794
O O18 0.885960 0.250000 0.485554
O O19 0.000000 0.500000 0.500000
#
# Coordination Sequence:
#
# PCOD8075198 Si02
#       7
#     4   4   4   4   4   4   4
#     4  10  21  39  61  86 116 151 191 234 281 340
#     4  10  20  37  61  87 114 149 191 234 283 342
#     4  11  23  38  57  82 114 150 190 234 283 338
#     4  10  21  37  59  87 116 146 185 231 279 332
#     4  10  22  38  56  81 110 144 185 229 276 329
#     4   9  19  37  60  84 112 146 185 229 279 335
#     4  12  25  40  58  83 116 152 191 239 291 342
#
# _framework density 19.559896999999999
#
# number of rings (size 3 to 8) (size 9 to 14) (size 15 to 20)
#    0.000    1.714    0.000    4.286    0.000    7.429 
#    0.000    1.429    0.000    0.000    0.000    0.000 
#    0.000    0.000    0.000    0.000    0.000    0.000 
#
# Total GULP energy -347342.681943 kJ/mol
# GULP energy per Si atom -12405.095784 kJ/mol
# Density = 1.951538 g / cm^3
# Si number density = 19.559897 Si / 1000 Ang^3
#
#
#
# Elastic Constant Matrix: (Units=GPa)
#
#
# Indices 1 2 3 4 5 6 
#
# 1 149.9838 24.5571 77.6704 0.0000 2.0110 0.0000
# 2 24.5571 49.0840 30.2136 0.0000 2.1318 0.0000
# 3 77.6704 30.2136 110.5994 0.0000 3.1180 0.0000
# 4 0.0000 0.0000 0.0000 35.5644 0.0000 2.5589
# 5 2.0110 2.1318 3.1180 0.0000 39.4930 0.0000
# 6 0.0000 0.0000 0.0000 2.5589 0.0000 34.6381
#
#
#
# Elastic Compliance Matrix: (Units=1/GPa)
#
#
# Indices 1 2 3 4 5 6 
#
# 1 0.010508 -0.000862 -0.007146 0.000000 0.000076 0.000000
# 2 -0.000862 0.024587 -0.006089 0.000000 -0.000803 0.000000
# 3 -0.007146 -0.006089 0.015739 0.000000 -0.000550 0.000000
# 4 0.000000 0.000000 0.000000 0.028268 0.000000 -0.002088
# 5 0.000076 -0.000803 -0.000550 0.000000 0.025404 0.000000
# 6 0.000000 0.000000 0.000000 -0.002088 0.000000 0.029024
#
#
# Mechanical properties :
#
#
# Convention : Reuss Voigt Hill
#
# Bulk Modulus (GPa) = 44.16839 63.83883 54.00361
# Shear Modulus (GPa) = 29.53826 33.75417 31.64621
#
# Velocity S-wave (km/s) = 3.89027 4.15864 4.02669
# Velocity P-wave (km/s) = 6.54286 7.46777 7.02056
#
# Compressibility (1/GPa) = 0.02264062
#
# Stress axis : x y z
#
# Youngs Moduli (GPa) = 95.16328 40.67145 63.53572
#
# Poissons Ratio (x) = 0.03505 0.45405
# Poissons Ratio (y) = 0.08200 0.38687
# Poissons Ratio (z) = 0.68007 0.24765
#
# Static dielectric constant tensor:
#      x y z
#    x 3.706350 0.000000 -0.005140 
#    y 0.000000 3.622960 0.000000 
#    z -0.005140 0.000000 3.661800 
# 
# 
# High freq. dielectric constant tensor:
#      x y z
#    x 1.763910 0.000000 -0.001250 
#    y 0.000000 1.768840 0.000000 
#    z -0.001250 0.000000 1.775330 
# 
# From -- ./inp_files/70795.got.cif
#   From: 2010.06.25/outbox.cif.g09.slc.cpg/sg11_36_cif.got.tgz:70795.got - 2010.06.27 23:14:04.
