data_PCOD8075339
_publ_section_title
;
Structure prediction by ZEFSAII (Michael W. Deem and Ramdas Pophale) SiO2 
 PCOD8075339
Probable space group: P 21/M
;
_chemical_formula_sum "Si O2"
_cell_formula_units_Z 32
_cell_length_a 16.160760
_cell_length_b 8.394819
_cell_length_c 24.527512
_cell_angle_alpha 90.000000
_cell_angle_beta 151.113088
_cell_angle_gamma 90.000000
_cell_volume 1607.488298
_symmetry_space_group_name_H-M "P 21/M"
_symmetry_group_IT_number 11
_symmetry_cell_setting 'monoclinic'
loop_
_space_group_symop_operation_xyz
x,y,z
-x,1/2+y,-z
-x,-y,-z
x,1/2-y,z
loop_
_atom_site_type_symbol
_atom_site_label
_atom_site_fract_x
_atom_site_fract_y
_atom_site_fract_z
Si Si1 0.919113 0.938349 0.633029
Si Si2 0.354919 0.565795 0.604203
Si Si3 0.722919 0.433367 0.831845
Si Si4 0.428178 0.930105 0.012627
Si Si5 0.814166 0.934992 0.389419
Si Si6 0.935759 0.060980 0.168376
Si Si7 0.015012 0.561975 0.926119
Si Si8 0.743313 0.430235 0.239822
O O1 0.896258 0.750000 0.614882
O O2 0.942568 0.990788 0.710349
O O3 0.086705 0.990938 0.694265
O O4 0.746631 0.020253 0.510151
O O5 0.319625 0.750000 0.596154
O O6 0.558915 0.538043 0.719939
O O7 0.284428 0.453443 0.611009
O O8 0.666739 0.250000 0.797893
O O9 0.866979 0.463855 0.869941
O O10 0.802911 0.474985 0.938095
O O11 0.377110 0.750000 0.973696
O O12 0.583249 0.951498 0.142818
O O13 0.252376 0.014645 0.929760
O O14 0.500000 0.000000 0.000000
O O15 0.806916 0.750000 0.367278
O O16 0.749089 0.059282 0.307550
O O17 0.000000 0.000000 0.500000
O O18 0.928732 0.250000 0.161517
O O19 0.990182 0.000403 0.139681
O O20 0.977321 0.750000 0.908721
O O21 0.702667 0.250000 0.197514
#
# Coordination Sequence:
#
# PCOD8075339 Si02
#       8
#     4   4   4   4   4   4   4   4
#     4  10  20  38  60  81 117 160 201 246 296 351
#     4  12  25  40  60  88 120 156 202 246 293 353
#     4  10  21  39  64  92 122 153 188 237 300 360
#     4  11  21  35  55  82 118 160 204 247 296 353
#     4  12  24  39  58  83 116 157 201 245 295 349
#     4   9  19  37  60  86 115 155 199 244 298 353
#     4   9  19  39  66  91 117 150 190 240 299 359
#     4  11  22  37  55  81 117 158 201 249 298 349
#
# _framework density 19.906832000000001
#
# number of rings (size 3 to 8) (size 9 to 14) (size 15 to 20)
#    0.000    1.500    2.500    3.375    1.750    1.000 
#    0.000    2.500    0.000    0.000    0.000    0.000 
#    0.000    0.000    0.000    0.000    0.000    0.000 
#
# Total GULP energy -396439.446731 kJ/mol
# GULP energy per Si atom -12388.732710 kJ/mol
# Density = 1.986152 g / cm^3
# Si number density = 19.906832 Si / 1000 Ang^3
#
#
#
# Elastic Constant Matrix: (Units=GPa)
#
#
# Indices 1 2 3 4 5 6 
#
# 1 110.9780 15.8604 52.2946 0.0000 -23.5685 0.0000
# 2 15.8604 57.9427 20.4613 0.0000 -0.7508 0.0000
# 3 52.2946 20.4613 134.1076 0.0000 -13.1176 0.0000
# 4 0.0000 0.0000 0.0000 28.9730 0.0000 1.1397
# 5 -23.5685 -0.7508 -13.1176 0.0000 35.4747 0.0000
# 6 0.0000 0.0000 0.0000 1.1397 0.0000 26.1649
#
#
#
# Elastic Compliance Matrix: (Units=1/GPa)
#
#
# Indices 1 2 3 4 5 6 
#
# 1 0.012612 -0.001970 -0.003945 0.000000 0.006879 0.000000
# 2 -0.001970 0.018564 -0.002235 0.000000 -0.001742 0.000000
# 3 -0.003945 -0.002235 0.009415 0.000000 0.000814 0.000000
# 4 0.000000 0.000000 0.000000 0.034574 0.000000 -0.001506
# 5 0.006879 -0.001742 0.000814 0.000000 0.033023 0.000000
# 6 0.000000 0.000000 0.000000 -0.001506 0.000000 0.038285
#
#
# Mechanical properties :
#
#
# Convention : Reuss Voigt Hill
#
# Bulk Modulus (GPa) = 41.16412 53.36233 47.26323
# Shear Modulus (GPa) = 29.26207 32.41667 30.83937
#
# Velocity S-wave (km/s) = 3.83815 4.03975 3.94024
# Velocity P-wave (km/s) = 6.35336 6.97306 6.67041
#
# Compressibility (1/GPa) = 0.02429300
#
# Stress axis : x y z
#
# Youngs Moduli (GPa) = 79.29008 53.86706 106.20940
#
# Poissons Ratio (x) = 0.10613 0.41894
# Poissons Ratio (y) = 0.15621 0.23733
# Poissons Ratio (z) = 0.31276 0.12037
#
# Static dielectric constant tensor:
#      x y z
#    x 3.570880 0.000000 -0.234950 
#    y 0.000000 3.641770 0.000000 
#    z -0.234950 0.000000 3.522490 
# 
# 
# High freq. dielectric constant tensor:
#      x y z
#    x 1.766250 0.000000 -0.014450 
#    y 0.000000 1.763560 0.000000 
#    z -0.014450 0.000000 1.787540 
# 
# From -- ./inp_files/69108.got.cif
#   From: 2010.06.25/outbox.cif.g09.slc.cpg/sg11_35_cif.got.tgz:69108.got - 2010.06.27 23:14:04.
