data_PCOD8075556
_publ_section_title
;
Structure prediction by ZEFSAII (Michael W. Deem and Ramdas Pophale) SiO2 
 PCOD8075556
Probable space group: P 21/M
;
_chemical_formula_sum "Si O2"
_cell_formula_units_Z 32
_cell_length_a 14.261156
_cell_length_b 16.913840
_cell_length_c 11.954122
_cell_angle_alpha 90.000000
_cell_angle_beta 147.034711
_cell_angle_gamma 90.000000
_cell_volume 1568.982076
_symmetry_space_group_name_H-M "P 21/M"
_symmetry_group_IT_number 11
_symmetry_cell_setting 'monoclinic'
loop_
_space_group_symop_operation_xyz
x,y,z
-x,1/2+y,-z
-x,-y,-z
x,1/2-y,z
loop_
_atom_site_type_symbol
_atom_site_label
_atom_site_fract_x
_atom_site_fract_y
_atom_site_fract_z
Si Si1 0.118679 0.655910 0.625443
Si Si2 0.017822 0.156346 0.275692
Si Si3 0.206450 0.156483 0.839487
Si Si4 0.481880 0.592839 0.991168
Si Si5 0.410975 0.155480 0.665554
Si Si6 0.881797 0.155877 0.903844
Si Si7 0.795422 0.843121 0.913182
Si Si8 0.518099 0.407992 0.538524
O O1 0.134653 0.750000 0.637303
O O2 0.079263 0.625127 0.711512
O O3 0.964915 0.624512 0.392696
O O4 0.294568 0.617337 0.757301
O O5 0.023483 0.250000 0.282716
O O6 0.214158 0.126302 0.471293
O O7 0.918527 0.125834 0.066763
O O8 0.199377 0.250000 0.836246
O O9 0.375470 0.132927 0.942168
O O10 0.213525 0.120167 0.971365
O O11 0.494425 0.624601 0.129643
O O12 0.500000 0.500000 0.000000
O O13 0.430395 0.250000 0.676381
O O14 0.504011 0.115099 0.654054
O O15 0.868759 0.250000 0.886220
O O16 0.705475 0.118464 0.682398
O O17 0.036076 0.123166 0.980623
O O18 0.812661 0.750000 0.937404
O O19 0.624405 0.862458 0.674485
O O20 0.500000 0.500000 0.500000
#
# Coordination Sequence:
#
# PCOD8075556 Si02
#       8
#     4   4   4   4   4   4   4   4
#     4  10  20  39  65  92 118 161 216 265 312 377
#     4   9  17  35  67  96 117 151 215 275 313 357
#     4  10  22  42  65  89 122 167 216 261 309 378
#     4  12  26  40  62  97 136 168 206 263 332 383
#     4  11  21  43  71  94 124 171 223 269 312 379
#     4  10  20  39  65  92 118 161 216 265 312 377
#     4  10  22  42  65  89 122 167 216 261 309 378
#     4  12  26  40  62  97 136 168 206 263 332 383
#
# _framework density 20.395389000000002
#
# number of rings (size 3 to 8) (size 9 to 14) (size 15 to 20)
#    0.000    1.500    2.500    3.000    1.750    3.000 
#    0.000    2.500    0.000    0.000    0.000    0.000 
#    0.000    0.000    0.000    0.000    0.000    0.000 
#
# Total GULP energy -396892.635044 kJ/mol
# GULP energy per Si atom -12402.894845 kJ/mol
# Density = 2.034897 g / cm^3
# Si number density = 20.395389 Si / 1000 Ang^3
#
#
#
# Elastic Constant Matrix: (Units=GPa)
#
#
# Indices 1 2 3 4 5 6 
#
# 1 115.2968 9.7871 85.2692 0.0000 -4.6332 0.0000
# 2 9.7871 29.3070 3.4854 0.0000 0.2455 0.0000
# 3 85.2692 3.4854 122.8870 0.0000 20.8065 0.0000
# 4 0.0000 0.0000 0.0000 10.2244 0.0000 -6.3639
# 5 -4.6332 0.2455 20.8065 0.0000 40.2013 0.0000
# 6 0.0000 0.0000 0.0000 -6.3639 0.0000 16.0187
#
#
#
# Elastic Compliance Matrix: (Units=1/GPa)
#
#
# Indices 1 2 3 4 5 6 
#
# 1 0.022500 -0.005539 -0.017427 0.000000 0.011647 0.000000
# 2 -0.005539 0.035604 0.003264 0.000000 -0.002545 0.000000
# 3 -0.017427 0.003264 0.022448 0.000000 -0.013647 0.000000
# 4 0.000000 0.000000 0.000000 0.129935 0.000000 0.051621
# 5 0.011647 -0.002545 -0.013647 0.000000 0.033296 0.000000
# 6 0.000000 0.000000 0.000000 0.051621 0.000000 0.082935
#
#
# Mechanical properties :
#
#
# Convention : Reuss Voigt Hill
#
# Bulk Modulus (GPa) = 24.30188 51.61933 37.96060
# Shear Modulus (GPa) = 13.16354 24.55215 18.85784
#
# Velocity S-wave (km/s) = 2.54326 3.47336 3.04404
# Velocity P-wave (km/s) = 4.53492 6.43816 5.56845
#
# Compressibility (1/GPa) = 0.04114909
#
# Stress axis : x y z
#
# Youngs Moduli (GPa) = 44.44460 28.08647 44.54754
#
# Poissons Ratio (x) = 0.15557 0.77634
# Poissons Ratio (y) = 0.24617 -0.14543
# Poissons Ratio (z) = 0.77454 -0.09169
#
# Static dielectric constant tensor:
#      x y z
#    x 4.401660 0.000000 0.397950 
#    y 0.000000 3.224890 0.000000 
#    z 0.397950 0.000000 4.353270 
# 
# 
# High freq. dielectric constant tensor:
#      x y z
#    x 1.808730 0.000000 0.006430 
#    y 0.000000 1.767140 0.000000 
#    z 0.006430 0.000000 1.813200 
# 
# From -- ./inp_files/40054.got.cif
#   From: 2010.06.25/outbox.cif.g09.slc.cpg/sg11_21_cif.got.tgz:40054.got - 2010.06.27 23:14:04.
