data_PCOD8075867
_publ_section_title
;
Structure prediction by ZEFSAII (Michael W. Deem and Ramdas Pophale) SiO2 
 PCOD8075867
Probable space group: P 21/M
;
_chemical_formula_sum "Si O2"
_cell_formula_units_Z 32
_cell_length_a 5.633169
_cell_length_b 18.084167
_cell_length_c 14.443708
_cell_angle_alpha 90.000000
_cell_angle_beta 97.413220
_cell_angle_gamma 90.000000
_cell_volume 1459.098623
_symmetry_space_group_name_H-M "P 21/M"
_symmetry_group_IT_number 11
_symmetry_cell_setting 'monoclinic'
loop_
_space_group_symop_operation_xyz
x,y,z
-x,1/2+y,-z
-x,-y,-z
x,1/2-y,z
loop_
_atom_site_type_symbol
_atom_site_label
_atom_site_fract_x
_atom_site_fract_y
_atom_site_fract_z
Si Si1 0.029137 0.947581 0.145937
Si Si2 0.308486 0.444451 0.027404
Si Si3 0.747895 0.165075 0.716223
Si Si4 0.675866 0.331565 0.359207
Si Si5 0.972271 0.567644 0.718604
Si Si6 0.213596 0.164344 0.609972
Si Si7 0.632549 0.928182 0.542492
Si Si8 0.315047 0.168742 0.173902
O O1 0.210886 0.884597 0.190043
O O2 0.153229 0.010196 0.091859
O O3 0.920765 0.993241 0.228939
O O4 0.829354 0.911722 0.069507
O O5 0.416465 0.374991 0.089141
O O6 0.500000 0.500000 0.000000
O O7 0.754663 0.250000 0.747508
O O8 0.479856 0.146410 0.665657
O O9 0.979381 0.148804 0.661794
O O10 0.787316 0.250000 0.385800
O O11 0.540269 0.358278 0.444537
O O12 0.516376 0.325268 0.260534
O O13 0.862647 0.395798 0.349775
O O14 0.742465 0.545012 0.645874
O O15 0.915081 0.628170 0.794489
O O16 0.208000 0.250000 0.577948
O O17 0.182773 0.106930 0.522957
O O18 0.500000 0.000000 0.500000
O O19 0.233372 0.250000 0.137409
#
# Coordination Sequence:
#
# PCOD8075867 Si02
#       8
#     4   4   4   4   4   4   4   4
#     4  10  22  38  60  87 118 156 203 250 309 371
#     4  10  21  37  59  87 119 158 195 248 313 370
#     4  10  23  42  65  90 123 168 211 256 312 369
#     4  10  21  36  57  84 115 153 197 246 305 366
#     4  10  21  37  60  83 115 157 195 246 309 361
#     4  10  23  42  62  88 125 167 209 259 313 366
#     4  11  24  37  57  87 119 156 205 256 303 363
#     4   9  19  37  57  85 116 148 193 244 303 366
#
# _framework density 21.931348
#
# number of rings (size 3 to 8) (size 9 to 14) (size 15 to 20)
#    0.000    2.000    0.000    2.250    5.250    2.500 
#    0.000    0.625    0.000    0.000    0.000    0.000 
#    0.000    0.000    0.000    0.000    0.000    0.000 
#
# Total GULP energy -396446.131591 kJ/mol
# GULP energy per Si atom -12388.941612 kJ/mol
# Density = 2.188143 g / cm^3
# Si number density = 21.931348 Si / 1000 Ang^3
#
#
#
# Elastic Constant Matrix: (Units=GPa)
#
#
# Indices 1 2 3 4 5 6 
#
# 1 71.0752 3.5963 15.5728 0.0000 -2.6283 0.0000
# 2 3.5963 91.4122 46.4019 0.0000 14.7049 0.0000
# 3 15.5728 46.4019 90.7749 0.0000 9.0184 0.0000
# 4 0.0000 0.0000 0.0000 32.5857 0.0000 0.7461
# 5 -2.6283 14.7049 9.0184 0.0000 11.8695 0.0000
# 6 0.0000 0.0000 0.0000 0.7461 0.0000 25.5520
#
#
#
# Elastic Compliance Matrix: (Units=1/GPa)
#
#
# Indices 1 2 3 4 5 6 
#
# 1 0.014968 0.000134 -0.003190 0.000000 0.005572 0.000000
# 2 0.000134 0.017123 -0.007216 0.000000 -0.015701 0.000000
# 3 -0.003190 -0.007216 0.015613 0.000000 -0.003629 0.000000
# 4 0.000000 0.000000 0.000000 0.030709 0.000000 -0.000897
# 5 0.005572 -0.015701 -0.003629 0.000000 0.107693 0.000000
# 6 0.000000 0.000000 0.000000 -0.000897 0.000000 0.039162
#
#
# Mechanical properties :
#
#
# Convention : Reuss Voigt Hill
#
# Bulk Modulus (GPa) = 36.81921 42.71161 39.76541
# Shear Modulus (GPa) = 19.61835 26.51418 23.06626
#
# Velocity S-wave (km/s) = 2.99412 3.48079 3.24659
# Velocity P-wave (km/s) = 5.36450 5.97260 5.67670
#
# Compressibility (1/GPa) = 0.02715974
#
# Stress axis : x y z
#
# Youngs Moduli (GPa) = 66.81015 58.40179 64.05079
#
# Poissons Ratio (x) = -0.00783 0.20431
# Poissons Ratio (y) = -0.00895 0.46218
# Poissons Ratio (z) = 0.21312 0.42142
#
# Static dielectric constant tensor:
#      x y z
#    x 2.554680 0.000000 4.691240 
#    y 0.000000 4.168180 0.000000 
#    z 4.691240 0.000000 -11.448990 
# 
# 
# High freq. dielectric constant tensor:
#      x y z
#    x 1.844780 0.000000 0.003420 
#    y 0.000000 1.869790 0.000000 
#    z 0.003420 0.000000 1.863680 
# 
# From -- ./inp_files/9152.got.cif
#   From: 2010.06.25/outbox.cif.g09.slc.cpg/sg11_5_cif.got.tgz:9152.got - 2010.06.27 23:14:04.
