data_PCOD8075107
_publ_section_title
;
Structure prediction by ZEFSAII (Michael W. Deem and Ramdas Pophale) SiO2 
 PCOD8075107
Probable space group: P 21/M
;
_chemical_formula_sum "Si O2"
_cell_formula_units_Z 32
_cell_length_a 21.367349
_cell_length_b 8.861952
_cell_length_c 11.462048
_cell_angle_alpha 90.000000
_cell_angle_beta 128.840036
_cell_angle_gamma 90.000000
_cell_volume 1690.534056
_symmetry_space_group_name_H-M "P 21/M"
_symmetry_group_IT_number 11
_symmetry_cell_setting 'monoclinic'
loop_
_space_group_symop_operation_xyz
x,y,z
-x,1/2+y,-z
-x,-y,-z
x,1/2-y,z
loop_
_atom_site_type_symbol
_atom_site_label
_atom_site_fract_x
_atom_site_fract_y
_atom_site_fract_z
Si Si1 0.219142 0.426262 0.789593
Si Si2 0.490261 0.572575 0.820220
Si Si3 0.741148 0.926942 0.896273
Si Si4 0.931356 0.428097 0.497181
Si Si5 0.049516 0.427620 0.228364
Si Si6 0.378039 0.074228 0.843508
Si Si7 0.441648 0.071170 0.339718
Si Si8 0.117873 0.927151 0.084006
O O1 0.195582 0.250000 0.750716
O O2 0.148886 0.534868 0.666782
O O3 0.290412 0.469625 0.785010
O O4 0.243334 0.464730 0.950139
O O5 0.483518 0.750000 0.808868
O O6 0.402199 0.506603 0.750253
O O7 0.520286 0.507594 0.733805
O O8 0.558137 0.515681 0.988000
O O9 0.753105 0.750000 0.887517
O O10 0.651205 0.980325 0.757346
O O11 0.802026 0.017492 0.885828
O O12 0.944117 0.250000 0.520948
O O13 0.929876 0.495485 0.625133
O O14 0.000000 0.500000 0.500000
O O15 0.063734 0.250000 0.257003
O O16 0.108898 0.490531 0.198056
O O17 0.957762 0.466533 0.087155
O O18 0.384936 0.250000 0.831151
O O19 0.444995 0.250000 0.349480
O O20 0.500000 0.000000 0.500000
O O21 0.123378 0.750000 0.114318
#
# Coordination Sequence:
#
# PCOD8075107 Si02
#       8
#     4   4   4   4   4   4   4   4
#     4  10  20  37  60  84 113 151 195 242 290 342
#     4   9  17  33  55  79 110 143 181 230 282 336
#     4  10  20  37  60  83 111 150 197 240 287 346
#     4  12  25  40  59  87 122 156 192 235 287 342
#     4  10  21  40  63  87 119 155 193 235 282 339
#     4   9  17  32  56  83 108 141 185 230 280 339
#     4  10  21  38  57  80 111 149 191 236 287 341
#     4  10  21  37  61  91 118 149 192 239 286 337
#
# _framework density 18.928930999999999
#
# number of rings (size 3 to 8) (size 9 to 14) (size 15 to 20)
#    0.000    2.000    1.250    2.625    0.000    5.500 
#    2.250    0.000    0.000    0.000    0.000    0.000 
#    0.000    0.000    0.000    0.000    0.000    0.000 
#
# Total GULP energy -396739.042885 kJ/mol
# GULP energy per Si atom -12398.095090 kJ/mol
# Density = 1.888585 g / cm^3
# Si number density = 18.928931 Si / 1000 Ang^3
#
#
#
# Elastic Constant Matrix: (Units=GPa)
#
#
# Indices 1 2 3 4 5 6 
#
# 1 156.4100 52.3319 56.9763 0.0000 5.0851 0.0000
# 2 52.3319 72.5711 43.3758 0.0000 0.4211 0.0000
# 3 56.9763 43.3758 102.1144 0.0000 6.2590 0.0000
# 4 0.0000 0.0000 0.0000 31.8928 0.0000 -0.6951
# 5 5.0851 0.4211 6.2590 0.0000 21.1693 0.0000
# 6 0.0000 0.0000 0.0000 -0.6951 0.0000 38.0441
#
#
#
# Elastic Compliance Matrix: (Units=1/GPa)
#
#
# Indices 1 2 3 4 5 6 
#
# 1 0.009121 -0.004789 -0.002981 0.000000 -0.001214 0.000000
# 2 -0.004789 0.021065 -0.006438 0.000000 0.002635 0.000000
# 3 -0.002981 -0.006438 0.014400 0.000000 -0.003413 0.000000
# 4 0.000000 0.000000 0.000000 0.031368 0.000000 0.000573
# 5 -0.001214 0.002635 -0.003413 0.000000 0.048487 0.000000
# 6 0.000000 0.000000 0.000000 0.000573 0.000000 0.026296
#
#
# Mechanical properties :
#
#
# Convention : Reuss Voigt Hill
#
# Bulk Modulus (GPa) = 61.83450 70.71814 66.27632
# Shear Modulus (GPa) = 27.09436 30.11534 28.60485
#
# Velocity S-wave (km/s) = 3.78745 3.99302 3.89160
# Velocity P-wave (km/s) = 7.20167 7.66159 7.43518
#
# Compressibility (1/GPa) = 0.01617220
#
# Stress axis : x y z
#
# Youngs Moduli (GPa) = 109.63856 47.47174 69.44549
#
# Poissons Ratio (x) = 0.22732 0.20699
# Poissons Ratio (y) = 0.52502 0.44706
# Poissons Ratio (z) = 0.32679 0.30560
#
# Static dielectric constant tensor:
#      x y z
#    x 3.947040 0.000000 -0.013470 
#    y 0.000000 3.357940 0.000000 
#    z -0.013470 0.000000 3.329960 
# 
# 
# High freq. dielectric constant tensor:
#      x y z
#    x 1.755740 0.000000 -0.003390 
#    y 0.000000 1.731420 0.000000 
#    z -0.003390 0.000000 1.723980 
# 
# From -- ./inp_files/42940.got.cif
#   From: 2010.06.25/outbox.cif.g09.slc.cpg/sg11_22_cif.got.tgz:42940.got - 2010.06.27 23:14:04.
