data_PCOD8075259
_publ_section_title
;
Structure prediction by ZEFSAII (Michael W. Deem and Ramdas Pophale) SiO2 
 PCOD8075259
Probable space group: P 21/M
;
_chemical_formula_sum "Si O2"
_cell_formula_units_Z 32
_cell_length_a 27.259135
_cell_length_b 8.788069
_cell_length_c 15.206521
_cell_angle_alpha 90.000000
_cell_angle_beta 25.824360
_cell_angle_gamma 90.000000
_cell_volume 1586.854346
_symmetry_space_group_name_H-M "P 21/M"
_symmetry_group_IT_number 11
_symmetry_cell_setting 'monoclinic'
loop_
_space_group_symop_operation_xyz
x,y,z
-x,1/2+y,-z
-x,-y,-z
x,1/2-y,z
loop_
_atom_site_type_symbol
_atom_site_label
_atom_site_fract_x
_atom_site_fract_y
_atom_site_fract_z
Si Si1 0.350338 0.929694 0.415587
Si Si2 0.984922 0.569126 0.788047
Si Si3 0.380105 0.425741 0.693106
Si Si4 0.763377 0.430180 0.578997
Si Si5 0.692027 0.084561 0.028059
Si Si6 0.944388 0.416568 0.669582
Si Si7 0.405086 0.572125 0.000730
Si Si8 0.772115 0.430770 0.209466
O O1 0.362277 0.750000 0.400049
O O2 0.271368 0.981946 0.462543
O O3 0.291260 0.989500 0.600343
O O4 0.474009 0.994795 0.201417
O O5 0.978017 0.750000 0.804939
O O6 0.948556 0.518105 0.749879
O O7 0.110847 0.507591 0.604980
O O8 0.897727 0.500458 0.000319
O O9 0.500000 0.500000 0.500000
O O10 0.381231 0.250000 0.664263
O O11 0.343274 0.445952 0.852938
O O12 0.298763 0.517059 0.760001
O O13 0.765784 0.250000 0.585112
O O14 0.670077 0.495171 0.797829
O O15 0.632138 0.250000 0.144543
O O16 0.821439 0.111293 0.832727
O O17 0.665781 0.034156 0.971634
O O18 0.999144 0.250000 0.600017
O O19 0.000000 0.500000 0.500000
O O20 0.425939 0.750000 0.980653
O O21 0.782801 0.250000 0.191199
#
# Coordination Sequence:
#
# PCOD8075259 Si02
#       8
#     4   4   4   4   4   4   4   4
#     4  10  22  40  62  87 119 160 203 253 311 368
#     4  11  22  39  63  89 120 161 208 254 306 369
#     4  12  24  38  59  85 117 158 200 245 298 359
#     4   9  20  40  63  88 120 159 201 251 315 372
#     4  10  21  37  57  84 119 157 194 237 294 356
#     4  11  22  37  59  86 122 161 200 245 296 357
#     4  10  20  37  62  90 121 156 198 250 306 368
#     4  11  23  40  60  87 124 162 204 255 307 363
#
# _framework density 20.165683000000001
#
# number of rings (size 3 to 8) (size 9 to 14) (size 15 to 20)
#    0.000    1.500    1.250    4.125    0.000    6.500 
#    0.000    3.750    0.000    0.000    0.000    0.000 
#    0.000    0.000    0.000    0.000    0.000    0.000 
#
# Total GULP energy -396699.848159 kJ/mol
# GULP energy per Si atom -12396.870255 kJ/mol
# Density = 2.011979 g / cm^3
# Si number density = 20.165683 Si / 1000 Ang^3
#
#
#
# Elastic Constant Matrix: (Units=GPa)
#
#
# Indices 1 2 3 4 5 6 
#
# 1 123.8295 22.4321 64.8745 0.0000 -4.0854 0.0000
# 2 22.4321 71.2980 39.4137 0.0000 1.4453 0.0000
# 3 64.8745 39.4137 172.0670 0.0000 -0.7069 0.0000
# 4 0.0000 0.0000 0.0000 27.2270 0.0000 -23.1855
# 5 -4.0854 1.4453 -0.7069 0.0000 38.8101 0.0000
# 6 0.0000 0.0000 0.0000 -23.1855 0.0000 -51.4909
#
#
#
# Elastic Compliance Matrix: (Units=1/GPa)
#
#
# Indices 1 2 3 4 5 6 
#
# 1 0.010201 -0.001268 -0.003551 0.000000 0.001056 0.000000
# 2 -0.001268 0.016234 -0.003244 0.000000 -0.000797 0.000000
# 3 -0.003551 -0.003244 0.007893 0.000000 -0.000109 0.000000
# 4 0.000000 0.000000 0.000000 0.026548 0.000000 -0.011954
# 5 0.001056 -0.000797 -0.000109 0.000000 0.025905 0.000000
# 6 0.000000 0.000000 0.000000 -0.011954 0.000000 -0.014038
#
#
# Mechanical properties :
#
#
# Convention : Reuss Voigt Hill
#
# Bulk Modulus (GPa) = 54.93850 68.95947 61.94899
# Shear Modulus (GPa) = 52.66693 18.94084 35.80388
#
# Velocity S-wave (km/s) = 5.11603 3.06806 4.21822
# Velocity P-wave (km/s) = 7.88677 6.84261 7.38317
#
# Compressibility (1/GPa) = 0.01820217
#
# Stress axis : x y z
#
# Youngs Moduli (GPa) = 98.03344 61.59968 126.69135
#
# Poissons Ratio (x) = 0.07809 0.44991
# Poissons Ratio (y) = 0.12427 0.41097
# Poissons Ratio (z) = 0.34814 0.19982
#
# Static dielectric constant tensor:
#      x y z
#    x 3.878850 0.000000 0.190940 
#    y 0.000000 3.655380 0.000000 
#    z 0.190940 0.000000 4.152660 
# 
# 
# High freq. dielectric constant tensor:
#      x y z
#    x 1.792580 0.000000 0.000520 
#    y 0.000000 1.776920 0.000000 
#    z 0.000520 0.000000 1.801440 
# 
# From -- ./inp_files/56152.got.cif
#   From: 2010.06.25/outbox.cif.g09.slc.cpg/sg11_29_cif.got.tgz:56152.got - 2010.06.27 23:14:04.
