data_PCOD8075295
_publ_section_title
;
Structure prediction by ZEFSAII (Michael W. Deem and Ramdas Pophale) SiO2 
 PCOD8075295
Probable space group: P 21/M
;
_chemical_formula_sum "Si O2"
_cell_formula_units_Z 24
_cell_length_a 7.631518
_cell_length_b 13.525289
_cell_length_c 10.552667
_cell_angle_alpha 90.000000
_cell_angle_beta 75.924600
_cell_angle_gamma 90.000000
_cell_volume 1056.527834
_symmetry_space_group_name_H-M "P 21/M"
_symmetry_group_IT_number 11
_symmetry_cell_setting 'monoclinic'
loop_
_space_group_symop_operation_xyz
x,y,z
-x,1/2+y,-z
-x,-y,-z
x,1/2-y,z
loop_
_atom_site_type_symbol
_atom_site_label
_atom_site_fract_x
_atom_site_fract_y
_atom_site_fract_z
Si Si1 0.148355 0.563502 0.608226
Si Si2 0.220104 0.642395 0.317742
Si Si3 0.620993 0.359316 0.209076
Si Si4 0.796192 0.534892 0.046052
Si Si5 0.737613 0.558575 0.775799
Si Si6 0.168998 0.141890 0.705549
O O1 0.163758 0.608211 0.467676
O O2 0.270886 0.627617 0.679628
O O3 0.220913 0.449057 0.601829
O O4 0.938341 0.570285 0.684620
O O5 0.319708 0.750000 0.305314
O O6 0.337066 0.554507 0.234750
O O7 0.045711 0.653394 0.260180
O O8 0.662963 0.250000 0.150526
O O9 0.677538 0.437583 0.092824
O O10 0.404276 0.369896 0.269535
O O11 0.771834 0.614499 0.162271
O O12 0.735937 0.584020 0.925069
O O13 0.000000 0.500000 0.000000
O O14 0.255635 0.250000 0.653767
#
# Coordination Sequence:
#
# PCOD8075295 Si02
#       6
#     4   4   4   4   4   4
#     4  10  21  42  62  88 128 161 204 262 309 360
#     4  10  20  37  64  92 121 164 211 256 310 371
#     4  11  25  40  61  92 124 162 207 254 311 374
#     4  11  20  41  62  89 126 162 201 262 310 366
#     4  11  22  41  63  90 127 163 206 257 314 366
#     4   9  18  33  59  90 117 156 203 244 303 369
#
# _framework density 22.715919
#
# number of rings (size 3 to 8) (size 9 to 14) (size 15 to 20)
#    0.000    1.667    5.000    3.000    0.000    4.000 
#    0.000    4.167    0.000    2.000    0.000    0.000 
#    0.000    0.000    0.000    0.000    0.000    0.000 
#
# Total GULP energy -297375.833679 kJ/mol
# GULP energy per Si atom -12390.659737 kJ/mol
# Density = 2.266422 g / cm^3
# Si number density = 22.715919 Si / 1000 Ang^3
#
#
#
# Elastic Constant Matrix: (Units=GPa)
#
#
# Indices 1 2 3 4 5 6 
#
# 1 102.2995 24.2442 19.3926 0.0000 9.2485 0.0000
# 2 24.2442 122.7242 -10.7833 0.0000 -4.4760 0.0000
# 3 19.3926 -10.7833 36.5595 0.0000 11.7898 0.0000
# 4 0.0000 0.0000 0.0000 22.7094 0.0000 -2.7550
# 5 9.2485 -4.4760 11.7898 0.0000 10.2624 0.0000
# 6 0.0000 0.0000 0.0000 -2.7550 0.0000 24.1701
#
#
#
# Elastic Compliance Matrix: (Units=1/GPa)
#
#
# Indices 1 2 3 4 5 6 
#
# 1 0.012067 -0.003075 -0.005351 0.000000 -0.006069 0.000000
# 2 -0.003075 0.009160 0.003417 0.000000 0.002841 0.000000
# 3 -0.005351 0.003417 0.046326 0.000000 -0.046908 0.000000
# 4 0.000000 0.000000 0.000000 0.044652 0.000000 0.005090
# 5 -0.006069 0.002841 -0.046908 0.000000 0.158041 0.000000
# 6 0.000000 0.000000 0.000000 0.005090 0.000000 0.041954
#
#
# Mechanical properties :
#
#
# Convention : Reuss Voigt Hill
#
# Bulk Modulus (GPa) = 17.38111 36.36556 26.87333
# Shear Modulus (GPa) = 14.64574 26.67703 20.66139
#
# Velocity S-wave (km/s) = 2.54192 3.43063 3.01916
# Velocity P-wave (km/s) = 4.03525 5.63347 4.89996
#
# Compressibility (1/GPa) = 0.05753372
#
# Stress axis : x y z
#
# Youngs Moduli (GPa) = 82.87024 109.17348 21.58622
#
# Poissons Ratio (x) = 0.33575 0.11550
# Poissons Ratio (y) = 0.25486 -0.07375
# Poissons Ratio (z) = 0.44342 -0.37301
#
# Static dielectric constant tensor:
#      x y z
#    x 4.140420 0.000000 0.302980 
#    y 0.000000 4.832740 0.000000 
#    z 0.302980 0.000000 4.009660 
# 
# 
# High freq. dielectric constant tensor:
#      x y z
#    x 1.893560 0.000000 0.028650 
#    y 0.000000 1.899870 0.000000 
#    z 0.028650 0.000000 1.874200 
# 
# From -- ./inp_files/31449.got.cif
#   From: 2010.06.25/outbox.cif.g09.slc.cpg/sg11_16_cif.got.tgz:31449.got - 2010.06.27 23:14:04.
