data_PCOD8075104
_publ_section_title
;
Structure prediction by ZEFSAII (Michael W. Deem and Ramdas Pophale) SiO2 
 PCOD8075104
Probable space group: P 21/M
;
_chemical_formula_sum "Si O2"
_cell_formula_units_Z 20
_cell_length_a 13.637656
_cell_length_b 8.876062
_cell_length_c 18.961414
_cell_angle_alpha 90.000000
_cell_angle_beta 152.475117
_cell_angle_gamma 90.000000
_cell_volume 1060.714494
_symmetry_space_group_name_H-M "P 21/M"
_symmetry_group_IT_number 11
_symmetry_cell_setting 'monoclinic'
loop_
_space_group_symop_operation_xyz
x,y,z
-x,1/2+y,-z
-x,-y,-z
x,1/2-y,z
loop_
_atom_site_type_symbol
_atom_site_label
_atom_site_fract_x
_atom_site_fract_y
_atom_site_fract_z
Si Si1 0.837458 0.571370 0.842209
Si Si2 0.615399 0.572585 0.425920
Si Si3 0.951622 0.925826 0.757944
Si Si4 0.940165 0.074591 0.534779
Si Si5 0.277379 0.423292 0.870536
O O1 0.839031 0.750000 0.850740
O O2 0.605917 0.510830 0.710668
O O3 0.903974 0.520038 0.806410
O O4 0.000000 0.500000 0.000000
O O5 0.579124 0.750000 0.394647
O O6 0.749363 0.531449 0.581083
O O7 0.734024 0.510493 0.432701
O O8 0.999363 0.750000 0.784111
O O9 0.162224 0.009052 0.865634
O O10 0.886865 0.250000 0.490864
O O11 0.136460 0.049202 0.711885
O O12 0.000000 0.000000 0.500000
O O13 0.317828 0.250000 0.911845
O O14 0.500000 0.500000 0.000000
#
# Coordination Sequence:
#
# PCOD8075104 Si02
#       5
#     4   4   4   4   4
#     4  11  23  38  56  82 114 146 181 226 275 325
#     4  10  20  37  60  83 108 143 184 227 274 327
#     4   9  20  38  59  81 108 143 184 226 271 324
#     4  10  21  37  57  83 112 145 184 226 272 325
#     4  10  21  36  57  83 111 143 182 225 271 323
#
# _framework density 18.855214
#
# number of rings (size 3 to 8) (size 9 to 14) (size 15 to 20)
#    0.000    2.000    0.000    3.000    0.000    6.400 
#    0.000    2.000    0.000    0.000    0.000    0.000 
#    0.000    0.000    0.000    0.000    0.000    0.000 
#
# Total GULP energy -248093.250262 kJ/mol
# GULP energy per Si atom -12404.662513 kJ/mol
# Density = 1.881230 g / cm^3
# Si number density = 18.855214 Si / 1000 Ang^3
#
#
#
# Elastic Constant Matrix: (Units=GPa)
#
#
# Indices 1 2 3 4 5 6 
#
# 1 183.5123 70.8949 84.8849 0.0000 8.6745 0.0000
# 2 70.8949 86.7681 58.1673 0.0000 8.8887 0.0000
# 3 84.8849 58.1673 113.2966 0.0000 24.6116 0.0000
# 4 0.0000 0.0000 0.0000 37.3515 0.0000 5.5110
# 5 8.6745 8.8887 24.6116 0.0000 33.1012 0.0000
# 6 0.0000 0.0000 0.0000 5.5110 0.0000 38.8355
#
#
#
# Elastic Compliance Matrix: (Units=1/GPa)
#
#
# Indices 1 2 3 4 5 6 
#
# 1 0.009570 -0.004411 -0.005507 0.000000 0.002771 0.000000
# 2 -0.004411 0.019764 -0.007085 0.000000 0.001116 0.000000
# 3 -0.005507 -0.007085 0.018919 0.000000 -0.010721 0.000000
# 4 0.000000 0.000000 0.000000 0.027345 0.000000 -0.003880
# 5 0.002771 0.001116 -0.010721 0.000000 0.037156 0.000000
# 6 0.000000 0.000000 0.000000 -0.003880 0.000000 0.026300
#
#
# Mechanical properties :
#
#
# Convention : Reuss Voigt Hill
#
# Bulk Modulus (GPa) = 70.19176 90.16348 80.17762
# Shear Modulus (GPa) = 28.12011 33.16631 30.64321
#
# Velocity S-wave (km/s) = 3.86602 4.19859 4.03573
# Velocity P-wave (km/s) = 7.56542 8.45144 8.02068
#
# Compressibility (1/GPa) = 0.01424669
#
# Stress axis : x y z
#
# Youngs Moduli (GPa) = 104.49611 50.59689 52.85722
#
# Poissons Ratio (x) = 0.22318 0.29110
# Poissons Ratio (y) = 0.46093 0.37448
# Poissons Ratio (z) = 0.57549 0.35846
#
# Static dielectric constant tensor:
#      x y z
#    x 3.666530 0.000000 -0.006080 
#    y 0.000000 3.437940 0.000000 
#    z -0.006080 0.000000 3.442530 
# 
# 
# High freq. dielectric constant tensor:
#      x y z
#    x 1.745220 0.000000 0.007190 
#    y 0.000000 1.746680 0.000000 
#    z 0.007190 0.000000 1.731310 
# 
# From -- ./inp_files/15922.got.cif
#   From: 2010.06.25/outbox.cif.g09.slc.cpg/sg11_8_cif.got.tgz:15922.got - 2010.06.27 23:14:04.
