data_PCOD8075378
_publ_section_title
;
Structure prediction by ZEFSAII (Michael W. Deem and Ramdas Pophale) SiO2 
 PCOD8075378
Probable space group: P 21/M
;
_chemical_formula_sum "Si O2"
_cell_formula_units_Z 32
_cell_length_a 14.849161
_cell_length_b 9.073567
_cell_length_c 22.796812
_cell_angle_alpha 90.000000
_cell_angle_beta 148.990166
_cell_angle_gamma 90.000000
_cell_volume 1582.404292
_symmetry_space_group_name_H-M "P 21/M"
_symmetry_group_IT_number 11
_symmetry_cell_setting 'monoclinic'
loop_
_space_group_symop_operation_xyz
x,y,z
-x,1/2+y,-z
-x,-y,-z
x,1/2-y,z
loop_
_atom_site_type_symbol
_atom_site_label
_atom_site_fract_x
_atom_site_fract_y
_atom_site_fract_z
Si Si1 0.177758 0.081627 0.583389
Si Si2 0.888313 0.579660 0.987359
Si Si3 0.160332 0.584985 0.235914
Si Si4 0.978072 0.916498 0.252568
Si Si5 0.508935 0.576980 0.567345
Si Si6 0.794320 0.916344 0.539127
Si Si7 0.516158 0.925682 0.825296
Si Si8 0.401176 0.422649 0.997223
O O1 0.170460 0.250000 0.602011
O O2 0.194475 0.076957 0.523549
O O3 0.344393 0.001878 0.704299
O O4 0.000000 0.000000 0.500000
O O5 0.885654 0.750000 0.968838
O O6 0.982270 0.551787 0.101948
O O7 0.688014 0.523600 0.883801
O O8 0.000000 0.500000 0.000000
O O9 0.226291 0.750000 0.257677
O O10 0.308799 0.469022 0.299961
O O11 0.129312 0.571563 0.288198
O O12 0.964699 0.750000 0.269531
O O13 0.800472 0.965703 0.122514
O O14 0.023563 0.025779 0.331410
O O15 0.500000 0.500000 0.500000
O O16 0.498589 0.750000 0.553163
O O17 0.356609 0.525888 0.525037
O O18 0.758948 0.750000 0.541316
O O19 0.496213 0.750000 0.810397
O O20 0.535336 0.977327 0.903563
O O21 0.432254 0.250000 0.008996
O O22 0.500000 0.500000 0.000000
#
# Coordination Sequence:
#
# PCOD8075378 Si02
#       8
#     4   4   4   4   4   4   4   4
#     4  11  27  48  69  93 125 168 218 272 325 377
#     4  10  22  40  63  91 126 169 211 257 313 374
#     4  10  20  38  61  86 123 166 207 256 313 369
#     4  10  20  38  64  91 122 163 207 254 316 378
#     4  12  24  38  59  90 126 165 206 252 308 372
#     4  11  25  43  63  91 126 165 212 264 318 375
#     4  10  22  44  68  93 130 170 211 258 317 384
#     4  10  22  40  64  95 126 161 202 253 316 377
#
# _framework density 20.222391999999999
#
# number of rings (size 3 to 8) (size 9 to 14) (size 15 to 20)
#    0.000    1.500    2.500    1.875    3.500    4.000 
#    0.000    0.000    0.000    0.000    0.000    0.000 
#    0.000    0.000    0.000    0.000    0.000    0.000 
#
# Total GULP energy -396814.375644 kJ/mol
# GULP energy per Si atom -12400.449239 kJ/mol
# Density = 2.017637 g / cm^3
# Si number density = 20.222392 Si / 1000 Ang^3
#
#
#
# Elastic Constant Matrix: (Units=GPa)
#
#
# Indices 1 2 3 4 5 6 
#
# 1 106.0589 54.1850 50.9177 0.0000 8.7050 0.0000
# 2 54.1850 115.1180 70.2674 0.0000 7.3252 0.0000
# 3 50.9177 70.2674 148.1056 0.0000 5.7556 0.0000
# 4 0.0000 0.0000 0.0000 35.0865 0.0000 -0.6308
# 5 8.7050 7.3252 5.7556 0.0000 32.6978 0.0000
# 6 0.0000 0.0000 0.0000 -0.6308 0.0000 34.1430
#
#
#
# Elastic Compliance Matrix: (Units=1/GPa)
#
#
# Indices 1 2 3 4 5 6 
#
# 1 0.013031 -0.004670 -0.002185 0.000000 -0.002038 0.000000
# 2 -0.004670 0.014000 -0.004997 0.000000 -0.001013 0.000000
# 3 -0.002185 -0.004997 0.009875 0.000000 -0.000037 0.000000
# 4 0.000000 0.000000 0.000000 0.028510 0.000000 0.000527
# 5 -0.002038 -0.001013 -0.000037 0.000000 0.031359 0.000000
# 6 0.000000 0.000000 0.000000 0.000527 0.000000 0.029298
#
#
# Mechanical properties :
#
#
# Convention : Reuss Voigt Hill
#
# Bulk Modulus (GPa) = 75.74884 80.00251 77.87568
# Shear Modulus (GPa) = 32.42985 33.31296 32.87140
#
# Velocity S-wave (km/s) = 4.00892 4.06313 4.03612
# Velocity P-wave (km/s) = 7.67905 7.85234 7.76618
#
# Compressibility (1/GPa) = 0.01320152
#
# Stress axis : x y z
#
# Youngs Moduli (GPa) = 76.74016 71.43068 101.26182
#
# Poissons Ratio (x) = 0.33359 0.22126
# Poissons Ratio (y) = 0.35839 0.50601
# Poissons Ratio (z) = 0.16768 0.35694
#
# Static dielectric constant tensor:
#      x y z
#    x 3.308210 0.000000 -0.191030 
#    y 0.000000 3.761490 0.000000 
#    z -0.191030 0.000000 3.752250 
# 
# 
# High freq. dielectric constant tensor:
#      x y z
#    x 1.788250 0.000000 0.002220 
#    y 0.000000 1.783840 0.000000 
#    z 0.002220 0.000000 1.806720 
# 
# From -- ./inp_files/69111.got.cif
#   From: 2010.06.25/outbox.cif.g09.slc.cpg/sg11_35_cif.got.tgz:69111.got - 2010.06.27 23:14:04.
