data_PCOD8075211
_publ_section_title
;
Structure prediction by ZEFSAII (Michael W. Deem and Ramdas Pophale) SiO2 
 PCOD8075211
Probable space group: P 21/M
;
_chemical_formula_sum "Si O2"
_cell_formula_units_Z 32
_cell_length_a 23.377434
_cell_length_b 8.736027
_cell_length_c 14.474044
_cell_angle_alpha 90.000000
_cell_angle_beta 148.090718
_cell_angle_gamma 90.000000
_cell_volume 1562.456815
_symmetry_space_group_name_H-M "P 21/M"
_symmetry_group_IT_number 11
_symmetry_cell_setting 'monoclinic'
loop_
_space_group_symop_operation_xyz
x,y,z
-x,1/2+y,-z
-x,-y,-z
x,1/2-y,z
loop_
_atom_site_type_symbol
_atom_site_label
_atom_site_fract_x
_atom_site_fract_y
_atom_site_fract_z
Si Si1 0.322454 0.066991 0.005272
Si Si2 0.243653 0.425312 0.539174
Si Si3 0.922323 0.929518 0.318265
Si Si4 0.995979 0.071828 0.234027
Si Si5 0.399403 0.427403 0.913913
Si Si6 0.909358 0.569983 0.940237
Si Si7 0.706435 0.073544 0.574406
Si Si8 0.488586 0.427577 0.383964
O O1 0.324036 0.250000 0.005399
O O2 0.199769 0.004299 0.841802
O O3 0.378514 0.003996 0.987812
O O4 0.387459 0.007175 0.185111
O O5 0.264121 0.250000 0.538148
O O6 0.116817 0.462278 0.365292
O O7 0.291360 0.457865 0.705961
O O8 0.303241 0.534954 0.547438
O O9 0.919324 0.750000 0.329651
O O10 0.000000 0.000000 0.500000
O O11 0.972869 0.969104 0.289962
O O12 0.978558 0.250000 0.233048
O O13 0.912512 0.016471 0.042018
O O14 0.425322 0.250000 0.958562
O O15 0.500000 0.500000 0.000000
O O16 0.928730 0.750000 0.979199
O O17 0.792866 0.540454 0.737232
O O18 0.000000 0.500000 0.000000
O O19 0.740958 0.250000 0.634520
O O20 0.593685 0.037891 0.467830
O O21 0.500000 0.500000 0.500000
O O22 0.471126 0.250000 0.377151
#
# Coordination Sequence:
#
# PCOD8075211 Si02
#       8
#     4   4   4   4   4   4   4   4
#     4   9  20  41  64  86 120 164 206 252 314 376
#     4  10  21  37  60  88 120 159 198 246 311 375
#     4  11  23  41  65  93 125 168 214 261 318 377
#     4  11  23  40  62  90 124 162 206 255 311 373
#     4  10  20  37  61  88 117 153 198 247 307 370
#     4  12  24  40  62  92 127 165 207 255 313 375
#     4  11  23  39  62  90 123 161 207 258 313 372
#     4  10  23  42  63  89 119 161 212 261 315 372
#
# _framework density 20.480566
#
# number of rings (size 3 to 8) (size 9 to 14) (size 15 to 20)
#    0.000    1.500    1.250    3.750    1.750    5.000 
#    0.000    3.750    0.000    0.000    0.000    0.000 
#    0.000    0.000    0.000    0.000    0.000    0.000 
#
# Total GULP energy -396877.208944 kJ/mol
# GULP energy per Si atom -12402.412780 kJ/mol
# Density = 2.043395 g / cm^3
# Si number density = 20.480566 Si / 1000 Ang^3
#
#
#
# Elastic Constant Matrix: (Units=GPa)
#
#
# Indices 1 2 3 4 5 6 
#
# 1 131.4089 37.4337 61.3429 0.0000 -17.7710 0.0000
# 2 37.4337 49.5544 37.9874 0.0000 7.0851 0.0000
# 3 61.3429 37.9874 142.6382 0.0000 -12.4518 0.0000
# 4 0.0000 0.0000 0.0000 32.1138 0.0000 -3.5188
# 5 -17.7710 7.0851 -12.4518 0.0000 36.2097 0.0000
# 6 0.0000 0.0000 0.0000 -3.5188 0.0000 35.2595
#
#
#
# Elastic Compliance Matrix: (Units=1/GPa)
#
#
# Indices 1 2 3 4 5 6 
#
# 1 0.011939 -0.008135 -0.002389 0.000000 0.006630 0.000000
# 2 -0.008135 0.033048 -0.006408 0.000000 -0.012663 0.000000
# 3 -0.002389 -0.006408 0.010054 0.000000 0.003539 0.000000
# 4 0.000000 0.000000 0.000000 0.031484 0.000000 0.003142
# 5 0.006630 -0.012663 0.003539 0.000000 0.034565 0.000000
# 6 0.000000 0.000000 0.000000 0.003142 0.000000 0.028675
#
#
# Mechanical properties :
#
#
# Convention : Reuss Voigt Hill
#
# Bulk Modulus (GPa) = 47.22376 66.34773 56.78574
# Shear Modulus (GPa) = 26.22078 33.17242 29.69660
#
# Velocity S-wave (km/s) = 3.58198 4.02892 3.81200
# Velocity P-wave (km/s) = 6.34155 7.35586 6.86746
#
# Compressibility (1/GPa) = 0.02117578
#
# Stress axis : x y z
#
# Youngs Moduli (GPa) = 83.75784 30.25889 99.46522
#
# Poissons Ratio (x) = 0.24617 0.23764
# Poissons Ratio (y) = 0.68140 0.63739
# Poissons Ratio (z) = 0.20012 0.19390
#
# Static dielectric constant tensor:
#      x y z
#    x 3.744550 0.000000 -0.139600 
#    y 0.000000 3.759030 0.000000 
#    z -0.139600 0.000000 4.090680 
# 
# 
# High freq. dielectric constant tensor:
#      x y z
#    x 1.809600 0.000000 -0.007160 
#    y 0.000000 1.784590 0.000000 
#    z -0.007160 0.000000 1.817040 
# 
# From -- ./inp_files/55728.got.cif
#   From: 2010.06.25/outbox.cif.g09.slc.cpg/sg11_28_cif.got.tgz:55728.got - 2010.06.27 23:14:04.
