data_PCOD8075981
_publ_section_title
;
Structure prediction by ZEFSAII (Michael W. Deem and Ramdas Pophale) SiO2 
 PCOD8075981
Probable space group: P 21/M
;
_chemical_formula_sum "Si O2"
_cell_formula_units_Z 28
_cell_length_a 14.487819
_cell_length_b 8.582065
_cell_length_c 19.234200
_cell_angle_alpha 90.000000
_cell_angle_beta 40.766382
_cell_angle_gamma 90.000000
_cell_volume 1561.587689
_symmetry_space_group_name_H-M "P 21/M"
_symmetry_group_IT_number 11
_symmetry_cell_setting 'monoclinic'
loop_
_space_group_symop_operation_xyz
x,y,z
-x,1/2+y,-z
-x,-y,-z
x,1/2-y,z
loop_
_atom_site_type_symbol
_atom_site_label
_atom_site_fract_x
_atom_site_fract_y
_atom_site_fract_z
Si Si1 0.711831 0.567515 0.381210
Si Si2 0.472941 0.566468 0.621152
Si Si3 0.525563 0.068712 0.881432
Si Si4 0.273927 0.069524 0.125077
Si Si5 0.019763 0.068545 0.688107
Si Si6 0.583214 0.565969 0.703783
Si Si7 0.108219 0.566690 0.493725
O O1 0.693733 0.750000 0.383530
O O2 0.603565 0.500584 0.500920
O O3 0.674989 0.492582 0.327194
O O4 0.869596 0.522172 0.314553
O O5 0.476514 0.750000 0.618203
O O6 0.492471 0.508728 0.689004
O O7 0.561077 0.250000 0.869682
O O8 0.652491 0.972109 0.843830
O O9 0.513853 0.022099 0.808111
O O10 0.377749 0.026864 0.002473
O O11 0.232291 0.250000 0.149532
O O12 0.134619 0.966803 0.193786
O O13 0.035447 0.250000 0.659296
O O14 0.047571 0.964980 0.604657
O O15 0.572934 0.750000 0.721102
O O16 0.745090 0.521003 0.600588
O O17 0.129113 0.750000 0.470258
O O18 0.000000 0.500000 0.500000
#
# Coordination Sequence:
#
# PCOD8075981 Si02
#       7
#     4   4   4   4   4   4   4
#     4   9  18  33  52  76 106 138 173 214 260 311
#     4   9  18  33  52  76 106 138 173 214 260 311
#     4  10  21  37  56  79 106 139 181 223 263 312
#     4  10  21  37  56  79 106 139 181 223 263 312
#     4  11  21  36  55  78 109 140 175 218 265 316
#     4  11  21  36  55  78 109 140 175 218 265 316
#     4  12  24  36  51  74 107 144 177 212 262 316
#
# _framework density 17.930471000000001
#
# number of rings (size 3 to 8) (size 9 to 14) (size 15 to 20)
#    0.000    1.714    1.429    3.857    0.000    4.000 
#    0.000    0.000    0.000    0.857    0.000    0.000 
#    0.000    0.000    0.000    0.000    0.000    0.000 
#
# Total GULP energy -347282.513125 kJ/mol
# GULP energy per Si atom -12402.946897 kJ/mol
# Density = 1.788966 g / cm^3
# Si number density = 17.930471 Si / 1000 Ang^3
#
#
#
# Elastic Constant Matrix: (Units=GPa)
#
#
# Indices 1 2 3 4 5 6 
#
# 1 144.8495 16.7357 57.3243 0.0000 9.7547 0.0000
# 2 16.7357 27.0727 13.5417 0.0000 0.1665 0.0000
# 3 57.3243 13.5417 82.8948 0.0000 4.0974 0.0000
# 4 0.0000 0.0000 0.0000 28.1197 0.0000 -0.4998
# 5 9.7547 0.1665 4.0974 0.0000 18.4093 0.0000
# 6 0.0000 0.0000 0.0000 -0.4998 0.0000 30.4137
#
#
#
# Elastic Compliance Matrix: (Units=1/GPa)
#
#
# Indices 1 2 3 4 5 6 
#
# 1 0.009973 -0.003035 -0.006209 0.000000 -0.003875 0.000000
# 2 -0.003035 0.041171 -0.004740 0.000000 0.002291 0.000000
# 3 -0.006209 -0.004740 0.017155 0.000000 -0.000486 0.000000
# 4 0.000000 0.000000 0.000000 0.035573 0.000000 0.000585
# 5 -0.003875 0.002291 -0.000486 0.000000 0.056461 0.000000
# 6 0.000000 0.000000 0.000000 0.000585 0.000000 0.032890
#
#
# Mechanical properties :
#
#
# Convention : Reuss Voigt Hill
#
# Bulk Modulus (GPa) = 24.79515 47.78004 36.28759
# Shear Modulus (GPa) = 21.30984 26.53624 23.92304
#
# Velocity S-wave (km/s) = 3.45116 3.85119 3.65665
# Velocity P-wave (km/s) = 5.45337 6.81768 6.17333
#
# Compressibility (1/GPa) = 0.04033047
#
# Stress axis : x y z
#
# Youngs Moduli (GPa) = 100.27531 24.28913 58.29044
#
# Poissons Ratio (x) = 0.07372 0.36192
# Poissons Ratio (y) = 0.30436 0.27629
# Poissons Ratio (z) = 0.62260 0.11513
#
# Static dielectric constant tensor:
#      x y z
#    x 3.482320 0.000000 0.074370 
#    y 0.000000 3.340540 0.000000 
#    z 0.074370 0.000000 3.230420 
# 
# 
# High freq. dielectric constant tensor:
#      x y z
#    x 1.698860 0.000000 0.002510 
#    y 0.000000 1.702090 0.000000 
#    z 0.002510 0.000000 1.672050 
# 
# From -- ./inp_files/53198.got.cif
#   From: 2010.06.25/outbox.cif.g09.slc.cpg/sg11_27_cif.got.tgz:53198.got - 2010.06.27 23:14:04.
