data_PCOD8075376
_publ_section_title
;
Structure prediction by ZEFSAII (Michael W. Deem and Ramdas Pophale) SiO2 
 PCOD8075376
Probable space group: P 21/M
;
_chemical_formula_sum "Si O2"
_cell_formula_units_Z 24
_cell_length_a 10.036629
_cell_length_b 8.952234
_cell_length_c 13.541864
_cell_angle_alpha 90.000000
_cell_angle_beta 89.622075
_cell_angle_gamma 90.000000
_cell_volume 1216.713416
_symmetry_space_group_name_H-M "P 21/M"
_symmetry_group_IT_number 11
_symmetry_cell_setting 'monoclinic'
loop_
_space_group_symop_operation_xyz
x,y,z
-x,1/2+y,-z
-x,-y,-z
x,1/2-y,z
loop_
_atom_site_type_symbol
_atom_site_label
_atom_site_fract_x
_atom_site_fract_y
_atom_site_fract_z
Si Si1 0.746823 0.572964 0.421704
Si Si2 0.387950 0.074692 0.935017
Si Si3 0.889817 0.072689 0.068832
Si Si4 0.254615 0.074032 0.354366
Si Si5 0.965260 0.074734 0.289559
Si Si6 0.487029 0.076881 0.716752
O O1 0.759618 0.750000 0.415515
O O2 0.739027 0.513850 0.533576
O O3 0.877482 0.506386 0.371475
O O4 0.613906 0.517207 0.366601
O O5 0.378405 0.250000 0.958515
O O6 0.419222 0.043030 0.821156
O O7 0.250191 0.995857 0.963620
O O8 0.500000 0.000000 0.000000
O O9 0.888583 0.250000 0.054424
O O10 0.919926 0.026466 0.181095
O O11 0.000000 0.000000 0.000000
O O12 0.270013 0.250000 0.353317
O O13 0.117397 0.023241 0.304270
O O14 0.373880 0.008073 0.289559
O O15 0.949485 0.250000 0.306481
O O16 0.517513 0.250000 0.702100
#
# Coordination Sequence:
#
# PCOD8075376 Si02
#       6
#     4   4   4   4   4   4
#     4  10  20  38  61  86 119 158 200 245 296 351
#     4  11  24  43  65  91 122 157 201 252 305 365
#     4  11  24  42  64  91 122 160 203 251 306 362
#     4  10  22  37  58  89 122 158 199 244 293 351
#     4  10  22  39  59  88 121 155 198 245 297 354
#     4  10  22  39  59  87 120 156 198 244 296 354
#
# _framework density 19.725268
#
# number of rings (size 3 to 8) (size 9 to 14) (size 15 to 20)
#    0.000    1.667    1.667    2.000    2.333    4.000 
#    0.000    0.000    0.000    0.000    0.000    0.000 
#    0.000    0.000    0.000    0.000    0.000    0.000 
#
# Total GULP energy -297736.166001 kJ/mol
# GULP energy per Si atom -12405.673583 kJ/mol
# Density = 1.968037 g / cm^3
# Si number density = 19.725268 Si / 1000 Ang^3
#
#
#
# Elastic Constant Matrix: (Units=GPa)
#
#
# Indices 1 2 3 4 5 6 
#
# 1 168.0136 50.8898 42.8335 0.0000 1.4232 0.0000
# 2 50.8898 57.3291 37.6779 0.0000 -2.9617 0.0000
# 3 42.8335 37.6779 70.6206 0.0000 7.2794 0.0000
# 4 0.0000 0.0000 0.0000 28.3654 0.0000 -4.4640
# 5 1.4232 -2.9617 7.2794 0.0000 41.9916 0.0000
# 6 0.0000 0.0000 0.0000 -4.4640 0.0000 39.6168
#
#
#
# Elastic Compliance Matrix: (Units=1/GPa)
#
#
# Indices 1 2 3 4 5 6 
#
# 1 0.008278 -0.006317 -0.001605 0.000000 -0.000448 0.000000
# 2 -0.006317 0.032528 -0.014033 0.000000 0.004941 0.000000
# 3 -0.001605 -0.014033 0.023130 0.000000 -0.004945 0.000000
# 4 0.000000 0.000000 0.000000 0.035891 0.000000 0.004044
# 5 -0.000448 0.004941 -0.004945 0.000000 0.025035 0.000000
# 6 0.000000 0.000000 0.000000 0.004044 0.000000 0.025697
#
#
# Mechanical properties :
#
#
# Convention : Reuss Voigt Hill
#
# Bulk Modulus (GPa) = 49.92958 62.08506 56.00732
# Shear Modulus (GPa) = 24.85787 32.96557 28.91172
#
# Velocity S-wave (km/s) = 3.55379 4.09251 3.83263
# Velocity P-wave (km/s) = 6.49666 7.33994 6.93114
#
# Compressibility (1/GPa) = 0.02002821
#
# Stress axis : x y z
#
# Youngs Moduli (GPa) = 120.80105 30.74248 43.23424
#
# Poissons Ratio (x) = 0.19420 0.06937
# Poissons Ratio (y) = 0.76309 0.60669
# Poissons Ratio (z) = 0.19383 0.43140
#
# Static dielectric constant tensor:
#      x y z
#    x 3.692460 0.000000 0.110130 
#    y 0.000000 3.536880 0.000000 
#    z 0.110130 0.000000 3.865460 
# 
# 
# High freq. dielectric constant tensor:
#      x y z
#    x 1.786250 0.000000 0.003320 
#    y 0.000000 1.763390 0.000000 
#    z 0.003320 0.000000 1.778290 
# 
# From -- ./inp_files/46540.got.cif
#   From: 2010.06.25/outbox.cif.g09.slc.cpg/sg11_24_cif.got.tgz:46540.got - 2010.06.27 23:14:04.
