data_PCOD8075454
_publ_section_title
;
Structure prediction by ZEFSAII (Michael W. Deem and Ramdas Pophale) SiO2 
 PCOD8075454
Probable space group: P 21/M
;
_chemical_formula_sum "Si O2"
_cell_formula_units_Z 28
_cell_length_a 9.817113
_cell_length_b 8.490367
_cell_length_c 27.726300
_cell_angle_alpha 90.000000
_cell_angle_beta 37.596268
_cell_angle_gamma 90.000000
_cell_volume 1409.933434
_symmetry_space_group_name_H-M "P 21/M"
_symmetry_group_IT_number 11
_symmetry_cell_setting 'monoclinic'
loop_
_space_group_symop_operation_xyz
x,y,z
-x,1/2+y,-z
-x,-y,-z
x,1/2-y,z
loop_
_atom_site_type_symbol
_atom_site_label
_atom_site_fract_x
_atom_site_fract_y
_atom_site_fract_z
Si Si1 0.029536 0.570137 0.193283
Si Si2 0.682637 0.429891 0.795948
Si Si3 0.722905 0.566723 0.959462
Si Si4 0.071727 0.932894 0.628717
Si Si5 0.232021 0.567536 0.950658
Si Si6 0.628095 0.934773 0.373883
Si Si7 0.856153 0.565159 0.495957
O O1 0.014194 0.750000 0.179986
O O2 0.234939 0.548801 0.172423
O O3 0.072857 0.458671 0.135251
O O4 0.801563 0.518500 0.283259
O O5 0.709948 0.250000 0.771331
O O6 0.425952 0.480756 0.866158
O O7 0.828451 0.536377 0.719368
O O8 0.702745 0.750000 0.978822
O O9 0.500000 0.500000 0.000000
O O10 0.759822 0.460924 0.995239
O O11 0.129388 0.750000 0.614720
O O12 0.266736 0.022000 0.603619
O O13 0.061650 0.987655 0.576548
O O14 0.251356 0.750000 0.933123
O O15 0.000000 0.500000 0.000000
O O16 0.576193 0.750000 0.388974
O O17 0.405016 0.028686 0.424031
O O18 0.894274 0.750000 0.482320
O O19 0.000000 0.500000 0.500000
#
# Coordination Sequence:
#
# PCOD8075454 Si02
#       7
#     4   4   4   4   4   4   4
#     4   9  19  36  61  91 123 156 200 251 305 356
#     4  10  20  38  63  91 124 159 202 253 305 358
#     4  12  23  37  61  90 123 161 207 253 303 360
#     4  11  22  39  65  95 124 160 206 250 299 358
#     4  12  25  42  62  87 122 163 208 255 307 365
#     4  10  21  40  65  93 125 160 203 252 303 359
#     4  12  25  43  64  90 125 162 203 249 306 367
#
# _framework density 19.859093000000001
#
# number of rings (size 3 to 8) (size 9 to 14) (size 15 to 20)
#    0.000    1.143    1.429    7.286    0.000    2.857 
#    2.571    0.000    0.000    0.000    0.000    0.000 
#    0.000    0.000    0.000    0.000    0.000    0.000 
#
# Total GULP energy -347298.562921 kJ/mol
# GULP energy per Si atom -12403.520104 kJ/mol
# Density = 1.981389 g / cm^3
# Si number density = 19.859093 Si / 1000 Ang^3
#
#
#
# Elastic Constant Matrix: (Units=GPa)
#
#
# Indices 1 2 3 4 5 6 
#
# 1 97.4292 4.6673 46.0829 0.0000 -9.9071 0.0000
# 2 4.6673 83.2267 17.6844 0.0000 -0.1314 0.0000
# 3 46.0829 17.6844 106.6305 0.0000 -8.1314 0.0000
# 4 0.0000 0.0000 0.0000 38.6769 0.0000 -1.0615
# 5 -9.9071 -0.1314 -8.1314 0.0000 31.7577 0.0000
# 6 0.0000 0.0000 0.0000 -1.0615 0.0000 32.6061
#
#
#
# Elastic Compliance Matrix: (Units=1/GPa)
#
#
# Indices 1 2 3 4 5 6 
#
# 1 0.013139 0.000446 -0.005548 0.000000 0.002680 0.000000
# 2 0.000446 0.012477 -0.002292 0.000000 -0.000396 0.000000
# 3 -0.005548 -0.002292 0.012263 0.000000 0.001400 0.000000
# 4 0.000000 0.000000 0.000000 0.025878 0.000000 0.000842
# 5 0.002680 -0.000396 0.001400 0.000000 0.032681 0.000000
# 6 0.000000 0.000000 0.000000 0.000842 0.000000 0.030697
#
#
# Mechanical properties :
#
#
# Convention : Reuss Voigt Hill
#
# Bulk Modulus (GPa) = 43.30762 47.12840 45.21801
# Shear Modulus (GPa) = 33.41800 35.19825 34.30813
#
# Velocity S-wave (km/s) = 4.10659 4.21456 4.16092
# Velocity P-wave (km/s) = 6.65885 6.88957 6.77519
#
# Compressibility (1/GPa) = 0.02309062
#
# Stress axis : x y z
#
# Youngs Moduli (GPa) = 76.10823 80.14873 81.54748
#
# Poissons Ratio (x) = -0.03577 0.45243
# Poissons Ratio (y) = -0.03396 0.18693
# Poissons Ratio (z) = 0.42225 0.18373
#
# Static dielectric constant tensor:
#      x y z
#    x 3.587940 0.000000 -0.195450 
#    y 0.000000 3.750640 0.000000 
#    z -0.195450 0.000000 3.572580 
# 
# 
# High freq. dielectric constant tensor:
#      x y z
#    x 1.757070 0.000000 0.000310 
#    y 0.000000 1.786760 0.000000 
#    z 0.000310 0.000000 1.791350 
# 
# From -- ./inp_files/70802.got.cif
#   From: 2010.06.25/outbox.cif.g09.slc.cpg/sg11_36_cif.got.tgz:70802.got - 2010.06.27 23:14:04.
