data_PCOD8075511
_publ_section_title
;
Structure prediction by ZEFSAII (Michael W. Deem and Ramdas Pophale) SiO2 
 PCOD8075511
Probable space group: P 21/M
;
_chemical_formula_sum "Si O2"
_cell_formula_units_Z 32
_cell_length_a 11.968123
_cell_length_b 9.057114
_cell_length_c 28.507162
_cell_angle_alpha 90.000000
_cell_angle_beta 32.700443
_cell_angle_gamma 90.000000
_cell_volume 1669.406448
_symmetry_space_group_name_H-M "P 21/M"
_symmetry_group_IT_number 11
_symmetry_cell_setting 'monoclinic'
loop_
_space_group_symop_operation_xyz
x,y,z
-x,1/2+y,-z
-x,-y,-z
x,1/2-y,z
loop_
_atom_site_type_symbol
_atom_site_label
_atom_site_fract_x
_atom_site_fract_y
_atom_site_fract_z
Si Si1 0.794794 0.924839 0.591155
Si Si2 0.342170 0.080576 0.589193
Si Si3 0.901086 0.574123 0.743774
Si Si4 0.304713 0.416557 0.088083
Si Si5 0.448553 0.082760 0.657536
Si Si6 0.364185 0.424992 0.251890
Si Si7 0.096146 0.915768 0.827880
Si Si8 0.169828 0.921521 0.909024
O O1 0.824292 0.750000 0.579855
O O2 0.740755 0.981705 0.662770
O O3 0.612300 0.969563 0.620817
O O4 0.000000 0.000000 0.500000
O O5 0.310758 0.250000 0.584992
O O6 0.449617 0.070393 0.601550
O O7 0.500000 0.000000 0.500000
O O8 0.123481 0.000001 0.664114
O O9 0.932541 0.750000 0.733653
O O10 0.781536 0.517807 0.832459
O O11 0.771572 0.521343 0.744168
O O12 0.373320 0.250000 0.073589
O O13 0.138082 0.427769 0.105858
O O14 0.500000 0.500000 0.000000
O O15 0.497921 0.250000 0.656174
O O16 0.223043 0.036623 0.754612
O O17 0.375809 0.250000 0.249929
O O18 0.598830 0.486281 0.164041
O O19 0.183155 0.750000 0.787686
O O20 0.105935 0.953908 0.878679
O O21 0.164850 0.750000 0.923331
O O22 0.000000 0.000000 0.000000
#
# Coordination Sequence:
#
# PCOD8075511 Si02
#       8
#     4   4   4   4   4   4   4   4
#     4  11  23  41  63  89 124 160 198 247 299 356
#     4  11  25  42  62  90 121 157 199 248 301 359
#     4  10  21  40  63  87 118 158 200 243 296 358
#     4  10  22  37  59  87 117 155 199 243 298 358
#     4  11  23  40  63  90 118 153 203 254 301 356
#     4   9  20  39  61  84 118 158 193 237 295 352
#     4  10  20  39  62  84 114 157 203 248 301 358
#     4  10  21  38  59  85 117 155 197 242 294 350
#
# _framework density 19.168489000000001
#
# number of rings (size 3 to 8) (size 9 to 14) (size 15 to 20)
#    0.000    1.750    2.500    1.125    3.500    3.000 
#    0.000    1.250    0.000    0.000    0.000    0.000 
#    0.000    0.000    0.000    0.000    0.000    0.000 
#
# Total GULP energy -396840.781575 kJ/mol
# GULP energy per Si atom -12401.274424 kJ/mol
# Density = 1.912486 g / cm^3
# Si number density = 19.168489 Si / 1000 Ang^3
#
#
#
# Elastic Constant Matrix: (Units=GPa)
#
#
# Indices 1 2 3 4 5 6 
#
# 1 118.8948 37.1384 53.7493 0.0000 2.1401 0.0000
# 2 37.1384 69.3909 56.5256 0.0000 6.8448 0.0000
# 3 53.7493 56.5256 165.1358 0.0000 7.2352 0.0000
# 4 0.0000 0.0000 0.0000 39.9086 0.0000 -0.9170
# 5 2.1401 6.8448 7.2352 0.0000 25.4299 0.0000
# 6 0.0000 0.0000 0.0000 -0.9170 0.0000 25.8680
#
#
#
# Elastic Compliance Matrix: (Units=1/GPa)
#
#
# Indices 1 2 3 4 5 6 
#
# 1 0.010611 -0.004043 -0.002105 0.000000 0.000794 0.000000
# 2 -0.004043 0.021832 -0.005989 0.000000 -0.003832 0.000000
# 3 -0.002105 -0.005989 0.008822 0.000000 -0.000721 0.000000
# 4 0.000000 0.000000 0.000000 0.025078 0.000000 0.000889
# 5 0.000794 -0.003832 -0.000721 0.000000 0.040494 0.000000
# 6 0.000000 0.000000 0.000000 0.000889 0.000000 0.038689
#
#
# Mechanical properties :
#
#
# Convention : Reuss Voigt Hill
#
# Bulk Modulus (GPa) = 58.85294 72.02755 65.44024
# Shear Modulus (GPa) = 28.49617 31.97518 30.23567
#
# Velocity S-wave (km/s) = 3.85985 4.08868 3.97591
# Velocity P-wave (km/s) = 7.11577 7.74257 7.43578
#
# Compressibility (1/GPa) = 0.01699151
#
# Stress axis : x y z
#
# Youngs Moduli (GPa) = 94.24383 45.80522 113.34949
#
# Poissons Ratio (x) = 0.18519 0.23855
# Poissons Ratio (y) = 0.38102 0.67886
# Poissons Ratio (z) = 0.19834 0.27433
#
# Static dielectric constant tensor:
#      x y z
#    x 4.134520 0.000000 0.151100 
#    y 0.000000 3.401080 0.000000 
#    z 0.151100 0.000000 3.683010 
# 
# 
# High freq. dielectric constant tensor:
#      x y z
#    x 1.760310 0.000000 -0.000050 
#    y 0.000000 1.732100 0.000000 
#    z -0.000050 0.000000 1.755100 
# 
# From -- ./inp_files/38196.got.cif
#   From: 2010.06.25/outbox.cif.g09.slc.cpg/sg11_20_cif.got.tgz:38196.got - 2010.06.27 23:14:04.
