data_PCOD8075620
_publ_section_title
;
Structure prediction by ZEFSAII (Michael W. Deem and Ramdas Pophale) SiO2 
 PCOD8075620
Probable space group: P 21/M
;
_chemical_formula_sum "Si O2"
_cell_formula_units_Z 20
_cell_length_a 6.325228
_cell_length_b 13.081399
_cell_length_c 12.027330
_cell_angle_alpha 90.000000
_cell_angle_beta 83.150432
_cell_angle_gamma 90.000000
_cell_volume 988.072474
_symmetry_space_group_name_H-M "P 21/M"
_symmetry_group_IT_number 11
_symmetry_cell_setting 'monoclinic'
loop_
_space_group_symop_operation_xyz
x,y,z
-x,1/2+y,-z
-x,-y,-z
x,1/2-y,z
loop_
_atom_site_type_symbol
_atom_site_label
_atom_site_fract_x
_atom_site_fract_y
_atom_site_fract_z
Si Si1 0.680554 0.537073 0.570002
Si Si2 0.003711 0.631524 0.382280
Si Si3 0.298512 0.436112 0.046535
Si Si4 0.558048 0.362041 0.216751
Si Si5 0.105953 0.040768 0.837876
O O1 0.500000 0.500000 0.500000
O O2 0.786232 0.437997 0.621107
O O3 0.577696 0.608547 0.667976
O O4 0.851024 0.605712 0.494421
O O5 0.070578 0.750000 0.383074
O O6 0.884090 0.609401 0.273079
O O7 0.391102 0.351615 0.124428
O O8 0.135028 0.507856 0.123785
O O9 0.500000 0.500000 0.000000
O O10 0.189904 0.393574 0.939486
O O11 0.659360 0.250000 0.228665
O O12 0.751024 0.439712 0.185475
#
# Coordination Sequence:
#
# PCOD8075620 Si02
#       5
#     4   4   4   4   4
#     4  11  23  44  61  90 131 161 207 262 301 367
#     4  11  24  41  66  94 123 165 208 253 316 370
#     4   9  20  39  64  87 125 163 201 261 307 356
#     4  11  22  38  64  93 125 170 207 247 314 370
#     4  10  20  41  63  91 129 156 205 265 302 367
#
# _framework density 20.241430000000001
#
# number of rings (size 3 to 8) (size 9 to 14) (size 15 to 20)
#    0.000    1.600    4.000    0.600    0.000    3.200 
#    0.000    8.000    0.000    0.000    0.000    0.000 
#    0.000    0.000    0.000    0.000    0.000    0.000 
#
# Total GULP energy -247908.607353 kJ/mol
# GULP energy per Si atom -12395.430368 kJ/mol
# Density = 2.019536 g / cm^3
# Si number density = 20.241430 Si / 1000 Ang^3
#
#
#
# Elastic Constant Matrix: (Units=GPa)
#
#
# Indices 1 2 3 4 5 6 
#
# 1 85.8275 22.3187 31.9894 0.0000 0.9420 0.0000
# 2 22.3187 105.4074 41.7407 0.0000 10.6637 0.0000
# 3 31.9894 41.7407 126.6625 0.0000 8.3470 0.0000
# 4 0.0000 0.0000 0.0000 14.5662 0.0000 -0.2235
# 5 0.9420 10.6637 8.3470 0.0000 42.7426 0.0000
# 6 0.0000 0.0000 0.0000 -0.2235 0.0000 22.5920
#
#
#
# Elastic Compliance Matrix: (Units=1/GPa)
#
#
# Indices 1 2 3 4 5 6 
#
# 1 0.013137 -0.001748 -0.002787 0.000000 0.000691 0.000000
# 2 -0.001748 0.011323 -0.003147 0.000000 -0.002172 0.000000
# 3 -0.002787 -0.003147 0.009705 0.000000 -0.001049 0.000000
# 4 0.000000 0.000000 0.000000 0.068663 0.000000 0.000679
# 5 0.000691 -0.002172 -0.001049 0.000000 0.024127 0.000000
# 6 0.000000 0.000000 0.000000 0.000679 0.000000 0.044270
#
#
# Mechanical properties :
#
#
# Convention : Reuss Voigt Hill
#
# Bulk Modulus (GPa) = 53.18834 56.66612 54.92723
# Shear Modulus (GPa) = 25.92604 30.77006 28.34805
#
# Velocity S-wave (km/s) = 3.58277 3.90314 3.74638
# Velocity P-wave (km/s) = 6.59158 6.95475 6.77560
#
# Compressibility (1/GPa) = 0.01880111
#
# Stress axis : x y z
#
# Youngs Moduli (GPa) = 76.12036 88.31652 103.03844
#
# Poissons Ratio (x) = 0.15435 0.28721
# Poissons Ratio (y) = 0.13304 0.32425
# Poissons Ratio (z) = 0.21218 0.27792
#
# Static dielectric constant tensor:
#      x y z
#    x 3.749660 0.000000 0.066170 
#    y 0.000000 3.320760 0.000000 
#    z 0.066170 0.000000 4.224870 
# 
# 
# High freq. dielectric constant tensor:
#      x y z
#    x 1.800570 0.000000 0.002900 
#    y 0.000000 1.757590 0.000000 
#    z 0.002900 0.000000 1.818720 
# 
# From -- ./inp_files/29601.got.cif
#   From: 2010.06.25/outbox.cif.g09.slc.cpg/sg11_15_cif.got.tgz:29601.got - 2010.06.27 23:14:04.
