data_PCOD8075017
_publ_section_title
;
Structure prediction by ZEFSAII (Michael W. Deem and Ramdas Pophale) SiO2 
 PCOD8075017
Probable space group: P 21/M
;
_chemical_formula_sum "Si O2"
_cell_formula_units_Z 32
_cell_length_a 11.789731
_cell_length_b 18.866885
_cell_length_c 14.203033
_cell_angle_alpha 90.000000
_cell_angle_beta 32.766294
_cell_angle_gamma 90.000000
_cell_volume 1709.833879
_symmetry_space_group_name_H-M "P 21/M"
_symmetry_group_IT_number 11
_symmetry_cell_setting 'monoclinic'
loop_
_space_group_symop_operation_xyz
x,y,z
-x,1/2+y,-z
-x,-y,-z
x,1/2-y,z
loop_
_atom_site_type_symbol
_atom_site_label
_atom_site_fract_x
_atom_site_fract_y
_atom_site_fract_z
Si Si1 0.043210 0.332697 0.037774
Si Si2 0.576238 0.167037 0.343503
Si Si3 0.740510 0.920840 0.953144
Si Si4 0.822450 0.831993 0.266792
Si Si5 0.171309 0.582246 0.129167
Si Si6 0.867465 0.596004 0.658915
Si Si7 0.466993 0.168032 0.214463
Si Si8 0.255353 0.939614 0.279917
O O1 0.047592 0.250000 0.061194
O O2 0.806630 0.364464 0.203729
O O3 0.179972 0.374889 0.016253
O O4 0.146360 0.346451 0.864528
O O5 0.606996 0.250000 0.310719
O O6 0.416999 0.148488 0.539092
O O7 0.484587 0.137817 0.308647
O O8 0.841189 0.888665 0.787844
O O9 0.808333 0.001827 0.921112
O O10 0.490477 0.911927 0.124320
O O11 0.872340 0.750000 0.257278
O O12 0.968816 0.882580 0.225164
O O13 0.148092 0.584787 0.257672
O O14 0.375810 0.626091 0.961472
O O15 0.765081 0.657459 0.666208
O O16 0.743512 0.524585 0.717235
O O17 0.114793 0.591405 0.463021
O O18 0.528091 0.250000 0.169063
#
# Coordination Sequence:
#
# PCOD8075017 Si02
#       8
#     4   4   4   4   4   4   4   4
#     4  10  22  39  57  77 107 150 188 223 273 327
#     4   9  19  36  57  79 108 143 180 229 283 325
#     4  11  22  38  55  81 115 150 185 223 267 333
#     4  10  20  37  59  82 109 142 183 232 280 323
#     4  11  19  36  58  85 112 142 182 229 282 329
#     4  10  20  37  58  81 110 149 182 222 278 330
#     4  11  19  33  59  86 111 140 180 232 283 327
#     4  10  20  37  59  80 112 148 183 222 275 333
#
# _framework density 18.715267999999998
#
# number of rings (size 3 to 8) (size 9 to 14) (size 15 to 20)
#    0.000    1.750    3.750    1.875    0.000    2.000 
#    0.000    1.875    0.000    0.000    0.000    0.000 
#    0.000    0.000    0.000    0.000    0.000    0.000 
#
# Total GULP energy -396831.170293 kJ/mol
# GULP energy per Si atom -12400.974072 kJ/mol
# Density = 1.867267 g / cm^3
# Si number density = 18.715268 Si / 1000 Ang^3
#
#
#
# Elastic Constant Matrix: (Units=GPa)
#
#
# Indices 1 2 3 4 5 6 
#
# 1 117.7590 55.1516 58.6090 0.0000 5.9826 0.0000
# 2 55.1516 59.6897 37.0286 0.0000 1.6616 0.0000
# 3 58.6090 37.0286 139.9776 0.0000 13.1985 0.0000
# 4 0.0000 0.0000 0.0000 15.8748 0.0000 -2.8963
# 5 5.9826 1.6616 13.1985 0.0000 16.1952 0.0000
# 6 0.0000 0.0000 0.0000 -2.8963 0.0000 33.3991
#
#
#
# Elastic Compliance Matrix: (Units=1/GPa)
#
#
# Indices 1 2 3 4 5 6 
#
# 1 0.016268 -0.013004 -0.003175 0.000000 -0.002088 0.000000
# 2 -0.013004 0.030527 -0.003020 0.000000 0.004133 0.000000
# 3 -0.003175 -0.003020 0.009893 0.000000 -0.006580 0.000000
# 4 0.000000 0.000000 0.000000 0.064006 0.000000 0.005550
# 5 -0.002088 0.004133 -0.006580 0.000000 0.067456 0.000000
# 6 0.000000 0.000000 0.000000 0.005550 0.000000 0.030422
#
#
# Mechanical properties :
#
#
# Convention : Reuss Voigt Hill
#
# Bulk Modulus (GPa) = 54.67439 68.77832 61.72636
# Shear Modulus (GPa) = 19.00654 24.20296 21.60475
#
# Velocity S-wave (km/s) = 3.19025 3.60004 3.40132
# Velocity P-wave (km/s) = 6.54580 7.35595 6.96267
#
# Compressibility (1/GPa) = 0.01829010
#
# Stress axis : x y z
#
# Youngs Moduli (GPa) = 61.46880 32.75764 101.08518
#
# Poissons Ratio (x) = 0.42598 0.32092
# Poissons Ratio (y) = 0.79934 0.30531
# Poissons Ratio (z) = 0.19515 0.09894
#
# Static dielectric constant tensor:
#      x y z
#    x 3.348920 0.000000 0.042670 
#    y 0.000000 3.273800 0.000000 
#    z 0.042670 0.000000 3.663360 
# 
# 
# High freq. dielectric constant tensor:
#      x y z
#    x 1.720530 0.000000 0.004800 
#    y 0.000000 1.704270 0.000000 
#    z 0.004800 0.000000 1.742140 
# 
# From -- ./inp_files/39939.got.cif
#   From: 2010.06.25/outbox.cif.g09.slc.cpg/sg11_20_cif.got.tgz:39939.got - 2010.06.27 23:14:04.
