data_PCOD8075382
_publ_section_title
;
Structure prediction by ZEFSAII (Michael W. Deem and Ramdas Pophale) SiO2 
 PCOD8075382
Probable space group: P 21/M
;
_chemical_formula_sum "Si O2"
_cell_formula_units_Z 28
_cell_length_a 9.779797
_cell_length_b 8.902957
_cell_length_c 29.035692
_cell_angle_alpha 90.000000
_cell_angle_beta 33.309577
_cell_angle_gamma 90.000000
_cell_volume 1388.344304
_symmetry_space_group_name_H-M "P 21/M"
_symmetry_group_IT_number 11
_symmetry_cell_setting 'monoclinic'
loop_
_space_group_symop_operation_xyz
x,y,z
-x,1/2+y,-z
-x,-y,-z
x,1/2-y,z
loop_
_atom_site_type_symbol
_atom_site_label
_atom_site_fract_x
_atom_site_fract_y
_atom_site_fract_z
Si Si1 0.431002 0.572575 0.128323
Si Si2 0.805047 0.575936 0.630513
Si Si3 0.507912 0.925805 0.354085
Si Si4 0.105802 0.072066 0.060250
Si Si5 0.982447 0.572286 0.813091
Si Si6 0.351659 0.575167 0.500358
Si Si7 0.568701 0.423970 0.181462
O O1 0.418270 0.750000 0.127468
O O2 0.175342 0.504136 0.182358
O O3 0.450893 0.525958 0.175388
O O4 0.663918 0.505897 0.033673
O O5 0.831366 0.750000 0.608559
O O6 0.738518 0.479666 0.603839
O O7 0.588507 0.551797 0.728407
O O8 0.065960 0.517688 0.578299
O O9 0.550295 0.750000 0.333722
O O10 0.482697 0.962401 0.415103
O O11 0.734955 0.020295 0.269998
O O12 0.104411 0.250000 0.058826
O O13 0.128690 0.018638 0.106582
O O14 0.847341 0.014481 0.111389
O O15 0.972601 0.750000 0.810425
O O16 0.500000 0.500000 0.500000
O O17 0.354478 0.750000 0.510153
O O18 0.566543 0.250000 0.166868
#
# Coordination Sequence:
#
# PCOD8075382 Si02
#       7
#     4   4   4   4   4   4   4
#     4  11  23  37  56  88 125 156 195 254 311 350
#     4  10  21  41  66  89 118 160 205 241 287 359
#     4  11  23  40  62  93 126 154 196 250 300 349
#     4   9  19  38  61  85 116 155 203 251 296 356
#     4  11  22  40  63  86 116 162 208 244 294 359
#     4  10  24  42  63  94 126 157 195 241 295 356
#     4  10  20  38  61  87 118 157 204 245 288 358
#
# _framework density 20.167907
#
# number of rings (size 3 to 8) (size 9 to 14) (size 15 to 20)
#    0.000    1.714    1.429    2.571    2.000    2.286 
#    0.000    2.857    0.000    0.000    0.000    0.000 
#    0.000    0.000    0.000    0.000    0.000    0.000 
#
# Total GULP energy -347304.628973 kJ/mol
# GULP energy per Si atom -12403.736749 kJ/mol
# Density = 2.012200 g / cm^3
# Si number density = 20.167907 Si / 1000 Ang^3
#
#
#
# Elastic Constant Matrix: (Units=GPa)
#
#
# Indices 1 2 3 4 5 6 
#
# 1 158.3443 50.3991 28.6516 0.0000 -1.5836 0.0000
# 2 50.3991 68.1054 27.2368 0.0000 6.0417 0.0000
# 3 28.6516 27.2368 57.1742 0.0000 -4.0758 0.0000
# 4 0.0000 0.0000 0.0000 23.4841 0.0000 -3.6412
# 5 -1.5836 6.0417 -4.0758 0.0000 33.0939 0.0000
# 6 0.0000 0.0000 0.0000 -3.6412 0.0000 29.3796
#
#
#
# Elastic Compliance Matrix: (Units=1/GPa)
#
#
# Indices 1 2 3 4 5 6 
#
# 1 0.008422 -0.005801 -0.001364 0.000000 0.001294 0.000000
# 2 -0.005801 0.022798 -0.008343 0.000000 -0.005467 0.000000
# 3 -0.001364 -0.008343 0.022450 0.000000 0.004223 0.000000
# 4 0.000000 0.000000 0.000000 0.043416 0.000000 0.005381
# 5 0.001294 -0.005467 0.004223 0.000000 0.031797 0.000000
# 6 0.000000 0.000000 0.000000 0.005381 0.000000 0.034704
#
#
# Mechanical properties :
#
#
# Convention : Reuss Voigt Hill
#
# Bulk Modulus (GPa) = 44.14702 55.13320 49.64011
# Shear Modulus (GPa) = 24.73357 29.01396 26.87376
#
# Velocity S-wave (km/s) = 3.50577 3.79703 3.65430
# Velocity P-wave (km/s) = 6.19068 6.82786 6.51706
#
# Compressibility (1/GPa) = 0.02265159
#
# Stress axis : x y z
#
# Youngs Moduli (GPa) = 118.74135 43.86410 44.54410
#
# Poissons Ratio (x) = 0.25447 0.06078
# Poissons Ratio (y) = 0.68885 0.37163
# Poissons Ratio (z) = 0.16202 0.36596
#
# Static dielectric constant tensor:
#      x y z
#    x 3.723420 0.000000 -0.080170 
#    y 0.000000 3.448440 0.000000 
#    z -0.080170 0.000000 3.808210 
# 
# 
# High freq. dielectric constant tensor:
#      x y z
#    x 1.801660 0.000000 -0.003190 
#    y 0.000000 1.770240 0.000000 
#    z -0.003190 0.000000 1.796500 
# 
# From -- ./inp_files/28295.got.cif
#   From: 2010.06.25/outbox.cif.g09.slc.cpg/sg11_15_cif.got.tgz:28295.got - 2010.06.27 23:14:04.
