data_PCOD8075158
_publ_section_title
;
Structure prediction by ZEFSAII (Michael W. Deem and Ramdas Pophale) SiO2 
 PCOD8075158
Probable space group: P 21/M
;
_chemical_formula_sum "Si O2"
_cell_formula_units_Z 24
_cell_length_a 15.032045
_cell_length_b 8.774623
_cell_length_c 14.648134
_cell_angle_alpha 90.000000
_cell_angle_beta 40.414126
_cell_angle_gamma 90.000000
_cell_volume 1252.592981
_symmetry_space_group_name_H-M "P 21/M"
_symmetry_group_IT_number 11
_symmetry_cell_setting 'monoclinic'
loop_
_space_group_symop_operation_xyz
x,y,z
-x,1/2+y,-z
-x,-y,-z
x,1/2-y,z
loop_
_atom_site_type_symbol
_atom_site_label
_atom_site_fract_x
_atom_site_fract_y
_atom_site_fract_z
Si Si1 0.602002 0.928574 0.149803
Si Si2 0.918260 0.572372 0.145993
Si Si3 0.871379 0.074969 0.866220
Si Si4 0.123615 0.927632 0.348554
Si Si5 0.415773 0.430116 0.149059
Si Si6 0.616841 0.570465 0.347593
O O1 0.574110 0.750000 0.159474
O O2 0.597294 0.980415 0.258358
O O3 0.484504 0.022558 0.190418
O O4 0.749992 0.965141 0.992195
O O5 0.913238 0.750000 0.129344
O O6 0.763337 0.507958 0.269353
O O7 0.991631 0.534754 0.184319
O O8 0.000000 0.500000 0.000000
O O9 0.825702 0.250000 0.918090
O O10 0.906638 0.044516 0.733974
O O11 0.137114 0.750000 0.361160
O O12 0.261653 0.010885 0.270429
O O13 0.000000 0.000000 0.500000
O O14 0.417671 0.250000 0.136796
O O15 0.500000 0.500000 0.000000
O O16 0.500000 0.500000 0.500000
O O17 0.608396 0.750000 0.363669
#
# Coordination Sequence:
#
# PCOD8075158 Si02
#       6
#     4   4   4   4   4   4
#     4  11  22  38  62  92 124 159 207 256 304 368
#     4  10  20  37  60  89 119 154 201 248 298 362
#     4  10  21  37  62  90 120 159 205 250 305 370
#     4  11  24  42  62  92 129 165 206 256 313 369
#     4  12  24  40  64  93 123 163 209 258 312 370
#     4  10  23  40  59  89 127 163 201 252 306 364
#
# _framework density 19.160253999999998
#
# number of rings (size 3 to 8) (size 9 to 14) (size 15 to 20)
#    0.000    1.333    3.333    2.500    0.000    4.000 
#    0.000    1.667    0.000    0.000    0.000    0.000 
#    0.000    0.000    0.000    0.000    0.000    0.000 
#
# Total GULP energy -297707.163295 kJ/mol
# GULP energy per Si atom -12404.465137 kJ/mol
# Density = 1.911664 g / cm^3
# Si number density = 19.160254 Si / 1000 Ang^3
#
#
#
# Elastic Constant Matrix: (Units=GPa)
#
#
# Indices 1 2 3 4 5 6 
#
# 1 176.7579 62.8537 84.3141 0.0000 -12.7852 0.0000
# 2 62.8537 96.7794 57.9222 0.0000 -2.7983 0.0000
# 3 84.3141 57.9222 156.0914 0.0000 -13.1595 0.0000
# 4 0.0000 0.0000 0.0000 37.7480 0.0000 -2.5506
# 5 -12.7852 -2.7983 -13.1595 0.0000 36.3115 0.0000
# 6 0.0000 0.0000 0.0000 -2.5506 0.0000 30.2942
#
#
#
# Elastic Compliance Matrix: (Units=1/GPa)
#
#
# Indices 1 2 3 4 5 6 
#
# 1 0.008565 -0.003635 -0.003143 0.000000 0.001597 0.000000
# 2 -0.003635 0.014848 -0.003670 0.000000 -0.001466 0.000000
# 3 -0.003143 -0.003670 0.009643 0.000000 0.002105 0.000000
# 4 0.000000 0.000000 0.000000 0.026643 0.000000 0.002243
# 5 0.001597 -0.001466 0.002105 0.000000 0.028752 0.000000
# 6 0.000000 0.000000 0.000000 0.002243 0.000000 0.033198
#
#
# Mechanical properties :
#
#
# Convention : Reuss Voigt Hill
#
# Bulk Modulus (GPa) = 82.23406 93.31208 87.77307
# Shear Modulus (GPa) = 34.10704 35.84000 34.97352
#
# Velocity S-wave (km/s) = 4.22369 4.32966 4.27701
# Velocity P-wave (km/s) = 8.17303 8.59077 8.38450
#
# Compressibility (1/GPa) = 0.01216041
#
# Stress axis : x y z
#
# Youngs Moduli (GPa) = 116.75827 67.35112 103.69942
#
# Poissons Ratio (x) = 0.24484 0.32590
# Poissons Ratio (y) = 0.42445 0.38053
# Poissons Ratio (z) = 0.36694 0.24715
#
# Static dielectric constant tensor:
#      x y z
#    x 6.993800 0.000000 0.079410 
#    y 0.000000 3.795960 0.000000 
#    z 0.079410 0.000000 3.433640 
# 
# 
# High freq. dielectric constant tensor:
#      x y z
#    x 1.766620 0.000000 -0.002650 
#    y 0.000000 1.748650 0.000000 
#    z -0.002650 0.000000 1.742110 
# 
# From -- ./inp_files/20343.got.cif
#   From: 2010.06.25/outbox.cif.g09.slc.cpg/sg11_11_cif.got.tgz:20343.got - 2010.06.27 23:14:04.
