data_PCOD8075828
_publ_section_title
;
Structure prediction by ZEFSAII (Michael W. Deem and Ramdas Pophale) SiO2 
 PCOD8075828
Probable space group: P 21/M
;
_chemical_formula_sum "Si O2"
_cell_formula_units_Z 32
_cell_length_a 27.091173
_cell_length_b 9.020867
_cell_length_c 21.093298
_cell_angle_alpha 90.000000
_cell_angle_beta 161.604759
_cell_angle_gamma 90.000000
_cell_volume 1626.734184
_symmetry_space_group_name_H-M "P 21/M"
_symmetry_group_IT_number 11
_symmetry_cell_setting 'monoclinic'
loop_
_space_group_symop_operation_xyz
x,y,z
-x,1/2+y,-z
-x,-y,-z
x,1/2-y,z
loop_
_atom_site_type_symbol
_atom_site_label
_atom_site_fract_x
_atom_site_fract_y
_atom_site_fract_z
Si Si1 0.045587 0.423077 0.861949
Si Si2 0.796745 0.914024 0.280674
Si Si3 0.967862 0.583612 0.357387
Si Si4 0.490935 0.918189 0.054120
Si Si5 0.394752 0.420810 0.577218
Si Si6 0.912899 0.074961 0.836156
Si Si7 0.248298 0.926526 0.010290
Si Si8 0.751453 0.584096 0.468807
O O1 0.080907 0.250000 0.898077
O O2 0.011075 0.468577 0.892681
O O3 0.190082 0.514573 0.008154
O O4 0.890213 0.465346 0.633302
O O5 0.748629 0.750000 0.245332
O O6 0.902551 0.903663 0.348314
O O7 0.873900 0.990539 0.437400
O O8 0.646188 0.004516 0.073123
O O9 0.000561 0.750000 0.370901
O O10 0.852745 0.500280 0.168735
O O11 0.441828 0.750000 0.984615
O O12 0.656392 0.935042 0.289184
O O13 0.500000 0.000000 0.000000
O O14 0.372868 0.250000 0.530619
O O15 0.367578 0.445507 0.618618
O O16 0.265265 0.516428 0.382120
O O17 0.570160 0.474550 0.774740
O O18 0.907522 0.250000 0.838732
O O19 0.000000 0.000000 0.000000
O O20 0.229789 0.750000 0.983250
O O21 0.822954 0.750000 0.562099
#
# Coordination Sequence:
#
# PCOD8075828 Si02
#       8
#     4   4   4   4   4   4   4   4
#     4  10  22  38  58  87 120 152 191 235 283 339
#     4  10  21  37  54  75 103 139 188 238 293 353
#     4  10  21  36  56  78 105 144 186 236 290 345
#     4  11  23  36  52  74 105 143 188 241 295 346
#     4   9  19  37  61  88 115 148 191 235 280 336
#     4  10  21  39  65  93 121 155 191 231 276 333
#     4  11  22  36  58  86 118 153 190 235 288 341
#     4   9  19  37  58  78 106 147 193 239 289 346
#
# _framework density 19.671315
#
# number of rings (size 3 to 8) (size 9 to 14) (size 15 to 20)
#    0.000    2.000    0.000    3.000    1.750    6.000 
#    0.000    3.125    0.000    0.000    0.000    0.000 
#    0.000    0.000    0.000    0.000    0.000    0.000 
#
# Total GULP energy -396722.860533 kJ/mol
# GULP energy per Si atom -12397.589392 kJ/mol
# Density = 1.962654 g / cm^3
# Si number density = 19.671315 Si / 1000 Ang^3
#
#
#
# Elastic Constant Matrix: (Units=GPa)
#
#
# Indices 1 2 3 4 5 6 
#
# 1 74.0402 42.4452 51.5866 0.0000 1.6244 0.0000
# 2 42.4452 120.7006 51.9014 0.0000 -6.7515 0.0000
# 3 51.5866 51.9014 89.6360 0.0000 -4.1887 0.0000
# 4 0.0000 0.0000 0.0000 36.5537 0.0000 1.1212
# 5 1.6244 -6.7515 -4.1887 0.0000 33.1994 0.0000
# 6 0.0000 0.0000 0.0000 1.1212 0.0000 31.8234
#
#
#
# Elastic Compliance Matrix: (Units=1/GPa)
#
#
# Indices 1 2 3 4 5 6 
#
# 1 0.023837 -0.003468 -0.011868 0.000000 -0.003369 0.000000
# 2 -0.003468 0.011606 -0.004633 0.000000 0.001945 0.000000
# 3 -0.011868 -0.004633 0.020775 0.000000 0.002260 0.000000
# 4 0.000000 0.000000 0.000000 0.027387 0.000000 -0.000965
# 5 -0.003369 0.001945 0.002260 0.000000 0.030967 0.000000
# 6 0.000000 0.000000 0.000000 -0.000965 0.000000 0.031457
#
#
# Mechanical properties :
#
#
# Convention : Reuss Voigt Hill
#
# Bulk Modulus (GPa) = 61.42761 64.02703 62.72732
# Shear Modulus (GPa) = 26.12437 29.54485 27.83461
#
# Velocity S-wave (km/s) = 3.64819 3.87967 3.76571
# Velocity P-wave (km/s) = 7.00289 7.25867 7.13193
#
# Compressibility (1/GPa) = 0.01627932
#
# Stress axis : x y z
#
# Youngs Moduli (GPa) = 41.95180 86.16598 48.13520
#
# Poissons Ratio (x) = 0.29879 0.57127
# Poissons Ratio (y) = 0.14547 0.22303
# Poissons Ratio (z) = 0.49789 0.39923
#
# Static dielectric constant tensor:
#      x y z
#    x 3.830870 0.000000 1.105260 
#    y 0.000000 3.729610 0.000000 
#    z 1.105260 0.000000 6.992760 
# 
# 
# High freq. dielectric constant tensor:
#      x y z
#    x 1.762970 0.000000 0.009900 
#    y 0.000000 1.779350 0.000000 
#    z 0.009900 0.000000 1.757310 
# 
# From -- ./inp_files/67230.got.cif
#   From: 2010.06.25/outbox.cif.g09.slc.cpg/sg11_34_cif.got.tgz:67230.got - 2010.06.27 23:14:04.
