data_PCOD8075039
_publ_section_title
;
Structure prediction by ZEFSAII (Michael W. Deem and Ramdas Pophale) SiO2 
 PCOD8075039
Probable space group: P 21/M
;
_chemical_formula_sum "Si O2"
_cell_formula_units_Z 32
_cell_length_a 11.843669
_cell_length_b 17.629531
_cell_length_c 23.229767
_cell_angle_alpha 90.000000
_cell_angle_beta 159.194656
_cell_angle_gamma 90.000000
_cell_volume 1722.811180
_symmetry_space_group_name_H-M "P 21/M"
_symmetry_group_IT_number 11
_symmetry_cell_setting 'monoclinic'
loop_
_space_group_symop_operation_xyz
x,y,z
-x,1/2+y,-z
-x,-y,-z
x,1/2-y,z
loop_
_atom_site_type_symbol
_atom_site_label
_atom_site_fract_x
_atom_site_fract_y
_atom_site_fract_z
Si Si1 0.249451 0.337811 0.567655
Si Si2 0.214114 0.981619 0.047869
Si Si3 0.250548 0.337811 0.932348
Si Si4 0.750016 0.436074 0.750010
Si Si5 0.434940 0.165312 0.779712
Si Si6 0.285928 0.981616 0.452156
Si Si7 0.065035 0.165312 0.720280
Si Si8 0.249994 0.576479 0.749995
O O1 0.284934 0.250000 0.567451
O O2 0.583825 0.380988 0.716994
O O3 0.196819 0.347663 0.611552
O O4 0.968567 0.371448 0.394876
O O5 0.270377 0.891990 0.078492
O O6 0.550938 0.025718 0.201042
O O7 0.000000 0.000000 0.000000
O O8 0.014981 0.006383 0.898178
O O9 0.215133 0.250000 0.932587
O O10 0.531425 0.371460 0.105119
O O11 0.303158 0.347665 0.888439
O O12 0.916145 0.380975 0.782998
O O13 0.485140 0.493640 0.601882
O O14 0.579083 0.250000 0.845182
O O15 0.249981 0.151832 0.749993
O O16 0.229647 0.891988 0.421515
O O17 0.500000 0.000000 0.500000
O O18 0.949120 0.025719 0.298996
O O19 0.920900 0.250000 0.654816
#
# Coordination Sequence:
#
# PCOD8075039 Si02
#       8
#     4   4   4   4   4   4   4   4
#     4  10  20  37  58  86 118 153 194 241 296 352
#     4  11  21  38  57  88 117 152 196 242 293 349
#     4  10  20  37  58  86 118 153 194 241 296 352
#     4  10  21  34  59  86 116 152 194 246 295 342
#     4  10  21  38  60  84 117 158 195 237 291 351
#     4  11  21  38  57  88 117 152 196 242 293 349
#     4  10  21  38  60  84 117 158 195 237 291 351
#     4  10  23  36  59  88 116 154 196 252 293 342
#
# _framework density 18.574293999999998
#
# number of rings (size 3 to 8) (size 9 to 14) (size 15 to 20)
#    0.000    1.750    3.750    0.750    0.000    3.000 
#    0.000    1.875    0.000    0.000    0.000    0.000 
#    0.000    0.000    0.000    0.000    0.000    0.000 
#
# Total GULP energy -396504.366921 kJ/mol
# GULP energy per Si atom -12390.761466 kJ/mol
# Density = 1.853202 g / cm^3
# Si number density = 18.574294 Si / 1000 Ang^3
#
#
#
# Elastic Constant Matrix: (Units=GPa)
#
#
# Indices 1 2 3 4 5 6 
#
# 1 130.2924 59.2636 40.9274 0.0000 2.9983 0.0000
# 2 59.2636 151.3309 67.5890 0.0000 0.6237 0.0000
# 3 40.9274 67.5890 90.1166 0.0000 0.4999 0.0000
# 4 0.0000 0.0000 0.0000 27.5062 0.0000 2.1749
# 5 2.9983 0.6237 0.4999 0.0000 29.8196 0.0000
# 6 0.0000 0.0000 0.0000 2.1749 0.0000 24.8824
#
#
#
# Elastic Compliance Matrix: (Units=1/GPa)
#
#
# Indices 1 2 3 4 5 6 
#
# 1 0.009676 -0.002744 -0.002331 0.000000 -0.000876 0.000000
# 2 -0.002744 0.010715 -0.006791 0.000000 0.000166 0.000000
# 3 -0.002331 -0.006791 0.017248 0.000000 0.000087 0.000000
# 4 0.000000 0.000000 0.000000 0.036608 0.000000 -0.003200
# 5 -0.000876 0.000166 0.000087 0.000000 0.033618 0.000000
# 6 0.000000 0.000000 0.000000 -0.003200 0.000000 0.040469
#
#
# Mechanical properties :
#
#
# Convention : Reuss Voigt Hill
#
# Bulk Modulus (GPa) = 71.91101 78.58888 75.24995
# Shear Modulus (GPa) = 28.29598 30.03896 29.16747
#
# Velocity S-wave (km/s) = 3.90730 4.02585 3.96702
# Velocity P-wave (km/s) = 7.69126 8.00077 7.84754
#
# Compressibility (1/GPa) = 0.01390608
#
# Stress axis : x y z
#
# Youngs Moduli (GPa) = 103.35098 93.32502 57.97629
#
# Poissons Ratio (x) = 0.25612 0.13515
# Poissons Ratio (y) = 0.28364 0.39372
# Poissons Ratio (z) = 0.24092 0.63378
#
# Static dielectric constant tensor:
#      x y z
#    x 3.713970 0.000000 0.037750 
#    y 0.000000 3.911450 0.000000 
#    z 0.037750 0.000000 3.829020 
# 
# 
# High freq. dielectric constant tensor:
#      x y z
#    x 1.733020 0.000000 -0.005850 
#    y 0.000000 1.736220 0.000000 
#    z -0.005850 0.000000 1.703250 
# 
# From -- ./inp_files/68691.got.cif
#   From: 2010.06.25/outbox.cif.g09.slc.cpg/sg11_35_cif.got.tgz:68691.got - 2010.06.27 23:14:04.
