data_PCOD8075524
_publ_section_title
;
Structure prediction by ZEFSAII (Michael W. Deem and Ramdas Pophale) SiO2 
 PCOD8075524
Probable space group: P 21/M
;
_chemical_formula_sum "Si O2"
_cell_formula_units_Z 32
_cell_length_a 14.751098
_cell_length_b 14.000989
_cell_length_c 22.221213
_cell_angle_alpha 90.000000
_cell_angle_beta 160.586569
_cell_angle_gamma 90.000000
_cell_volume 1525.417134
_symmetry_space_group_name_H-M "P 21/M"
_symmetry_group_IT_number 11
_symmetry_cell_setting 'monoclinic'
loop_
_space_group_symop_operation_xyz
x,y,z
-x,1/2+y,-z
-x,-y,-z
x,1/2-y,z
loop_
_atom_site_type_symbol
_atom_site_label
_atom_site_fract_x
_atom_site_fract_y
_atom_site_fract_z
Si Si1 0.647044 0.856565 0.930941
Si Si2 0.243182 0.639982 0.021772
Si Si3 0.860257 0.141331 0.182205
Si Si4 0.956617 0.143957 0.923170
Si Si5 0.248739 0.058732 0.211251
Si Si6 0.678026 0.862461 0.084706
Si Si7 0.281886 0.005592 0.641610
Si Si8 0.173028 0.980071 0.434366
O O1 0.531909 0.750000 0.867030
O O2 0.434915 0.910307 0.756561
O O3 0.684442 0.903064 0.020348
O O4 0.937410 0.856762 0.078991
O O5 0.230249 0.750000 0.034305
O O6 0.528647 0.596375 0.223025
O O7 0.230745 0.628866 0.942993
O O8 0.980295 0.583878 0.883063
O O9 0.945798 0.250000 0.249331
O O10 0.608174 0.107703 0.065497
O O11 0.114770 0.074872 0.358573
O O12 0.830342 0.250000 0.857751
O O13 0.751832 0.055572 0.805426
O O14 0.205417 0.123755 0.125131
O O15 0.561212 0.073595 0.428017
O O16 0.722635 0.750000 0.114682
O O17 0.921142 0.908093 0.274739
O O18 0.228661 0.009183 0.537645
O O19 0.000000 0.000000 0.500000
#
# Coordination Sequence:
#
# PCOD8075524 Si02
#       8
#     4   4   4   4   4   4   4   4
#     4  10  20  39  64  88 121 162 204 249 306 373
#     4  11  24  44  65  86 123 174 212 250 310 378
#     4  10  23  44  64  86 123 167 207 250 311 378
#     4  10  20  39  63  87 122 165 205 249 308 370
#     4  11  22  39  62  92 127 163 208 259 307 367
#     4  10  22  41  64  90 123 164 205 249 309 375
#     4  12  23  38  64  97 126 156 206 264 317 373
#     4  12  24  37  62  95 126 157 200 262 314 360
#
# _framework density 20.977868000000001
#
# number of rings (size 3 to 8) (size 9 to 14) (size 15 to 20)
#    0.000    1.250    2.500    3.750    0.000    3.500 
#    0.000    0.000    0.000    0.000    0.000    0.000 
#    0.000    0.000    0.000    0.000    0.000    0.000 
#
# Total GULP energy -396710.284944 kJ/mol
# GULP energy per Si atom -12397.196404 kJ/mol
# Density = 2.093012 g / cm^3
# Si number density = 20.977868 Si / 1000 Ang^3
#
#
#
# Elastic Constant Matrix: (Units=GPa)
#
#
# Indices 1 2 3 4 5 6 
#
# 1 103.5796 15.5688 21.7411 0.0000 -7.9833 0.0000
# 2 15.5688 103.6858 29.0021 0.0000 1.3757 0.0000
# 3 21.7411 29.0021 82.6656 0.0000 -7.5992 0.0000
# 4 0.0000 0.0000 0.0000 23.8548 0.0000 -5.4748
# 5 -7.9833 1.3757 -7.5992 0.0000 35.2118 0.0000
# 6 0.0000 0.0000 0.0000 -5.4748 0.0000 24.9765
#
#
#
# Elastic Compliance Matrix: (Units=1/GPa)
#
#
# Indices 1 2 3 4 5 6 
#
# 1 0.010414 -0.000967 -0.002223 0.000000 0.001919 0.000000
# 2 -0.000967 0.010838 -0.003680 0.000000 -0.001437 0.000000
# 3 -0.002223 -0.003680 0.014222 0.000000 0.002709 0.000000
# 4 0.000000 0.000000 0.000000 0.044141 0.000000 0.009676
# 5 0.001919 -0.001437 0.002709 0.000000 0.029475 0.000000
# 6 0.000000 0.000000 0.000000 0.009676 0.000000 0.042159
#
#
# Mechanical properties :
#
#
# Convention : Reuss Voigt Hill
#
# Bulk Modulus (GPa) = 46.01293 46.95058 46.48175
# Shear Modulus (GPa) = 29.03013 31.71655 30.37334
#
# Velocity S-wave (km/s) = 3.72404 3.89254 3.80922
# Velocity P-wave (km/s) = 6.36184 6.52933 6.44613
#
# Compressibility (1/GPa) = 0.02173302
#
# Stress axis : x y z
#
# Youngs Moduli (GPa) = 96.02114 92.26616 70.31471
#
# Poissons Ratio (x) = 0.08926 0.15632
# Poissons Ratio (y) = 0.09289 0.25877
# Poissons Ratio (z) = 0.21347 0.33955
#
# Static dielectric constant tensor:
#      x y z
#    x 4.324860 0.000000 0.062680 
#    y 0.000000 3.548930 0.000000 
#    z 0.062680 0.000000 3.702590 
# 
# 
# High freq. dielectric constant tensor:
#      x y z
#    x 1.834350 0.000000 -0.003720 
#    y 0.000000 1.835480 0.000000 
#    z -0.003720 0.000000 1.804600 
# 
# From -- ./inp_files/65776.got.cif
#   From: 2010.06.25/outbox.cif.g09.slc.cpg/sg11_33_cif.got.tgz:65776.got - 2010.06.27 23:14:04.
