data_PCOD8075313
_publ_section_title
;
Structure prediction by ZEFSAII (Michael W. Deem and Ramdas Pophale) SiO2 
 PCOD8075313
Probable space group: P 21/M
;
_chemical_formula_sum "Si O2"
_cell_formula_units_Z 32
_cell_length_a 9.053089
_cell_length_b 22.892239
_cell_length_c 9.601838
_cell_angle_alpha 90.000000
_cell_angle_beta 56.287545
_cell_angle_gamma 90.000000
_cell_volume 1655.296653
_symmetry_space_group_name_H-M "P 21/M"
_symmetry_group_IT_number 11
_symmetry_cell_setting 'monoclinic'
loop_
_space_group_symop_operation_xyz
x,y,z
-x,1/2+y,-z
-x,-y,-z
x,1/2-y,z
loop_
_atom_site_type_symbol
_atom_site_label
_atom_site_fract_x
_atom_site_fract_y
_atom_site_fract_z
Si Si1 0.720061 0.105021 0.349995
Si Si2 0.892409 0.630632 0.835054
Si Si3 0.341080 0.139246 0.550965
Si Si4 0.782393 0.519282 0.272959
Si Si5 0.722180 0.116141 0.018381
Si Si6 0.624081 0.682558 0.774673
Si Si7 0.060251 0.183771 0.890275
Si Si8 0.192972 0.492320 0.045233
O O1 0.547992 0.140766 0.491828
O O2 0.734270 0.107745 0.176834
O O3 0.900795 0.130849 0.322010
O O4 0.699670 0.036382 0.397969
O O5 0.788514 0.676147 0.793793
O O6 0.801797 0.566145 0.862380
O O7 0.883986 0.649032 0.000623
O O8 0.262001 0.074866 0.611295
O O9 0.322768 0.154070 0.398930
O O10 0.231993 0.185114 0.700141
O O11 0.990497 0.511936 0.140870
O O12 0.712632 0.524623 0.150730
O O13 0.547991 0.152103 0.066710
O O14 0.899941 0.152851 0.888770
O O15 0.711992 0.052059 0.947915
O O16 0.579557 0.750000 0.775014
O O17 0.006057 0.250000 0.956424
#
# Coordination Sequence:
#
# PCOD8075313 Si02
#       8
#     4   4   4   4   4   4   4   4
#     4   8  18  31  56  84 111 141 177 219 275 335
#     4  10  20  38  57  79 112 147 182 225 277 333
#     4  11  19  34  56  85 109 141 184 228 268 314
#     4   9  14  29  56  86 113 136 172 227 274 324
#     4   9  18  35  58  80 106 143 185 227 273 330
#     4  11  24  39  52  75 115 153 183 220 276 334
#     4  11  20  34  59  83 103 142 195 232 261 316
#     4   9  15  31  58  88 108 132 181 235 277 318
#
# _framework density 19.331880999999999
#
# number of rings (size 3 to 8) (size 9 to 14) (size 15 to 20)
#    0.000    2.250    2.500    3.000    0.000    0.500 
#    0.000    5.625    0.000    0.000    0.000    0.000 
#    0.000    0.000    0.000    0.000    0.000    0.000 
#
# Total GULP energy -396541.415360 kJ/mol
# GULP energy per Si atom -12391.919230 kJ/mol
# Density = 1.928788 g / cm^3
# Si number density = 19.331881 Si / 1000 Ang^3
#
#
#
# Elastic Constant Matrix: (Units=GPa)
#
#
# Indices 1 2 3 4 5 6 
#
# 1 67.3486 16.0114 24.4678 0.0000 -9.7605 0.0000
# 2 16.0114 86.1771 24.8745 0.0000 -14.1251 0.0000
# 3 24.4678 24.8745 75.2285 0.0000 -12.6644 0.0000
# 4 0.0000 0.0000 0.0000 27.1910 0.0000 -4.6566
# 5 -9.7605 -14.1251 -12.6644 0.0000 13.2954 0.0000
# 6 0.0000 0.0000 0.0000 -4.6566 0.0000 24.7787
#
#
#
# Elastic Compliance Matrix: (Units=1/GPa)
#
#
# Indices 1 2 3 4 5 6 
#
# 1 0.017725 -0.000744 -0.004123 0.000000 0.008295 0.000000
# 2 -0.000744 0.014502 -0.002443 0.000000 0.012534 0.000000
# 3 -0.004123 -0.002443 0.017263 0.000000 0.010822 0.000000
# 4 0.000000 0.000000 0.000000 0.038000 0.000000 0.007141
# 5 0.008295 0.012534 0.010822 0.000000 0.104928 0.000000
# 6 0.000000 0.000000 0.000000 0.007141 0.000000 0.041699
#
#
# Mechanical properties :
#
#
# Convention : Reuss Voigt Hill
#
# Bulk Modulus (GPa) = 28.67695 39.94017 34.30856
# Shear Modulus (GPa) = 19.20420 23.94638 21.57529
#
# Velocity S-wave (km/s) = 3.15524 3.52333 3.34435
# Velocity P-wave (km/s) = 5.30474 6.10385 5.71827
#
# Compressibility (1/GPa) = 0.03487121
#
# Stress axis : x y z
#
# Youngs Moduli (GPa) = 56.41798 68.95722 57.92612
#
# Poissons Ratio (x) = 0.05128 0.23880
# Poissons Ratio (y) = 0.04195 0.14153
# Poissons Ratio (z) = 0.23259 0.16848
#
# Static dielectric constant tensor:
#      x y z
#    x 3.177630 0.000000 -0.346000 
#    y 0.000000 3.778640 0.000000 
#    z -0.346000 0.000000 3.499300 
# 
# 
# High freq. dielectric constant tensor:
#      x y z
#    x 1.711080 0.000000 -0.030020 
#    y 0.000000 1.765220 0.000000 
#    z -0.030020 0.000000 1.738560 
# 
# From -- ./inp_files/32994.got.cif
#   From: 2010.06.25/outbox.cif.g09.slc.cpg/sg11_17_cif.got.tgz:32994.got - 2010.06.27 23:14:04.
