data_PCOD8075674
_publ_section_title
;
Structure prediction by ZEFSAII (Michael W. Deem and Ramdas Pophale) SiO2 
 PCOD8075674
Probable space group: P 21/M
;
_chemical_formula_sum "Si O2"
_cell_formula_units_Z 32
_cell_length_a 8.915552
_cell_length_b 19.799759
_cell_length_c 12.720488
_cell_angle_alpha 90.000000
_cell_angle_beta 128.663697
_cell_angle_gamma 90.000000
_cell_volume 1753.341077
_symmetry_space_group_name_H-M "P 21/M"
_symmetry_group_IT_number 11
_symmetry_cell_setting 'monoclinic'
loop_
_space_group_symop_operation_xyz
x,y,z
-x,1/2+y,-z
-x,-y,-z
x,1/2-y,z
loop_
_atom_site_type_symbol
_atom_site_label
_atom_site_fract_x
_atom_site_fract_y
_atom_site_fract_z
Si Si1 0.689563 0.078806 0.384077
Si Si2 0.019314 0.074023 0.679346
Si Si3 0.018392 0.578559 0.678553
Si Si4 0.043227 0.828108 0.887071
Si Si5 0.442013 0.672918 0.159395
Si Si6 0.648077 0.828382 0.824617
Si Si7 0.271490 0.172397 0.904122
Si Si8 0.688680 0.926360 0.382963
O O1 0.822356 0.089989 0.340829
O O2 0.512572 0.129583 0.306280
O O3 0.808117 0.092626 0.543330
O O4 0.607759 0.002468 0.351799
O O5 0.084958 0.126575 0.797509
O O6 0.160818 0.079713 0.644079
O O7 0.025986 0.997804 0.726594
O O8 0.063865 0.629679 0.790677
O O9 0.804051 0.592498 0.539643
O O10 0.046116 0.750000 0.854833
O O11 0.852765 0.847967 0.866036
O O12 0.220442 0.844256 0.041667
O O13 0.470610 0.750000 0.208302
O O14 0.558264 0.658702 0.103233
O O15 0.514471 0.625510 0.286396
O O16 0.600744 0.750000 0.787577
O O17 0.647308 0.847906 0.946827
O O18 0.202269 0.250000 0.872488
#
# Coordination Sequence:
#
# PCOD8075674 Si02
#       8
#     4   4   4   4   4   4   4   4
#     4   9  17  32  53  74  98 127 158 194 239 289
#     4   8  16  31  51  76 101 123 154 199 242 280
#     4   9  17  32  53  74  98 127 158 194 239 289
#     4  10  21  35  48  67  98 130 161 200 241 281
#     4   9  17  31  51  72  94 124 162 199 236 282
#     4  10  21  35  48  67  98 130 161 200 241 281
#     4   9  17  31  51  72  94 124 162 199 236 282
#     4   8  16  31  51  76 101 123 154 199 242 280
#
# _framework density 18.250871
#
# number of rings (size 3 to 8) (size 9 to 14) (size 15 to 20)
#    0.000    3.000    0.000    2.250    0.000    3.500 
#    0.000   12.500    0.000    3.000    0.000    0.000 
#    0.000    0.000    0.000    0.000    0.000    0.000 
#
# Total GULP energy -396752.687180 kJ/mol
# GULP energy per Si atom -12398.521474 kJ/mol
# Density = 1.820933 g / cm^3
# Si number density = 18.250871 Si / 1000 Ang^3
#
#
#
# Elastic Constant Matrix: (Units=GPa)
#
#
# Indices 1 2 3 4 5 6 
#
# 1 46.7111 32.6505 27.1104 0.0000 23.5972 0.0000
# 2 32.6505 86.9294 60.0941 0.0000 25.3647 0.0000
# 3 27.1104 60.0941 82.5291 0.0000 34.2458 0.0000
# 4 0.0000 0.0000 0.0000 41.1513 0.0000 6.8020
# 5 23.5972 25.3647 34.2458 0.0000 23.9100 0.0000
# 6 0.0000 0.0000 0.0000 6.8020 0.0000 11.5041
#
#
#
# Elastic Compliance Matrix: (Units=1/GPa)
#
#
# Indices 1 2 3 4 5 6 
#
# 1 0.053926 -0.015452 0.021740 0.000000 -0.067967 0.000000
# 2 -0.015452 0.027601 -0.022678 0.000000 0.018451 0.000000
# 3 0.021740 -0.022678 0.050310 0.000000 -0.069455 0.000000
# 4 0.000000 0.000000 0.000000 0.026933 0.000000 -0.015924
# 5 -0.067967 0.018451 -0.069455 0.000000 0.188806 0.000000
# 6 0.000000 0.000000 0.000000 -0.015924 0.000000 0.096341
#
#
# Mechanical properties :
#
#
# Convention : Reuss Voigt Hill
#
# Bulk Modulus (GPa) = 10.09526 50.65328 30.37427
# Shear Modulus (GPa) = 9.80939 21.73406 15.77172
#
# Velocity S-wave (km/s) = 2.32087 3.45461 2.94285
# Velocity P-wave (km/s) = 3.56725 6.61261 5.31281
#
# Compressibility (1/GPa) = 0.09905635
#
# Stress axis : x y z
#
# Youngs Moduli (GPa) = 18.54387 36.23068 19.87695
#
# Poissons Ratio (x) = 0.55982 -0.43212
# Poissons Ratio (y) = 0.28653 0.45078
# Poissons Ratio (z) = -0.40314 0.82165
#
# Static dielectric constant tensor:
#      x y z
#    x 3.063550 0.000000 0.163290 
#    y 0.000000 3.510960 0.000000 
#    z 0.163290 0.000000 3.603180 
# 
# 
# High freq. dielectric constant tensor:
#      x y z
#    x 1.678420 0.000000 0.012080 
#    y 0.000000 1.708150 0.000000 
#    z 0.012080 0.000000 1.710020 
# 
# From -- ./inp_files/32862.got.cif
#   From: 2010.06.25/outbox.cif.g09.slc.cpg/sg11_17_cif.got.tgz:32862.got - 2010.06.27 23:14:04.
