data_PCOD8075688
_publ_section_title
;
Structure prediction by ZEFSAII (Michael W. Deem and Ramdas Pophale) SiO2 
 PCOD8075688
Probable space group: P 21/M
;
_chemical_formula_sum "Si O2"
_cell_formula_units_Z 28
_cell_length_a 13.951265
_cell_length_b 9.039816
_cell_length_c 12.632277
_cell_angle_alpha 90.000000
_cell_angle_beta 75.640710
_cell_angle_gamma 90.000000
_cell_volume 1543.372813
_symmetry_space_group_name_H-M "P 21/M"
_symmetry_group_IT_number 11
_symmetry_cell_setting 'monoclinic'
loop_
_space_group_symop_operation_xyz
x,y,z
-x,1/2+y,-z
-x,-y,-z
x,1/2-y,z
loop_
_atom_site_type_symbol
_atom_site_label
_atom_site_fract_x
_atom_site_fract_y
_atom_site_fract_z
Si Si1 0.196289 0.924470 0.560822
Si Si2 0.946509 0.417345 0.107371
Si Si3 0.262776 0.925949 0.761930
Si Si4 0.369001 0.423855 0.123782
Si Si5 0.018197 0.419398 0.319200
Si Si6 0.216281 0.575865 0.320970
Si Si7 0.592749 0.423730 0.099886
O O1 0.187081 0.750000 0.576611
O O2 0.265096 0.985116 0.639054
O O3 0.243742 0.966926 0.435020
O O4 0.083365 0.982572 0.601798
O O5 0.934242 0.250000 0.073381
O O6 0.837616 0.486166 0.156554
O O7 0.012329 0.428531 0.194270
O O8 0.000000 0.500000 0.000000
O O9 0.260159 0.750000 0.760781
O O10 0.356927 0.980140 0.804550
O O11 0.352162 0.250000 0.119504
O O12 0.289566 0.489417 0.225053
O O13 0.477365 0.464227 0.138876
O O14 0.354984 0.493413 0.011816
O O15 0.040120 0.250000 0.348247
O O16 0.104179 0.527828 0.332903
O O17 0.226725 0.750000 0.297872
O O18 0.608816 0.250000 0.077366
#
# Coordination Sequence:
#
# PCOD8075688 Si02
#       7
#     4   4   4   4   4   4   4
#     4   8  16  32  52  75 102 132 167 209 252 297
#     4   9  18  30  46  71 102 130 160 200 245 297
#     4   8  15  31  54  74  95 128 165 203 251 300
#     4  10  21  35  51  75 106 133 161 209 261 300
#     4   9  18  33  50  71 102 137 168 205 256 296
#     4  11  21  32  51  76 101 134 176 211 244 296
#     4   9  18  35  58  78  97 128 170 208 251 308
#
# _framework density 18.142085000000002
#
# number of rings (size 3 to 8) (size 9 to 14) (size 15 to 20)
#    0.000    2.857    0.000    3.000    2.000    1.143 
#    0.000    1.429    0.000    4.286    0.000    0.000 
#    0.000    0.000    0.000    0.000    0.000    0.000 
#
# Total GULP energy -347061.292037 kJ/mol
# GULP energy per Si atom -12395.046144 kJ/mol
# Density = 1.810079 g / cm^3
# Si number density = 18.142085 Si / 1000 Ang^3
#
#
#
# Elastic Constant Matrix: (Units=GPa)
#
#
# Indices 1 2 3 4 5 6 
#
# 1 91.2597 18.3179 50.3163 0.0000 19.2513 0.0000
# 2 18.3179 38.8635 28.1835 0.0000 3.4328 0.0000
# 3 50.3163 28.1835 104.2699 0.0000 5.4811 0.0000
# 4 0.0000 0.0000 0.0000 17.2706 0.0000 0.2219
# 5 19.2513 3.4328 5.4811 0.0000 23.5371 0.0000
# 6 0.0000 0.0000 0.0000 0.2219 0.0000 21.6994
#
#
#
# Elastic Compliance Matrix: (Units=1/GPa)
#
#
# Indices 1 2 3 4 5 6 
#
# 1 0.018261 -0.001953 -0.007607 0.000000 -0.012879 0.000000
# 2 -0.001953 0.032382 -0.007741 0.000000 -0.001323 0.000000
# 3 -0.007607 -0.007741 0.015153 0.000000 0.003822 0.000000
# 4 0.000000 0.000000 0.000000 0.057910 0.000000 -0.000592
# 5 -0.012879 -0.001323 0.003822 0.000000 0.052323 0.000000
# 6 0.000000 0.000000 0.000000 -0.000592 0.000000 0.046090
#
#
# Mechanical properties :
#
#
# Convention : Reuss Voigt Hill
#
# Bulk Modulus (GPa) = 32.05731 47.55874 39.80802
# Shear Modulus (GPa) = 18.71834 21.67311 20.19573
#
# Velocity S-wave (km/s) = 3.21559 3.46009 3.34008
# Velocity P-wave (km/s) = 5.61206 6.49881 6.07164
#
# Compressibility (1/GPa) = 0.03119413
#
# Stress axis : x y z
#
# Youngs Moduli (GPa) = 54.76207 30.88148 65.99494
#
# Poissons Ratio (x) = 0.06031 0.50202
# Poissons Ratio (y) = 0.10694 0.51085
# Poissons Ratio (z) = 0.41658 0.23904
#
# Static dielectric constant tensor:
#      x y z
#    x 3.512930 0.000000 0.271250 
#    y 0.000000 3.094130 0.000000 
#    z 0.271250 0.000000 3.589920 
# 
# 
# High freq. dielectric constant tensor:
#      x y z
#    x 1.696160 0.000000 0.011240 
#    y 0.000000 1.675610 0.000000 
#    z 0.011240 0.000000 1.709180 
# 
# From -- ./inp_files/37434.got.cif
#   From: 2010.06.25/outbox.cif.g09.slc.cpg/sg11_19_cif.got.tgz:37434.got - 2010.06.27 23:14:04.
