data_PCOD8075711
_publ_section_title
;
Structure prediction by ZEFSAII (Michael W. Deem and Ramdas Pophale) SiO2 
 PCOD8075711
Probable space group: P 21/M
;
_chemical_formula_sum "Si O2"
_cell_formula_units_Z 32
_cell_length_a 22.667095
_cell_length_b 9.346912
_cell_length_c 23.942871
_cell_angle_alpha 90.000000
_cell_angle_beta 19.611083
_cell_angle_gamma 90.000000
_cell_volume 1702.573704
_symmetry_space_group_name_H-M "P 21/M"
_symmetry_group_IT_number 11
_symmetry_cell_setting 'monoclinic'
loop_
_space_group_symop_operation_xyz
x,y,z
-x,1/2+y,-z
-x,-y,-z
x,1/2-y,z
loop_
_atom_site_type_symbol
_atom_site_label
_atom_site_fract_x
_atom_site_fract_y
_atom_site_fract_z
Si Si1 0.001366 0.909517 0.442968
Si Si2 0.164235 0.595441 0.853020
Si Si3 0.523938 0.080792 0.344335
Si Si4 0.894442 0.415396 0.435341
Si Si5 0.391415 0.909314 0.552464
Si Si6 0.494526 0.915207 0.260052
Si Si7 0.278612 0.084741 0.051284
Si Si8 0.608263 0.090520 0.947389
O O1 0.922411 0.750000 0.523312
O O2 0.197858 0.895165 0.247847
O O3 0.889608 0.990336 0.495515
O O4 0.000000 0.000000 0.500000
O O5 0.114825 0.750000 0.921407
O O6 0.314069 0.534455 0.760547
O O7 0.208470 0.608168 0.747806
O O8 0.000000 0.500000 0.000000
O O9 0.487916 0.250000 0.375005
O O10 0.364866 0.996278 0.517715
O O11 0.554355 0.020634 0.255721
O O12 0.900149 0.250000 0.448477
O O13 0.710455 0.450318 0.569208
O O14 0.067393 0.450777 0.242465
O O15 0.471599 0.750000 0.469806
O O16 0.500000 0.000000 0.500000
O O17 0.511925 0.750000 0.262576
O O18 0.632942 0.948796 0.087185
O O19 0.308161 0.250000 0.040906
O O20 0.389785 0.990141 0.995318
O O21 0.526555 0.250000 0.027651
O O22 0.500000 0.000000 0.000000
#
# Coordination Sequence:
#
# PCOD8075711 Si02
#       8
#     4   4   4   4   4   4   4   4
#     4  10  21  35  53  79 109 140 179 226 280 339
#     4   9  19  34  54  82 114 146 181 223 272 322
#     4  10  21  37  55  81 113 146 188 227 269 327
#     4   9  19  37  57  78 108 142 183 232 279 335
#     4   9  17  32  54  79 108 141 177 220 266 314
#     4  10  21  37  59  82 109 149 190 229 279 334
#     4   9  19  37  57  78 108 144 183 231 282 331
#     4  10  21  35  53  79 109 141 179 226 281 338
#
# _framework density 18.795075000000001
#
# number of rings (size 3 to 8) (size 9 to 14) (size 15 to 20)
#    0.000    2.500    0.000    2.250    1.750    5.500 
#    2.250    0.000    0.000    0.000    0.000    0.000 
#    0.000    0.000    0.000    0.000    0.000    0.000 
#
# Total GULP energy -396476.206682 kJ/mol
# GULP energy per Si atom -12389.881459 kJ/mol
# Density = 1.875230 g / cm^3
# Si number density = 18.795075 Si / 1000 Ang^3
#
#
#
# Elastic Constant Matrix: (Units=GPa)
#
#
# Indices 1 2 3 4 5 6 
#
# 1 108.7492 68.5018 51.8595 0.0000 21.9305 0.0000
# 2 68.5018 130.9873 45.0476 0.0000 19.5769 0.0000
# 3 51.8595 45.0476 81.1098 0.0000 10.8125 0.0000
# 4 0.0000 0.0000 0.0000 25.5584 0.0000 4.8948
# 5 21.9305 19.5769 10.8125 0.0000 28.0302 0.0000
# 6 0.0000 0.0000 0.0000 4.8948 0.0000 37.6023
#
#
#
# Elastic Compliance Matrix: (Units=1/GPa)
#
#
# Indices 1 2 3 4 5 6 
#
# 1 0.017622 -0.005700 -0.007162 0.000000 -0.007043 0.000000
# 2 -0.005700 0.011940 -0.002604 0.000000 -0.002876 0.000000
# 3 -0.007162 -0.002604 0.018307 0.000000 0.000361 0.000000
# 4 0.000000 0.000000 0.000000 0.040126 0.000000 -0.005223
# 5 -0.007043 -0.002876 0.000361 0.000000 0.043056 0.000000
# 6 0.000000 0.000000 0.000000 -0.005223 0.000000 0.027274
#
#
# Mechanical properties :
#
#
# Convention : Reuss Voigt Hill
#
# Bulk Modulus (GPa) = 59.04413 72.40714 65.72563
# Shear Modulus (GPa) = 25.65392 28.60068 27.12730
#
# Velocity S-wave (km/s) = 3.69850 3.90514 3.80323
# Velocity P-wave (km/s) = 7.05134 7.67735 7.37099
#
# Compressibility (1/GPa) = 0.01693648
#
# Stress axis : x y z
#
# Youngs Moduli (GPa) = 56.74862 83.74962 54.62531
#
# Poissons Ratio (x) = 0.47734 0.39124
# Poissons Ratio (y) = 0.32345 0.14225
# Poissons Ratio (z) = 0.40645 0.21809
#
# Static dielectric constant tensor:
#      x y z
#    x 4.066550 0.000000 0.209960 
#    y 0.000000 4.011600 0.000000 
#    z 0.209960 0.000000 3.679280 
# 
# 
# High freq. dielectric constant tensor:
#      x y z
#    x 1.712600 0.000000 0.013830 
#    y 0.000000 1.744850 0.000000 
#    z 0.013830 0.000000 1.724770 
# 
# From -- ./inp_files/69962.got.cif
#   From: 2010.06.25/outbox.cif.g09.slc.cpg/sg11_35_cif.got.tgz:69962.got - 2010.06.27 23:14:04.
