data_PCOD8075934
_publ_section_title
;
Structure prediction by ZEFSAII (Michael W. Deem and Ramdas Pophale) SiO2 
 PCOD8075934
Probable space group: P 21/M
;
_chemical_formula_sum "Si O2"
_cell_formula_units_Z 28
_cell_length_a 17.704631
_cell_length_b 14.130491
_cell_length_c 6.625985
_cell_angle_alpha 90.000000
_cell_angle_beta 53.000014
_cell_angle_gamma 90.000000
_cell_volume 1323.863710
_symmetry_space_group_name_H-M "P 21/M"
_symmetry_group_IT_number 11
_symmetry_cell_setting 'monoclinic'
loop_
_space_group_symop_operation_xyz
x,y,z
-x,1/2+y,-z
-x,-y,-z
x,1/2-y,z
loop_
_atom_site_type_symbol
_atom_site_label
_atom_site_fract_x
_atom_site_fract_y
_atom_site_fract_z
Si Si1 0.408274 0.987490 0.519071
Si Si2 0.153703 0.643815 0.405837
Si Si3 0.489452 0.856371 0.054645
Si Si4 0.314864 0.140688 0.433879
Si Si5 0.049144 0.949300 0.233821
Si Si6 0.876401 0.533892 0.273081
Si Si7 0.352768 0.645306 0.927207
O O1 0.437461 0.935030 0.267833
O O2 0.337299 0.923777 0.763811
O O3 0.500000 0.000000 0.500000
O O4 0.353664 0.085356 0.567198
O O5 0.124076 0.750000 0.520657
O O6 0.114980 0.628259 0.237865
O O7 0.118623 0.569385 0.628708
O O8 0.266902 0.633553 0.221055
O O9 0.463582 0.750000 0.170107
O O10 0.603883 0.868012 0.869508
O O11 0.451294 0.873159 0.888334
O O12 0.296209 0.250000 0.521314
O O13 0.217997 0.091467 0.517786
O O14 0.965592 0.907561 0.223172
O O15 0.000000 0.000000 0.500000
O O16 0.112081 0.018921 0.987516
O O17 0.354747 0.750000 0.831323
#
# Coordination Sequence:
#
# PCOD8075934 Si02
#       7
#     4   4   4   4   4   4   4
#     4  12  23  35  63  83 120 167 207 248 300 347
#     4  10  21  36  62  93 121 153 204 258 306 364
#     4  10  22  40  59  86 123 159 204 253 301 360
#     4  11  24  41  60  88 125 164 208 253 302 369
#     4   9  20  41  64  90 120 156 199 249 308 370
#     4  10  21  40  66  86 124 163 198 251 313 376
#     4  10  21  38  59  88 121 155 200 251 300 357
#
# _framework density 21.150213000000001
#
# number of rings (size 3 to 8) (size 9 to 14) (size 15 to 20)
#    0.000    1.714    1.429    2.571    2.000    1.714 
#    0.000    9.286    0.000    0.000    0.000    0.000 
#    0.000    0.000    0.000    0.000    0.000    0.000 
#
# Total GULP energy -346982.892046 kJ/mol
# GULP energy per Si atom -12392.246144 kJ/mol
# Density = 2.110207 g / cm^3
# Si number density = 21.150213 Si / 1000 Ang^3
#
#
#
# Elastic Constant Matrix: (Units=GPa)
#
#
# Indices 1 2 3 4 5 6 
#
# 1 102.4029 40.0973 18.4904 0.0000 -12.4051 0.0000
# 2 40.0973 125.9897 40.2727 0.0000 6.1831 0.0000
# 3 18.4904 40.2727 90.7736 0.0000 6.7980 0.0000
# 4 0.0000 0.0000 0.0000 30.5407 0.0000 2.9693
# 5 -12.4051 6.1831 6.7980 0.0000 28.6173 0.0000
# 6 0.0000 0.0000 0.0000 2.9693 0.0000 28.4444
#
#
#
# Elastic Compliance Matrix: (Units=1/GPa)
#
#
# Indices 1 2 3 4 5 6 
#
# 1 0.012271 -0.003809 -0.001293 0.000000 0.006450 0.000000
# 2 -0.003809 0.010462 -0.003637 0.000000 -0.003047 0.000000
# 3 -0.001293 -0.003637 0.013110 0.000000 -0.002889 0.000000
# 4 0.000000 0.000000 0.000000 0.033079 0.000000 -0.003453
# 5 0.006450 -0.003047 -0.002889 0.000000 0.039084 0.000000
# 6 0.000000 0.000000 0.000000 -0.003453 0.000000 0.035517
#
#
# Mechanical properties :
#
#
# Convention : Reuss Voigt Hill
#
# Bulk Modulus (GPa) = 54.45157 57.43188 55.94173
# Shear Modulus (GPa) = 29.91819 32.20753 31.06286
#
# Velocity S-wave (km/s) = 3.76514 3.90654 3.83649
# Velocity P-wave (km/s) = 6.68601 6.89647 6.79206
#
# Compressibility (1/GPa) = 0.01836494
#
# Stress axis : x y z
#
# Youngs Moduli (GPa) = 81.48989 95.58816 76.27851
#
# Poissons Ratio (x) = 0.36407 0.09862
# Poissons Ratio (y) = 0.31037 0.27745
# Poissons Ratio (z) = 0.10536 0.34769
#
# Static dielectric constant tensor:
#      x y z
#    x 4.113670 0.000000 -0.086430 
#    y 0.000000 4.136020 0.000000 
#    z -0.086430 0.000000 3.706540 
# 
# 
# High freq. dielectric constant tensor:
#      x y z
#    x 1.835300 0.000000 -0.011270 
#    y 0.000000 1.820100 0.000000 
#    z -0.011270 0.000000 1.820720 
# 
# From -- ./inp_files/8027.got.cif
#   From: 2010.06.25/outbox.cif.g09.slc.cpg/sg11_5_cif.got.tgz:8027.got - 2010.06.27 23:14:04.
