data_PCOD8075520
_publ_section_title
;
Structure prediction by ZEFSAII (Michael W. Deem and Ramdas Pophale) SiO2 
 PCOD8075520
Probable space group: P 21/M
;
_chemical_formula_sum "Si O2"
_cell_formula_units_Z 24
_cell_length_a 14.803383
_cell_length_b 8.826274
_cell_length_c 15.077316
_cell_angle_alpha 90.000000
_cell_angle_beta 139.843171
_cell_angle_gamma 90.000000
_cell_volume 1270.406406
_symmetry_space_group_name_H-M "P 21/M"
_symmetry_group_IT_number 11
_symmetry_cell_setting 'monoclinic'
loop_
_space_group_symop_operation_xyz
x,y,z
-x,1/2+y,-z
-x,-y,-z
x,1/2-y,z
loop_
_atom_site_type_symbol
_atom_site_label
_atom_site_fract_x
_atom_site_fract_y
_atom_site_fract_z
Si Si1 0.352047 0.571117 0.111205
Si Si2 0.848703 0.071434 0.887414
Si Si3 0.347468 0.427837 0.601596
Si Si4 0.351382 0.570467 0.910771
Si Si5 0.151572 0.071701 0.618043
Si Si6 0.355212 0.928367 0.422125
O O1 0.360702 0.750000 0.126996
O O2 0.235778 0.506074 0.091062
O O3 0.504943 0.506939 0.251818
O O4 0.311775 0.524148 0.981430
O O5 0.865042 0.250000 0.907119
O O6 0.766095 0.023998 0.737081
O O7 0.000000 0.000000 0.000000
O O8 0.356524 0.250000 0.588672
O O9 0.229581 0.465813 0.585114
O O10 0.306348 0.512433 0.480818
O O11 0.360481 0.750000 0.905558
O O12 0.232013 0.502798 0.759892
O O13 0.500000 0.500000 0.000000
O O14 0.142210 0.250000 0.627525
O O15 0.000000 0.000000 0.500000
O O16 0.376420 0.750000 0.440128
O O17 0.500000 0.000000 0.500000
#
# Coordination Sequence:
#
# PCOD8075520 Si02
#       6
#     4   4   4   4   4   4
#     4   9  18  37  61  84 116 156 196 238 291 353
#     4  10  22  40  59  83 119 154 190 239 293 348
#     4  10  20  39  63  86 117 159 201 244 298 358
#     4  11  21  37  63  92 120 157 203 249 301 361
#     4  11  24  42  62  88 124 162 200 252 311 365
#     4  11  22  37  61  91 120 155 199 249 296 351
#
# _framework density 18.891593
#
# number of rings (size 3 to 8) (size 9 to 14) (size 15 to 20)
#    0.000    1.667    3.333    1.500    0.000    4.000 
#    0.000    6.667    0.000    0.000    0.000    0.000 
#    0.000    0.000    0.000    0.000    0.000    0.000 
#
# Total GULP energy -297662.609588 kJ/mol
# GULP energy per Si atom -12402.608733 kJ/mol
# Density = 1.884859 g / cm^3
# Si number density = 18.891593 Si / 1000 Ang^3
#
#
#
# Elastic Constant Matrix: (Units=GPa)
#
#
# Indices 1 2 3 4 5 6 
#
# 1 168.8776 61.4690 110.4624 0.0000 -5.0759 0.0000
# 2 61.4690 68.2392 68.9089 0.0000 -5.7078 0.0000
# 3 110.4624 68.9089 188.6874 0.0000 -1.9309 0.0000
# 4 0.0000 0.0000 0.0000 36.4431 0.0000 0.7254
# 5 -5.0759 -5.7078 -1.9309 0.0000 44.2445 0.0000
# 6 0.0000 0.0000 0.0000 0.7254 0.0000 34.2329
#
#
#
# Elastic Compliance Matrix: (Units=1/GPa)
#
#
# Indices 1 2 3 4 5 6 
#
# 1 0.010661 -0.005187 -0.004343 0.000000 0.000364 0.000000
# 2 -0.005187 0.026049 -0.006451 0.000000 0.002484 0.000000
# 3 -0.004343 -0.006451 0.010189 0.000000 -0.000886 0.000000
# 4 0.000000 0.000000 0.000000 0.027452 0.000000 -0.000582
# 5 0.000364 0.002484 -0.000886 0.000000 0.022925 0.000000
# 6 0.000000 0.000000 0.000000 -0.000582 0.000000 0.029224
#
#
# Mechanical properties :
#
#
# Convention : Reuss Voigt Hill
#
# Bulk Modulus (GPa) = 66.94962 100.83163 83.89063
# Shear Modulus (GPa) = 30.59177 35.31501 32.95339
#
# Velocity S-wave (km/s) = 4.02846 4.32829 4.18106
# Velocity P-wave (km/s) = 7.56001 8.85824 8.23475
#
# Compressibility (1/GPa) = 0.01493660
#
# Stress axis : x y z
#
# Youngs Moduli (GPa) = 93.79565 38.38929 98.14189
#
# Poissons Ratio (x) = 0.19913 0.42627
# Poissons Ratio (y) = 0.48654 0.63311
# Poissons Ratio (z) = 0.40739 0.24765
#
# Static dielectric constant tensor:
#      x y z
#    x 3.730680 0.000000 -0.412540 
#    y 0.000000 3.369730 0.000000 
#    z -0.412540 0.000000 2.299790 
# 
# 
# High freq. dielectric constant tensor:
#      x y z
#    x 1.746750 0.000000 -0.008290 
#    y 0.000000 1.723480 0.000000 
#    z -0.008290 0.000000 1.743650 
# 
# From -- ./inp_files/51517.got.cif
#   From: 2010.06.25/outbox.cif.g09.slc.cpg/sg11_26_cif.got.tgz:51517.got - 2010.06.27 23:14:04.
