data_PCOD8075387
_publ_section_title
;
Structure prediction by ZEFSAII (Michael W. Deem and Ramdas Pophale) SiO2 
 PCOD8075387
Probable space group: P 21/M
;
_chemical_formula_sum "Si O2"
_cell_formula_units_Z 28
_cell_length_a 9.372864
_cell_length_b 8.792194
_cell_length_c 27.192588
_cell_angle_alpha 90.000000
_cell_angle_beta 141.739221
_cell_angle_gamma 90.000000
_cell_volume 1387.651150
_symmetry_space_group_name_H-M "P 21/M"
_symmetry_group_IT_number 11
_symmetry_cell_setting 'monoclinic'
loop_
_space_group_symop_operation_xyz
x,y,z
-x,1/2+y,-z
-x,-y,-z
x,1/2-y,z
loop_
_atom_site_type_symbol
_atom_site_label
_atom_site_fract_x
_atom_site_fract_y
_atom_site_fract_z
Si Si1 0.246409 0.572090 0.060747
Si Si2 0.296151 0.429249 0.974264
Si Si3 0.300294 0.069483 0.342334
Si Si4 0.508886 0.078025 0.216325
Si Si5 0.956649 0.571972 0.628892
Si Si6 0.821513 0.430003 0.490426
Si Si7 0.865338 0.924557 0.806551
O O1 0.221348 0.750000 0.044667
O O2 0.403621 0.542271 0.150274
O O3 0.356324 0.490491 0.044151
O O4 0.000000 0.500000 0.000000
O O5 0.306579 0.250000 0.976593
O O6 0.048773 0.478445 0.886556
O O7 0.500000 0.500000 0.000000
O O8 0.299649 0.250000 0.342257
O O9 0.174812 0.010550 0.357907
O O10 0.562829 0.010697 0.409438
O O11 0.161148 0.012434 0.256343
O O12 0.475678 0.250000 0.187283
O O13 0.383767 0.060350 0.234982
O O14 0.774539 0.038122 0.293624
O O15 0.907706 0.750000 0.607103
O O16 0.870805 0.477661 0.559376
O O17 0.838975 0.250000 0.490212
O O18 0.000000 0.500000 0.500000
O O19 0.949475 0.750000 0.829206
#
# Coordination Sequence:
#
# PCOD8075387 Si02
#       7
#     4   4   4   4   4   4   4
#     4  12  24  41  64  92 125 164 211 261 313 371
#     4  12  26  43  63  90 124 164 208 261 319 375
#     4   9  20  38  62  91 124 162 203 249 306 366
#     4  10  21  37  61  90 124 164 208 254 308 368
#     4  10  21  39  63  93 125 161 201 248 308 370
#     4  11  22  39  63  91 123 163 207 253 303 363
#     4  10  20  38  61  87 121 162 207 255 305 368
#
# _framework density 20.177980999999999
#
# number of rings (size 3 to 8) (size 9 to 14) (size 15 to 20)
#    0.000    1.429    1.429    4.286    2.000    2.857 
#    0.000    4.286    0.000    0.000    0.000    0.000 
#    0.000    0.000    0.000    0.000    0.000    0.000 
#
# Total GULP energy -347232.158442 kJ/mol
# GULP energy per Si atom -12401.148516 kJ/mol
# Density = 2.013205 g / cm^3
# Si number density = 20.177981 Si / 1000 Ang^3
#
#
#
# Elastic Constant Matrix: (Units=GPa)
#
#
# Indices 1 2 3 4 5 6 
#
# 1 128.0837 33.4854 31.4274 0.0000 -9.8698 0.0000
# 2 33.4854 103.0719 32.3269 0.0000 -2.3562 0.0000
# 3 31.4274 32.3269 87.8865 0.0000 -9.3642 0.0000
# 4 0.0000 0.0000 0.0000 33.2877 0.0000 -4.5630
# 5 -9.8698 -2.3562 -9.3642 0.0000 42.2893 0.0000
# 6 0.0000 0.0000 0.0000 -4.5630 0.0000 30.3420
#
#
#
# Elastic Compliance Matrix: (Units=1/GPa)
#
#
# Indices 1 2 3 4 5 6 
#
# 1 0.009053 -0.002195 -0.002272 0.000000 0.001488 0.000000
# 2 -0.002195 0.011503 -0.003515 0.000000 -0.000650 0.000000
# 3 -0.002272 -0.003515 0.013730 0.000000 0.002314 0.000000
# 4 0.000000 0.000000 0.000000 0.030673 0.000000 0.004613
# 5 0.001488 -0.000650 0.002314 0.000000 0.024470 0.000000
# 6 0.000000 0.000000 0.000000 0.004613 0.000000 0.033651
#
#
# Mechanical properties :
#
#
# Convention : Reuss Voigt Hill
#
# Bulk Modulus (GPa) = 54.57695 57.05794 55.81744
# Shear Modulus (GPa) = 34.44673 35.97065 35.20869
#
# Velocity S-wave (km/s) = 4.13624 4.22675 4.18174
# Velocity P-wave (km/s) = 7.06526 7.22213 7.14413
#
# Compressibility (1/GPa) = 0.01832275
#
# Stress axis : x y z
#
# Youngs Moduli (GPa) = 110.45873 86.93643 72.83200
#
# Poissons Ratio (x) = 0.19080 0.16544
# Poissons Ratio (y) = 0.24242 0.25603
# Poissons Ratio (z) = 0.25091 0.30562
#
# Static dielectric constant tensor:
#      x y z
#    x 4.002450 0.000000 0.048880 
#    y 0.000000 3.662530 0.000000 
#    z 0.048880 0.000000 3.537740 
# 
# 
# High freq. dielectric constant tensor:
#      x y z
#    x 1.808870 0.000000 -0.002120 
#    y 0.000000 1.771360 0.000000 
#    z -0.002120 0.000000 1.795610 
# 
# From -- ./inp_files/70805.got.cif
#   From: 2010.06.25/outbox.cif.g09.slc.cpg/sg11_36_cif.got.tgz:70805.got - 2010.06.27 23:14:04.
