data_PCOD8075983
_publ_section_title
;
Structure prediction by ZEFSAII (Michael W. Deem and Ramdas Pophale) SiO2 
 PCOD8075983
Probable space group: P 21/M
;
_chemical_formula_sum "Si O2"
_cell_formula_units_Z 24
_cell_length_a 15.876953
_cell_length_b 9.047745
_cell_length_c 9.114914
_cell_angle_alpha 90.000000
_cell_angle_beta 107.047891
_cell_angle_gamma 90.000000
_cell_volume 1251.829708
_symmetry_space_group_name_H-M "P 21/M"
_symmetry_group_IT_number 11
_symmetry_cell_setting 'monoclinic'
loop_
_space_group_symop_operation_xyz
x,y,z
-x,1/2+y,-z
-x,-y,-z
x,1/2-y,z
loop_
_atom_site_type_symbol
_atom_site_label
_atom_site_fract_x
_atom_site_fract_y
_atom_site_fract_z
Si Si1 0.922692 0.578846 0.545747
Si Si2 0.237186 0.922817 0.030783
Si Si3 0.598792 0.576885 0.397972
Si Si4 0.753253 0.577819 0.269840
Si Si5 0.081871 0.074188 0.120697
Si Si6 0.599248 0.420976 0.693460
O O1 0.944826 0.750000 0.550942
O O2 0.829431 0.543105 0.424892
O O3 0.919573 0.523864 0.711227
O O4 0.000000 0.500000 0.500000
O O5 0.212928 0.750000 0.025673
O O6 0.335682 0.954677 0.138987
O O7 0.171191 0.014876 0.096739
O O8 0.230332 0.976779 0.861602
O O9 0.607361 0.750000 0.427038
O O10 0.661065 0.528273 0.295784
O O11 0.632065 0.504609 0.565539
O O12 0.498894 0.526898 0.309759
O O13 0.752543 0.750000 0.223564
O O14 0.077394 0.250000 0.099775
O O15 0.000000 0.000000 0.000000
O O16 0.598571 0.250000 0.651703
#
# Coordination Sequence:
#
# PCOD8075983 Si02
#       6
#     4   4   4   4   4   4
#     4  10  22  38  57  81 108 139 177 221 268 321
#     4  11  23  37  54  81 115 148 183 225 274 328
#     4   9  18  35  58  81 107 143 187 232 279 331
#     4  10  21  37  56  79 108 144 186 229 273 325
#     4  11  23  40  61  85 112 144 183 225 272 325
#     4   9  19  35  55  81 112 144 182 230 280 329
#
# _framework density 19.171937
#
# number of rings (size 3 to 8) (size 9 to 14) (size 15 to 20)
#    0.000    2.000    0.000    3.000    0.000    8.667 
#    0.000    0.000    0.000    0.000    0.000    0.000 
#    0.000    0.000    0.000    0.000    0.000    0.000 
#
# Total GULP energy -297679.336617 kJ/mol
# GULP energy per Si atom -12403.305692 kJ/mol
# Density = 1.912830 g / cm^3
# Si number density = 19.171937 Si / 1000 Ang^3
#
#
#
# Elastic Constant Matrix: (Units=GPa)
#
#
# Indices 1 2 3 4 5 6 
#
# 1 122.9910 45.9919 66.1254 0.0000 -13.9929 0.0000
# 2 45.9919 61.0123 54.7486 0.0000 -4.6606 0.0000
# 3 66.1254 54.7486 150.9726 0.0000 -8.5894 0.0000
# 4 0.0000 0.0000 0.0000 33.9936 0.0000 -2.2998
# 5 -13.9929 -4.6606 -8.5894 0.0000 35.6161 0.0000
# 6 0.0000 0.0000 0.0000 -2.2998 0.0000 32.0048
#
#
#
# Elastic Compliance Matrix: (Units=1/GPa)
#
#
# Indices 1 2 3 4 5 6 
#
# 1 0.012542 -0.006581 -0.002915 0.000000 0.003363 0.000000
# 2 -0.006581 0.027790 -0.007235 0.000000 -0.000694 0.000000
# 3 -0.002915 -0.007235 0.010550 0.000000 0.000452 0.000000
# 4 0.000000 0.000000 0.000000 0.029561 0.000000 0.002124
# 5 0.003363 -0.000694 0.000452 0.000000 0.029417 0.000000
# 6 0.000000 0.000000 0.000000 0.002124 0.000000 0.031398
#
#
# Mechanical properties :
#
#
# Convention : Reuss Voigt Hill
#
# Bulk Modulus (GPa) = 57.40750 74.30086 65.85418
# Shear Modulus (GPa) = 27.69678 31.53024 29.61351
#
# Velocity S-wave (km/s) = 3.80498 4.05977 3.93444
# Velocity P-wave (km/s) = 7.02228 7.79838 7.42048
#
# Compressibility (1/GPa) = 0.01741933
#
# Stress axis : x y z
#
# Youngs Moduli (GPa) = 79.73399 35.98395 94.78758
#
# Poissons Ratio (x) = 0.23682 0.27633
# Poissons Ratio (y) = 0.52475 0.68576
# Poissons Ratio (z) = 0.23244 0.26033
#
# Static dielectric constant tensor:
#      x y z
#    x 3.961860 0.000000 0.016920 
#    y 0.000000 3.526380 0.000000 
#    z 0.016920 0.000000 3.590700 
# 
# 
# High freq. dielectric constant tensor:
#      x y z
#    x 1.760870 0.000000 0.002940 
#    y 0.000000 1.744200 0.000000 
#    z 0.002940 0.000000 1.749970 
# 
# From -- ./inp_files/20590.got.cif
#   From: 2010.06.25/outbox.cif.g09.slc.cpg/sg11_11_cif.got.tgz:20590.got - 2010.06.27 23:14:04.
