data_PCOD8075526
_publ_section_title
;
Structure prediction by ZEFSAII (Michael W. Deem and Ramdas Pophale) SiO2 
 PCOD8075526
Probable space group: P 21/M
;
_chemical_formula_sum "Si O2"
_cell_formula_units_Z 32
_cell_length_a 12.596598
_cell_length_b 14.627675
_cell_length_c 16.999427
_cell_angle_alpha 90.000000
_cell_angle_beta 150.108533
_cell_angle_gamma 90.000000
_cell_volume 1561.006951
_symmetry_space_group_name_H-M "P 21/M"
_symmetry_group_IT_number 11
_symmetry_cell_setting 'monoclinic'
loop_
_space_group_symop_operation_xyz
x,y,z
-x,1/2+y,-z
-x,-y,-z
x,1/2-y,z
loop_
_atom_site_type_symbol
_atom_site_label
_atom_site_fract_x
_atom_site_fract_y
_atom_site_fract_z
Si Si1 0.143777 0.644914 0.556376
Si Si2 0.646562 0.353279 0.462575
Si Si3 0.167998 0.143493 0.517391
Si Si4 0.578993 0.030280 0.736657
Si Si5 0.707790 0.444875 0.655847
Si Si6 0.531614 0.644823 0.904356
Si Si7 0.831184 0.491428 0.054300
Si Si8 0.225455 0.646786 0.848031
O O1 0.149915 0.750000 0.588537
O O2 0.149021 0.632311 0.465280
O O3 0.363431 0.603544 0.732554
O O4 0.929562 0.607819 0.461058
O O5 0.556702 0.250000 0.393206
O O6 0.466264 0.426852 0.323222
O O7 0.726929 0.363319 0.604091
O O8 0.237350 0.250000 0.563591
O O9 0.365380 0.078999 0.627753
O O10 0.990748 0.123911 0.337600
O O11 0.678803 0.088352 0.727528
O O12 0.752981 0.029432 0.916338
O O13 0.500000 0.500000 0.500000
O O14 0.914021 0.509056 0.781966
O O15 0.589525 0.750000 0.925264
O O16 0.432340 0.631296 0.926868
O O17 0.747799 0.588354 0.033141
O O18 0.745954 0.413262 0.056578
O O19 0.217048 0.750000 0.872794
#
# Coordination Sequence:
#
# PCOD8075526 Si02
#       8
#     4   4   4   4   4   4   4   4
#     4   8  15  33  60  90 119 154 198 240 291 357
#     4  10  20  39  63  88 119 157 200 246 298 358
#     4   9  19  38  63  87 121 162 202 246 294 355
#     4  11  23  39  61  91 120 158 199 257 299 354
#     4  10  24  43  59  81 114 156 207 255 293 348
#     4   9  18  35  59  89 126 158 192 240 299 364
#     4  12  22  38  61  88 121 159 200 247 310 357
#     4   9  19  37  59  86 123 165 200 239 293 364
#
# _framework density 20.499587999999999
#
# number of rings (size 3 to 8) (size 9 to 14) (size 15 to 20)
#    0.000    2.250    1.250    3.750    0.000    2.000 
#    4.500    3.750    0.000    4.500    0.000    0.000 
#    0.000    0.000    0.000    0.000    0.000    0.000 
#
# Total GULP energy -396629.631405 kJ/mol
# GULP energy per Si atom -12394.675981 kJ/mol
# Density = 2.045293 g / cm^3
# Si number density = 20.499588 Si / 1000 Ang^3
#
#
#
# Elastic Constant Matrix: (Units=GPa)
#
#
# Indices 1 2 3 4 5 6 
#
# 1 158.3641 54.6321 55.7406 0.0000 -10.9340 0.0000
# 2 54.6321 84.4243 40.2052 0.0000 -6.0597 0.0000
# 3 55.7406 40.2052 89.8602 0.0000 0.9810 0.0000
# 4 0.0000 0.0000 0.0000 18.1787 0.0000 -5.3801
# 5 -10.9340 -6.0597 0.9810 0.0000 32.4781 0.0000
# 6 0.0000 0.0000 0.0000 -5.3801 0.0000 25.5756
#
#
#
# Elastic Compliance Matrix: (Units=1/GPa)
#
#
# Indices 1 2 3 4 5 6 
#
# 1 0.009244 -0.003886 -0.004023 0.000000 0.002509 0.000000
# 2 -0.003886 0.016987 -0.005211 0.000000 0.002018 0.000000
# 3 -0.004023 -0.005211 0.015986 0.000000 -0.002810 0.000000
# 4 0.000000 0.000000 0.000000 0.058662 0.000000 0.012340
# 5 0.002509 0.002018 -0.002810 0.000000 0.032096 0.000000
# 6 0.000000 0.000000 0.000000 0.012340 0.000000 0.041696
#
#
# Mechanical properties :
#
#
# Convention : Reuss Voigt Hill
#
# Bulk Modulus (GPa) = 62.59467 70.42269 66.50868
# Shear Modulus (GPa) = 24.24397 27.38453 25.81425
#
# Velocity S-wave (km/s) = 3.44271 3.65890 3.55245
# Velocity P-wave (km/s) = 6.81204 7.23035 7.02431
#
# Compressibility (1/GPa) = 0.01597580
#
# Stress axis : x y z
#
# Youngs Moduli (GPa) = 108.17314 58.87020 62.55394
#
# Poissons Ratio (x) = 0.22879 0.25165
# Poissons Ratio (y) = 0.42039 0.32600
# Poissons Ratio (z) = 0.43517 0.30680
#
# Static dielectric constant tensor:
#      x y z
#    x 4.248810 0.000000 -0.099150 
#    y 0.000000 3.600040 0.000000 
#    z -0.099150 0.000000 3.425340 
# 
# 
# High freq. dielectric constant tensor:
#      x y z
#    x 1.821390 0.000000 -0.003400 
#    y 0.000000 1.787090 0.000000 
#    z -0.003400 0.000000 1.775040 
# 
# From -- ./inp_files/59532.got.cif
#   From: 2010.06.25/outbox.cif.g09.slc.cpg/sg11_30_cif.got.tgz:59532.got - 2010.06.27 23:14:04.
