data_PCOD8075456
_publ_section_title
;
Structure prediction by ZEFSAII (Michael W. Deem and Ramdas Pophale) SiO2 
 PCOD8075456
Probable space group: P 21/M
;
_chemical_formula_sum "Si O2"
_cell_formula_units_Z 28
_cell_length_a 8.682530
_cell_length_b 13.803150
_cell_length_c 17.381729
_cell_angle_alpha 90.000000
_cell_angle_beta 142.888336
_cell_angle_gamma 90.000000
_cell_volume 1256.902051
_symmetry_space_group_name_H-M "P 21/M"
_symmetry_group_IT_number 11
_symmetry_cell_setting 'monoclinic'
loop_
_space_group_symop_operation_xyz
x,y,z
-x,1/2+y,-z
-x,-y,-z
x,1/2-y,z
loop_
_atom_site_type_symbol
_atom_site_label
_atom_site_fract_x
_atom_site_fract_y
_atom_site_fract_z
Si Si1 0.013717 0.141056 0.081389
Si Si2 0.778412 0.976742 0.521100
Si Si3 0.525428 0.569642 0.168733
Si Si4 0.540479 0.854525 0.862215
Si Si5 0.908183 0.860866 0.430696
Si Si6 0.298214 0.087402 0.916951
Si Si7 0.802013 0.977061 0.707739
O O1 0.908958 0.250000 0.046792
O O2 0.222602 0.131192 0.099397
O O3 0.136235 0.113688 0.212585
O O4 0.779458 0.071738 0.963026
O O5 0.910631 0.896210 0.519819
O O6 0.833636 0.946747 0.631061
O O7 0.476463 0.980839 0.386140
O O8 0.894404 0.081442 0.545181
O O9 0.620361 0.455101 0.209487
O O10 0.620746 0.621741 0.284041
O O11 0.660504 0.628965 0.152550
O O12 0.403053 0.750000 0.787209
O O13 0.635739 0.840006 0.987978
O O14 0.991709 0.750000 0.461876
O O15 0.003736 0.059517 0.809870
O O16 0.500000 0.000000 0.000000
#
# Coordination Sequence:
#
# PCOD8075456 Si02
#       7
#     4   4   4   4   4   4   4
#     4  11  23  37  62  96 127 167 211 266 333 390
#     4  10  25  43  68  93 127 173 223 269 318 376
#     4  11  21  41  63  95 132 163 207 268 332 385
#     4  10  22  37  60  96 131 167 210 255 324 393
#     4  11  24  45  69  95 128 170 218 269 326 390
#     4  10  20  38  63  91 125 167 206 255 328 379
#     4  11  21  44  66  90 132 174 214 272 322 378
#
# _framework density 22.276993999999998
#
# number of rings (size 3 to 8) (size 9 to 14) (size 15 to 20)
#    0.000    1.429    4.286    1.714    2.000    2.286 
#    0.000    6.429    0.000    0.000    0.000    0.000 
#    0.000    0.000    0.000    0.000    0.000    0.000 
#
# Total GULP energy -346980.352636 kJ/mol
# GULP energy per Si atom -12392.155451 kJ/mol
# Density = 2.222629 g / cm^3
# Si number density = 22.276994 Si / 1000 Ang^3
#
#
#
# Elastic Constant Matrix: (Units=GPa)
#
#
# Indices 1 2 3 4 5 6 
#
# 1 111.6700 27.4534 16.0950 0.0000 -18.1911 0.0000
# 2 27.4534 111.2305 12.0621 0.0000 -13.4421 0.0000
# 3 16.0950 12.0621 69.5902 0.0000 -2.5806 0.0000
# 4 0.0000 0.0000 0.0000 18.9897 0.0000 7.2212
# 5 -18.1911 -13.4421 -2.5806 0.0000 36.6516 0.0000
# 6 0.0000 0.0000 0.0000 7.2212 0.0000 -7.1298
#
#
#
# Elastic Compliance Matrix: (Units=1/GPa)
#
#
# Indices 1 2 3 4 5 6 
#
# 1 0.010391 -0.001830 -0.001925 0.000000 0.004351 0.000000
# 2 -0.001830 0.009890 -0.001193 0.000000 0.002635 0.000000
# 3 -0.001925 -0.001193 0.015009 0.000000 -0.000336 0.000000
# 4 0.000000 0.000000 0.000000 0.038018 0.000000 0.038505
# 5 0.004351 0.002635 -0.000336 0.000000 0.030386 0.000000
# 6 0.000000 0.000000 0.000000 0.038505 0.000000 -0.101257
#
#
# Mechanical properties :
#
#
# Convention : Reuss Voigt Hill
#
# Bulk Modulus (GPa) = 39.37936 44.85685 42.11811
# Shear Modulus (GPa) = 240.41702 25.49433 132.95567
#
# Velocity S-wave (km/s) = 10.39981 3.38660 7.73386
# Velocity P-wave (km/s) = 12.72491 5.95582 9.93467
#
# Compressibility (1/GPa) = 0.02539401
#
# Stress axis : x y z
#
# Youngs Moduli (GPa) = 96.23706 101.11366 66.62519
#
# Poissons Ratio (x) = 0.18506 0.12823
# Poissons Ratio (y) = 0.17613 0.07950
# Poissons Ratio (z) = 0.18523 0.12065
#
# Static dielectric constant tensor:
#      x y z
#    x 4.381050 0.000000 -0.355210 
#    y 0.000000 3.843740 0.000000 
#    z -0.355210 0.000000 4.144410 
# 
# 
# High freq. dielectric constant tensor:
#      x y z
#    x 1.890740 0.000000 -0.014340 
#    y 0.000000 1.851600 0.000000 
#    z -0.014340 0.000000 1.881160 
# 
# From -- ./inp_files/58144.got.cif
#   From: 2010.06.25/outbox.cif.g09.slc.cpg/sg11_30_cif.got.tgz:58144.got - 2010.06.27 23:14:04.
