data_PCOD8075772
_publ_section_title
;
Structure prediction by ZEFSAII (Michael W. Deem and Ramdas Pophale) SiO2 
 PCOD8075772
Probable space group: P 21/M
;
_chemical_formula_sum "Si O2"
_cell_formula_units_Z 28
_cell_length_a 25.821014
_cell_length_b 9.333598
_cell_length_c 9.291083
_cell_angle_alpha 90.000000
_cell_angle_beta 136.841483
_cell_angle_gamma 90.000000
_cell_volume 1531.640990
_symmetry_space_group_name_H-M "P 21/M"
_symmetry_group_IT_number 11
_symmetry_cell_setting 'monoclinic'
loop_
_space_group_symop_operation_xyz
x,y,z
-x,1/2+y,-z
-x,-y,-z
x,1/2-y,z
loop_
_atom_site_type_symbol
_atom_site_label
_atom_site_fract_x
_atom_site_fract_y
_atom_site_fract_z
Si Si1 0.707455 0.084993 0.553318
Si Si2 0.845492 0.412701 0.367181
Si Si3 0.591982 0.916928 0.816082
Si Si4 0.848427 0.084799 0.039315
Si Si5 0.012347 0.414772 0.670232
Si Si6 0.420450 0.915593 0.489879
Si Si7 0.275892 0.080584 0.704895
O O1 0.711178 0.250000 0.510369
O O2 0.627071 0.048877 0.463798
O O3 0.717299 0.982056 0.439521
O O4 0.772212 0.050927 0.800095
O O5 0.816706 0.250000 0.331797
O O6 0.835759 0.456714 0.180420
O O7 0.798305 0.520105 0.368909
O O8 0.933272 0.425317 0.597066
O O9 0.599692 0.750000 0.799145
O O10 0.507499 0.957753 0.697257
O O11 0.612917 0.997248 0.711796
O O12 0.649606 0.966299 0.056236
O O13 0.872675 0.250000 0.076013
O O14 0.916198 0.989782 0.106019
O O15 0.032361 0.250000 0.678137
O O16 0.000000 0.500000 0.500000
O O17 0.411977 0.750000 0.430945
O O18 0.267925 0.250000 0.677861
#
# Coordination Sequence:
#
# PCOD8075772 Si02
#       7
#     4   4   4   4   4   4   4
#     4  10  21  36  53  74 103 139 175 209 249 302
#     4   9  18  34  55  77 101 131 170 211 251 302
#     4   9  19  35  54  79 107 131 164 213 258 297
#     4   9  18  33  54  79 103 129 168 216 258 299
#     4   9  17  30  51  78 104 131 166 209 256 304
#     4   9  18  35  58  79 100 132 172 209 251 304
#     4  11  23  35  49  74 107 139 171 209 254 301
#
# _framework density 18.281044999999999
#
# number of rings (size 3 to 8) (size 9 to 14) (size 15 to 20)
#    0.000    2.571    0.000    2.571    0.000    6.857 
#    0.000    0.714    0.000    0.000    0.000    0.000 
#    0.000    0.000    0.000    0.000    0.000    0.000 
#
# Total GULP energy -347175.152266 kJ/mol
# GULP energy per Si atom -12399.112581 kJ/mol
# Density = 1.823944 g / cm^3
# Si number density = 18.281045 Si / 1000 Ang^3
#
#
#
# Elastic Constant Matrix: (Units=GPa)
#
#
# Indices 1 2 3 4 5 6 
#
# 1 113.0716 58.1336 51.6844 0.0000 4.5016 0.0000
# 2 58.1336 75.9612 29.6833 0.0000 4.5617 0.0000
# 3 51.6844 29.6833 38.5982 0.0000 6.1412 0.0000
# 4 0.0000 0.0000 0.0000 29.0447 0.0000 -0.6802
# 5 4.5016 4.5617 6.1412 0.0000 23.5589 0.0000
# 6 0.0000 0.0000 0.0000 -0.6802 0.0000 32.1708
#
#
#
# Elastic Compliance Matrix: (Units=1/GPa)
#
#
# Indices 1 2 3 4 5 6 
#
# 1 0.027095 -0.009363 -0.029781 0.000000 0.004399 0.000000
# 2 -0.009363 0.022056 -0.004204 0.000000 -0.001386 0.000000
# 3 -0.029781 -0.004204 0.070926 0.000000 -0.011984 0.000000
# 4 0.000000 0.000000 0.000000 0.034447 0.000000 0.000728
# 5 0.004399 -0.001386 -0.011984 0.000000 0.044999 0.000000
# 6 0.000000 0.000000 0.000000 0.000728 0.000000 0.031099
#
#
# Mechanical properties :
#
#
# Convention : Reuss Voigt Hill
#
# Bulk Modulus (GPa) = 29.95726 56.29263 43.12495
# Shear Modulus (GPa) = 15.22320 22.83019 19.02669
#
# Velocity S-wave (km/s) = 2.88884 3.53773 3.22962
# Velocity P-wave (km/s) = 5.24879 6.89544 6.12768
#
# Compressibility (1/GPa) = 0.03338089
#
# Stress axis : x y z
#
# Youngs Moduli (GPa) = 36.90674 45.33877 14.09919
#
# Poissons Ratio (x) = 0.42450 0.41989
# Poissons Ratio (y) = 0.34555 0.05928
# Poissons Ratio (z) = 1.09913 0.19062
#
# Static dielectric constant tensor:
#      x y z
#    x 3.439880 0.000000 0.372120 
#    y 0.000000 3.464450 0.000000 
#    z 0.372120 0.000000 3.538080 
# 
# 
# High freq. dielectric constant tensor:
#      x y z
#    x 1.701620 0.000000 0.022910 
#    y 0.000000 1.711240 0.000000 
#    z 0.022910 0.000000 1.702270 
# 
# From -- ./inp_files/28418.got.cif
#   From: 2010.06.25/outbox.cif.g09.slc.cpg/sg11_15_cif.got.tgz:28418.got - 2010.06.27 23:14:04.
