data_PCOD8075232
_publ_section_title
;
Structure prediction by ZEFSAII (Michael W. Deem and Ramdas Pophale) SiO2 
 PCOD8075232
Probable space group: P 21/M
;
_chemical_formula_sum "Si O2"
_cell_formula_units_Z 28
_cell_length_a 17.253661
_cell_length_b 16.385350
_cell_length_c 5.193215
_cell_angle_alpha 90.000000
_cell_angle_beta 80.499746
_cell_angle_gamma 90.000000
_cell_volume 1448.023657
_symmetry_space_group_name_H-M "P 21/M"
_symmetry_group_IT_number 11
_symmetry_cell_setting 'monoclinic'
loop_
_space_group_symop_operation_xyz
x,y,z
-x,1/2+y,-z
-x,-y,-z
x,1/2-y,z
loop_
_atom_site_type_symbol
_atom_site_label
_atom_site_fract_x
_atom_site_fract_y
_atom_site_fract_z
Si Si1 0.908611 0.017152 0.046279
Si Si2 0.647757 0.341570 0.170253
Si Si3 0.346452 0.417604 0.300282
Si Si4 0.179699 0.996703 0.394882
Si Si5 0.179570 0.657153 0.104295
Si Si6 0.407610 0.156341 0.768733
Si Si7 0.424488 0.582325 0.294801
O O1 0.890381 0.114712 0.024565
O O2 0.868564 0.969955 0.827199
O O3 0.870708 0.982829 0.326797
O O4 0.000000 0.000000 0.000000
O O5 0.619648 0.250000 0.248451
O O6 0.619027 0.399663 0.412535
O O7 0.741712 0.346618 0.108416
O O8 0.611665 0.365567 0.916405
O O9 0.262179 0.458967 0.365647
O O10 0.358197 0.359811 0.538672
O O11 0.413949 0.486476 0.248360
O O12 0.352187 0.363301 0.041363
O O13 0.192853 0.898264 0.353969
O O14 0.157413 0.750000 0.192267
O O15 0.434280 0.250000 0.762633
O O16 0.483895 0.099598 0.728604
#
# Coordination Sequence:
#
# PCOD8075232 Si02
#       7
#     4   4   4   4   4   4   4
#     4  10  20  37  61  92 121 153 192 233 288 357
#     4  11  21  34  56  87 126 159 192 242 305 368
#     4  12  23  42  64  86 117 154 209 252 302 361
#     4  10  21  38  63  89 117 159 197 238 289 355
#     4   9  21  35  58  91 125 156 188 233 296 357
#     4  12  26  41  60  85 116 160 207 261 310 345
#     4  12  22  40  59  86 118 156 204 254 308 359
#
# _framework density 19.336701000000001
#
# number of rings (size 3 to 8) (size 9 to 14) (size 15 to 20)
#    0.857    0.286    1.429    6.429    0.000    0.571 
#    0.000    0.000    0.000    5.143    0.000    0.000 
#    0.000    0.000    0.000    0.000    0.000    0.000 
#
# Total GULP energy -347164.268180 kJ/mol
# GULP energy per Si atom -12398.723864 kJ/mol
# Density = 1.929269 g / cm^3
# Si number density = 19.336701 Si / 1000 Ang^3
#
#
#
# Elastic Constant Matrix: (Units=GPa)
#
#
# Indices 1 2 3 4 5 6 
#
# 1 105.2069 33.1872 53.8252 0.0000 -6.6413 0.0000
# 2 33.1872 60.6157 27.7401 0.0000 -4.0714 0.0000
# 3 53.8252 27.7401 141.6329 0.0000 8.5779 0.0000
# 4 0.0000 0.0000 0.0000 17.8287 0.0000 2.4972
# 5 -6.6413 -4.0714 8.5779 0.0000 24.9460 0.0000
# 6 0.0000 0.0000 0.0000 2.4972 0.0000 24.3704
#
#
#
# Elastic Compliance Matrix: (Units=1/GPa)
#
#
# Indices 1 2 3 4 5 6 
#
# 1 0.013685 -0.005164 -0.004452 0.000000 0.004331 0.000000
# 2 -0.005164 0.020527 -0.002224 0.000000 0.002740 0.000000
# 3 -0.004452 -0.002224 0.009479 0.000000 -0.004807 0.000000
# 4 0.000000 0.000000 0.000000 0.056906 0.000000 -0.005831
# 5 0.004331 0.002740 -0.004807 0.000000 0.043340 0.000000
# 6 0.000000 0.000000 0.000000 -0.005831 0.000000 0.041631
#
#
# Mechanical properties :
#
#
# Convention : Reuss Voigt Hill
#
# Bulk Modulus (GPa) = 49.97179 59.66226 54.81702
# Shear Modulus (GPa) = 23.15706 26.27590 24.71648
#
# Velocity S-wave (km/s) = 3.46435 3.69027 3.57909
# Velocity P-wave (km/s) = 6.47312 7.00563 6.74464
#
# Compressibility (1/GPa) = 0.02001129
#
# Stress axis : x y z
#
# Youngs Moduli (GPa) = 73.07221 48.71738 105.49722
#
# Poissons Ratio (x) = 0.25160 0.46963
# Poissons Ratio (y) = 0.37738 0.23458
# Poissons Ratio (z) = 0.32529 0.10833
#
# Static dielectric constant tensor:
#      x y z
#    x 3.406080 0.000000 0.175490 
#    y 0.000000 3.439610 0.000000 
#    z 0.175490 0.000000 3.790440 
# 
# 
# High freq. dielectric constant tensor:
#      x y z
#    x 1.742980 0.000000 0.010730 
#    y 0.000000 1.734500 0.000000 
#    z 0.010730 0.000000 1.766320 
# 
# From -- ./inp_files/8006.got.cif
#   From: 2010.06.25/outbox.cif.g09.slc.cpg/sg11_5_cif.got.tgz:8006.got - 2010.06.27 23:14:04.
