data_PCOD8075229
_publ_section_title
;
Structure prediction by ZEFSAII (Michael W. Deem and Ramdas Pophale) SiO2 
 PCOD8075229
Probable space group: P 21/M
;
_chemical_formula_sum "Si O2"
_cell_formula_units_Z 28
_cell_length_a 14.847874
_cell_length_b 8.877003
_cell_length_c 11.446959
_cell_angle_alpha 90.000000
_cell_angle_beta 115.228062
_cell_angle_gamma 90.000000
_cell_volume 1364.853973
_symmetry_space_group_name_H-M "P 21/M"
_symmetry_group_IT_number 11
_symmetry_cell_setting 'monoclinic'
loop_
_space_group_symop_operation_xyz
x,y,z
-x,1/2+y,-z
-x,-y,-z
x,1/2-y,z
loop_
_atom_site_type_symbol
_atom_site_label
_atom_site_fract_x
_atom_site_fract_y
_atom_site_fract_z
Si Si1 0.027757 0.072845 0.637271
Si Si2 0.418327 0.576161 0.035152
Si Si3 0.856423 0.580138 0.674780
Si Si4 0.363834 0.074175 0.487247
Si Si5 0.104838 0.078242 0.042703
Si Si6 0.194168 0.575871 0.872401
Si Si7 0.538563 0.573388 0.700789
O O1 0.035516 0.250000 0.626440
O O2 0.134082 0.011008 0.738538
O O3 0.000000 0.000000 0.500000
O O4 0.943088 0.033405 0.685122
O O5 0.445761 0.750000 0.063829
O O6 0.414585 0.504299 0.160825
O O7 0.500000 0.500000 0.000000
O O8 0.311338 0.554820 0.914080
O O9 0.887949 0.750000 0.656290
O O10 0.752231 0.535901 0.556625
O O11 0.837686 0.572278 0.802842
O O12 0.385726 0.250000 0.517261
O O13 0.395845 0.025301 0.374515
O O14 0.425120 0.981050 0.617337
O O15 0.089946 0.250000 0.991768
O O16 0.170283 0.989716 0.986080
O O17 0.000000 0.000000 0.000000
O O18 0.162228 0.750000 0.852510
O O19 0.538737 0.750000 0.723353
#
# Coordination Sequence:
#
# PCOD8075229 Si02
#       7
#     4   4   4   4   4   4   4
#     4  12  26  43  64  87 118 160 203 249 303 363
#     4  11  25  43  65  90 120 161 207 258 308 365
#     4  10  21  38  60  88 124 161 202 248 296 360
#     4   9  19  36  60  89 122 162 200 244 302 360
#     4  11  21  35  61  94 128 164 201 248 305 361
#     4  11  24  43  65  92 125 160 204 256 309 366
#     4  10  20  37  61  90 123 158 200 252 305 362
#
# _framework density 20.515014999999998
#
# number of rings (size 3 to 8) (size 9 to 14) (size 15 to 20)
#    0.000    1.429    1.429    3.857    0.000    6.286 
#    0.000    0.000    0.000    0.000    0.000    0.000 
#    0.000    0.000    0.000    0.000    0.000    0.000 
#
# Total GULP energy -347333.178186 kJ/mol
# GULP energy per Si atom -12404.756364 kJ/mol
# Density = 2.046832 g / cm^3
# Si number density = 20.515015 Si / 1000 Ang^3
#
#
#
# Elastic Constant Matrix: (Units=GPa)
#
#
# Indices 1 2 3 4 5 6 
#
# 1 84.6615 48.0355 32.4869 0.0000 12.2594 0.0000
# 2 48.0355 144.7647 57.8091 0.0000 9.4567 0.0000
# 3 32.4869 57.8091 115.2801 0.0000 9.7785 0.0000
# 4 0.0000 0.0000 0.0000 39.1688 0.0000 -1.3100
# 5 12.2594 9.4567 9.7785 0.0000 33.4591 0.0000
# 6 0.0000 0.0000 0.0000 -1.3100 0.0000 32.3791
#
#
#
# Elastic Compliance Matrix: (Units=1/GPa)
#
#
# Indices 1 2 3 4 5 6 
#
# 1 0.015455 -0.004083 -0.001974 0.000000 -0.003932 0.000000
# 2 -0.004083 0.009764 -0.003731 0.000000 -0.000173 0.000000
# 3 -0.001974 -0.003731 0.011229 0.000000 -0.001504 0.000000
# 4 0.000000 0.000000 0.000000 0.025565 0.000000 0.001034
# 5 -0.003932 -0.000173 -0.001504 0.000000 0.031816 0.000000
# 6 0.000000 0.000000 0.000000 0.001034 0.000000 0.030926
#
#
# Mechanical properties :
#
#
# Convention : Reuss Voigt Hill
#
# Bulk Modulus (GPa) = 59.27039 69.04106 64.15572
# Shear Modulus (GPa) = 33.34296 34.75972 34.05134
#
# Velocity S-wave (km/s) = 4.03587 4.12072 4.07852
# Velocity P-wave (km/s) = 7.11840 7.50782 7.31570
#
# Compressibility (1/GPa) = 0.01687183
#
# Stress axis : x y z
#
# Youngs Moduli (GPa) = 64.70226 102.41951 89.05194
#
# Poissons Ratio (x) = 0.41819 0.17583
# Poissons Ratio (y) = 0.26418 0.33224
# Poissons Ratio (z) = 0.12775 0.38211
#
# Static dielectric constant tensor:
#      x y z
#    x 3.618910 0.000000 0.090070 
#    y 0.000000 3.908940 0.000000 
#    z 0.090070 0.000000 3.850950 
# 
# 
# High freq. dielectric constant tensor:
#      x y z
#    x 1.797640 0.000000 0.011920 
#    y 0.000000 1.809660 0.000000 
#    z 0.011920 0.000000 1.809520 
# 
# From -- ./inp_files/38501.got.cif
#   From: 2010.06.25/outbox.cif.g09.slc.cpg/sg11_20_cif.got.tgz:38501.got - 2010.06.27 23:14:04.
