data_PCOD8075388
_publ_section_title
;
Structure prediction by ZEFSAII (Michael W. Deem and Ramdas Pophale) SiO2 
 PCOD8075388
Probable space group: P 21/M
;
_chemical_formula_sum "Si O2"
_cell_formula_units_Z 32
_cell_length_a 14.682414
_cell_length_b 23.617836
_cell_length_c 9.425768
_cell_angle_alpha 90.000000
_cell_angle_beta 28.089001
_cell_angle_gamma 90.000000
_cell_volume 1538.969457
_symmetry_space_group_name_H-M "P 21/M"
_symmetry_group_IT_number 11
_symmetry_cell_setting 'monoclinic'
loop_
_space_group_symop_operation_xyz
x,y,z
-x,1/2+y,-z
-x,-y,-z
x,1/2-y,z
loop_
_atom_site_type_symbol
_atom_site_label
_atom_site_fract_x
_atom_site_fract_y
_atom_site_fract_z
Si Si1 0.262924 0.473311 0.448195
Si Si2 0.529092 0.420779 0.858436
Si Si3 0.391718 0.362069 0.784790
Si Si4 0.507703 0.556525 0.583223
Si Si5 0.208122 0.812128 0.746047
Si Si6 0.716609 0.311855 0.668648
Si Si7 0.081742 0.898119 0.146306
Si Si8 0.954952 0.814313 0.563731
O O1 0.272844 0.541961 0.426313
O O2 0.380687 0.452315 0.423363
O O3 0.043710 0.451433 0.737965
O O4 0.363933 0.453221 0.166608
O O5 0.455392 0.412709 0.800945
O O6 0.556718 0.360654 0.899155
O O7 0.371204 0.393489 0.661712
O O8 0.560867 0.315383 0.546847
O O9 0.200123 0.331887 0.104393
O O10 0.500000 0.500000 0.500000
O O11 0.288027 0.578295 0.916320
O O12 0.138799 0.750000 0.890578
O O13 0.160165 0.821861 0.645302
O O14 0.098363 0.858897 0.986231
O O15 0.614541 0.250000 0.799552
O O16 0.841714 0.314444 0.637089
O O17 0.969010 0.860794 0.419575
O O18 0.912619 0.750000 0.565826
#
# Coordination Sequence:
#
# PCOD8075388 Si02
#       8
#     4   4   4   4   4   4   4   4
#     4  11  23  40  63  90 129 165 205 255 312 373
#     4  10  20  41  60  89 125 161 206 255 310 376
#     4  10  20  38  61  88 121 161 204 254 316 370
#     4  11  24  42  61  91 127 163 208 256 307 377
#     4   9  19  38  59  84 120 159 200 253 312 367
#     4   9  20  37  61  88 119 158 204 255 307 364
#     4  11  24  40  63  92 123 164 206 255 314 368
#     4  11  22  39  63  93 123 158 210 264 315 375
#
# _framework density 20.793134999999999
#
# number of rings (size 3 to 8) (size 9 to 14) (size 15 to 20)
#    0.000    1.750    2.500    1.500    1.750    2.000 
#    0.000    2.500    0.000    2.250    0.000    0.000 
#    0.000    0.000    0.000    0.000    0.000    0.000 
#
# Total GULP energy -396557.662993 kJ/mol
# GULP energy per Si atom -12392.426969 kJ/mol
# Density = 2.074581 g / cm^3
# Si number density = 20.793135 Si / 1000 Ang^3
#
#
#
# Elastic Constant Matrix: (Units=GPa)
#
#
# Indices 1 2 3 4 5 6 
#
# 1 58.8406 22.1073 1.2793 0.0000 -2.1808 0.0000
# 2 22.1073 99.3271 17.0104 0.0000 -1.2958 0.0000
# 3 1.2793 17.0104 61.9631 0.0000 -4.4107 0.0000
# 4 0.0000 0.0000 0.0000 28.0405 0.0000 -1.4370
# 5 -2.1808 -1.2958 -4.4107 0.0000 20.0104 0.0000
# 6 0.0000 0.0000 0.0000 -1.4370 0.0000 29.1137
#
#
#
# Elastic Compliance Matrix: (Units=1/GPa)
#
#
# Indices 1 2 3 4 5 6 
#
# 1 0.018658 -0.004287 0.000931 0.000000 0.001961 0.000000
# 2 -0.004287 0.011549 -0.003111 0.000000 -0.000405 0.000000
# 3 0.000931 -0.003111 0.017237 0.000000 0.003699 0.000000
# 4 0.000000 0.000000 0.000000 0.035753 0.000000 0.001765
# 5 0.001961 -0.000405 0.003699 0.000000 0.050977 0.000000
# 6 0.000000 0.000000 0.000000 0.001765 0.000000 0.034435
#
#
# Mechanical properties :
#
#
# Convention : Reuss Voigt Hill
#
# Bulk Modulus (GPa) = 28.97593 33.43609 31.20601
# Shear Modulus (GPa) = 25.90057 27.41517 26.65787
#
# Velocity S-wave (km/s) = 3.53318 3.63502 3.58446
# Velocity P-wave (km/s) = 5.53263 5.80802 5.67200
#
# Compressibility (1/GPa) = 0.03451141
#
# Stress axis : x y z
#
# Youngs Moduli (GPa) = 53.59616 86.58533 58.01551
#
# Poissons Ratio (x) = 0.37116 -0.05402
# Poissons Ratio (y) = 0.22975 0.18048
# Poissons Ratio (z) = -0.04991 0.26936
#
# Static dielectric constant tensor:
#      x y z
#    x 3.631430 0.000000 0.155820 
#    y 0.000000 4.184310 0.000000 
#    z 0.155820 0.000000 3.661800 
# 
# 
# High freq. dielectric constant tensor:
#      x y z
#    x 1.804730 0.000000 0.015770 
#    y 0.000000 1.832780 0.000000 
#    z 0.015770 0.000000 1.797470 
# 
# From -- ./inp_files/23371.got.cif
#   From: 2010.06.25/outbox.cif.g09.slc.cpg/sg11_12_cif.got.tgz:23371.got - 2010.06.27 23:14:04.
