data_PCOD8075884
_publ_section_title
;
Structure prediction by ZEFSAII (Michael W. Deem and Ramdas Pophale) SiO2 
 PCOD8075884
Probable space group: P 21/M
;
_chemical_formula_sum "Si O2"
_cell_formula_units_Z 32
_cell_length_a 13.546858
_cell_length_b 8.451612
_cell_length_c 31.926463
_cell_angle_alpha 90.000000
_cell_angle_beta 155.092058
_cell_angle_gamma 90.000000
_cell_volume 1539.492723
_symmetry_space_group_name_H-M "P 21/M"
_symmetry_group_IT_number 11
_symmetry_cell_setting 'monoclinic'
loop_
_space_group_symop_operation_xyz
x,y,z
-x,1/2+y,-z
-x,-y,-z
x,1/2-y,z
loop_
_atom_site_type_symbol
_atom_site_label
_atom_site_fract_x
_atom_site_fract_y
_atom_site_fract_z
Si Si1 0.882150 0.933514 0.712080
Si Si2 0.870292 0.061159 0.033938
Si Si3 0.024253 0.565521 0.340617
Si Si4 0.524910 0.935869 0.179932
Si Si5 0.765987 0.064396 0.430424
Si Si6 0.390812 0.064894 0.216097
Si Si7 0.392425 0.432567 0.544217
Si Si8 0.258910 0.563526 0.924590
O O1 0.920528 0.750000 0.715569
O O2 0.050119 0.990422 0.814004
O O3 0.942369 0.041783 0.695771
O O4 0.618506 0.957957 0.626090
O O5 0.874060 0.250000 0.036215
O O6 0.791417 0.993527 0.048644
O O7 0.129867 0.997847 0.123185
O O8 0.690943 0.992927 0.930097
O O9 0.053124 0.750000 0.362977
O O10 0.218843 0.464085 0.439096
O O11 0.770073 0.499235 0.256327
O O12 0.520673 0.750000 0.172659
O O13 0.504815 0.979076 0.220545
O O14 0.789263 0.250000 0.447998
O O15 0.544753 0.025517 0.315969
O O16 0.736962 0.973955 0.462675
O O17 0.000000 0.000000 0.500000
O O18 0.388000 0.250000 0.205414
O O19 0.467445 0.250000 0.572457
O O20 0.274040 0.750000 0.933215
O O21 0.500000 0.500000 0.000000
#
# Coordination Sequence:
#
# PCOD8075884 Si02
#       8
#     4   4   4   4   4   4   4   4
#     4  11  23  40  62  89 120 156 197 245 297 353
#     4   9  18  36  58  82 113 151 189 230 284 344
#     4  11  23  40  61  86 118 156 195 242 296 356
#     4  10  21  36  58  85 115 150 190 236 287 341
#     4  11  23  40  61  87 118 156 199 244 296 353
#     4  10  21  37  59  83 113 151 191 235 286 343
#     4  12  25  41  62  88 118 155 197 245 298 357
#     4  10  21  38  61  86 117 155 196 241 293 351
#
# _framework density 20.786068
#
# number of rings (size 3 to 8) (size 9 to 14) (size 15 to 20)
#    0.000    1.500    0.000    5.250    0.000    8.000 
#    0.000    1.250    0.000    0.000    0.000    0.000 
#    0.000    0.000    0.000    0.000    0.000    0.000 
#
# Total GULP energy -396994.037862 kJ/mol
# GULP energy per Si atom -12406.063683 kJ/mol
# Density = 2.073876 g / cm^3
# Si number density = 20.786068 Si / 1000 Ang^3
#
#
#
# Elastic Constant Matrix: (Units=GPa)
#
#
# Indices 1 2 3 4 5 6 
#
# 1 104.9766 12.5189 8.4860 0.0000 6.7264 0.0000
# 2 12.5189 35.1227 25.4147 0.0000 -4.4451 0.0000
# 3 8.4860 25.4147 104.3767 0.0000 7.8402 0.0000
# 4 0.0000 0.0000 0.0000 26.6902 0.0000 -0.3465
# 5 6.7264 -4.4451 7.8402 0.0000 45.2850 0.0000
# 6 0.0000 0.0000 0.0000 -0.3465 0.0000 34.4786
#
#
#
# Elastic Compliance Matrix: (Units=1/GPa)
#
#
# Indices 1 2 3 4 5 6 
#
# 1 0.010113 -0.004083 0.000319 0.000000 -0.001958 0.000000
# 2 -0.004083 0.037323 -0.009196 0.000000 0.005862 0.000000
# 3 0.000319 -0.009196 0.012022 0.000000 -0.003031 0.000000
# 4 0.000000 0.000000 0.000000 0.037472 0.000000 0.000377
# 5 -0.001958 0.005862 -0.003031 0.000000 0.023473 0.000000
# 6 0.000000 0.000000 0.000000 0.000377 0.000000 0.029007
#
#
# Mechanical properties :
#
#
# Convention : Reuss Voigt Hill
#
# Bulk Modulus (GPa) = 29.81792 37.47946 33.64869
# Shear Modulus (GPa) = 26.80829 34.49453 30.65141
#
# Velocity S-wave (km/s) = 3.59517 4.07812 3.84423
# Velocity P-wave (km/s) = 5.62227 6.34389 5.99395
#
# Compressibility (1/GPa) = 0.03353688
#
# Stress axis : x y z
#
# Youngs Moduli (GPa) = 98.88716 26.79296 83.18343
#
# Poissons Ratio (x) = 0.10940 -0.02655
# Poissons Ratio (y) = 0.40377 0.76497
# Poissons Ratio (z) = -0.03156 0.24639
#
# Static dielectric constant tensor:
#      x y z
#    x 3.822990 0.000000 -0.002610 
#    y 0.000000 3.530890 0.000000 
#    z -0.002610 0.000000 4.053750 
# 
# 
# High freq. dielectric constant tensor:
#      x y z
#    x 1.829350 0.000000 0.000620 
#    y 0.000000 1.794340 0.000000 
#    z 0.000620 0.000000 1.832350 
# 
# From -- ./inp_files/73161.got.cif
#   From: 2010.06.25/outbox.cif.g09.slc.cpg/sg11_37_cif.got.tgz:73161.got - 2010.06.27 23:14:04.
