data_PCOD8075098
_publ_section_title
;
Structure prediction by ZEFSAII (Michael W. Deem and Ramdas Pophale) SiO2 
 PCOD8075098
Probable space group: P 21/M
;
_chemical_formula_sum "Si O2"
_cell_formula_units_Z 32
_cell_length_a 31.382854
_cell_length_b 8.663418
_cell_length_c 12.061216
_cell_angle_alpha 90.000000
_cell_angle_beta 149.614375
_cell_angle_gamma 90.000000
_cell_volume 1658.694955
_symmetry_space_group_name_H-M "P 21/M"
_symmetry_group_IT_number 11
_symmetry_cell_setting 'monoclinic'
loop_
_space_group_symop_operation_xyz
x,y,z
-x,1/2+y,-z
-x,-y,-z
x,1/2-y,z
loop_
_atom_site_type_symbol
_atom_site_label
_atom_site_fract_x
_atom_site_fract_y
_atom_site_fract_z
Si Si1 0.738394 0.432567 0.655231
Si Si2 0.525049 0.066534 0.438976
Si Si3 0.899716 0.432233 0.884168
Si Si4 0.927189 0.067298 0.696307
Si Si5 0.772337 0.433881 0.208377
Si Si6 0.407184 0.432472 0.806734
Si Si7 0.714379 0.068748 0.845379
Si Si8 0.378688 0.566750 0.973718
O O1 0.724646 0.250000 0.609668
O O2 0.816323 0.495208 0.757578
O O3 0.652290 0.517182 0.428268
O O4 0.759425 0.474482 0.830837
O O5 0.516131 0.250000 0.418376
O O6 0.619069 0.008655 0.625818
O O7 0.500000 0.000000 0.500000
O O8 0.468236 0.994290 0.215770
O O9 0.903144 0.250000 0.901171
O O10 0.898056 0.488395 0.753072
O O11 0.981909 0.498750 0.130300
O O12 0.933133 0.250000 0.706147
O O13 0.859487 0.003340 0.455828
O O14 0.773217 0.250000 0.212060
O O15 0.694241 0.492337 0.107401
O O16 0.762674 0.501023 0.061447
O O17 0.414443 0.250000 0.828871
O O18 0.362191 0.497850 0.815639
O O19 0.500000 0.500000 0.000000
O O20 0.711979 0.250000 0.858465
O O21 0.379714 0.750000 0.967966
#
# Coordination Sequence:
#
# PCOD8075098 Si02
#       8
#     4   4   4   4   4   4   4   4
#     4  10  20  37  60  81 108 147 187 228 276 333
#     4  11  20  33  52  78 110 147 190 231 276 331
#     4   9  18  33  53  80 108 139 178 223 281 335
#     4   9  17  31  54  78 104 138 179 225 274 336
#     4   9  17  32  54  81 108 139 180 225 278 332
#     4  12  25  40  57  81 113 147 186 230 277 331
#     4   9  18  33  54  78 105 142 186 227 269 328
#     4  11  21  36  58  82 111 144 184 235 285 334
#
# _framework density 19.292275
#
# number of rings (size 3 to 8) (size 9 to 14) (size 15 to 20)
#    0.000    2.000    1.250    3.375    0.000    3.500 
#    0.000    5.000    0.000    0.000    0.000    0.000 
#    0.000    0.000    0.000    0.000    0.000    0.000 
#
# Total GULP energy -396799.971443 kJ/mol
# GULP energy per Si atom -12399.999108 kJ/mol
# Density = 1.924837 g / cm^3
# Si number density = 19.292275 Si / 1000 Ang^3
#
#
#
# Elastic Constant Matrix: (Units=GPa)
#
#
# Indices 1 2 3 4 5 6 
#
# 1 112.1104 26.3904 62.0318 0.0000 0.1650 0.0000
# 2 26.3904 53.7218 26.7429 0.0000 0.2172 0.0000
# 3 62.0318 26.7429 160.7184 0.0000 -2.4682 0.0000
# 4 0.0000 0.0000 0.0000 30.1282 0.0000 -0.7108
# 5 0.1650 0.2172 -2.4682 0.0000 34.6430 0.0000
# 6 0.0000 0.0000 0.0000 -0.7108 0.0000 21.7036
#
#
#
# Elastic Compliance Matrix: (Units=1/GPa)
#
#
# Indices 1 2 3 4 5 6 
#
# 1 0.012062 -0.003930 -0.004007 0.000000 -0.000318 0.000000
# 2 -0.003930 0.021580 -0.002078 0.000000 -0.000265 0.000000
# 3 -0.004007 -0.002078 0.008124 0.000000 0.000611 0.000000
# 4 0.000000 0.000000 0.000000 0.033217 0.000000 0.001088
# 5 -0.000318 -0.000265 0.000611 0.000000 0.028913 0.000000
# 6 0.000000 0.000000 0.000000 0.001088 0.000000 0.046111
#
#
# Mechanical properties :
#
#
# Convention : Reuss Voigt Hill
#
# Bulk Modulus (GPa) = 46.00388 61.87565 53.93977
# Shear Modulus (GPa) = 28.20369 31.38732 29.79550
#
# Velocity S-wave (km/s) = 3.82765 4.03791 3.93418
# Velocity P-wave (km/s) = 6.59030 7.34043 6.97546
#
# Compressibility (1/GPa) = 0.02173729
#
# Stress axis : x y z
#
# Youngs Moduli (GPa) = 82.90389 46.33822 123.09716
#
# Poissons Ratio (x) = 0.18209 0.49320
# Poissons Ratio (y) = 0.32578 0.25583
# Poissons Ratio (z) = 0.33216 0.09630
#
# Static dielectric constant tensor:
#      x y z
#    x 3.691730 0.000000 -0.094110 
#    y 0.000000 3.287960 0.000000 
#    z -0.094110 0.000000 3.954760 
# 
# 
# High freq. dielectric constant tensor:
#      x y z
#    x 1.751550 0.000000 -0.006810 
#    y 0.000000 1.723110 0.000000 
#    z -0.006810 0.000000 1.756350 
# 
# From -- ./inp_files/45334.got.cif
#   From: 2010.06.25/outbox.cif.g09.slc.cpg/sg11_23_cif.got.tgz:45334.got - 2010.06.27 23:14:04.
