data_PCOD8075461
_publ_section_title
;
Structure prediction by ZEFSAII (Michael W. Deem and Ramdas Pophale) SiO2 
 PCOD8075461
Probable space group: P 21/M
;
_chemical_formula_sum "Si O2"
_cell_formula_units_Z 32
_cell_length_a 18.677486
_cell_length_b 12.988783
_cell_length_c 12.009951
_cell_angle_alpha 90.000000
_cell_angle_beta 30.948632
_cell_angle_gamma 90.000000
_cell_volume 1498.369021
_symmetry_space_group_name_H-M "P 21/M"
_symmetry_group_IT_number 11
_symmetry_cell_setting 'monoclinic'
loop_
_space_group_symop_operation_xyz
x,y,z
-x,1/2+y,-z
-x,-y,-z
x,1/2-y,z
loop_
_atom_site_type_symbol
_atom_site_label
_atom_site_fract_x
_atom_site_fract_y
_atom_site_fract_z
Si Si1 0.709804 0.964232 0.058868
Si Si2 0.764929 0.128569 0.816401
Si Si3 0.195593 0.981431 0.827512
Si Si4 0.577433 0.370330 0.622202
Si Si5 0.559330 0.371533 0.897537
Si Si6 0.084672 0.128731 0.796034
Si Si7 0.743776 0.872851 0.645283
Si Si8 0.920862 0.871560 0.619367
O O1 0.575371 0.894349 0.219680
O O2 0.725604 0.981482 0.168202
O O3 0.846010 0.904794 0.832825
O O4 0.691777 0.073303 0.018842
O O5 0.758898 0.250000 0.847484
O O6 0.686810 0.097896 0.806955
O O7 0.922116 0.083882 0.597009
O O8 0.306293 0.927080 0.602364
O O9 0.131969 0.079806 0.849352
O O10 0.072872 0.902777 0.023583
O O11 0.604553 0.250000 0.575215
O O12 0.592479 0.408609 0.729029
O O13 0.535878 0.250000 0.929060
O O14 0.412799 0.421003 0.137032
O O15 0.093099 0.250000 0.799099
O O16 0.183844 0.088829 0.564315
O O17 0.738174 0.750000 0.653873
O O18 0.830429 0.912330 0.636018
O O19 0.935072 0.750000 0.598669
#
# Coordination Sequence:
#
# PCOD8075461 Si02
#       8
#     4   4   4   4   4   4   4   4
#     4  12  24  40  63  93 128 173 222 262 318 396
#     4  10  23  38  60  97 134 165 207 270 337 389
#     4  11  26  43  62  97 129 167 231 266 314 392
#     4  11  24  44  66  90 130 176 218 272 329 383
#     4   9  19  38  63  94 123 160 209 261 327 393
#     4  10  23  44  69  92 125 169 214 275 333 384
#     4   9  17  35  65  93 120 159 209 258 325 395
#     4  10  20  38  63  93 128 166 209 265 332 398
#
# _framework density 21.356553999999999
#
# number of rings (size 3 to 8) (size 9 to 14) (size 15 to 20)
#    0.000    1.750    1.250    2.250    1.750    6.500 
#    0.000    1.250    0.000    0.000    0.000    0.000 
#    0.000    0.000    0.000    0.000    0.000    0.000 
#
# Total GULP energy -396997.291560 kJ/mol
# GULP energy per Si atom -12406.165361 kJ/mol
# Density = 2.130795 g / cm^3
# Si number density = 21.356554 Si / 1000 Ang^3
#
#
#
# Elastic Constant Matrix: (Units=GPa)
#
#
# Indices 1 2 3 4 5 6 
#
# 1 138.2596 16.6005 35.0390 0.0000 11.0681 0.0000
# 2 16.6005 33.1382 7.6348 0.0000 5.5134 0.0000
# 3 35.0390 7.6348 111.1086 0.0000 9.2513 0.0000
# 4 0.0000 0.0000 0.0000 38.9173 0.0000 -0.0007
# 5 11.0681 5.5134 9.2513 0.0000 34.8823 0.0000
# 6 0.0000 0.0000 0.0000 -0.0007 0.0000 30.8917
#
#
#
# Elastic Compliance Matrix: (Units=1/GPa)
#
#
# Indices 1 2 3 4 5 6 
#
# 1 0.008337 -0.003403 -0.002270 0.000000 -0.001505 0.000000
# 2 -0.003403 0.032721 -0.000853 0.000000 -0.003866 0.000000
# 3 -0.002270 -0.000853 0.009923 0.000000 -0.001776 0.000000
# 4 0.000000 0.000000 0.000000 0.025695 0.000000 0.000001
# 5 -0.001505 -0.003866 -0.001776 0.000000 0.030228 0.000000
# 6 0.000000 0.000000 0.000000 0.000001 0.000000 0.032371
#
#
# Mechanical properties :
#
#
# Convention : Reuss Voigt Hill
#
# Bulk Modulus (GPa) = 26.36569 44.56170 35.46369
# Shear Modulus (GPa) = 30.30839 35.82040 33.06439
#
# Velocity S-wave (km/s) = 3.77126 4.09987 3.93900
# Velocity P-wave (km/s) = 5.59781 6.58201 6.10976
#
# Compressibility (1/GPa) = 0.03792808
#
# Stress axis : x y z
#
# Youngs Moduli (GPa) = 119.94481 30.56128 100.77980
#
# Poissons Ratio (x) = 0.10400 0.22877
# Poissons Ratio (y) = 0.40818 0.08600
# Poissons Ratio (z) = 0.27228 0.02608
#
# Static dielectric constant tensor:
#      x y z
#    x 3.886640 0.000000 -0.107260 
#    y 0.000000 3.877930 0.000000 
#    z -0.107260 0.000000 3.999370 
# 
# 
# High freq. dielectric constant tensor:
#      x y z
#    x 1.838240 0.000000 -0.008770 
#    y 0.000000 1.860580 0.000000 
#    z -0.008770 0.000000 1.844350 
# 
# From -- ./inp_files/41610.got.cif
#   From: 2010.06.25/outbox.cif.g09.slc.cpg/sg11_21_cif.got.tgz:41610.got - 2010.06.27 23:14:04.
