data_PCOD8075322
_publ_section_title
;
Structure prediction by ZEFSAII (Michael W. Deem and Ramdas Pophale) SiO2 
 PCOD8075322
Probable space group: P 21/M
;
_chemical_formula_sum "Si O2"
_cell_formula_units_Z 20
_cell_length_a 7.649777
_cell_length_b 13.358263
_cell_length_c 9.524853
_cell_angle_alpha 90.000000
_cell_angle_beta 99.973232
_cell_angle_gamma 90.000000
_cell_volume 958.615028
_symmetry_space_group_name_H-M "P 21/M"
_symmetry_group_IT_number 11
_symmetry_cell_setting 'monoclinic'
loop_
_space_group_symop_operation_xyz
x,y,z
-x,1/2+y,-z
-x,-y,-z
x,1/2-y,z
loop_
_atom_site_type_symbol
_atom_site_label
_atom_site_fract_x
_atom_site_fract_y
_atom_site_fract_z
Si Si1 0.092313 0.368710 0.096740
Si Si2 0.441902 0.861390 0.202736
Si Si3 0.269174 0.969726 0.949743
Si Si4 0.228100 0.045836 0.656994
Si Si5 0.834656 0.478056 0.654977
O O1 0.126957 0.250000 0.109327
O O2 0.888784 0.392889 0.028309
O O3 0.140067 0.419461 0.253768
O O4 0.215202 0.417862 0.992559
O O5 0.393568 0.750000 0.153426
O O6 0.442327 0.928998 0.059179
O O7 0.634608 0.862649 0.304323
O O8 0.291984 0.900990 0.286208
O O9 0.292311 0.965242 0.784425
O O10 0.024408 0.076596 0.656880
O O11 0.253836 0.001075 0.506771
#
# Coordination Sequence:
#
# PCOD8075322 Si02
#       5
#     4   4   4   4   4
#     4   9  17  33  57  81 110 151 190 229 283 336
#     4  11  22  36  57  84 115 150 186 228 281 338
#     4   9  19  34  54  82 115 146 186 237 279 330
#     4  10  20  38  59  79 110 151 187 231 283 327
#     4   9  21  39  58  82 114 148 188 235 277 330
#
# _framework density 20.863430000000001
#
# number of rings (size 3 to 8) (size 9 to 14) (size 15 to 20)
#    0.000    2.400    0.000    3.000    0.000    2.400 
#    0.000    9.000    0.000   10.800    0.000    0.000 
#    0.000    0.000    0.000    0.000    0.000    0.000 
#
# Total GULP energy -247911.982134 kJ/mol
# GULP energy per Si atom -12395.599107 kJ/mol
# Density = 2.081594 g / cm^3
# Si number density = 20.863430 Si / 1000 Ang^3
#
#
#
# Elastic Constant Matrix: (Units=GPa)
#
#
# Indices 1 2 3 4 5 6 
#
# 1 62.5218 29.0462 22.2559 0.0000 18.1323 0.0000
# 2 29.0462 130.4022 31.3241 0.0000 1.9657 0.0000
# 3 22.2559 31.3241 142.3965 0.0000 15.8095 0.0000
# 4 0.0000 0.0000 0.0000 12.9475 0.0000 8.7982
# 5 18.1323 1.9657 15.8095 0.0000 33.1994 0.0000
# 6 0.0000 0.0000 0.0000 8.7982 0.0000 13.5387
#
#
#
# Elastic Compliance Matrix: (Units=1/GPa)
#
#
# Indices 1 2 3 4 5 6 
#
# 1 0.021636 -0.004365 -0.001202 0.000000 -0.010986 0.000000
# 2 -0.004365 0.008982 -0.001583 0.000000 0.002606 0.000000
# 3 -0.001202 -0.001583 0.007893 0.000000 -0.003008 0.000000
# 4 0.000000 0.000000 0.000000 0.138312 0.000000 -0.089883
# 5 -0.010986 0.002606 -0.003008 0.000000 0.037400 0.000000
# 6 0.000000 0.000000 0.000000 -0.089883 0.000000 0.132273
#
#
# Mechanical properties :
#
#
# Convention : Reuss Voigt Hill
#
# Bulk Modulus (GPa) = 41.30275 55.61924 48.46099
# Shear Modulus (GPa) = 13.55508 28.78340 21.16924
#
# Velocity S-wave (km/s) = 2.55170 3.71834 3.18883
# Velocity P-wave (km/s) = 5.34053 6.71947 6.06929
#
# Compressibility (1/GPa) = 0.02421146
#
# Stress axis : x y z
#
# Youngs Moduli (GPa) = 46.21868 111.33601 126.69975
#
# Poissons Ratio (x) = 0.48599 0.15225
# Poissons Ratio (y) = 0.20175 0.20055
# Poissons Ratio (z) = 0.05554 0.17623
#
# Static dielectric constant tensor:
#      x y z
#    x 4.000480 0.000000 0.173060 
#    y 0.000000 3.304960 0.000000 
#    z 0.173060 0.000000 4.069060 
# 
# 
# High freq. dielectric constant tensor:
#      x y z
#    x 1.838340 0.000000 0.006050 
#    y 0.000000 1.772050 0.000000 
#    z 0.006050 0.000000 1.831220 
# 
# From -- ./inp_files/12130.got.cif
#   From: 2010.06.25/outbox.cif.g09.slc.cpg/sg11_7_cif.got.tgz:12130.got - 2010.06.27 23:14:04.
