data_PCOD8075805
_publ_section_title
;
Structure prediction by ZEFSAII (Michael W. Deem and Ramdas Pophale) SiO2 
 PCOD8075805
Probable space group: P 21/M
;
_chemical_formula_sum "Si O2"
_cell_formula_units_Z 28
_cell_length_a 33.152037
_cell_length_b 9.876509
_cell_length_c 5.033990
_cell_angle_alpha 90.000000
_cell_angle_beta 57.768031
_cell_angle_gamma 90.000000
_cell_volume 1394.257060
_symmetry_space_group_name_H-M "P 21/M"
_symmetry_group_IT_number 11
_symmetry_cell_setting 'monoclinic'
loop_
_space_group_symop_operation_xyz
x,y,z
-x,1/2+y,-z
-x,-y,-z
x,1/2-y,z
loop_
_atom_site_type_symbol
_atom_site_label
_atom_site_fract_x
_atom_site_fract_y
_atom_site_fract_z
Si Si1 0.548943 0.250000 0.028464
Si Si2 0.955229 0.905203 0.114764
Si Si3 0.406058 0.466167 0.120461
Si Si4 0.106929 0.405030 0.169422
Si Si5 0.804385 0.405246 0.144726
Si Si6 0.346074 0.403723 0.829968
Si Si7 0.514929 0.750000 0.247808
Si Si8 0.742430 0.094763 0.862760
O O1 0.504723 0.250000 0.384931
O O2 0.583079 0.376862 0.955266
O O3 0.529084 0.250000 0.799797
O O4 0.971842 0.750000 0.092671
O O5 0.913889 0.940842 0.469547
O O6 0.934751 0.932252 0.895300
O O7 0.000000 0.000000 0.000000
O O8 0.388884 0.435421 0.478050
O O9 0.364782 0.424078 0.062166
O O10 0.454258 0.384246 0.899716
O O11 0.124616 0.250000 0.091665
O O12 0.151143 0.500172 0.949767
O O13 0.821472 0.250000 0.109774
O O14 0.762581 0.436187 0.500841
O O15 0.784134 0.437564 0.925408
O O16 0.328450 0.250000 0.857687
O O17 0.302347 0.501141 0.920084
O O18 0.725516 0.250000 0.950544
#
# Coordination Sequence:
#
# PCOD8075805 Si02
#       8
#     2   4   4   4   4   4   2   4
#     4  12  26  40  68  94 118 162 200 238 298 348
#     4  10  21  36  54  82 115 153 199 243 291 343
#     4  12  25  42  65  92 123 156 201 242 291 355
#     4  10  21  36  57  82 116 153 193 244 291 349
#     4  10  21  39  58  88 116 150 193 241 298 350
#     4  12  24  43  63  90 122 160 196 243 298 351
#     4  12  22  46  62  92 128 154 196 248 292 342
#     4  10  23  39  62  87 119 150 193 246 290 353
#
# _framework density 20.082381000000002
#
# number of rings (size 3 to 8) (size 9 to 14) (size 15 to 20)
#    0.000    1.143    1.429    4.714    2.000    2.286 
#    0.000    0.000    0.000    0.000    0.000    0.000 
#    0.000    0.000    0.000    0.000    0.000    0.000 
#
# Total GULP energy -347437.153786 kJ/mol
# GULP energy per Si atom -12408.469778 kJ/mol
# Density = 2.003667 g / cm^3
# Si number density = 20.082381 Si / 1000 Ang^3
#
#
#
# Elastic Constant Matrix: (Units=GPa)
#
#
# Indices 1 2 3 4 5 6 
#
# 1 67.7358 47.0803 25.0199 0.0000 -7.3089 0.0000
# 2 47.0803 133.3819 36.6039 0.0000 -19.7017 0.0000
# 3 25.0199 36.6039 59.2118 0.0000 6.0807 0.0000
# 4 0.0000 0.0000 0.0000 33.6328 0.0000 -12.3125
# 5 -7.3089 -19.7017 6.0807 0.0000 32.6250 0.0000
# 6 0.0000 0.0000 0.0000 -12.3125 0.0000 43.3713
#
#
#
# Elastic Compliance Matrix: (Units=1/GPa)
#
#
# Indices 1 2 3 4 5 6 
#
# 1 0.020936 -0.005454 -0.005728 0.000000 0.002464 0.000000
# 2 -0.005454 0.012110 -0.005920 0.000000 0.007195 0.000000
# 3 -0.005728 -0.005920 0.023926 0.000000 -0.009318 0.000000
# 4 0.000000 0.000000 0.000000 0.033181 0.000000 0.009420
# 5 0.002464 0.007195 -0.009318 0.000000 0.037285 0.000000
# 6 0.000000 0.000000 0.000000 0.009420 0.000000 0.025731
#
#
# Mechanical properties :
#
#
# Convention : Reuss Voigt Hill
#
# Bulk Modulus (GPa) = 43.92377 53.08197 48.50287
# Shear Modulus (GPa) = 25.64616 32.03418 28.84017
#
# Velocity S-wave (km/s) = 3.57746 3.99825 3.79369
# Velocity P-wave (km/s) = 6.24368 6.91406 6.58740
#
# Compressibility (1/GPa) = 0.02276672
#
# Stress axis : x y z
#
# Youngs Moduli (GPa) = 47.76558 82.57811 41.79618
#
# Poissons Ratio (x) = 0.45037 0.23940
# Poissons Ratio (y) = 0.26050 0.24745
# Poissons Ratio (z) = 0.27360 0.48890
#
# Static dielectric constant tensor:
#      x y z
#    x 3.500720 0.000000 0.244010 
#    y 0.000000 3.825140 0.000000 
#    z 0.244010 0.000000 3.732860 
# 
# 
# High freq. dielectric constant tensor:
#      x y z
#    x 1.783960 0.000000 0.014310 
#    y 0.000000 1.793250 0.000000 
#    z 0.014310 0.000000 1.794270 
# 
# From -- ./inp_files/9647.got.cif
#   From: 2010.06.25/outbox.cif.g09.slc.cpg/sg11_5_cif.got.tgz:9647.got - 2010.06.27 23:14:04.
