data_PCOD8075029
_publ_section_title
;
Structure prediction by ZEFSAII (Michael W. Deem and Ramdas Pophale) SiO2 
 PCOD8075029
Probable space group: P 21/M
;
_chemical_formula_sum "Si O2"
_cell_formula_units_Z 32
_cell_length_a 11.860471
_cell_length_b 11.625637
_cell_length_c 11.361269
_cell_angle_alpha 90.000000
_cell_angle_beta 91.168639
_cell_angle_gamma 90.000000
_cell_volume 1566.228754
_symmetry_space_group_name_H-M "P 21/M"
_symmetry_group_IT_number 11
_symmetry_cell_setting 'monoclinic'
loop_
_space_group_symop_operation_xyz
x,y,z
-x,1/2+y,-z
-x,-y,-z
x,1/2-y,z
loop_
_atom_site_type_symbol
_atom_site_label
_atom_site_fract_x
_atom_site_fract_y
_atom_site_fract_z
Si Si1 0.184003 0.926563 0.469596
Si Si2 0.488501 0.466339 0.195465
Si Si3 0.727240 0.380130 0.779567
Si Si4 0.836966 0.523043 0.981557
Si Si5 0.963553 0.382654 0.152229
Si Si6 0.034760 0.374772 0.403470
Si Si7 0.565541 0.112590 0.441552
Si Si8 0.613011 0.874668 0.038543
O O1 0.203072 0.880428 0.339269
O O2 0.300652 0.912228 0.543920
O O3 0.079749 0.857879 0.524031
O O4 0.136890 0.057437 0.468078
O O5 0.383991 0.542887 0.238236
O O6 0.532481 0.388429 0.303527
O O7 0.588307 0.545979 0.149818
O O8 0.460138 0.390659 0.080960
O O9 0.691897 0.250000 0.810391
O O10 0.805572 0.428146 0.883929
O O11 0.940805 0.601172 0.943966
O O12 0.857633 0.455755 0.104345
O O13 0.740709 0.614265 0.001843
O O14 0.928951 0.250000 0.164429
O O15 0.003718 0.433580 0.278169
O O16 0.087354 0.250000 0.380734
O O17 0.541371 0.250000 0.483565
O O18 0.500000 0.000000 0.500000
O O19 0.588084 0.750000 0.087577
#
# Coordination Sequence:
#
# PCOD8075029 Si02
#       8
#     4   4   4   4   4   4   4   4
#     4  11  23  41  63  91 124 164 210 259 317 375
#     4  10  23  40  62  92 122 164 208 254 311 384
#     4  11  20  37  60  87 122 163 204 251 309 376
#     4  10  21  35  57  89 116 155 199 250 308 370
#     4  10  20  37  58  83 116 152 196 250 307 369
#     4  10  22  41  65  89 120 163 210 263 316 378
#     4  12  26  44  68  98 133 173 218 269 323 386
#     4  10  21  40  63  88 123 160 203 258 314 374
#
# _framework density 20.431242000000001
#
# number of rings (size 3 to 8) (size 9 to 14) (size 15 to 20)
#    0.000    1.500    2.500    2.625    1.750    1.000 
#    0.000    1.250    0.000    0.000    0.000    0.000 
#    0.000    0.000    0.000    0.000    0.000    0.000 
#
# Total GULP energy -396426.727414 kJ/mol
# GULP energy per Si atom -12388.335232 kJ/mol
# Density = 2.038474 g / cm^3
# Si number density = 20.431242 Si / 1000 Ang^3
#
#
#
# Elastic Constant Matrix: (Units=GPa)
#
#
# Indices 1 2 3 4 5 6 
#
# 1 63.5449 27.3388 19.7942 0.0000 9.0530 0.0000
# 2 27.3388 107.6304 28.6655 0.0000 9.8493 0.0000
# 3 19.7942 28.6655 75.8742 0.0000 4.6203 0.0000
# 4 0.0000 0.0000 0.0000 8.0889 0.0000 10.9829
# 5 9.0530 9.8493 4.6203 0.0000 34.6202 0.0000
# 6 0.0000 0.0000 0.0000 10.9829 0.0000 -8.3754
#
#
#
# Elastic Compliance Matrix: (Units=1/GPa)
#
#
# Indices 1 2 3 4 5 6 
#
# 1 0.018808 -0.003569 -0.003348 0.000000 -0.003456 0.000000
# 2 -0.003569 0.011216 -0.003195 0.000000 -0.001831 0.000000
# 3 -0.003348 -0.003195 0.015276 0.000000 -0.000254 0.000000
# 4 0.000000 0.000000 0.000000 0.044462 0.000000 0.058304
# 5 -0.003456 -0.001831 -0.000254 0.000000 0.030343 0.000000
# 6 0.000000 0.000000 0.000000 0.058304 0.000000 -0.042941
#
#
# Mechanical properties :
#
#
# Convention : Reuss Voigt Hill
#
# Bulk Modulus (GPa) = 39.87924 44.29407 42.08666
# Shear Modulus (GPa) = 47.28298 18.28346 32.78322
#
# Velocity S-wave (km/s) = 4.81588 2.99470 4.01005
# Velocity P-wave (km/s) = 7.10526 5.80381 6.48726
#
# Compressibility (1/GPa) = 0.02507570
#
# Stress axis : x y z
#
# Youngs Moduli (GPa) = 53.16974 89.15699 65.46424
#
# Poissons Ratio (x) = 0.31824 0.21915
# Poissons Ratio (y) = 0.18979 0.20914
# Poissons Ratio (z) = 0.17799 0.28484
#
# Static dielectric constant tensor:
#      x y z
#    x 3.690870 0.000000 0.039360 
#    y 0.000000 3.931230 0.000000 
#    z 0.039360 0.000000 3.768830 
# 
# 
# High freq. dielectric constant tensor:
#      x y z
#    x 1.794870 0.000000 0.000280 
#    y 0.000000 1.802610 0.000000 
#    z 0.000280 0.000000 1.800680 
# 
# From -- ./inp_files/34811.got.cif
#   From: 2010.06.25/outbox.cif.g09.slc.cpg/sg11_18_cif.got.tgz:34811.got - 2010.06.27 23:14:04.
