data_PCOD8075992
_publ_section_title
;
Structure prediction by ZEFSAII (Michael W. Deem and Ramdas Pophale) SiO2 
 PCOD8075992
Probable space group: P 21/M
;
_chemical_formula_sum "Si O2"
_cell_formula_units_Z 32
_cell_length_a 31.151272
_cell_length_b 8.962741
_cell_length_c 11.952102
_cell_angle_alpha 90.000000
_cell_angle_beta 29.535959
_cell_angle_gamma 90.000000
_cell_volume 1645.057754
_symmetry_space_group_name_H-M "P 21/M"
_symmetry_group_IT_number 11
_symmetry_cell_setting 'monoclinic'
loop_
_space_group_symop_operation_xyz
x,y,z
-x,1/2+y,-z
-x,-y,-z
x,1/2-y,z
loop_
_atom_site_type_symbol
_atom_site_label
_atom_site_fract_x
_atom_site_fract_y
_atom_site_fract_z
Si Si1 0.466432 0.578487 0.965923
Si Si2 0.913518 0.422308 0.823821
Si Si3 0.367815 0.080048 0.557271
Si Si4 0.216336 0.424728 0.732646
Si Si5 0.753148 0.423728 0.796621
Si Si6 0.408271 0.922851 0.686683
Si Si7 0.287154 0.074392 0.331825
Si Si8 0.114065 0.422460 0.341435
O O1 0.448271 0.750000 0.036059
O O2 0.536132 0.562061 0.709758
O O3 0.500000 0.500000 0.000000
O O4 0.380207 0.502772 0.116623
O O5 0.891171 0.250000 0.851923
O O6 0.876061 0.520724 0.807511
O O7 0.016078 0.445823 0.606648
O O8 0.867779 0.480726 0.040186
O O9 0.349600 0.250000 0.633344
O O10 0.298425 0.026869 0.622289
O O11 0.359724 0.981111 0.686031
O O12 0.196449 0.250000 0.789220
O O13 0.236361 0.468607 0.559763
O O14 0.768461 0.250000 0.738765
O O15 0.767375 0.514381 0.649728
O O16 0.824670 0.479200 0.720856
O O17 0.656161 0.452927 0.063630
O O18 0.427420 0.750000 0.627500
O O19 0.500000 0.000000 0.500000
O O20 0.301045 0.250000 0.291747
O O21 0.142374 0.250000 0.281318
#
# Coordination Sequence:
#
# PCOD8075992 Si02
#       8
#     4   4   4   4   4   4   4   4
#     4  11  21  36  56  81 114 153 196 243 289 339
#     4  10  21  37  61  93 122 147 187 239 289 346
#     4  10  21  37  56  81 114 148 189 238 286 340
#     4  10  21  38  58  84 117 152 190 235 291 347
#     4  11  24  41  60  86 117 153 198 243 288 344
#     4  11  24  39  56  82 114 149 190 236 285 339
#     4  11  23  40  59  84 116 155 200 242 290 350
#     4  10  21  39  63  90 119 154 190 232 290 350
#
# _framework density 19.452204999999999
#
# number of rings (size 3 to 8) (size 9 to 14) (size 15 to 20)
#    0.000    1.500    1.250    3.750    0.000   11.000 
#    0.000    0.625    0.000    0.000    0.000    0.000 
#    0.000    0.000    0.000    0.000    0.000    0.000 
#
# Total GULP energy -396989.468314 kJ/mol
# GULP energy per Si atom -12405.920885 kJ/mol
# Density = 1.940793 g / cm^3
# Si number density = 19.452205 Si / 1000 Ang^3
#
#
#
# Elastic Constant Matrix: (Units=GPa)
#
#
# Indices 1 2 3 4 5 6 
#
# 1 81.2976 39.8532 34.3918 0.0000 11.3540 0.0000
# 2 39.8532 101.8069 54.2745 0.0000 12.1279 0.0000
# 3 34.3918 54.2745 93.5075 0.0000 9.5986 0.0000
# 4 0.0000 0.0000 0.0000 32.7727 0.0000 0.7314
# 5 11.3540 12.1279 9.5986 0.0000 26.7958 0.0000
# 6 0.0000 0.0000 0.0000 0.7314 0.0000 37.8878
#
#
#
# Elastic Compliance Matrix: (Units=1/GPa)
#
#
# Indices 1 2 3 4 5 6 
#
# 1 0.016232 -0.004234 -0.003118 0.000000 -0.003845 0.000000
# 2 -0.004234 0.015673 -0.007263 0.000000 -0.002698 0.000000
# 3 -0.003118 -0.007263 0.016179 0.000000 -0.001187 0.000000
# 4 0.000000 0.000000 0.000000 0.030526 0.000000 -0.000589
# 5 -0.003845 -0.002698 -0.001187 0.000000 0.040595 0.000000
# 6 0.000000 0.000000 0.000000 -0.000589 0.000000 0.026405
#
#
# Mechanical properties :
#
#
# Convention : Reuss Voigt Hill
#
# Bulk Modulus (GPa) = 53.03890 59.29456 56.16673
# Shear Modulus (GPa) = 27.60529 29.36409 28.48469
#
# Velocity S-wave (km/s) = 3.77123 3.88951 3.83082
# Velocity P-wave (km/s) = 6.80355 7.12175 6.96447
#
# Compressibility (1/GPa) = 0.01885409
#
# Stress axis : x y z
#
# Youngs Moduli (GPa) = 61.60693 63.80246 61.80987
#
# Poissons Ratio (x) = 0.27014 0.19272
# Poissons Ratio (y) = 0.26084 0.44893
# Poissons Ratio (z) = 0.19209 0.46340
#
# Static dielectric constant tensor:
#      x y z
#    x 3.520350 0.000000 0.078920 
#    y 0.000000 3.649800 0.000000 
#    z 0.078920 0.000000 3.596250 
# 
# 
# High freq. dielectric constant tensor:
#      x y z
#    x 1.756450 0.000000 0.004610 
#    y 0.000000 1.768100 0.000000 
#    z 0.004610 0.000000 1.759580 
# 
# From -- ./inp_files/45148.got.cif
#   From: 2010.06.25/outbox.cif.g09.slc.cpg/sg11_23_cif.got.tgz:45148.got - 2010.06.27 23:14:04.
