data_PCOD8075722
_publ_section_title
;
Structure prediction by ZEFSAII (Michael W. Deem and Ramdas Pophale) SiO2 
 PCOD8075722
Probable space group: P 21/M
;
_chemical_formula_sum "Si O2"
_cell_formula_units_Z 32
_cell_length_a 26.282496
_cell_length_b 9.011478
_cell_length_c 20.979244
_cell_angle_alpha 90.000000
_cell_angle_beta 19.282644
_cell_angle_gamma 90.000000
_cell_volume 1640.842877
_symmetry_space_group_name_H-M "P 21/M"
_symmetry_group_IT_number 11
_symmetry_cell_setting 'monoclinic'
loop_
_space_group_symop_operation_xyz
x,y,z
-x,1/2+y,-z
-x,-y,-z
x,1/2-y,z
loop_
_atom_site_type_symbol
_atom_site_label
_atom_site_fract_x
_atom_site_fract_y
_atom_site_fract_z
Si Si1 0.904990 0.923782 0.912432
Si Si2 0.038522 0.082010 0.518668
Si Si3 0.155027 0.916848 0.890905
Si Si4 0.615099 0.919935 0.910692
Si Si5 0.182743 0.578778 0.110663
Si Si6 0.256595 0.924500 0.521816
Si Si7 0.205708 0.417064 0.708842
Si Si8 0.461870 0.921790 0.871233
O O1 0.878651 0.750000 0.950780
O O2 0.086260 0.963078 0.697822
O O3 0.825591 0.980423 0.942340
O O4 0.818535 0.001727 0.073411
O O5 0.981843 0.250000 0.576188
O O6 0.219357 0.071296 0.319026
O O7 0.945035 0.015262 0.688960
O O8 0.000000 0.000000 0.500000
O O9 0.220231 0.750000 0.818235
O O10 0.246989 0.004288 0.726905
O O11 0.976238 0.914502 0.085257
O O12 0.564383 0.750000 0.981487
O O13 0.500000 0.000000 0.000000
O O14 0.622040 0.002925 0.969833
O O15 0.148734 0.750000 0.133595
O O16 0.352320 0.559437 0.939651
O O17 0.285770 0.750000 0.490636
O O18 0.284718 0.991572 0.558620
O O19 0.375345 0.998974 0.332734
O O20 0.272362 0.250000 0.630271
O O21 0.492302 0.750000 0.850977
#
# Coordination Sequence:
#
# PCOD8075722 Si02
#       8
#     4   4   4   4   4   4   4   4
#     4  10  21  35  54  83 113 146 186 231 277 326
#     4  10  21  39  61  84 109 143 185 229 275 329
#     4   9  16  28  49  77 111 147 182 228 277 324
#     4  11  24  40  60  87 115 146 183 228 280 332
#     4  10  22  39  58  81 110 146 186 229 277 332
#     4  10  21  36  54  82 116 148 187 232 277 331
#     4   9  16  28  49  78 110 147 186 227 275 328
#     4  11  23  40  60  81 110 149 187 229 280 334
#
# _framework density 19.502172999999999
#
# number of rings (size 3 to 8) (size 9 to 14) (size 15 to 20)
#    0.000    2.000    1.250    2.250    1.750    6.500 
#    0.000    0.000    0.000    0.750    0.000    0.000 
#    0.000    0.000    0.000    0.000    0.000    0.000 
#
# Total GULP energy -396909.572946 kJ/mol
# GULP energy per Si atom -12403.424155 kJ/mol
# Density = 1.945779 g / cm^3
# Si number density = 19.502173 Si / 1000 Ang^3
#
#
#
# Elastic Constant Matrix: (Units=GPa)
#
#
# Indices 1 2 3 4 5 6 
#
# 1 102.6325 44.0028 4.9613 0.0000 8.7043 0.0000
# 2 44.0028 119.1127 15.7427 0.0000 0.1928 0.0000
# 3 4.9613 15.7427 28.4864 0.0000 -0.7814 0.0000
# 4 0.0000 0.0000 0.0000 26.8458 0.0000 6.7163
# 5 8.7043 0.1928 -0.7814 0.0000 23.0395 0.0000
# 6 0.0000 0.0000 0.0000 6.7163 0.0000 39.6473
#
#
#
# Elastic Compliance Matrix: (Units=1/GPa)
#
#
# Indices 1 2 3 4 5 6 
#
# 1 0.012029 -0.004470 0.000252 0.000000 -0.004499 0.000000
# 2 -0.004470 0.010719 -0.005106 0.000000 0.001426 0.000000
# 3 0.000252 -0.005106 0.037916 0.000000 0.001234 0.000000
# 4 0.000000 0.000000 0.000000 0.038898 0.000000 -0.006589
# 5 -0.004499 0.001426 0.001234 0.000000 0.045133 0.000000
# 6 0.000000 0.000000 0.000000 -0.006589 0.000000 0.026339
#
#
# Mechanical properties :
#
#
# Convention : Reuss Voigt Hill
#
# Bulk Modulus (GPa) = 23.80039 42.18281 32.99160
# Shear Modulus (GPa) = 24.54720 30.27485 27.41102
#
# Velocity S-wave (km/s) = 3.55165 3.94430 3.75312
# Velocity P-wave (km/s) = 5.38975 6.51307 5.97786
#
# Compressibility (1/GPa) = 0.04201612
#
# Stress axis : x y z
#
# Youngs Moduli (GPa) = 83.13048 93.29021 26.37382
#
# Poissons Ratio (x) = 0.41699 -0.00664
# Poissons Ratio (y) = 0.37158 0.13467
# Poissons Ratio (z) = -0.02093 0.47637
#
# Static dielectric constant tensor:
#      x y z
#    x 3.478710 0.000000 0.263630 
#    y 0.000000 3.703330 0.000000 
#    z 0.263630 0.000000 3.589620 
# 
# 
# High freq. dielectric constant tensor:
#      x y z
#    x 1.753510 0.000000 0.018380 
#    y 0.000000 1.771300 0.000000 
#    z 0.018380 0.000000 1.742550 
# 
# From -- ./inp_files/67038.got.cif
#   From: 2010.06.25/outbox.cif.g09.slc.cpg/sg11_34_cif.got.tgz:67038.got - 2010.06.27 23:14:04.
