data_PCOD8075680
_publ_section_title
;
Structure prediction by ZEFSAII (Michael W. Deem and Ramdas Pophale) SiO2 
 PCOD8075680
Probable space group: P 21/M
;
_chemical_formula_sum "Si O2"
_cell_formula_units_Z 28
_cell_length_a 21.703991
_cell_length_b 9.297350
_cell_length_c 22.989370
_cell_angle_alpha 90.000000
_cell_angle_beta 160.853521
_cell_angle_gamma 90.000000
_cell_volume 1521.524555
_symmetry_space_group_name_H-M "P 21/M"
_symmetry_group_IT_number 11
_symmetry_cell_setting 'monoclinic'
loop_
_space_group_symop_operation_xyz
x,y,z
-x,1/2+y,-z
-x,-y,-z
x,1/2-y,z
loop_
_atom_site_type_symbol
_atom_site_label
_atom_site_fract_x
_atom_site_fract_y
_atom_site_fract_z
Si Si1 0.809517 0.918143 0.316801
Si Si2 0.719160 0.918774 0.001877
Si Si3 0.155051 0.918201 0.999666
Si Si4 0.071385 0.416767 0.699510
Si Si5 0.355654 0.582508 0.295481
Si Si6 0.677179 0.418568 0.299836
Si Si7 0.239415 0.416987 0.300987
O O1 0.824286 0.750000 0.345874
O O2 0.779613 0.939381 0.220683
O O3 0.651604 0.994665 0.215940
O O4 0.000000 0.000000 0.500000
O O5 0.754669 0.750000 0.026442
O O6 0.841433 0.985337 0.164286
O O7 0.500244 0.950451 0.817925
O O8 0.778321 0.996022 0.996399
O O9 0.175864 0.750000 0.005440
O O10 0.285856 0.966174 0.170028
O O11 0.940012 0.960795 0.820943
O O12 0.045379 0.250000 0.688608
O O13 0.863547 0.478053 0.499268
O O14 0.318064 0.750000 0.271793
O O15 0.234891 0.501272 0.236355
O O16 0.575681 0.543141 0.496955
O O17 0.695393 0.250000 0.300784
O O18 0.233484 0.250000 0.279400
#
# Coordination Sequence:
#
# PCOD8075680 Si02
#       7
#     4   4   4   4   4   4   4
#     4   9  16  29  51  75  98 125 158 200 250 296
#     4  10  21  35  50  69  95 132 171 199 233 286
#     4  10  21  35  49  70 102 132 159 198 242 281
#     4   8  16  32  50  69  96 125 156 200 246 285
#     4   9  18  33  53  76 101 127 156 196 243 284
#     4   9  18  33  51  71  97 126 159 203 248 288
#     4   9  18  33  53  76 100 126 158 196 239 286
#
# _framework density 18.402595000000002
#
# number of rings (size 3 to 8) (size 9 to 14) (size 15 to 20)
#    0.000    2.857    0.000    1.714    0.000    3.429 
#    0.000    3.571    0.000    0.000    0.000    0.000 
#    0.000    0.000    0.000    0.000    0.000    0.000 
#
# Total GULP energy -347066.152924 kJ/mol
# GULP energy per Si atom -12395.219747 kJ/mol
# Density = 1.836071 g / cm^3
# Si number density = 18.402595 Si / 1000 Ang^3
#
#
#
# Elastic Constant Matrix: (Units=GPa)
#
#
# Indices 1 2 3 4 5 6 
#
# 1 168.5938 63.7876 77.9142 0.0000 8.2537 0.0000
# 2 63.7876 56.8999 36.3211 0.0000 6.6840 0.0000
# 3 77.9142 36.3211 101.4744 0.0000 3.4587 0.0000
# 4 0.0000 0.0000 0.0000 14.5302 0.0000 4.1211
# 5 8.2537 6.6840 3.4587 0.0000 26.3580 0.0000
# 6 0.0000 0.0000 0.0000 4.1211 0.0000 39.0889
#
#
#
# Elastic Compliance Matrix: (Units=1/GPa)
#
#
# Indices 1 2 3 4 5 6 
#
# 1 0.012601 -0.010234 -0.005993 0.000000 -0.000564 0.000000
# 2 -0.010234 0.031694 -0.003336 0.000000 -0.004395 0.000000
# 3 -0.005993 -0.003336 0.015627 0.000000 0.000672 0.000000
# 4 0.000000 0.000000 0.000000 0.070944 0.000000 -0.007480
# 5 -0.000564 -0.004395 0.000672 0.000000 0.039142 0.000000
# 6 0.000000 0.000000 0.000000 -0.007480 0.000000 0.026371
#
#
# Mechanical properties :
#
#
# Convention : Reuss Voigt Hill
#
# Bulk Modulus (GPa) = 48.08812 75.89042 61.98927
# Shear Modulus (GPa) = 20.62392 25.92511 23.27451
#
# Velocity S-wave (km/s) = 3.35133 3.75744 3.56018
# Velocity P-wave (km/s) = 6.41585 7.75583 7.11744
#
# Compressibility (1/GPa) = 0.02079516
#
# Stress axis : x y z
#
# Youngs Moduli (GPa) = 79.36094 31.55176 63.99093
#
# Poissons Ratio (x) = 0.32291 0.38347
# Poissons Ratio (y) = 0.81221 0.21349
# Poissons Ratio (z) = 0.47558 0.10527
#
# Static dielectric constant tensor:
#      x y z
#    x 3.545560 0.000000 -0.080160 
#    y 0.000000 3.388760 0.000000 
#    z -0.080160 0.000000 3.619600 
# 
# 
# High freq. dielectric constant tensor:
#      x y z
#    x 1.712160 0.000000 -0.000240 
#    y 0.000000 1.695190 0.000000 
#    z -0.000240 0.000000 1.714800 
# 
# From -- ./inp_files/69828.got.cif
#   From: 2010.06.25/outbox.cif.g09.slc.cpg/sg11_35_cif.got.tgz:69828.got - 2010.06.27 23:14:04.
