data_PCOD8075050
_publ_section_title
;
Structure prediction by ZEFSAII (Michael W. Deem and Ramdas Pophale) SiO2 
 PCOD8075050
Probable space group: P 21/M
;
_chemical_formula_sum "Si O2"
_cell_formula_units_Z 32
_cell_length_a 11.909498
_cell_length_b 9.124589
_cell_length_c 27.489740
_cell_angle_alpha 90.000000
_cell_angle_beta 33.632406
_cell_angle_gamma 90.000000
_cell_volume 1654.548124
_symmetry_space_group_name_H-M "P 21/M"
_symmetry_group_IT_number 11
_symmetry_cell_setting 'monoclinic'
loop_
_space_group_symop_operation_xyz
x,y,z
-x,1/2+y,-z
-x,-y,-z
x,1/2-y,z
loop_
_atom_site_type_symbol
_atom_site_label
_atom_site_fract_x
_atom_site_fract_y
_atom_site_fract_z
Si Si1 0.306016 0.577076 0.625477
Si Si2 0.878333 0.580840 0.085562
Si Si3 0.583619 0.423922 0.753557
Si Si4 0.095651 0.415901 0.180093
Si Si5 0.062813 0.424699 0.427419
Si Si6 0.288492 0.921322 0.520782
Si Si7 0.584085 0.917701 0.851312
Si Si8 0.802995 0.080750 0.951099
O O1 0.334376 0.750000 0.618137
O O2 0.510373 0.501983 0.570989
O O3 0.249421 0.530668 0.590634
O O4 0.126051 0.523224 0.725730
O O5 0.886829 0.750000 0.068265
O O6 0.647694 0.527441 0.173360
O O7 0.983963 0.550724 0.099253
O O8 0.000000 0.500000 0.000000
O O9 0.615797 0.250000 0.737255
O O10 0.720792 0.507929 0.665010
O O11 0.643045 0.477741 0.785699
O O12 0.079291 0.250000 0.167602
O O13 0.231496 0.427105 0.178536
O O14 0.198492 0.506695 0.100508
O O15 0.079841 0.250000 0.427717
O O16 0.000000 0.500000 0.500000
O O17 0.901492 0.467514 0.443752
O O18 0.329701 0.750000 0.501661
O O19 0.553797 0.750000 0.843956
O O20 0.379673 0.980181 0.949787
O O21 0.760459 0.250000 0.956910
#
# Coordination Sequence:
#
# PCOD8075050 Si02
#       8
#     4   4   4   4   4   4   4   4
#     4   9  18  34  56  83 112 143 184 232 283 341
#     4  10  21  38  59  84 114 148 192 242 286 338
#     4  11  23  38  61  91 118 149 193 242 290 346
#     4  10  21  35  53  81 116 151 189 233 284 342
#     4  11  24  42  62  85 118 155 193 240 291 346
#     4   9  19  37  60  82 108 145 186 232 285 336
#     4  10  20  37  59  81 113 154 193 234 283 340
#     4  10  21  36  55  80 112 151 191 234 285 337
#
# _framework density 19.340627999999999
#
# number of rings (size 3 to 8) (size 9 to 14) (size 15 to 20)
#    0.000    2.000    1.250    1.875    0.000    6.500 
#    0.000    6.250    0.000    0.000    0.000    0.000 
#    0.000    0.000    0.000    0.000    0.000    0.000 
#
# Total GULP energy -396881.685645 kJ/mol
# GULP energy per Si atom -12402.552676 kJ/mol
# Density = 1.929661 g / cm^3
# Si number density = 19.340628 Si / 1000 Ang^3
#
#
#
# Elastic Constant Matrix: (Units=GPa)
#
#
# Indices 1 2 3 4 5 6 
#
# 1 38.5055 23.8320 37.3672 0.0000 -2.3453 0.0000
# 2 23.8320 56.1516 49.9390 0.0000 2.5133 0.0000
# 3 37.3672 49.9390 147.1383 0.0000 2.2923 0.0000
# 4 0.0000 0.0000 0.0000 36.4000 0.0000 1.2972
# 5 -2.3453 2.5133 2.2923 0.0000 33.7068 0.0000
# 6 0.0000 0.0000 0.0000 1.2972 0.0000 27.9260
#
#
#
# Elastic Compliance Matrix: (Units=1/GPa)
#
#
# Indices 1 2 3 4 5 6 
#
# 1 0.039221 -0.011332 -0.006177 0.000000 0.003994 0.000000
# 2 -0.011332 0.028841 -0.006872 0.000000 -0.002472 0.000000
# 3 -0.006177 -0.006872 0.010708 0.000000 -0.000646 0.000000
# 4 0.000000 0.000000 0.000000 0.027518 0.000000 -0.001278
# 5 0.003994 -0.002472 -0.000646 0.000000 0.030174 0.000000
# 6 0.000000 0.000000 0.000000 -0.001278 0.000000 0.035868
#
#
# Mechanical properties :
#
#
# Convention : Reuss Voigt Hill
#
# Bulk Modulus (GPa) = 33.32451 51.56353 42.44402
# Shear Modulus (GPa) = 21.63616 28.31702 24.97659
#
# Velocity S-wave (km/s) = 3.34831 3.83053 3.59751
# Velocity P-wave (km/s) = 5.67591 6.80313 6.26492
#
# Compressibility (1/GPa) = 0.03000795
#
# Stress axis : x y z
#
# Youngs Moduli (GPa) = 25.49632 34.67286 93.39204
#
# Poissons Ratio (x) = 0.39290 0.57687
# Poissons Ratio (y) = 0.28892 0.64182
# Poissons Ratio (z) = 0.15749 0.23828
#
# Static dielectric constant tensor:
#      x y z
#    x 3.521700 0.000000 -0.125030 
#    y 0.000000 3.463990 0.000000 
#    z -0.125030 0.000000 3.677720 
# 
# 
# High freq. dielectric constant tensor:
#      x y z
#    x 1.750590 0.000000 -0.007230 
#    y 0.000000 1.745620 0.000000 
#    z -0.007230 0.000000 1.765110 
# 
# From -- ./inp_files/73113.got.cif
#   From: 2010.06.25/outbox.cif.g09.slc.cpg/sg11_37_cif.got.tgz:73113.got - 2010.06.27 23:14:04.
