data_PCOD8075993
_publ_section_title
;
Structure prediction by ZEFSAII (Michael W. Deem and Ramdas Pophale) SiO2 
 PCOD8075993
Probable space group: P 21/M
;
_chemical_formula_sum "Si O2"
_cell_formula_units_Z 20
_cell_length_a 7.433073
_cell_length_b 18.420382
_cell_length_c 9.114424
_cell_angle_alpha 90.000000
_cell_angle_beta 47.964250
_cell_angle_gamma 90.000000
_cell_volume 926.884397
_symmetry_space_group_name_H-M "P 21/M"
_symmetry_group_IT_number 11
_symmetry_cell_setting 'monoclinic'
loop_
_space_group_symop_operation_xyz
x,y,z
-x,1/2+y,-z
-x,-y,-z
x,1/2-y,z
loop_
_atom_site_type_symbol
_atom_site_label
_atom_site_fract_x
_atom_site_fract_y
_atom_site_fract_z
Si Si1 0.218383 0.832539 0.341696
Si Si2 0.772383 0.833171 0.381385
Si Si3 0.630273 0.538111 0.629525
Si Si4 0.307718 0.412088 0.869681
Si Si5 0.974571 0.933985 0.693761
O O1 0.289252 0.750000 0.333003
O O2 0.459522 0.877842 0.175423
O O3 0.042041 0.841374 0.299281
O O4 0.092121 0.862166 0.558350
O O5 0.682261 0.750000 0.440989
O O6 0.585588 0.883406 0.577566
O O7 0.781023 0.858627 0.209217
O O8 0.383248 0.491496 0.765400
O O9 0.729171 0.545310 0.740969
O O10 0.835581 0.499763 0.417309
O O11 0.088798 0.419649 0.102867
#
# Coordination Sequence:
#
# PCOD8075993 Si02
#       5
#     4   4   4   4   4
#     4   9  20  38  55  79 118 153 184 229 280 331
#     4  10  21  37  56  81 115 150 185 227 278 334
#     4   9  19  37  57  82 113 146 183 229 280 331
#     4  11  20  35  62  86 108 145 191 233 276 326
#     4   9  19  35  60  86 110 145 189 231 277 329
#
# _framework density 21.577665
#
# number of rings (size 3 to 8) (size 9 to 14) (size 15 to 20)
#    0.000    2.400    0.000    3.000    0.000    2.400 
#    0.000    8.000    0.000   15.600    0.000    0.000 
#    0.000    0.000    0.000    0.000    0.000    0.000 
#
# Total GULP energy -248023.415565 kJ/mol
# GULP energy per Si atom -12401.170778 kJ/mol
# Density = 2.152855 g / cm^3
# Si number density = 21.577665 Si / 1000 Ang^3
#
#
#
# Elastic Constant Matrix: (Units=GPa)
#
#
# Indices 1 2 3 4 5 6 
#
# 1 42.9909 13.8245 23.7406 0.0000 10.1945 0.0000
# 2 13.8245 127.2022 43.2179 0.0000 6.9533 0.0000
# 3 23.7406 43.2179 113.3944 0.0000 7.3793 0.0000
# 4 0.0000 0.0000 0.0000 15.8957 0.0000 6.3493
# 5 10.1945 6.9533 7.3793 0.0000 19.5188 0.0000
# 6 0.0000 0.0000 0.0000 6.3493 0.0000 29.1370
#
#
#
# Elastic Compliance Matrix: (Units=1/GPa)
#
#
# Indices 1 2 3 4 5 6 
#
# 1 0.029399 -0.000775 -0.005002 0.000000 -0.013188 0.000000
# 2 -0.000775 0.009125 -0.003209 0.000000 -0.001633 0.000000
# 3 -0.005002 -0.003209 0.011118 0.000000 -0.000448 0.000000
# 4 0.000000 0.000000 0.000000 0.068908 0.000000 -0.015016
# 5 -0.013188 -0.001633 -0.000448 0.000000 0.058872 0.000000
# 6 0.000000 0.000000 0.000000 -0.015016 0.000000 0.037593
#
#
# Mechanical properties :
#
#
# Convention : Reuss Voigt Hill
#
# Bulk Modulus (GPa) = 31.57465 49.46152 40.51809
# Shear Modulus (GPa) = 20.53018 26.43059 23.48039
#
# Velocity S-wave (km/s) = 3.08791 3.50366 3.30234
# Velocity P-wave (km/s) = 5.23244 6.27215 5.77574
#
# Compressibility (1/GPa) = 0.03167097
#
# Stress axis : x y z
#
# Youngs Moduli (GPa) = 34.01458 109.58418 89.94203
#
# Poissons Ratio (x) = 0.08492 0.44985
# Poissons Ratio (y) = 0.02636 0.28867
# Poissons Ratio (z) = 0.17012 0.35171
#
# Static dielectric constant tensor:
#      x y z
#    x 3.886360 0.000000 0.096350 
#    y 0.000000 4.236390 0.000000 
#    z 0.096350 0.000000 3.431950 
# 
# 
# High freq. dielectric constant tensor:
#      x y z
#    x 1.849720 0.000000 0.014560 
#    y 0.000000 1.856900 0.000000 
#    z 0.014560 0.000000 1.813450 
# 
# From -- ./inp_files/2284.got.cif
#   From: 2010.06.25/outbox.cif.g09.slc.cpg/sg11_2_cif.got.tgz:2284.got - 2010.06.27 23:14:04.
