data_PCOD8075861
_publ_section_title
;
Structure prediction by ZEFSAII (Michael W. Deem and Ramdas Pophale) SiO2 
 PCOD8075861
Probable space group: P 21/M
;
_chemical_formula_sum "Si O2"
_cell_formula_units_Z 28
_cell_length_a 31.038363
_cell_length_b 8.799421
_cell_length_c 31.044563
_cell_angle_alpha 90.000000
_cell_angle_beta 9.568617
_cell_angle_gamma 90.000000
_cell_volume 1409.432715
_symmetry_space_group_name_H-M "P 21/M"
_symmetry_group_IT_number 11
_symmetry_cell_setting 'monoclinic'
loop_
_space_group_symop_operation_xyz
x,y,z
-x,1/2+y,-z
-x,-y,-z
x,1/2-y,z
loop_
_atom_site_type_symbol
_atom_site_label
_atom_site_fract_x
_atom_site_fract_y
_atom_site_fract_z
Si Si1 0.612791 0.426114 0.122156
Si Si2 0.239183 0.571274 0.739484
Si Si3 0.537160 0.427615 0.009436
Si Si4 0.908397 0.070136 0.398866
Si Si5 0.811509 0.071775 0.310310
Si Si6 0.066743 0.070932 0.532914
Si Si7 0.332425 0.925520 0.830668
O O1 0.603260 0.250000 0.118237
O O2 0.352324 0.505417 0.364015
O O3 0.641936 0.447894 0.143991
O O4 0.852863 0.503694 0.862586
O O5 0.500000 0.500000 0.500000
O O6 0.243340 0.750000 0.743494
O O7 0.213678 0.530095 0.714732
O O8 0.000000 0.500000 0.000000
O O9 0.516901 0.250000 0.022745
O O10 0.812836 0.476227 0.756729
O O11 0.500000 0.500000 0.000000
O O12 0.314083 0.483114 0.261759
O O13 0.908323 0.250000 0.394686
O O14 0.933010 0.024013 0.423949
O O15 0.815379 0.250000 0.314367
O O16 0.572653 0.002501 0.570970
O O17 0.072346 0.002590 0.071357
O O18 0.072732 0.250000 0.537585
O O19 0.325711 0.750000 0.824266
#
# Coordination Sequence:
#
# PCOD8075861 Si02
#       7
#     4   4   4   4   4   4   4
#     4  11  24  43  64  88 123 164 201 244 301 366
#     4  11  24  41  62  90 122 160 203 248 301 359
#     4  10  21  36  57  83 112 150 195 240 291 349
#     4  12  25  40  63  95 123 155 204 257 302 350
#     4  11  24  41  62  90 125 160 197 248 309 359
#     4  10  21  38  58  82 115 157 196 235 294 360
#     4  11  24  41  64  92 120 158 207 248 293 359
#
# _framework density 19.866149
#
# number of rings (size 3 to 8) (size 9 to 14) (size 15 to 20)
#    0.000    1.143    0.000    6.000    0.000   13.714 
#    0.000    0.000    0.000    0.000    0.000    0.000 
#    0.000    0.000    0.000    0.000    0.000    0.000 
#
# Total GULP energy -347377.745664 kJ/mol
# GULP energy per Si atom -12406.348059 kJ/mol
# Density = 1.982093 g / cm^3
# Si number density = 19.866149 Si / 1000 Ang^3
#
#
#
# Elastic Constant Matrix: (Units=GPa)
#
#
# Indices 1 2 3 4 5 6 
#
# 1 109.7087 82.2479 52.4155 0.0000 4.4230 0.0000
# 2 82.2479 125.5821 69.9065 0.0000 3.4175 0.0000
# 3 52.4155 69.9065 168.1441 0.0000 8.2057 0.0000
# 4 0.0000 0.0000 0.0000 36.4895 0.0000 -0.0109
# 5 4.4230 3.4175 8.2057 0.0000 42.5141 0.0000
# 6 0.0000 0.0000 0.0000 -0.0109 0.0000 40.6744
#
#
#
# Elastic Compliance Matrix: (Units=1/GPa)
#
#
# Indices 1 2 3 4 5 6 
#
# 1 0.018044 -0.011302 -0.000887 0.000000 -0.000797 0.000000
# 2 -0.011302 0.017440 -0.003752 0.000000 0.000498 0.000000
# 3 -0.000887 -0.003752 0.007838 0.000000 -0.001119 0.000000
# 4 0.000000 0.000000 0.000000 0.027405 0.000000 0.000007
# 5 -0.000797 0.000498 -0.001119 0.000000 0.023781 0.000000
# 6 0.000000 0.000000 0.000000 0.000007 0.000000 0.024585
#
#
# Mechanical properties :
#
#
# Convention : Reuss Voigt Hill
#
# Bulk Modulus (GPa) = 87.41057 90.28610 88.84833
# Shear Modulus (GPa) = 32.30191 37.19326 34.74758
#
# Velocity S-wave (km/s) = 4.03672 4.33158 4.18674
# Velocity P-wave (km/s) = 8.11308 8.40016 8.25786
#
# Compressibility (1/GPa) = 0.01144026
#
# Stress axis : x y z
#
# Youngs Moduli (GPa) = 55.41920 57.33904 127.57968
#
# Poissons Ratio (x) = 0.64806 0.11317
# Poissons Ratio (y) = 0.62637 0.47866
# Poissons Ratio (z) = 0.04916 0.21513
#
# Static dielectric constant tensor:
#      x y z
#    x 3.797020 0.000000 0.052870 
#    y 0.000000 3.794340 0.000000 
#    z 0.052870 0.000000 4.032190 
# 
# 
# High freq. dielectric constant tensor:
#      x y z
#    x 1.795470 0.000000 -0.000310 
#    y 0.000000 1.784800 0.000000 
#    z -0.000310 0.000000 1.801140 
# 
# From -- ./inp_files/73850.got.cif
#   From: 2010.06.25/outbox.cif.g09.slc.cpg/sg11_37_cif.got.tgz:73850.got - 2010.06.27 23:14:04.
