data_PCOD8075043
_publ_section_title
;
Structure prediction by ZEFSAII (Michael W. Deem and Ramdas Pophale) SiO2 
 PCOD8075043
Probable space group: P 21/M
;
_chemical_formula_sum "Si O2"
_cell_formula_units_Z 28
_cell_length_a 12.942274
_cell_length_b 13.673909
_cell_length_c 7.641131
_cell_angle_alpha 90.000000
_cell_angle_beta 68.105986
_cell_angle_gamma 90.000000
_cell_volume 1254.730618
_symmetry_space_group_name_H-M "P 21/M"
_symmetry_group_IT_number 11
_symmetry_cell_setting 'monoclinic'
loop_
_space_group_symop_operation_xyz
x,y,z
-x,1/2+y,-z
-x,-y,-z
x,1/2-y,z
loop_
_atom_site_type_symbol
_atom_site_label
_atom_site_fract_x
_atom_site_fract_y
_atom_site_fract_z
Si Si1 0.052129 0.051295 0.214030
Si Si2 0.420203 0.141700 0.785236
Si Si3 0.703974 0.554707 0.827766
Si Si4 0.716183 0.950293 0.419709
Si Si5 0.062424 0.362245 0.827142
Si Si6 0.648128 0.145255 0.817775
Si Si7 0.827113 0.357839 0.422331
O O1 0.162875 0.061687 0.258314
O O2 0.952750 0.105520 0.380107
O O3 0.072484 0.108612 0.022462
O O4 0.025993 0.936060 0.205354
O O5 0.396524 0.250000 0.728904
O O6 0.380805 0.067110 0.660501
O O7 0.550867 0.127010 0.736758
O O8 0.354013 0.133452 0.011975
O O9 0.667258 0.562183 0.647340
O O10 0.658466 0.449720 0.934943
O O11 0.815124 0.872192 0.333261
O O12 0.764591 0.059241 0.346613
O O13 0.021657 0.250000 0.831446
O O14 0.627900 0.250000 0.928951
O O15 0.766041 0.150374 0.645387
O O16 0.826900 0.250000 0.330071
#
# Coordination Sequence:
#
# PCOD8075043 Si02
#       7
#     4   4   4   4   4   4   4
#     4  10  21  36  59  91 123 160 202 250 310 362
#     4  11  23  42  64  88 125 164 203 257 307 357
#     4  11  23  40  64  94 124 158 204 256 306 364
#     4  10  22  38  62  93 121 160 209 248 306 369
#     4  10  20  37  58  86 124 163 203 248 303 369
#     4   9  21  41  64  90 123 163 204 251 308 364
#     4   9  19  37  60  88 123 160 201 249 302 363
#
# _framework density 22.315546000000001
#
# number of rings (size 3 to 8) (size 9 to 14) (size 15 to 20)
#    0.000    2.000    1.429    1.286    0.000    9.714 
#    0.000    3.571    0.000    6.000    0.000    0.000 
#    0.000    0.000    0.000    0.000    0.000    0.000 
#
# Total GULP energy -346988.757365 kJ/mol
# GULP energy per Si atom -12392.455620 kJ/mol
# Density = 2.226476 g / cm^3
# Si number density = 22.315546 Si / 1000 Ang^3
#
#
#
# Elastic Constant Matrix: (Units=GPa)
#
#
# Indices 1 2 3 4 5 6 
#
# 1 70.5209 29.6041 23.7000 0.0000 -0.2766 0.0000
# 2 29.6041 140.6366 8.4601 0.0000 -0.2581 0.0000
# 3 23.7000 8.4601 71.2244 0.0000 2.8958 0.0000
# 4 0.0000 0.0000 0.0000 20.7310 0.0000 -5.2619
# 5 -0.2766 -0.2581 2.8958 0.0000 17.8905 0.0000
# 6 0.0000 0.0000 0.0000 -5.2619 0.0000 20.1590
#
#
#
# Elastic Compliance Matrix: (Units=1/GPa)
#
#
# Indices 1 2 3 4 5 6 
#
# 1 0.017414 -0.003336 -0.005443 0.000000 0.001102 0.000000
# 2 -0.003336 0.007802 0.000182 0.000000 0.000031 0.000000
# 3 -0.005443 0.000182 0.015938 0.000000 -0.002661 0.000000
# 4 0.000000 0.000000 0.000000 0.051659 0.000000 0.013484
# 5 0.001102 0.000031 -0.002661 0.000000 0.056344 0.000000
# 6 0.000000 0.000000 0.000000 0.013484 0.000000 0.053125
#
#
# Mechanical properties :
#
#
# Convention : Reuss Voigt Hill
#
# Bulk Modulus (GPa) = 41.73693 45.10113 43.41903
# Shear Modulus (GPa) = 21.98152 26.46396 24.22274
#
# Velocity S-wave (km/s) = 3.14193 3.44742 3.29821
# Velocity P-wave (km/s) = 5.64853 6.00839 5.83124
#
# Compressibility (1/GPa) = 0.02395960
#
# Stress axis : x y z
#
# Youngs Moduli (GPa) = 57.42399 128.17376 62.74347
#
# Poissons Ratio (x) = 0.42762 0.34152
# Poissons Ratio (y) = 0.19158 -0.01143
# Poissons Ratio (z) = 0.31257 -0.02335
#
# Static dielectric constant tensor:
#      x y z
#    x 3.870740 0.000000 -0.271250 
#    y 0.000000 4.597880 0.000000 
#    z -0.271250 0.000000 3.710960 
# 
# 
# High freq. dielectric constant tensor:
#      x y z
#    x 1.869290 0.000000 -0.023290 
#    y 0.000000 1.893060 0.000000 
#    z -0.023290 0.000000 1.851460 
# 
# From -- ./inp_files/17708.got.cif
#   From: 2010.06.25/outbox.cif.g09.slc.cpg/sg11_9_cif.got.tgz:17708.got - 2010.06.27 23:14:04.
