data_PCOD8075035
_publ_section_title
;
Structure prediction by ZEFSAII (Michael W. Deem and Ramdas Pophale) SiO2 
 PCOD8075035
Probable space group: P 21/M
;
_chemical_formula_sum "Si O2"
_cell_formula_units_Z 32
_cell_length_a 22.610802
_cell_length_b 12.000224
_cell_length_c 16.031788
_cell_angle_alpha 90.000000
_cell_angle_beta 21.808057
_cell_angle_gamma 90.000000
_cell_volume 1616.010673
_symmetry_space_group_name_H-M "P 21/M"
_symmetry_group_IT_number 11
_symmetry_cell_setting 'monoclinic'
loop_
_space_group_symop_operation_xyz
x,y,z
-x,1/2+y,-z
-x,-y,-z
x,1/2-y,z
loop_
_atom_site_type_symbol
_atom_site_label
_atom_site_fract_x
_atom_site_fract_y
_atom_site_fract_z
Si Si1 0.996194 0.124899 0.720096
Si Si2 0.532553 0.374684 0.558804
Si Si3 0.211204 0.564047 0.645801
Si Si4 0.700301 0.488306 0.652124
Si Si5 0.920720 0.379360 0.630314
Si Si6 0.872423 0.871296 0.133097
Si Si7 0.389198 0.625942 0.067427
Si Si8 0.733990 0.490715 0.166931
O O1 0.998288 0.250000 0.751767
O O2 0.176174 0.081855 0.479738
O O3 0.914580 0.118594 0.737390
O O4 0.896696 0.050043 0.913816
O O5 0.466719 0.250000 0.645921
O O6 0.630268 0.396060 0.515211
O O7 0.643003 0.390283 0.332409
O O8 0.380382 0.456343 0.753677
O O9 0.241685 0.572211 0.507577
O O10 0.163310 0.438992 0.735687
O O11 0.060759 0.639292 0.868089
O O12 0.688042 0.397555 0.741131
O O13 0.528831 0.541949 0.860855
O O14 0.988254 0.250000 0.516000
O O15 0.742444 0.387012 0.831087
O O16 0.000000 0.500000 0.500000
O O17 0.803352 0.750000 0.241187
O O18 0.776759 0.918574 0.180151
O O19 0.459472 0.750000 0.977209
#
# Coordination Sequence:
#
# PCOD8075035 Si02
#       8
#     4   4   4   4   4   4   4   4
#     4  11  22  38  64  90 116 154 202 253 303 363
#     4  10  21  38  58  81 121 162 194 242 298 357
#     4  10  22  37  56  89 116 158 198 243 293 364
#     4  11  22  41  62  87 124 153 209 251 306 376
#     4  10  21  41  65  91 121 157 201 252 312 367
#     4  10  20  37  58  84 121 156 196 246 296 352
#     4  10  23  41  63  88 121 161 201 260 317 367
#     4  10  21  38  58  87 117 151 206 244 297 354
#
# _framework density 19.801848
#
# number of rings (size 3 to 8) (size 9 to 14) (size 15 to 20)
#    0.000    1.750    2.500    1.500    1.750    2.000 
#    0.000    1.875    0.000    0.000    0.000    0.000 
#    0.000    0.000    0.000    0.000    0.000    0.000 
#
# Total GULP energy -396618.656939 kJ/mol
# GULP energy per Si atom -12394.333029 kJ/mol
# Density = 1.975678 g / cm^3
# Si number density = 19.801848 Si / 1000 Ang^3
#
#
#
# Elastic Constant Matrix: (Units=GPa)
#
#
# Indices 1 2 3 4 5 6 
#
# 1 81.0911 4.9381 13.4816 0.0000 -11.6914 0.0000
# 2 4.9381 101.8630 10.3898 0.0000 0.1024 0.0000
# 3 13.4816 10.3898 63.1010 0.0000 -6.9102 0.0000
# 4 0.0000 0.0000 0.0000 6.0358 0.0000 -0.0149
# 5 -11.6914 0.1024 -6.9102 0.0000 35.2302 0.0000
# 6 0.0000 0.0000 0.0000 -0.0149 0.0000 20.0044
#
#
#
# Elastic Compliance Matrix: (Units=1/GPa)
#
#
# Indices 1 2 3 4 5 6 
#
# 1 0.013318 -0.000411 -0.002344 0.000000 0.003961 0.000000
# 2 -0.000411 0.010002 -0.001612 0.000000 -0.000481 0.000000
# 3 -0.002344 -0.001612 0.016892 0.000000 0.002540 0.000000
# 4 0.000000 0.000000 0.000000 0.165679 0.000000 0.000123
# 5 0.003961 -0.000481 0.002540 0.000000 0.030199 0.000000
# 6 0.000000 0.000000 0.000000 0.000123 0.000000 0.049989
#
#
# Mechanical properties :
#
#
# Convention : Reuss Voigt Hill
#
# Bulk Modulus (GPa) = 31.76744 33.74156 32.75450
# Shear Modulus (GPa) = 16.37713 26.73713 21.55713
#
# Velocity S-wave (km/s) = 2.87897 3.67854 3.30304
# Velocity P-wave (km/s) = 5.20853 5.92611 5.57887
#
# Compressibility (1/GPa) = 0.03147877
#
# Stress axis : x y z
#
# Youngs Moduli (GPa) = 75.08875 99.98104 59.19977
#
# Poissons Ratio (x) = 0.04104 0.13876
# Poissons Ratio (y) = 0.03082 0.09542
# Poissons Ratio (z) = 0.17600 0.16116
#
# Static dielectric constant tensor:
#      x y z
#    x 3.606460 0.000000 -0.168410 
#    y 0.000000 3.871240 0.000000 
#    z -0.168410 0.000000 3.455790 
# 
# 
# High freq. dielectric constant tensor:
#      x y z
#    x 1.780980 0.000000 -0.019270 
#    y 0.000000 1.777790 0.000000 
#    z -0.019270 0.000000 1.758020 
# 
# From -- ./inp_files/61988.got.cif
#   From: 2010.06.25/outbox.cif.g09.slc.cpg/sg11_31_cif.got.tgz:61988.got - 2010.06.27 23:14:04.
