data_PCOD8075844
_publ_section_title
;
Structure prediction by ZEFSAII (Michael W. Deem and Ramdas Pophale) SiO2 
 PCOD8075844
Probable space group: P 21/M
;
_chemical_formula_sum "Si O2"
_cell_formula_units_Z 28
_cell_length_a 23.198016
_cell_length_b 8.793514
_cell_length_c 20.164424
_cell_angle_alpha 90.000000
_cell_angle_beta 20.315615
_cell_angle_gamma 90.000000
_cell_volume 1428.130481
_symmetry_space_group_name_H-M "P 21/M"
_symmetry_group_IT_number 11
_symmetry_cell_setting 'monoclinic'
loop_
_space_group_symop_operation_xyz
x,y,z
-x,1/2+y,-z
-x,-y,-z
x,1/2-y,z
loop_
_atom_site_type_symbol
_atom_site_label
_atom_site_fract_x
_atom_site_fract_y
_atom_site_fract_z
Si Si1 0.256073 0.929957 0.087105
Si Si2 0.320707 0.425793 0.882392
Si Si3 0.468202 0.068370 0.105551
Si Si4 0.002136 0.581061 0.194764
Si Si5 0.126587 0.424462 0.813508
Si Si6 0.537970 0.426567 0.528647
Si Si7 0.884457 0.924112 0.462018
O O1 0.248336 0.750000 0.094189
O O2 0.062507 0.992776 0.298134
O O3 0.375624 0.987452 0.017558
O O4 0.347429 0.984366 0.921725
O O5 0.359798 0.250000 0.852956
O O6 0.433898 0.496200 0.701953
O O7 0.134926 0.447593 0.056611
O O8 0.465378 0.250000 0.106940
O O9 0.287042 0.002891 0.324717
O O10 0.500000 0.000000 0.000000
O O11 0.082851 0.750000 0.116969
O O12 0.921386 0.570119 0.210915
O O13 0.872753 0.556356 0.394781
O O14 0.164913 0.250000 0.793673
O O15 0.275068 0.540324 0.656850
O O16 0.000000 0.500000 0.000000
O O17 0.500000 0.500000 0.500000
O O18 0.499784 0.250000 0.563594
O O19 0.883050 0.750000 0.485312
#
# Coordination Sequence:
#
# PCOD8075844 Si02
#       7
#     4   4   4   4   4   4   4
#     4   9  19  36  59  82 109 150 193 230 280 346
#     4  10  21  36  56  83 113 143 180 236 294 334
#     4  10  21  36  57  83 114 149 186 234 285 340
#     4   9  19  36  58  81 106 143 189 230 277 343
#     4  11  23  37  57  82 111 149 191 237 289 344
#     4  11  24  39  55  79 112 150 192 238 290 347
#     4   8  16  34  56  80 109 142 187 234 273 331
#
# _framework density 19.606051999999998
#
# number of rings (size 3 to 8) (size 9 to 14) (size 15 to 20)
#    0.000    2.286    0.000    3.000    2.000    6.857 
#    0.000    2.857    0.000    0.000    0.000    0.000 
#    0.000    0.000    0.000    0.000    0.000    0.000 
#
# Total GULP energy -346890.617800 kJ/mol
# GULP energy per Si atom -12388.950636 kJ/mol
# Density = 1.956143 g / cm^3
# Si number density = 19.606052 Si / 1000 Ang^3
#
#
#
# Elastic Constant Matrix: (Units=GPa)
#
#
# Indices 1 2 3 4 5 6 
#
# 1 148.9191 25.1305 80.9354 0.0000 6.2486 0.0000
# 2 25.1305 21.8390 19.8163 0.0000 3.2442 0.0000
# 3 80.9354 19.8163 151.8167 0.0000 14.9998 0.0000
# 4 0.0000 0.0000 0.0000 25.4372 0.0000 3.9557
# 5 6.2486 3.2442 14.9998 0.0000 30.7600 0.0000
# 6 0.0000 0.0000 0.0000 3.9557 0.0000 30.4237
#
#
#
# Elastic Compliance Matrix: (Units=1/GPa)
#
#
# Indices 1 2 3 4 5 6 
#
# 1 0.010582 -0.008072 -0.004685 0.000000 0.000986 0.000000
# 2 -0.008072 0.058252 -0.003000 0.000000 -0.003041 0.000000
# 3 -0.004685 -0.003000 0.009824 0.000000 -0.003523 0.000000
# 4 0.000000 0.000000 0.000000 0.040124 0.000000 -0.005217
# 5 0.000986 -0.003041 -0.003523 0.000000 0.034348 0.000000
# 6 0.000000 0.000000 0.000000 -0.005217 0.000000 0.033547
#
#
# Mechanical properties :
#
#
# Convention : Reuss Voigt Hill
#
# Bulk Modulus (GPa) = 21.21156 63.81545 42.51350
# Shear Modulus (GPa) = 21.37601 30.43700 25.90650
#
# Velocity S-wave (km/s) = 3.30551 3.94436 3.63898
# Velocity P-wave (km/s) = 5.04093 7.30503 6.27592
#
# Compressibility (1/GPa) = 0.04714411
#
# Stress axis : x y z
#
# Youngs Moduli (GPa) = 94.49724 17.16677 101.78856
#
# Poissons Ratio (x) = 0.13858 0.47692
# Poissons Ratio (y) = 0.76281 0.30532
# Poissons Ratio (z) = 0.44275 0.05149
#
# Static dielectric constant tensor:
#      x y z
#    x 3.680630 0.000000 0.026390 
#    y 0.000000 3.459380 0.000000 
#    z 0.026390 0.000000 4.307780 
# 
# 
# High freq. dielectric constant tensor:
#      x y z
#    x 1.771110 0.000000 0.004970 
#    y 0.000000 1.741510 0.000000 
#    z 0.004970 0.000000 1.770020 
# 
# From -- ./inp_files/66671.got.cif
#   From: 2010.06.25/outbox.cif.g09.slc.cpg/sg11_34_cif.got.tgz:66671.got - 2010.06.27 23:14:04.
