data_PCOD8075561
_publ_section_title
;
Structure prediction by ZEFSAII (Michael W. Deem and Ramdas Pophale) SiO2 
 PCOD8075561
Probable space group: P 21/M
;
_chemical_formula_sum "Si O2"
_cell_formula_units_Z 28
_cell_length_a 16.691157
_cell_length_b 14.800425
_cell_length_c 9.969230
_cell_angle_alpha 90.000000
_cell_angle_beta 152.554658
_cell_angle_gamma 90.000000
_cell_volume 1135.091973
_symmetry_space_group_name_H-M "P 21/M"
_symmetry_group_IT_number 11
_symmetry_cell_setting 'monoclinic'
loop_
_space_group_symop_operation_xyz
x,y,z
-x,1/2+y,-z
-x,-y,-z
x,1/2-y,z
loop_
_atom_site_type_symbol
_atom_site_label
_atom_site_fract_x
_atom_site_fract_y
_atom_site_fract_z
Si Si1 0.245841 0.852020 0.719045
Si Si2 0.559895 0.964310 0.267103
Si Si3 0.983860 0.882505 0.108335
Si Si4 0.573380 0.644821 0.844207
Si Si5 0.056181 0.417606 0.238392
Si Si6 0.396753 0.347795 0.414300
Si Si7 0.043790 0.353888 0.513396
O O1 0.306189 0.750000 0.846507
O O2 0.408666 0.919984 0.951519
O O3 0.110914 0.896829 0.626577
O O4 0.152501 0.847376 0.436022
O O5 0.548400 0.073697 0.257074
O O6 0.738134 0.936611 0.461830
O O7 0.542799 0.923592 0.391647
O O8 0.002923 0.858153 0.977991
O O9 0.811235 0.837539 0.910280
O O10 0.951743 0.989257 0.077534
O O11 0.545600 0.750000 0.850420
O O12 0.526598 0.632836 0.618616
O O13 0.768626 0.609375 0.164011
O O14 0.007505 0.367038 0.302198
O O15 0.467196 0.250000 0.568677
O O16 0.038494 0.250000 0.542932
#
# Coordination Sequence:
#
# PCOD8075561 Si02
#       7
#     4   4   4   4   4   4   4
#     4  11  23  40  67 101 129 169 230 276 317 384
#     4  11  24  40  65  96 134 175 209 271 334 390
#     4  10  21  40  67  89 127 172 223 266 312 392
#     4  10  21  39  64  94 126 169 221 271 325 385
#     4  10  24  42  62  96 133 173 221 263 337 401
#     4  10  20  39  65  95 126 167 218 268 324 387
#     4  10  22  40  64  95 131 172 222 275 323 382
#
# _framework density 24.667604000000001
#
# number of rings (size 3 to 8) (size 9 to 14) (size 15 to 20)
#    0.000    1.714    1.429    2.143    2.000    6.857 
#    2.571    2.857    0.000    0.000    0.000    0.000 
#    0.000    0.000    0.000    0.000    0.000    0.000 
#
# Total GULP energy -347177.651657 kJ/mol
# GULP energy per Si atom -12399.201845 kJ/mol
# Density = 2.461146 g / cm^3
# Si number density = 24.667604 Si / 1000 Ang^3
#
#
#
# Elastic Constant Matrix: (Units=GPa)
#
#
# Indices 1 2 3 4 5 6 
#
# 1 88.0473 16.0224 28.1425 0.0000 -14.2809 0.0000
# 2 16.0224 100.3113 19.4885 0.0000 1.9023 0.0000
# 3 28.1425 19.4885 107.2876 0.0000 -19.9496 0.0000
# 4 0.0000 0.0000 0.0000 33.1297 0.0000 -1.4007
# 5 -14.2809 1.9023 -19.9496 0.0000 33.1008 0.0000
# 6 0.0000 0.0000 0.0000 -1.4007 0.0000 4.9768
#
#
#
# Elastic Compliance Matrix: (Units=1/GPa)
#
#
# Indices 1 2 3 4 5 6 
#
# 1 0.013120 -0.001728 -0.002316 0.000000 0.004364 0.000000
# 2 -0.001728 0.010674 -0.001958 0.000000 -0.002539 0.000000
# 3 -0.002316 -0.001958 0.011396 0.000000 0.005982 0.000000
# 4 0.000000 0.000000 0.000000 0.030548 0.000000 0.008598
# 5 0.004364 -0.002539 0.005982 0.000000 0.035845 0.000000
# 6 0.000000 0.000000 0.000000 0.008598 0.000000 0.203352
#
#
# Mechanical properties :
#
#
# Convention : Reuss Voigt Hill
#
# Bulk Modulus (GPa) = 43.13015 46.99479 45.06247
# Shear Modulus (GPa) = 15.40038 29.70764 22.55401
#
# Velocity S-wave (km/s) = 2.50134 3.47409 3.02705
# Velocity P-wave (km/s) = 5.08574 5.93170 5.52493
#
# Compressibility (1/GPa) = 0.02318564
#
# Stress axis : x y z
#
# Youngs Moduli (GPa) = 76.21848 93.68997 87.74934
#
# Poissons Ratio (x) = 0.16194 0.20324
# Poissons Ratio (y) = 0.13174 0.17177
# Poissons Ratio (z) = 0.17653 0.18340
#
# Static dielectric constant tensor:
#      x y z
#    x 4.296420 0.000000 -0.113590 
#    y 0.000000 4.399680 0.000000 
#    z -0.113590 0.000000 4.399390 
# 
# 
# High freq. dielectric constant tensor:
#      x y z
#    x 1.975650 0.000000 -0.015000 
#    y 0.000000 1.977540 0.000000 
#    z -0.015000 0.000000 1.980950 
# 
# From -- ./inp_files/22767.got.cif
#   From: 2010.06.25/outbox.cif.g09.slc.cpg/sg11_12_cif.got.tgz:22767.got - 2010.06.27 23:14:04.
