data_PCOD8075280
_publ_section_title
;
Structure prediction by ZEFSAII (Michael W. Deem and Ramdas Pophale) SiO2 
 PCOD8075280
Probable space group: P 21/M
;
_chemical_formula_sum "Si O2"
_cell_formula_units_Z 24
_cell_length_a 5.974761
_cell_length_b 27.408970
_cell_length_c 6.924081
_cell_angle_alpha 90.000000
_cell_angle_beta 80.840643
_cell_angle_gamma 90.000000
_cell_volume 1119.443771
_symmetry_space_group_name_H-M "P 21/M"
_symmetry_group_IT_number 11
_symmetry_cell_setting 'monoclinic'
loop_
_space_group_symop_operation_xyz
x,y,z
-x,1/2+y,-z
-x,-y,-z
x,1/2-y,z
loop_
_atom_site_type_symbol
_atom_site_label
_atom_site_fract_x
_atom_site_fract_y
_atom_site_fract_z
Si Si1 0.745447 0.694766 0.931653
Si Si2 0.874095 0.370598 0.053140
Si Si3 0.446118 0.139670 0.361972
Si Si4 0.565096 0.372390 0.764911
Si Si5 0.329431 0.528663 0.388718
Si Si6 0.912746 0.937703 0.693485
O O1 0.702678 0.750000 0.005614
O O2 0.660665 0.688160 0.722322
O O3 0.011728 0.681411 0.908208
O O4 0.623519 0.655086 0.084360
O O5 0.642860 0.379775 0.197570
O O6 0.039606 0.414782 0.099903
O O7 0.813897 0.368307 0.832804
O O8 0.552217 0.152522 0.555680
O O9 0.255019 0.097744 0.403759
O O10 0.526814 0.431023 0.750923
O O11 0.500000 0.500000 0.500000
O O12 0.144867 0.557857 0.541130
O O13 0.203159 0.490693 0.263324
#
# Coordination Sequence:
#
# PCOD8075280 Si02
#       6
#     4   4   4   4   4   4
#     4  10  25  44  64  92 123 159 209 269 328 387
#     4  10  22  40  63  93 128 165 212 268 313 374
#     4  10  21  43  66  89 128 167 209 259 319 373
#     4  11  23  39  68  95 128 166 210 264 313 381
#     4  11  21  36  65  95 134 175 215 254 308 377
#     4  10  20  37  63  91 131 174 214 253 305 374
#
# _framework density 21.439215999999998
#
# number of rings (size 3 to 8) (size 9 to 14) (size 15 to 20)
#    0.000    1.667    3.333    0.000    2.333    4.000 
#    0.000   11.667    0.000    0.000    0.000    0.000 
#    0.000    0.000    0.000    0.000    0.000    0.000 
#
# Total GULP energy -297348.652693 kJ/mol
# GULP energy per Si atom -12389.527196 kJ/mol
# Density = 2.139042 g / cm^3
# Si number density = 21.439216 Si / 1000 Ang^3
#
#
#
# Elastic Constant Matrix: (Units=GPa)
#
#
# Indices 1 2 3 4 5 6 
#
# 1 106.8584 65.1783 54.7216 0.0000 22.4801 0.0000
# 2 65.1783 146.5994 52.3601 0.0000 2.1754 0.0000
# 3 54.7216 52.3601 121.0180 0.0000 39.9717 0.0000
# 4 0.0000 0.0000 0.0000 28.3824 0.0000 -2.1276
# 5 22.4801 2.1754 39.9717 0.0000 44.1290 0.0000
# 6 0.0000 0.0000 0.0000 -2.1276 0.0000 21.9729
#
#
#
# Elastic Compliance Matrix: (Units=1/GPa)
#
#
# Indices 1 2 3 4 5 6 
#
# 1 0.015353 -0.005750 -0.002803 0.000000 -0.004998 0.000000
# 2 -0.005750 0.010734 -0.004048 0.000000 0.006066 0.000000
# 3 -0.002803 -0.004048 0.015331 0.000000 -0.012259 0.000000
# 4 0.000000 0.000000 0.000000 0.035491 0.000000 0.003436
# 5 -0.004998 0.006066 -0.012259 0.000000 0.036012 0.000000
# 6 0.000000 0.000000 0.000000 0.003436 0.000000 0.045843
#
#
# Mechanical properties :
#
#
# Convention : Reuss Voigt Hill
#
# Bulk Modulus (GPa) = 61.67088 79.88842 70.77965
# Shear Modulus (GPa) = 26.40315 32.37792 29.39053
#
# Velocity S-wave (km/s) = 3.51313 3.89037 3.70655
# Velocity P-wave (km/s) = 6.72934 7.58443 7.16965
#
# Compressibility (1/GPa) = 0.01621511
#
# Stress axis : x y z
#
# Youngs Moduli (GPa) = 65.13521 93.16553 65.22649
#
# Poissons Ratio (x) = 0.53574 0.18284
# Poissons Ratio (y) = 0.37456 0.26401
# Poissons Ratio (z) = 0.18259 0.37709
#
# Static dielectric constant tensor:
#      x y z
#    x 4.192460 0.000000 0.423270 
#    y 0.000000 3.785510 0.000000 
#    z 0.423270 0.000000 3.937970 
# 
# 
# High freq. dielectric constant tensor:
#      x y z
#    x 1.858470 0.000000 0.025050 
#    y 0.000000 1.821860 0.000000 
#    z 0.025050 0.000000 1.823070 
# 
# From -- ./inp_files/10533.got.cif
#   From: 2010.06.25/outbox.cif.g09.slc.cpg/sg11_6_cif.got.tgz:10533.got - 2010.06.27 23:14:04.
