data_PCOD8075581
_publ_section_title
;
Structure prediction by ZEFSAII (Michael W. Deem and Ramdas Pophale) SiO2 
 PCOD8075581
Probable space group: P 21/M
;
_chemical_formula_sum "Si O2"
_cell_formula_units_Z 20
_cell_length_a 9.813937
_cell_length_b 9.686022
_cell_length_c 15.092892
_cell_angle_alpha 90.000000
_cell_angle_beta 33.407013
_cell_angle_gamma 90.000000
_cell_volume 789.921468
_symmetry_space_group_name_H-M "P 21/M"
_symmetry_group_IT_number 11
_symmetry_cell_setting 'monoclinic'
loop_
_space_group_symop_operation_xyz
x,y,z
-x,1/2+y,-z
-x,-y,-z
x,1/2-y,z
loop_
_atom_site_type_symbol
_atom_site_label
_atom_site_fract_x
_atom_site_fract_y
_atom_site_fract_z
Si Si1 0.798142 0.250000 0.947729
Si Si2 0.242523 0.750000 0.254040
Si Si3 0.374525 0.250000 0.821937
Si Si4 0.442439 0.023531 0.371029
Si Si5 0.821103 0.750000 0.599254
Si Si6 0.989404 0.022806 0.738270
Si Si7 0.792393 0.250000 0.152950
Si Si8 0.271122 0.250000 0.148487
O O1 0.972320 0.115513 0.837512
O O2 0.687408 0.250000 0.106613
O O3 0.574130 0.250000 0.992214
O O4 0.532729 0.750000 0.124670
O O5 0.158663 0.608776 0.254470
O O6 0.112127 0.750000 0.420944
O O7 0.467784 0.381121 0.717573
O O8 0.082697 0.250000 0.989389
O O9 0.297030 0.111293 0.376569
O O10 0.688051 0.115090 0.261164
O O11 0.272749 0.001509 0.551144
O O12 0.828107 0.750000 0.699298
O O13 0.842564 0.882766 0.838514
#
# Coordination Sequence:
#
# PCOD8075581 Si02
#       8
#     2   2   2   4   2   4   2   2
#     4  11  23  41  55  83 127 165 192 233 304 359
#     4   9  19  33  57  95 122 143 189 239 302 355
#     4  12  22  35  63  95 117 149 206 255 279 344
#     4  10  20  40  61  87 116 155 203 242 290 351
#     4   9  17  33  60  88 121 149 176 246 312 348
#     4  10  22  38  64  91 118 157 191 244 305 357
#     4  11  24  42  59  84 122 167 195 239 299 342
#     4  12  19  34  60  93 123 147 192 244 302 352
#
# _framework density 25.318971000000001
#
# number of rings (size 3 to 8) (size 9 to 14) (size 15 to 20)
#    0.000    1.600    2.000    6.000    0.000    3.200 
#    0.000    1.000    0.000    0.000    0.000    0.000 
#    0.000    0.000    0.000    0.000    0.000    0.000 
#
# Total GULP energy -247897.380030 kJ/mol
# GULP energy per Si atom -12394.869002 kJ/mol
# Density = 2.526134 g / cm^3
# Si number density = 25.318971 Si / 1000 Ang^3
#
#
#
# Elastic Constant Matrix: (Units=GPa)
#
#
# Indices 1 2 3 4 5 6 
#
# 1 13.0533 5.1011 5.2917 0.0000 -20.8670 0.0000
# 2 5.1011 184.2707 56.8742 0.0000 -23.6774 0.0000
# 3 5.2917 56.8742 166.4367 0.0000 -24.0592 0.0000
# 4 0.0000 0.0000 0.0000 95.0953 0.0000 -11.9689
# 5 -20.8670 -23.6774 -24.0592 0.0000 29.1814 0.0000
# 6 0.0000 0.0000 0.0000 -11.9689 0.0000 8.4669
#
#
#
# Elastic Compliance Matrix: (Units=1/GPa)
#
#
# Indices 1 2 3 4 5 6 
#
# 1 -0.299980 -0.016962 -0.020054 0.000000 -0.244806 0.000000
# 2 -0.016962 0.005470 -0.002772 0.000000 -0.009976 0.000000
# 3 -0.020054 -0.002772 0.005898 0.000000 -0.011727 0.000000
# 4 0.000000 0.000000 0.000000 0.012792 0.000000 0.018082
# 5 -0.244806 -0.009976 -0.011727 0.000000 -0.158550 0.000000
# 6 0.000000 0.000000 0.000000 0.018082 0.000000 0.143669
#
#
# Mechanical properties :
#
#
# Convention : Reuss Voigt Hill
#
# Bulk Modulus (GPa) = -2.71601 55.36609 26.32504
# Shear Modulus (GPa) = -14.97657 46.31495 15.66919
#
# Velocity S-wave (km/s) = -2.43475 4.28162 2.49041
# Velocity P-wave (km/s) = 2.99651 6.80867 4.32313
#
# Compressibility (1/GPa) = -0.36818761
#
# Stress axis : x y z
#
# Youngs Moduli (GPa) = -3.33356 182.81338 169.54952
#
# Poissons Ratio (x) = 3.10085 3.40017
# Poissons Ratio (y) = -0.05654 0.47000
# Poissons Ratio (z) = -0.06685 0.50676
#
# Static dielectric constant tensor:
#      x y z
#    x 4.223110 0.000000 -0.010570 
#    y 0.000000 4.699510 0.000000 
#    z -0.010570 0.000000 5.374780 
# 
# 
# High freq. dielectric constant tensor:
#      x y z
#    x 1.972710 0.000000 0.001730 
#    y 0.000000 2.017980 0.000000 
#    z 0.001730 0.000000 2.052140 
# 
# From -- ./inp_files/58836.got.cif
#   From: 2010.06.25/outbox.cif.g09.slc.cpg/sg11_30_cif.got.tgz:58836.got - 2010.06.27 23:14:04.
