data_PCOD8075297
_publ_section_title
;
Structure prediction by ZEFSAII (Michael W. Deem and Ramdas Pophale) SiO2 
 PCOD8075297
Probable space group: P 21/M
;
_chemical_formula_sum "Si O2"
_cell_formula_units_Z 32
_cell_length_a 30.859141
_cell_length_b 8.784125
_cell_length_c 11.833048
_cell_angle_alpha 90.000000
_cell_angle_beta 149.669275
_cell_angle_gamma 90.000000
_cell_volume 1619.803066
_symmetry_space_group_name_H-M "P 21/M"
_symmetry_group_IT_number 11
_symmetry_cell_setting 'monoclinic'
loop_
_space_group_symop_operation_xyz
x,y,z
-x,1/2+y,-z
-x,-y,-z
x,1/2-y,z
loop_
_atom_site_type_symbol
_atom_site_label
_atom_site_fract_x
_atom_site_fract_y
_atom_site_fract_z
Si Si1 0.765926 0.571463 0.690728
Si Si2 0.284343 0.925348 0.646688
Si Si3 0.537244 0.575718 0.973146
Si Si4 0.895336 0.925534 0.380452
Si Si5 0.406997 0.428992 0.307253
Si Si6 0.260184 0.575103 0.844486
Si Si7 0.628200 0.423490 0.541404
Si Si8 0.929500 0.574098 0.199798
O O1 0.750158 0.750000 0.667050
O O2 0.766204 0.522419 0.560685
O O3 0.689208 0.487441 0.581593
O O4 0.857279 0.524685 0.948202
O O5 0.285615 0.750000 0.611146
O O6 0.237631 0.947817 0.661624
O O7 0.380774 0.982033 0.880784
O O8 0.562252 0.750000 0.056284
O O9 0.500000 0.500000 0.000000
O O10 0.469630 0.566266 0.719567
O O11 0.877847 0.750000 0.369100
O O12 0.892488 0.958358 0.240730
O O13 0.822179 0.026284 0.270684
O O14 0.987374 0.972479 0.638228
O O15 0.500000 0.500000 0.500000
O O16 0.417976 0.250000 0.331113
O O17 0.362358 0.480138 0.323437
O O18 0.343891 0.477204 0.064353
O O19 0.281487 0.750000 0.919152
O O20 0.654274 0.250000 0.625604
O O21 0.955729 0.750000 0.246193
#
# Coordination Sequence:
#
# PCOD8075297 Si02
#       8
#     4   4   4   4   4   4   4   4
#     4  11  22  37  60  88 119 155 196 246 299 350
#     4  11  24  40  58  83 117 158 203 248 297 354
#     4  11  22  36  57  83 114 154 199 245 294 348
#     4  10  20  37  64  94 120 152 193 239 294 356
#     4  12  25  41  61  87 120 156 199 247 297 353
#     4  11  24  42  63  86 119 161 201 245 298 356
#     4  11  23  38  59  87 119 155 198 245 298 357
#     4   9  20  38  60  90 123 152 187 237 297 356
#
# _framework density 19.755488
#
# number of rings (size 3 to 8) (size 9 to 14) (size 15 to 20)
#    0.000    1.250    1.250    4.875    0.000    8.000 
#    0.000    0.625    0.000    0.000    0.000    0.000 
#    0.000    0.000    0.000    0.000    0.000    0.000 
#
# Total GULP energy -397007.059276 kJ/mol
# GULP energy per Si atom -12406.470602 kJ/mol
# Density = 1.971052 g / cm^3
# Si number density = 19.755488 Si / 1000 Ang^3
#
#
#
# Elastic Constant Matrix: (Units=GPa)
#
#
# Indices 1 2 3 4 5 6 
#
# 1 80.7175 38.0356 40.3804 0.0000 -2.1056 0.0000
# 2 38.0356 111.3285 43.7390 0.0000 -3.4260 0.0000
# 3 40.3804 43.7390 118.7290 0.0000 -7.3152 0.0000
# 4 0.0000 0.0000 0.0000 35.1831 0.0000 -0.5028
# 5 -2.1056 -3.4260 -7.3152 0.0000 27.7699 0.0000
# 6 0.0000 0.0000 0.0000 -0.5028 0.0000 32.9272
#
#
#
# Elastic Compliance Matrix: (Units=1/GPa)
#
#
# Indices 1 2 3 4 5 6 
#
# 1 0.016303 -0.003968 -0.004104 0.000000 -0.000334 0.000000
# 2 -0.003968 0.011470 -0.002854 0.000000 0.000362 0.000000
# 3 -0.004104 -0.002854 0.011007 0.000000 0.002236 0.000000
# 4 0.000000 0.000000 0.000000 0.028429 0.000000 0.000434
# 5 -0.000334 0.000362 0.002236 0.000000 0.036619 0.000000
# 6 0.000000 0.000000 0.000000 0.000434 0.000000 0.030377
#
#
# Mechanical properties :
#
#
# Convention : Reuss Voigt Hill
#
# Bulk Modulus (GPa) = 59.06669 61.67610 60.37140
# Shear Modulus (GPa) = 30.92172 31.75070 31.33621
#
# Velocity S-wave (km/s) = 3.96058 4.01332 3.98704
# Velocity P-wave (km/s) = 7.13293 7.26382 7.19868
#
# Compressibility (1/GPa) = 0.01693002
#
# Stress axis : x y z
#
# Youngs Moduli (GPa) = 61.33909 87.18060 90.84909
#
# Poissons Ratio (x) = 0.34593 0.37280
# Poissons Ratio (y) = 0.24339 0.25926
# Poissons Ratio (z) = 0.25171 0.24879
#
# Static dielectric constant tensor:
#      x y z
#    x 3.495760 0.000000 -0.097010 
#    y 0.000000 3.692800 0.000000 
#    z -0.097010 0.000000 3.699470 
# 
# 
# High freq. dielectric constant tensor:
#      x y z
#    x 1.766830 0.000000 -0.006170 
#    y 0.000000 1.784750 0.000000 
#    z -0.006170 0.000000 1.771280 
# 
# From -- ./inp_files/45296.got.cif
#   From: 2010.06.25/outbox.cif.g09.slc.cpg/sg11_23_cif.got.tgz:45296.got - 2010.06.27 23:14:04.
