data_PCOD8075281
_publ_section_title
;
Structure prediction by ZEFSAII (Michael W. Deem and Ramdas Pophale) SiO2 
 PCOD8075281
Probable space group: P 21/M
;
_chemical_formula_sum "Si O2"
_cell_formula_units_Z 32
_cell_length_a 12.507765
_cell_length_b 8.538730
_cell_length_c 31.692959
_cell_angle_alpha 90.000000
_cell_angle_beta 27.886252
_cell_angle_gamma 90.000000
_cell_volume 1583.141116
_symmetry_space_group_name_H-M "P 21/M"
_symmetry_group_IT_number 11
_symmetry_cell_setting 'monoclinic'
loop_
_space_group_symop_operation_xyz
x,y,z
-x,1/2+y,-z
-x,-y,-z
x,1/2-y,z
loop_
_atom_site_type_symbol
_atom_site_label
_atom_site_fract_x
_atom_site_fract_y
_atom_site_fract_z
Si Si1 0.754921 0.068788 0.581079
Si Si2 0.225968 0.067891 0.697187
Si Si3 0.192546 0.431376 0.202992
Si Si4 0.119457 0.434324 0.829773
Si Si5 0.505930 0.929803 0.742535
Si Si6 0.892649 0.565026 0.671382
Si Si7 0.328755 0.067837 0.476788
Si Si8 0.387402 0.567714 0.997946
O O1 0.735032 0.250000 0.602190
O O2 0.603067 0.956626 0.662291
O O3 0.689245 0.051497 0.555756
O O4 0.000000 0.000000 0.500000
O O5 0.280241 0.250000 0.672803
O O6 0.232771 0.019778 0.744729
O O7 0.404933 0.967825 0.605013
O O8 0.974740 0.034495 0.767071
O O9 0.130356 0.250000 0.217832
O O10 0.174725 0.479092 0.257905
O O11 0.452012 0.467493 0.098311
O O12 0.112713 0.250000 0.835420
O O13 0.255488 0.492832 0.824416
O O14 0.863792 0.506406 0.921960
O O15 0.470745 0.750000 0.765943
O O16 0.685828 0.001504 0.713860
O O17 0.922151 0.750000 0.653552
O O18 0.136085 0.481252 0.577649
O O19 0.294229 0.250000 0.477818
O O20 0.357246 0.750000 0.016332
O O21 0.500000 0.500000 0.000000
#
# Coordination Sequence:
#
# PCOD8075281 Si02
#       8
#     4   4   4   4   4   4   4   4
#     4  12  22  34  54  83 117 153 196 247 294 344
#     4  11  22  37  59  88 124 157 190 245 304 354
#     4  10  22  41  64  87 116 156 201 246 297 362
#     4  10  21  36  57  89 125 154 187 243 307 355
#     4  11  22  36  58  85 118 159 202 247 293 347
#     4  10  23  42  60  82 118 162 204 247 294 347
#     4  12  24  37  58  87 118 158 204 246 294 352
#     4  10  20  37  63  92 119 150 190 242 303 359
#
# _framework density 20.212980999999999
#
# number of rings (size 3 to 8) (size 9 to 14) (size 15 to 20)
#    0.000    1.250    3.750    3.000    0.000    2.500 
#    0.000    0.625    0.000    0.000    0.000    0.000 
#    0.000    0.000    0.000    0.000    0.000    0.000 
#
# Total GULP energy -396566.429612 kJ/mol
# GULP energy per Si atom -12392.700925 kJ/mol
# Density = 2.016698 g / cm^3
# Si number density = 20.212981 Si / 1000 Ang^3
#
#
#
# Elastic Constant Matrix: (Units=GPa)
#
#
# Indices 1 2 3 4 5 6 
#
# 1 69.6383 27.0041 37.3470 0.0000 -6.1348 0.0000
# 2 27.0041 53.8854 36.6552 0.0000 -3.9201 0.0000
# 3 37.3470 36.6552 131.1602 0.0000 -12.6610 0.0000
# 4 0.0000 0.0000 0.0000 25.6078 0.0000 -7.0040
# 5 -6.1348 -3.9201 -12.6610 0.0000 38.6284 0.0000
# 6 0.0000 0.0000 0.0000 -7.0040 0.0000 25.4885
#
#
#
# Elastic Compliance Matrix: (Units=1/GPa)
#
#
# Indices 1 2 3 4 5 6 
#
# 1 0.019025 -0.007211 -0.003285 0.000000 0.001213 0.000000
# 2 -0.007211 0.025650 -0.005137 0.000000 -0.000226 0.000000
# 3 -0.003285 -0.005137 0.010218 0.000000 0.002306 0.000000
# 4 0.000000 0.000000 0.000000 0.042224 0.000000 0.011603
# 5 0.001213 -0.000226 0.002306 0.000000 0.026813 0.000000
# 6 0.000000 0.000000 0.000000 0.011603 0.000000 0.042422
#
#
# Mechanical properties :
#
#
# Convention : Reuss Voigt Hill
#
# Bulk Modulus (GPa) = 42.32541 50.74405 46.53473
# Shear Modulus (GPa) = 24.33181 28.19011 26.26096
#
# Velocity S-wave (km/s) = 3.47331 3.73856 3.60837
# Velocity P-wave (km/s) = 6.08854 6.61777 6.35867
#
# Compressibility (1/GPa) = 0.02362647
#
# Stress axis : x y z
#
# Youngs Moduli (GPa) = 52.56310 38.98704 97.86932
#
# Poissons Ratio (x) = 0.28115 0.32147
# Poissons Ratio (y) = 0.37905 0.50272
# Poissons Ratio (z) = 0.17266 0.20026
#
# Static dielectric constant tensor:
#      x y z
#    x 3.721510 0.000000 -0.339210 
#    y 0.000000 3.499540 0.000000 
#    z -0.339210 0.000000 3.568010 
# 
# 
# High freq. dielectric constant tensor:
#      x y z
#    x 1.780070 0.000000 -0.025120 
#    y 0.000000 1.779630 0.000000 
#    z -0.025120 0.000000 1.794930 
# 
# From -- ./inp_files/73096.got.cif
#   From: 2010.06.25/outbox.cif.g09.slc.cpg/sg11_37_cif.got.tgz:73096.got - 2010.06.27 23:14:04.
