data_PCOD8075757
_publ_section_title
;
Structure prediction by ZEFSAII (Michael W. Deem and Ramdas Pophale) SiO2 
 PCOD8075757
Probable space group: P 21/M
;
_chemical_formula_sum "Si O2"
_cell_formula_units_Z 32
_cell_length_a 12.539920
_cell_length_b 8.825617
_cell_length_c 24.265342
_cell_angle_alpha 90.000000
_cell_angle_beta 46.114902
_cell_angle_gamma 90.000000
_cell_volume 1935.529178
_symmetry_space_group_name_H-M "P 21/M"
_symmetry_group_IT_number 11
_symmetry_cell_setting 'monoclinic'
loop_
_space_group_symop_operation_xyz
x,y,z
-x,1/2+y,-z
-x,-y,-z
x,1/2-y,z
loop_
_atom_site_type_symbol
_atom_site_label
_atom_site_fract_x
_atom_site_fract_y
_atom_site_fract_z
Si Si1 0.229321 0.070793 0.679718
Si Si2 0.114489 0.927161 0.999725
Si Si3 0.637963 0.928484 0.677868
Si Si4 0.800773 0.572118 0.432157
Si Si5 0.557035 0.070861 0.591264
Si Si6 0.941598 0.427241 0.576785
Si Si7 0.902074 0.570609 0.163271
Si Si8 0.668963 0.072572 0.164922
O O1 0.231644 0.250000 0.680008
O O2 0.173711 0.016537 0.639854
O O3 0.394319 0.012052 0.633489
O O4 0.117657 0.007933 0.767287
O O5 0.091051 0.750000 0.004653
O O6 0.278258 0.968898 0.917330
O O7 0.063813 0.979664 0.079766
O O8 0.000000 0.000000 0.000000
O O9 0.663174 0.750000 0.666368
O O10 0.501782 0.974334 0.766617
O O11 0.610523 0.986082 0.626410
O O12 0.783413 0.005648 0.650777
O O13 0.761281 0.750000 0.449689
O O14 0.664626 0.475050 0.503311
O O15 0.948502 0.534189 0.412805
O O16 0.562821 0.250000 0.599257
O O17 0.926682 0.250000 0.571840
O O18 0.000000 0.500000 0.500000
O O19 0.887791 0.750000 0.169340
O O20 0.767069 0.513024 0.174532
O O21 0.689390 0.250000 0.169050
#
# Coordination Sequence:
#
# PCOD8075757 Si02
#       8
#     4   4   4   4   4   4   4   4
#     4   9  18  31  47  70  96 122 153 188 227 277
#     4   8  14  24  40  63  91 121 150 179 218 269
#     4  11  21  32  48  68  94 126 157 192 233 273
#     4  10  21  36  50  65  90 122 155 193 237 278
#     4  11  20  31  49  70  94 121 154 191 227 276
#     4  11  22  35  52  69  89 118 157 200 239 279
#     4   9  15  26  45  67  93 123 150 181 223 273
#     4   9  17  28  42  65  95 123 152 186 224 271
#
# _framework density 16.532945999999999
#
# number of rings (size 3 to 8) (size 9 to 14) (size 15 to 20)
#    0.000    2.250    2.500    1.500    0.000    1.000 
#    0.000    1.250    0.000    0.000    0.000    0.875 
#    0.000    0.000    0.000    0.000    0.000    0.000 
#
# Total GULP energy -396486.128901 kJ/mol
# GULP energy per Si atom -12390.191528 kJ/mol
# Density = 1.649532 g / cm^3
# Si number density = 16.532946 Si / 1000 Ang^3
#
#
#
# Elastic Constant Matrix: (Units=GPa)
#
#
# Indices 1 2 3 4 5 6 
#
# 1 75.4803 17.1395 60.4798 0.0000 7.1082 0.0000
# 2 17.1395 31.2677 27.7928 0.0000 0.6697 0.0000
# 3 60.4798 27.7928 181.9558 0.0000 4.7153 0.0000
# 4 0.0000 0.0000 0.0000 16.7844 0.0000 -2.8907
# 5 7.1082 0.6697 4.7153 0.0000 16.9126 0.0000
# 6 0.0000 0.0000 0.0000 -2.8907 0.0000 16.2394
#
#
#
# Elastic Compliance Matrix: (Units=1/GPa)
#
#
# Indices 1 2 3 4 5 6 
#
# 1 0.019520 -0.005720 -0.005447 0.000000 -0.006459 0.000000
# 2 -0.005720 0.038682 -0.004059 0.000000 0.002004 0.000000
# 3 -0.005447 -0.004059 0.007920 0.000000 0.000242 0.000000
# 4 0.000000 0.000000 0.000000 0.061463 0.000000 0.010941
# 5 -0.006459 0.002004 0.000242 0.000000 0.061695 0.000000
# 6 0.000000 0.000000 0.000000 0.010941 0.000000 0.063526
#
#
# Mechanical properties :
#
#
# Convention : Reuss Voigt Hill
#
# Bulk Modulus (GPa) = 28.03467 55.50314 41.76890
# Shear Modulus (GPa) = 16.94050 22.20671 19.57361
#
# Velocity S-wave (km/s) = 3.20449 3.66892 3.44454
# Velocity P-wave (km/s) = 5.53943 7.18276 6.41395
#
# Compressibility (1/GPa) = 0.03567012
#
# Stress axis : x y z
#
# Youngs Moduli (GPa) = 51.22877 25.85150 126.25956
#
# Poissons Ratio (x) = 0.14787 0.68776
# Poissons Ratio (y) = 0.29302 0.51252
# Poissons Ratio (z) = 0.27905 0.10494
#
# Static dielectric constant tensor:
#      x y z
#    x 2.959420 0.000000 -0.003170 
#    y 0.000000 2.483660 0.000000 
#    z -0.003170 0.000000 3.988480 
# 
# 
# High freq. dielectric constant tensor:
#      x y z
#    x 1.594140 0.000000 -0.001510 
#    y 0.000000 1.631930 0.000000 
#    z -0.001510 0.000000 1.656440 
# 
# From -- ./inp_files/43765.got.cif
#   From: 2010.06.25/outbox.cif.g09.slc.cpg/sg11_22_cif.got.tgz:43765.got - 2010.06.27 23:14:04.
