data_PCOD8075661
_publ_section_title
;
Structure prediction by ZEFSAII (Michael W. Deem and Ramdas Pophale) SiO2 
 PCOD8075661
Probable space group: P 21/M
;
_chemical_formula_sum "Si O2"
_cell_formula_units_Z 28
_cell_length_a 32.896873
_cell_length_b 8.291680
_cell_length_c 33.309317
_cell_angle_alpha 90.000000
_cell_angle_beta 8.963600
_cell_angle_gamma 90.000000
_cell_volume 1415.629876
_symmetry_space_group_name_H-M "P 21/M"
_symmetry_group_IT_number 11
_symmetry_cell_setting 'monoclinic'
loop_
_space_group_symop_operation_xyz
x,y,z
-x,1/2+y,-z
-x,-y,-z
x,1/2-y,z
loop_
_atom_site_type_symbol
_atom_site_label
_atom_site_fract_x
_atom_site_fract_y
_atom_site_fract_z
Si Si1 0.090336 0.436745 0.499276
Si Si2 0.546220 0.058096 0.999547
Si Si3 0.813998 0.432493 0.508806
Si Si4 0.317703 0.250000 0.522448
Si Si5 0.479349 0.426335 0.438004
Si Si6 0.262035 0.438342 0.007464
Si Si7 0.007720 0.563813 0.947805
Si Si8 0.235234 0.750000 0.977270
O O1 0.079716 0.250000 0.499472
O O2 0.322224 0.515292 0.246895
O O3 0.138183 0.455512 0.499782
O O4 0.817314 0.515352 0.751763
O O5 0.547997 0.250000 0.999528
O O6 0.500000 0.000000 0.000000
O O7 0.824742 0.250000 0.513696
O O8 0.535894 0.473571 0.761232
O O9 0.033419 0.466880 0.262036
O O10 0.380407 0.409133 0.488322
O O11 0.494213 0.250000 0.310760
O O12 0.013031 0.250000 0.809571
O O13 0.528591 0.250000 0.409115
O O14 0.265667 0.511319 0.673342
O O15 0.752430 0.518593 0.171468
O O16 0.252440 0.250000 0.000294
O O17 0.224606 0.579734 0.011373
O O18 0.021398 0.750000 0.938221
O O19 0.000000 0.500000 0.000000
#
# Coordination Sequence:
#
# PCOD8075661 Si02
#       8
#     4   4   4   2   4   4   4   2
#     4  10  21  34  54  79 109 140 189 234 286 353
#     4  10  21  36  51  75 104 143 188 242 279 333
#     4  10  21  38  57  85 122 154 183 242 306 360
#     4  10  24  42  68  88 126 164 218 250 310 384
#     4  10  22  42  63  85 129 168 204 273 314 360
#     4  10  23  39  60  93 127 150 201 253 296 376
#     4  12  23  38  62  96 128 171 216 264 327 385
#     4  12  22  42  70  96 114 180 206 248 332 364
#
# _framework density 19.77918
#
# number of rings (size 3 to 8) (size 9 to 14) (size 15 to 20)
#    0.429    1.143    0.000    5.143    2.000    1.143 
#    0.000    4.286    0.000    0.000    0.000    0.000 
#    0.000    0.000    0.000    0.000    0.000    0.000 
#
# Total GULP energy -347112.358460 kJ/mol
# GULP energy per Si atom -12396.869945 kJ/mol
# Density = 1.973416 g / cm^3
# Si number density = 19.779180 Si / 1000 Ang^3
#
#
#
# Elastic Constant Matrix: (Units=GPa)
#
#
# Indices 1 2 3 4 5 6 
#
# 1 90.3747 30.8301 24.2545 0.0000 -3.4948 0.0000
# 2 30.8301 91.6230 22.9839 0.0000 -0.8521 0.0000
# 3 24.2545 22.9839 130.7810 0.0000 -2.7454 0.0000
# 4 0.0000 0.0000 0.0000 28.3896 0.0000 -1.0548
# 5 -3.4948 -0.8521 -2.7454 0.0000 43.1050 0.0000
# 6 0.0000 0.0000 0.0000 -1.0548 0.0000 408.0411
#
#
#
# Elastic Compliance Matrix: (Units=1/GPa)
#
#
# Indices 1 2 3 4 5 6 
#
# 1 0.012882 -0.003904 -0.001685 0.000000 0.000860 0.000000
# 2 -0.003904 0.012601 -0.001494 0.000000 -0.000163 0.000000
# 3 -0.001685 -0.001494 0.008229 0.000000 0.000358 0.000000
# 4 0.000000 0.000000 0.000000 0.035228 0.000000 0.000091
# 5 0.000860 -0.000163 0.000358 0.000000 0.023288 0.000000
# 6 0.000000 0.000000 0.000000 0.000091 0.000000 0.002451
#
#
# Mechanical properties :
#
#
# Convention : Reuss Voigt Hill
#
# Bulk Modulus (GPa) = 51.16012 52.10175 51.63094
# Shear Modulus (GPa) = 43.34222 111.55449 77.44836
#
# Velocity S-wave (km/s) = 4.68622 7.51814 6.26430
# Velocity P-wave (km/s) = 7.42985 10.08772 8.85903
#
# Compressibility (1/GPa) = 0.01954647
#
# Stress axis : x y z
#
# Youngs Moduli (GPa) = 77.62564 79.35741 121.52250
#
# Poissons Ratio (x) = 0.30982 0.20476
# Poissons Ratio (y) = 0.30306 0.18155
# Poissons Ratio (z) = 0.13080 0.11856
#
# Static dielectric constant tensor:
#      x y z
#    x 3.498410 0.000000 -0.045030 
#    y 0.000000 3.613410 0.000000 
#    z -0.045030 0.000000 3.998630 
# 
# 
# High freq. dielectric constant tensor:
#      x y z
#    x 1.766860 0.000000 -0.002360 
#    y 0.000000 1.765220 0.000000 
#    z -0.002360 0.000000 1.798730 
# 
# From -- ./inp_files/73873.got.cif
#   From: 2010.06.25/outbox.cif.g09.slc.cpg/sg11_37_cif.got.tgz:73873.got - 2010.06.27 23:14:04.
