data_PCOD8075394
_publ_section_title
;
Structure prediction by ZEFSAII (Michael W. Deem and Ramdas Pophale) SiO2 
 PCOD8075394
Probable space group: P 21/M
;
_chemical_formula_sum "Si O2"
_cell_formula_units_Z 28
_cell_length_a 9.215662
_cell_length_b 8.585572
_cell_length_c 23.251622
_cell_angle_alpha 90.000000
_cell_angle_beta 133.475707
_cell_angle_gamma 90.000000
_cell_volume 1335.014244
_symmetry_space_group_name_H-M "P 21/M"
_symmetry_group_IT_number 11
_symmetry_cell_setting 'monoclinic'
loop_
_space_group_symop_operation_xyz
x,y,z
-x,1/2+y,-z
-x,-y,-z
x,1/2-y,z
loop_
_atom_site_type_symbol
_atom_site_label
_atom_site_fract_x
_atom_site_fract_y
_atom_site_fract_z
Si Si1 0.571114 0.566598 0.343454
Si Si2 0.886693 0.066526 0.233784
Si Si3 0.053294 0.935359 0.621772
Si Si4 0.624927 0.434742 0.480532
Si Si5 0.068643 0.425336 0.960848
Si Si6 0.480903 0.576369 0.934188
Si Si7 0.164184 0.067792 0.206009
O O1 0.609697 0.750000 0.354180
O O2 0.759691 0.482059 0.366289
O O3 0.532410 0.503206 0.396951
O O4 0.370384 0.525763 0.253010
O O5 0.863248 0.250000 0.234345
O O6 0.918648 0.997495 0.306003
O O7 0.682571 0.993064 0.151481
O O8 0.071333 0.023470 0.242724
O O9 0.025719 0.750000 0.612472
O O10 0.855428 0.015562 0.543730
O O11 0.500000 0.500000 0.500000
O O12 0.603866 0.250000 0.474355
O O13 0.988408 0.250000 0.931395
O O14 0.996652 0.523620 0.886488
O O15 0.000000 0.500000 0.000000
O O16 0.304451 0.427480 0.035810
O O17 0.401257 0.750000 0.923258
O O18 0.500000 0.500000 0.000000
O O19 0.210664 0.250000 0.214208
#
# Coordination Sequence:
#
# PCOD8075394 Si02
#       7
#     4   4   4   4   4   4   4
#     4  12  26  44  65  96 134 170 214 266 320 382
#     4   9  20  38  63  91 122 161 210 260 315 379
#     4  11  23  42  68  98 131 171 216 264 319 380
#     4  12  25  45  71 100 132 171 214 261 319 381
#     4  11  24  39  60  90 126 166 213 265 322 384
#     4  10  20  38  61  89 120 162 210 261 316 374
#     4  11  22  41  66  91 124 167 213 265 325 386
#
# _framework density 20.973559000000002
#
# number of rings (size 3 to 8) (size 9 to 14) (size 15 to 20)
#    0.000    1.143    1.429    5.143    2.000    1.714 
#    0.000    3.571    0.000    0.000    0.000    0.000 
#    0.000    0.000    0.000    0.000    0.000    0.000 
#
# Total GULP energy -347240.686894 kJ/mol
# GULP energy per Si atom -12401.453103 kJ/mol
# Density = 2.092582 g / cm^3
# Si number density = 20.973559 Si / 1000 Ang^3
#
#
#
# Elastic Constant Matrix: (Units=GPa)
#
#
# Indices 1 2 3 4 5 6 
#
# 1 85.5839 13.9142 16.1772 0.0000 -3.6789 0.0000
# 2 13.9142 70.7132 17.3070 0.0000 -3.1894 0.0000
# 3 16.1772 17.3070 89.5251 0.0000 6.5091 0.0000
# 4 0.0000 0.0000 0.0000 34.4244 0.0000 0.2191
# 5 -3.6789 -3.1894 6.5091 0.0000 44.5944 0.0000
# 6 0.0000 0.0000 0.0000 0.2191 0.0000 33.3320
#
#
#
# Elastic Compliance Matrix: (Units=1/GPa)
#
#
# Indices 1 2 3 4 5 6 
#
# 1 0.012416 -0.001911 -0.001960 0.000000 0.001174 0.000000
# 2 -0.001911 0.015237 -0.002697 0.000000 0.001326 0.000000
# 3 -0.001960 -0.002697 0.012201 0.000000 -0.002135 0.000000
# 4 0.000000 0.000000 0.000000 0.029050 0.000000 -0.000191
# 5 0.001174 0.001326 -0.002135 0.000000 0.022928 0.000000
# 6 0.000000 0.000000 0.000000 -0.000191 0.000000 0.030002
#
#
# Mechanical properties :
#
#
# Convention : Reuss Voigt Hill
#
# Bulk Modulus (GPa) = 37.42485 37.84653 37.63569
# Shear Modulus (GPa) = 34.75234 35.69841 35.22538
#
# Velocity S-wave (km/s) = 4.07499 4.13009 4.10263
# Velocity P-wave (km/s) = 6.32640 6.38964 6.35810
#
# Compressibility (1/GPa) = 0.02672021
#
# Stress axis : x y z
#
# Youngs Moduli (GPa) = 80.54189 65.62788 81.96209
#
# Poissons Ratio (x) = 0.12538 0.16061
# Poissons Ratio (y) = 0.15388 0.22104
# Poissons Ratio (z) = 0.15782 0.17699
#
# Static dielectric constant tensor:
#      x y z
#    x 4.257750 0.000000 0.395960 
#    y 0.000000 3.791680 0.000000 
#    z 0.395960 0.000000 4.365120 
# 
# 
# High freq. dielectric constant tensor:
#      x y z
#    x 1.832420 0.000000 0.004910 
#    y 0.000000 1.813600 0.000000 
#    z 0.004910 0.000000 1.838660 
# 
# From -- ./inp_files/63394.got.cif
#   From: 2010.06.25/outbox.cif.g09.slc.cpg/sg11_32_cif.got.tgz:63394.got - 2010.06.27 23:14:04.
