data_PCOD8075338
_publ_section_title
;
Structure prediction by ZEFSAII (Michael W. Deem and Ramdas Pophale) SiO2 
 PCOD8075338
Probable space group: P 21/M
;
_chemical_formula_sum "Si O2"
_cell_formula_units_Z 20
_cell_length_a 6.378422
_cell_length_b 25.370617
_cell_length_c 7.702692
_cell_angle_alpha 90.000000
_cell_angle_beta 124.835505
_cell_angle_gamma 90.000000
_cell_volume 1023.108565
_symmetry_space_group_name_H-M "P 21/M"
_symmetry_group_IT_number 11
_symmetry_cell_setting 'monoclinic'
loop_
_space_group_symop_operation_xyz
x,y,z
-x,1/2+y,-z
-x,-y,-z
x,1/2-y,z
loop_
_atom_site_type_symbol
_atom_site_label
_atom_site_fract_x
_atom_site_fract_y
_atom_site_fract_z
Si Si1 0.536604 0.596722 0.956484
Si Si2 0.827937 0.810801 0.966879
Si Si3 0.972252 0.375057 0.646876
Si Si4 0.522389 0.556753 0.592633
Si Si5 0.003833 0.373122 0.267383
O O1 0.575657 0.653044 0.871946
O O2 0.542239 0.551230 0.811830
O O3 0.261148 0.598749 0.918741
O O4 0.770030 0.589140 0.201713
O O5 0.753053 0.750000 0.941496
O O6 0.949732 0.823407 0.836271
O O7 0.025428 0.826010 0.216350
O O8 0.727901 0.410034 0.575233
O O9 0.975688 0.353469 0.452283
O O10 0.500000 0.500000 0.500000
O O11 0.774739 0.583916 0.637651
#
# Coordination Sequence:
#
# PCOD8075338 Si02
#       5
#     4   4   4   4   4
#     4   8  20  38  55  84 116 144 192 239 272 343
#     4   9  20  38  59  84 114 146 191 237 281 342
#     4   9  21  37  59  84 117 151 189 236 283 342
#     4  10  21  38  59  87 117 150 195 237 284 342
#     4  10  20  38  60  81 117 153 184 235 288 333
#
# _framework density 19.548268
#
# number of rings (size 3 to 8) (size 9 to 14) (size 15 to 20)
#    1.200    1.600    0.000    0.000    2.800    5.600 
#    0.000   10.000    0.000    0.000    0.000    0.000 
#    0.000    0.000    0.000    0.000    0.000    0.000 
#
# Total GULP energy -247786.601158 kJ/mol
# GULP energy per Si atom -12389.330058 kJ/mol
# Density = 1.950378 g / cm^3
# Si number density = 19.548268 Si / 1000 Ang^3
#
#
#
# Elastic Constant Matrix: (Units=GPa)
#
#
# Indices 1 2 3 4 5 6 
#
# 1 112.3962 26.9975 41.1639 0.0000 20.1643 0.0000
# 2 26.9975 52.5515 0.1047 0.0000 -2.9321 0.0000
# 3 41.1639 0.1047 83.2017 0.0000 8.7801 0.0000
# 4 0.0000 0.0000 0.0000 26.0182 0.0000 0.4624
# 5 20.1643 -2.9321 8.7801 0.0000 42.4710 0.0000
# 6 0.0000 0.0000 0.0000 0.4624 0.0000 14.8690
#
#
#
# Elastic Compliance Matrix: (Units=1/GPa)
#
#
# Indices 1 2 3 4 5 6 
#
# 1 0.014093 -0.007557 -0.006340 0.000000 -0.005902 0.000000
# 2 -0.007557 0.023157 0.003233 0.000000 0.004518 0.000000
# 3 -0.006340 0.003233 0.015141 0.000000 0.000103 0.000000
# 4 0.000000 0.000000 0.000000 0.038456 0.000000 -0.001196
# 5 -0.005902 0.004518 0.000103 0.000000 0.026638 0.000000
# 6 0.000000 0.000000 0.000000 -0.001196 0.000000 0.067291
#
#
# Mechanical properties :
#
#
# Convention : Reuss Voigt Hill
#
# Bulk Modulus (GPa) = 32.19336 42.74240 37.46788
# Shear Modulus (GPa) = 23.09910 28.66386 25.88148
#
# Velocity S-wave (km/s) = 3.44123 3.83340 3.64260
# Velocity P-wave (km/s) = 5.68277 6.44250 6.07452
#
# Compressibility (1/GPa) = 0.03106231
#
# Stress axis : x y z
#
# Youngs Moduli (GPa) = 70.95669 43.18389 66.04665
#
# Poissons Ratio (x) = 0.32633 0.41875
# Poissons Ratio (y) = 0.53620 -0.21351
# Poissons Ratio (z) = 0.44988 -0.13960
#
# Static dielectric constant tensor:
#      x y z
#    x 3.607730 0.000000 0.045920 
#    y 0.000000 3.029350 0.000000 
#    z 0.045920 0.000000 3.722430 
# 
# 
# High freq. dielectric constant tensor:
#      x y z
#    x 1.770030 0.000000 0.002580 
#    y 0.000000 1.716020 0.000000 
#    z 0.002580 0.000000 1.772200 
# 
# From -- ./inp_files/10393.got.cif
#   From: 2010.06.25/outbox.cif.g09.slc.cpg/sg11_6_cif.got.tgz:10393.got - 2010.06.27 23:14:04.
