data_PCOD8075852
_publ_section_title
;
Structure prediction by ZEFSAII (Michael W. Deem and Ramdas Pophale) SiO2 
 PCOD8075852
Probable space group: P 21/M
;
_chemical_formula_sum "Si O2"
_cell_formula_units_Z 24
_cell_length_a 23.162261
_cell_length_b 9.390369
_cell_length_c 5.264464
_cell_angle_alpha 90.000000
_cell_angle_beta 97.723585
_cell_angle_gamma 90.000000
_cell_volume 1134.644607
_symmetry_space_group_name_H-M "P 21/M"
_symmetry_group_IT_number 11
_symmetry_cell_setting 'monoclinic'
loop_
_space_group_symop_operation_xyz
x,y,z
-x,1/2+y,-z
-x,-y,-z
x,1/2-y,z
loop_
_atom_site_type_symbol
_atom_site_label
_atom_site_fract_x
_atom_site_fract_y
_atom_site_fract_z
Si Si1 0.130757 0.583387 0.082727
Si Si2 0.411642 0.906263 0.498996
Si Si3 0.469296 0.405199 0.184944
Si Si4 0.940212 0.083244 0.460192
Si Si5 0.678439 0.915987 0.296698
Si Si6 0.249820 0.084480 0.158226
O O1 0.144466 0.750000 0.091911
O O2 0.096779 0.537041 0.316112
O O3 0.190997 0.502259 0.108017
O O4 0.093827 0.539393 0.814280
O O5 0.382877 0.750000 0.427922
O O6 0.480139 0.878990 0.579259
O O7 0.411236 0.015594 0.259012
O O8 0.379639 0.986330 0.714745
O O9 0.448436 0.250000 0.069471
O O10 0.500000 0.500000 0.000000
O O11 0.954227 0.250000 0.473742
O O12 0.000000 0.000000 0.500000
O O13 0.661224 0.750000 0.289909
O O14 0.717882 0.955956 0.562680
O O15 0.710929 0.959536 0.058855
O O16 0.233872 0.250000 0.138419
#
# Coordination Sequence:
#
# PCOD8075852 Si02
#       6
#     4   4   4   4   4   4
#     4  10  21  37  57  82 115 150 189 235 284 334
#     4  10  22  38  56  83 112 146 191 238 290 353
#     4  10  21  37  58  83 113 147 187 234 291 355
#     4  10  21  36  56  85 117 150 189 232 280 336
#     4  10  22  39  58  84 115 149 191 241 290 342
#     4  10  22  39  59  84 113 150 196 237 285 343
#
# _framework density 21.151997999999999
#
# number of rings (size 3 to 8) (size 9 to 14) (size 15 to 20)
#    0.000    2.000    0.000    2.500    2.333    4.667 
#    0.000    0.000    0.000    0.000    0.000    0.000 
#    0.000    0.000    0.000    0.000    0.000    0.000 
#
# Total GULP energy -297525.692839 kJ/mol
# GULP energy per Si atom -12396.903868 kJ/mol
# Density = 2.110385 g / cm^3
# Si number density = 21.151998 Si / 1000 Ang^3
#
#
#
# Elastic Constant Matrix: (Units=GPa)
#
#
# Indices 1 2 3 4 5 6 
#
# 1 104.5772 36.2091 29.4397 0.0000 -12.2562 0.0000
# 2 36.2091 103.3157 20.6180 0.0000 -22.0029 0.0000
# 3 29.4397 20.6180 115.0407 0.0000 -15.8653 0.0000
# 4 0.0000 0.0000 0.0000 17.4697 0.0000 -7.6482
# 5 -12.2562 -22.0029 -15.8653 0.0000 36.2279 0.0000
# 6 0.0000 0.0000 0.0000 -7.6482 0.0000 41.9583
#
#
#
# Elastic Compliance Matrix: (Units=1/GPa)
#
#
# Indices 1 2 3 4 5 6 
#
# 1 0.011458 -0.003395 -0.002207 0.000000 0.000848 0.000000
# 2 -0.003395 0.012262 -0.000490 0.000000 0.006085 0.000000
# 3 -0.002207 -0.000490 0.009793 0.000000 0.003244 0.000000
# 4 0.000000 0.000000 0.000000 0.062206 0.000000 0.011339
# 5 0.000848 0.006085 0.003244 0.000000 0.033006 0.000000
# 6 0.000000 0.000000 0.000000 0.011339 0.000000 0.025900
#
#
# Mechanical properties :
#
#
# Convention : Reuss Voigt Hill
#
# Bulk Modulus (GPa) = 46.88156 55.05192 50.96674
# Shear Modulus (GPa) = 28.74906 34.90897 31.82901
#
# Velocity S-wave (km/s) = 3.69069 4.06690 3.88335
# Velocity P-wave (km/s) = 6.35404 6.93803 6.65244
#
# Compressibility (1/GPa) = 0.02133035
#
# Stress axis : x y z
#
# Youngs Moduli (GPa) = 87.27220 81.55001 102.11841
#
# Poissons Ratio (x) = 0.27684 0.22536
# Poissons Ratio (y) = 0.29627 0.05002
# Poissons Ratio (z) = 0.19260 0.03995
#
# Static dielectric constant tensor:
#      x y z
#    x 3.912070 0.000000 -0.793270 
#    y 0.000000 4.215140 0.000000 
#    z -0.793270 0.000000 16.123540 
# 
# 
# High freq. dielectric constant tensor:
#      x y z
#    x 1.822240 0.000000 -0.008350 
#    y 0.000000 1.834270 0.000000 
#    z -0.008350 0.000000 1.840780 
# 
# From -- ./inp_files/9249.got.cif
#   From: 2010.06.25/outbox.cif.g09.slc.cpg/sg11_5_cif.got.tgz:9249.got - 2010.06.27 23:14:04.
