data_PCOD8075533
_publ_section_title
;
Structure prediction by ZEFSAII (Michael W. Deem and Ramdas Pophale) SiO2 
 PCOD8075533
Probable space group: P 21/M
;
_chemical_formula_sum "Si O2"
_cell_formula_units_Z 20
_cell_length_a 7.910976
_cell_length_b 8.713595
_cell_length_c 24.624454
_cell_angle_alpha 90.000000
_cell_angle_beta 143.984839
_cell_angle_gamma 90.000000
_cell_volume 998.092656
_symmetry_space_group_name_H-M "P 21/M"
_symmetry_group_IT_number 11
_symmetry_cell_setting 'monoclinic'
loop_
_space_group_symop_operation_xyz
x,y,z
-x,1/2+y,-z
-x,-y,-z
x,1/2-y,z
loop_
_atom_site_type_symbol
_atom_site_label
_atom_site_fract_x
_atom_site_fract_y
_atom_site_fract_z
Si Si1 0.284120 0.429277 0.784992
Si Si2 0.742404 0.567921 0.100756
Si Si3 0.628913 0.430545 0.773598
Si Si4 0.663590 0.068926 0.593191
Si Si5 0.694972 0.431096 0.405901
O O1 0.260299 0.250000 0.788958
O O2 0.304289 0.501920 0.850637
O O3 0.559094 0.469982 0.818776
O O4 0.996994 0.481416 0.678377
O O5 0.720007 0.750000 0.093876
O O6 0.050709 0.514231 0.157472
O O7 0.500000 0.500000 0.000000
O O8 0.588358 0.250000 0.751605
O O9 0.394411 0.523291 0.678027
O O10 0.621104 0.250000 0.581292
O O11 0.500000 0.000000 0.500000
O O12 0.544006 0.002631 0.617697
O O13 0.708687 0.250000 0.416472
O O14 0.000000 0.500000 0.500000
#
# Coordination Sequence:
#
# PCOD8075533 Si02
#       5
#     4   4   4   4   4
#     4   9  19  37  61  86 117 157 199 245 304 365
#     4  10  21  39  61  88 120 159 202 251 307 366
#     4  10  20  39  64  87 118 159 202 251 308 367
#     4  11  21  37  59  88 124 163 206 252 305 368
#     4  12  24  38  58  87 123 163 206 254 307 368
#
# _framework density 20.038219000000002
#
# number of rings (size 3 to 8) (size 9 to 14) (size 15 to 20)
#    0.000    1.600    2.000    3.600    0.000    3.200 
#    0.000    2.000    0.000    0.000    0.000    0.000 
#    0.000    0.000    0.000    0.000    0.000    0.000 
#
# Total GULP energy -247990.595697 kJ/mol
# GULP energy per Si atom -12399.529785 kJ/mol
# Density = 1.999261 g / cm^3
# Si number density = 20.038219 Si / 1000 Ang^3
#
#
#
# Elastic Constant Matrix: (Units=GPa)
#
#
# Indices 1 2 3 4 5 6 
#
# 1 161.5156 27.5924 75.4312 0.0000 -4.9564 0.0000
# 2 27.5924 68.7154 35.7401 0.0000 1.4725 0.0000
# 3 75.4312 35.7401 154.4406 0.0000 -7.8236 0.0000
# 4 0.0000 0.0000 0.0000 34.6188 0.0000 -4.0791
# 5 -4.9564 1.4725 -7.8236 0.0000 33.7310 0.0000
# 6 0.0000 0.0000 0.0000 -4.0791 0.0000 22.5168
#
#
#
# Elastic Compliance Matrix: (Units=1/GPa)
#
#
# Indices 1 2 3 4 5 6 
#
# 1 0.008137 -0.001387 -0.003633 0.000000 0.000414 0.000000
# 2 -0.001387 0.016869 -0.003313 0.000000 -0.001709 0.000000
# 3 -0.003633 -0.003313 0.009103 0.000000 0.001722 0.000000
# 4 0.000000 0.000000 0.000000 0.029516 0.000000 0.005347
# 5 0.000414 -0.001709 0.001722 0.000000 0.030181 0.000000
# 6 0.000000 0.000000 0.000000 0.005347 0.000000 0.045380
#
#
# Mechanical properties :
#
#
# Convention : Reuss Voigt Hill
#
# Bulk Modulus (GPa) = 57.32330 73.57766 65.45048
# Shear Modulus (GPa) = 30.92771 34.56719 32.74745
#
# Velocity S-wave (km/s) = 3.93292 4.15789 4.04697
# Velocity P-wave (km/s) = 7.02089 7.73622 7.38722
#
# Compressibility (1/GPa) = 0.01744491
#
# Stress axis : x y z
#
# Youngs Moduli (GPa) = 122.88827 59.27858 109.85299
#
# Poissons Ratio (x) = 0.08223 0.39904
# Poissons Ratio (y) = 0.17046 0.36394
# Poissons Ratio (z) = 0.44639 0.19639
#
# Static dielectric constant tensor:
#      x y z
#    x 4.018630 0.000000 -0.056310 
#    y 0.000000 3.503440 0.000000 
#    z -0.056310 0.000000 3.734360 
# 
# 
# High freq. dielectric constant tensor:
#      x y z
#    x 1.801950 0.000000 -0.001730 
#    y 0.000000 1.758580 0.000000 
#    z -0.001730 0.000000 1.781820 
# 
# From -- ./inp_files/25999.got.cif
#   From: 2010.06.25/outbox.cif.g09.slc.cpg/sg11_13_cif.got.tgz:25999.got - 2010.06.27 23:14:04.
