data_PCOD8075056
_publ_section_title
;
Structure prediction by ZEFSAII (Michael W. Deem and Ramdas Pophale) SiO2 
 PCOD8075056
Probable space group: P 21/M
;
_chemical_formula_sum "Si O2"
_cell_formula_units_Z 32
_cell_length_a 11.823199
_cell_length_b 9.249051
_cell_length_c 15.086692
_cell_angle_alpha 90.000000
_cell_angle_beta 91.684039
_cell_angle_gamma 90.000000
_cell_volume 1649.068056
_symmetry_space_group_name_H-M "P 21/M"
_symmetry_group_IT_number 11
_symmetry_cell_setting 'monoclinic'
loop_
_space_group_symop_operation_xyz
x,y,z
-x,1/2+y,-z
-x,-y,-z
x,1/2-y,z
loop_
_atom_site_type_symbol
_atom_site_label
_atom_site_fract_x
_atom_site_fract_y
_atom_site_fract_z
Si Si1 0.010216 0.921318 0.272431
Si Si2 0.177994 0.578752 0.427059
Si Si3 0.537828 0.086346 0.116780
Si Si4 0.567500 0.079015 0.578070
Si Si5 0.665817 0.419915 0.946453
Si Si6 0.834719 0.082962 0.376814
Si Si7 0.923455 0.421695 0.925083
Si Si8 0.413314 0.588009 0.688655
O O1 0.001573 0.750000 0.277808
O O2 0.102879 0.982660 0.344544
O O3 0.038528 0.969549 0.172874
O O4 0.892136 0.988879 0.301208
O O5 0.179751 0.750000 0.422878
O O6 0.304649 0.520911 0.416685
O O7 0.130128 0.531335 0.522911
O O8 0.500513 0.250000 0.095918
O O9 0.610264 0.072818 0.207671
O O10 0.422106 0.994443 0.123031
O O11 0.623718 0.031808 0.042960
O O12 0.561063 0.250000 0.564907
O O13 0.500000 0.000000 0.500000
O O14 0.508227 0.029963 0.667475
O O15 0.660375 0.250000 0.929881
O O16 0.793940 0.473748 0.934683
O O17 0.866238 0.250000 0.361457
O O18 0.700765 0.058025 0.367790
O O19 0.935053 0.250000 0.938485
O O20 0.000000 0.500000 0.000000
O O21 0.456894 0.750000 0.667128
#
# Coordination Sequence:
#
# PCOD8075056 Si02
#       8
#     4   4   4   4   4   4   4   4
#     4  10  22  39  58  84 112 144 190 240 280 327
#     4   9  19  37  59  81 113 150 185 228 281 333
#     4   9  19  35  57  84 114 146 181 233 281 329
#     4  11  21  36  58  83 114 152 186 225 278 333
#     4   9  19  37  59  82 109 147 189 228 283 344
#     4  10  20  37  59  82 113 154 190 228 279 335
#     4  10  23  40  60  83 113 149 189 236 285 337
#     4  10  21  36  55  83 117 149 187 230 278 335
#
# _framework density 19.404899
#
# number of rings (size 3 to 8) (size 9 to 14) (size 15 to 20)
#    0.000    2.250    1.250    0.750    3.500    2.000 
#    0.000    1.250    0.000    0.000    0.000    0.000 
#    0.000    0.000    0.000    0.000    0.000    0.000 
#
# Total GULP energy -396721.626900 kJ/mol
# GULP energy per Si atom -12397.550841 kJ/mol
# Density = 1.936073 g / cm^3
# Si number density = 19.404899 Si / 1000 Ang^3
#
#
#
# Elastic Constant Matrix: (Units=GPa)
#
#
# Indices 1 2 3 4 5 6 
#
# 1 91.0230 32.1402 48.4612 0.0000 -13.5551 0.0000
# 2 32.1402 41.2443 30.8828 0.0000 -4.1502 0.0000
# 3 48.4612 30.8828 129.1187 0.0000 -2.6894 0.0000
# 4 0.0000 0.0000 0.0000 29.7930 0.0000 -1.6518
# 5 -13.5551 -4.1502 -2.6894 0.0000 32.6130 0.0000
# 6 0.0000 0.0000 0.0000 -1.6518 0.0000 31.9820
#
#
#
# Elastic Compliance Matrix: (Units=1/GPa)
#
#
# Indices 1 2 3 4 5 6 
#
# 1 0.017546 -0.010061 -0.004061 0.000000 0.005678 0.000000
# 2 -0.010061 0.035638 -0.004748 0.000000 -0.000038 0.000000
# 3 -0.004061 -0.004748 0.010375 0.000000 -0.001437 0.000000
# 4 0.000000 0.000000 0.000000 0.033661 0.000000 0.001739
# 5 0.005678 -0.000038 -0.001437 0.000000 0.032899 0.000000
# 6 0.000000 0.000000 0.000000 0.001739 0.000000 0.031357
#
#
# Mechanical properties :
#
#
# Convention : Reuss Voigt Hill
#
# Bulk Modulus (GPa) = 38.73296 53.81716 46.27506
# Shear Modulus (GPa) = 24.05883 28.87105 26.46494
#
# Velocity S-wave (km/s) = 3.52495 3.86142 3.69701
# Velocity P-wave (km/s) = 6.04737 6.90469 6.49020
#
# Compressibility (1/GPa) = 0.02581781
#
# Stress axis : x y z
#
# Youngs Moduli (GPa) = 56.99172 28.06008 96.38780
#
# Poissons Ratio (x) = 0.28232 0.39142
# Poissons Ratio (y) = 0.57341 0.45769
# Poissons Ratio (z) = 0.23143 0.13324
#
# Static dielectric constant tensor:
#      x y z
#    x 3.664780 0.000000 -0.073290 
#    y 0.000000 3.447960 0.000000 
#    z -0.073290 0.000000 3.777100 
# 
# 
# High freq. dielectric constant tensor:
#      x y z
#    x 1.755800 0.000000 -0.001320 
#    y 0.000000 1.733540 0.000000 
#    z -0.001320 0.000000 1.767280 
# 
# From -- ./inp_files/49287.got.cif
#   From: 2010.06.25/outbox.cif.g09.slc.cpg/sg11_25_cif.got.tgz:49287.got - 2010.06.27 23:14:04.
