data_PCOD8075807
_publ_section_title
;
Structure prediction by ZEFSAII (Michael W. Deem and Ramdas Pophale) SiO2 
 PCOD8075807
Probable space group: P 21/M
;
_chemical_formula_sum "Si O2"
_cell_formula_units_Z 32
_cell_length_a 14.832016
_cell_length_b 8.959922
_cell_length_c 12.259485
_cell_angle_alpha 90.000000
_cell_angle_beta 87.387196
_cell_angle_gamma 90.000000
_cell_volume 1627.514688
_symmetry_space_group_name_H-M "P 21/M"
_symmetry_group_IT_number 11
_symmetry_cell_setting 'monoclinic'
loop_
_space_group_symop_operation_xyz
x,y,z
-x,1/2+y,-z
-x,-y,-z
x,1/2-y,z
loop_
_atom_site_type_symbol
_atom_site_label
_atom_site_fract_x
_atom_site_fract_y
_atom_site_fract_z
Si Si1 0.560201 0.922846 0.906561
Si Si2 0.090822 0.573372 0.951428
Si Si3 0.936151 0.578961 0.264418
Si Si4 0.631617 0.422809 0.474261
Si Si5 0.530976 0.574034 0.665808
Si Si6 0.143388 0.579227 0.294400
Si Si7 0.768948 0.922710 0.901964
Si Si8 0.163709 0.576744 0.541375
O O1 0.535243 0.750000 0.908462
O O2 0.537903 0.990426 0.788007
O O3 0.664113 0.949703 0.930795
O O4 0.500000 0.000000 0.000000
O O5 0.080790 0.750000 0.958485
O O6 0.108592 0.522002 0.826721
O O7 0.176149 0.523706 0.017050
O O8 0.000000 0.500000 0.000000
O O9 0.907218 0.750000 0.248822
O O10 0.901454 0.523591 0.382637
O O11 0.043455 0.562021 0.252032
O O12 0.617710 0.250000 0.501856
O O13 0.611019 0.508785 0.587324
O O14 0.565436 0.473940 0.380169
O O15 0.733120 0.456352 0.430737
O O16 0.544437 0.750000 0.667210
O O17 0.176845 0.750000 0.283357
O O18 0.209493 0.473440 0.222368
O O19 0.146587 0.526112 0.418692
O O20 0.795882 0.750000 0.914501
O O21 0.138926 0.750000 0.559120
#
# Coordination Sequence:
#
# PCOD8075807 Si02
#       8
#     4   4   4   4   4   4   4   4
#     4  10  23  40  58  85 120 157 199 246 296 351
#     4  12  24  41  64  88 116 152 195 245 298 356
#     4  11  23  38  57  84 117 155 198 243 293 349
#     4   9  18  33  56  84 112 146 190 237 285 345
#     4   9  18  35  57  81 112 147 187 236 290 344
#     4  10  21  37  58  83 116 156 199 245 295 353
#     4  11  23  39  62  90 118 154 202 252 301 357
#     4  10  21  36  54  83 120 156 197 240 291 352
#
# _framework density 19.66188
#
# number of rings (size 3 to 8) (size 9 to 14) (size 15 to 20)
#    0.000    1.750    1.250    3.000    0.000    4.000 
#    0.000    1.250    0.000    0.000    0.000    0.000 
#    0.000    0.000    0.000    0.000    0.000    0.000 
#
# Total GULP energy -396951.422971 kJ/mol
# GULP energy per Si atom -12404.731968 kJ/mol
# Density = 1.961713 g / cm^3
# Si number density = 19.661880 Si / 1000 Ang^3
#
#
#
# Elastic Constant Matrix: (Units=GPa)
#
#
# Indices 1 2 3 4 5 6 
#
# 1 68.4538 44.8761 39.3732 0.0000 -4.1830 0.0000
# 2 44.8761 98.4544 53.2142 0.0000 -4.7193 0.0000
# 3 39.3732 53.2142 122.8298 0.0000 1.5659 0.0000
# 4 0.0000 0.0000 0.0000 38.8689 0.0000 -3.9984
# 5 -4.1830 -4.7193 1.5659 0.0000 33.1662 0.0000
# 6 0.0000 0.0000 0.0000 -3.9984 0.0000 26.0691
#
#
#
# Elastic Compliance Matrix: (Units=1/GPa)
#
#
# Indices 1 2 3 4 5 6 
#
# 1 0.022052 -0.008006 -0.003623 0.000000 0.001813 0.000000
# 2 -0.008006 0.016326 -0.004526 0.000000 0.001527 0.000000
# 3 -0.003623 -0.004526 0.011284 0.000000 -0.001634 0.000000
# 4 0.000000 0.000000 0.000000 0.026140 0.000000 0.004009
# 5 0.001813 0.001527 -0.001634 0.000000 0.030674 0.000000
# 6 0.000000 0.000000 0.000000 0.004009 0.000000 0.038975
#
#
# Mechanical properties :
#
#
# Convention : Reuss Voigt Hill
#
# Bulk Modulus (GPa) = 57.63296 62.74057 60.18677
# Shear Modulus (GPa) = 27.24128 29.77246 28.50687
#
# Velocity S-wave (km/s) = 3.72625 3.89552 3.81183
# Velocity P-wave (km/s) = 6.92018 7.22582 7.07465
#
# Compressibility (1/GPa) = 0.01735118
#
# Stress axis : x y z
#
# Youngs Moduli (GPa) = 45.34794 61.25323 88.61750
#
# Poissons Ratio (x) = 0.49039 0.32109
# Poissons Ratio (y) = 0.36306 0.40108
# Poissons Ratio (z) = 0.16431 0.27723
#
# Static dielectric constant tensor:
#      x y z
#    x 3.606990 0.000000 0.178750 
#    y 0.000000 3.481980 0.000000 
#    z 0.178750 0.000000 3.733590 
# 
# 
# High freq. dielectric constant tensor:
#      x y z
#    x 1.766960 0.000000 0.008570 
#    y 0.000000 1.762750 0.000000 
#    z 0.008570 0.000000 1.775140 
# 
# From -- ./inp_files/38225.got.cif
#   From: 2010.06.25/outbox.cif.g09.slc.cpg/sg11_20_cif.got.tgz:38225.got - 2010.06.27 23:14:04.
