data_PCOD8075994
_publ_section_title
;
Structure prediction by ZEFSAII (Michael W. Deem and Ramdas Pophale) SiO2 
 PCOD8075994
Probable space group: P 21/M
;
_chemical_formula_sum "Si O2"
_cell_formula_units_Z 32
_cell_length_a 9.901061
_cell_length_b 28.071220
_cell_length_c 5.014136
_cell_angle_alpha 90.000000
_cell_angle_beta 102.639184
_cell_angle_gamma 90.000000
_cell_volume 1359.832493
_symmetry_space_group_name_H-M "P 21/M"
_symmetry_group_IT_number 11
_symmetry_cell_setting 'monoclinic'
loop_
_space_group_symop_operation_xyz
x,y,z
-x,1/2+y,-z
-x,-y,-z
x,1/2-y,z
loop_
_atom_site_type_symbol
_atom_site_label
_atom_site_fract_x
_atom_site_fract_y
_atom_site_fract_z
Si Si1 0.242096 0.122905 0.327568
Si Si2 0.814808 0.000773 0.167514
Si Si3 0.646986 0.974602 0.591478
Si Si4 0.111853 0.667797 0.168884
Si Si5 0.583750 0.303869 0.658472
Si Si6 0.950029 0.802637 0.578089
Si Si7 0.405822 0.304984 0.070308
Si Si8 0.990219 0.071591 0.961746
O O1 0.357385 0.083552 0.473269
O O2 0.289371 0.156750 0.102087
O O3 0.180736 0.160950 0.518340
O O4 0.117293 0.088774 0.194950
O O5 0.752551 0.001153 0.436679
O O6 0.867558 0.052687 0.101544
O O7 0.696215 0.981981 0.915556
O O8 0.952477 0.967600 0.220511
O O9 0.500000 0.000000 0.500000
O O10 0.276802 0.667395 0.238949
O O11 0.051946 0.680539 0.855136
O O12 0.071631 0.614434 0.237054
O O13 0.043626 0.702319 0.355873
O O14 0.619748 0.250000 0.750774
O O15 0.463214 0.321681 0.807213
O O16 0.530769 0.309162 0.335507
O O17 0.889069 0.750000 0.610938
O O18 0.349364 0.250000 0.038104
#
# Coordination Sequence:
#
# PCOD8075994 Si02
#       8
#     4   4   4   4   4   4   4   4
#     4  10  23  41  61  88 120 154 203 249 297 359
#     4  10  22  42  64  89 122 157 195 242 305 361
#     4  11  24  41  64  91 122 158 198 248 300 359
#     4  11  22  37  60  90 119 153 200 246 293 353
#     4  10  21  37  56  81 115 154 194 238 291 351
#     4  11  22  37  60  87 119 156 194 246 302 353
#     4  10  22  39  59  83 117 160 200 244 297 354
#     4   9  22  40  64  90 120 157 197 249 301 355
#
# _framework density 23.532309999999999
#
# number of rings (size 3 to 8) (size 9 to 14) (size 15 to 20)
#    0.000    1.750    0.000    3.375    0.000   13.500 
#    0.000    3.750    0.000    0.000    0.000    0.000 
#    0.000    0.000    0.000    0.000    0.000    0.000 
#
# Total GULP energy -396688.075238 kJ/mol
# GULP energy per Si atom -12396.502351 kJ/mol
# Density = 2.347875 g / cm^3
# Si number density = 23.532310 Si / 1000 Ang^3
#
#
#
# Elastic Constant Matrix: (Units=GPa)
#
#
# Indices 1 2 3 4 5 6 
#
# 1 84.9928 33.6462 -3.3251 0.0000 -16.2339 0.0000
# 2 33.6462 117.5658 -10.4834 0.0000 -2.8027 0.0000
# 3 -3.3251 -10.4834 46.9684 0.0000 -13.7422 0.0000
# 4 0.0000 0.0000 0.0000 13.6320 0.0000 -6.6258
# 5 -16.2339 -2.8027 -13.7422 0.0000 34.1521 0.0000
# 6 0.0000 0.0000 0.0000 -6.6258 0.0000 42.1423
#
#
#
# Elastic Compliance Matrix: (Units=1/GPa)
#
#
# Indices 1 2 3 4 5 6 
#
# 1 0.014864 -0.003850 0.002457 0.000000 0.007738 0.000000
# 2 -0.003850 0.009763 0.001820 0.000000 -0.000297 0.000000
# 3 0.002457 0.001820 0.025226 0.000000 0.011468 0.000000
# 4 0.000000 0.000000 0.000000 0.079427 0.000000 0.012488
# 5 0.007738 -0.000297 0.011468 0.000000 0.037549 0.000000
# 6 0.000000 0.000000 0.000000 0.012488 0.000000 0.025692
#
#
# Mechanical properties :
#
#
# Convention : Reuss Voigt Hill
#
# Bulk Modulus (GPa) = 19.72160 32.13360 25.92760
# Shear Modulus (GPa) = 23.97264 33.29790 28.63527
#
# Velocity S-wave (km/s) = 3.19519 3.76571 3.49212
# Velocity P-wave (km/s) = 4.69160 5.70896 5.22510
#
# Compressibility (1/GPa) = 0.05070582
#
# Stress axis : x y z
#
# Youngs Moduli (GPa) = 67.27614 102.42746 39.64120
#
# Poissons Ratio (x) = 0.39439 -0.09740
# Poissons Ratio (y) = 0.25904 -0.07213
# Poissons Ratio (z) = -0.16529 -0.18638
#
# Static dielectric constant tensor:
#      x y z
#    x 4.157810 0.000000 -0.140130 
#    y 0.000000 4.681720 0.000000 
#    z -0.140130 0.000000 3.968340 
# 
# 
# High freq. dielectric constant tensor:
#      x y z
#    x 1.926460 0.000000 -0.006670 
#    y 0.000000 1.939770 0.000000 
#    z -0.006670 0.000000 1.922020 
# 
# From -- ./inp_files/3407.got.cif
#   From: 2010.06.25/outbox.cif.g09.slc.cpg/sg11_2_cif.got.tgz:3407.got - 2010.06.27 23:14:04.
