data_PCOD8075267
_publ_section_title
;
Structure prediction by ZEFSAII (Michael W. Deem and Ramdas Pophale) SiO2 
 PCOD8075267
Probable space group: P 21/M
;
_chemical_formula_sum "Si O2"
_cell_formula_units_Z 32
_cell_length_a 22.589222
_cell_length_b 13.909737
_cell_length_c 7.934644
_cell_angle_alpha 90.000000
_cell_angle_beta 37.342559
_cell_angle_gamma 90.000000
_cell_volume 1512.290018
_symmetry_space_group_name_H-M "P 21/M"
_symmetry_group_IT_number 11
_symmetry_cell_setting 'monoclinic'
loop_
_space_group_symop_operation_xyz
x,y,z
-x,1/2+y,-z
-x,-y,-z
x,1/2-y,z
loop_
_atom_site_type_symbol
_atom_site_label
_atom_site_fract_x
_atom_site_fract_y
_atom_site_fract_z
Si Si1 0.279481 0.855557 0.735278
Si Si2 0.506356 0.140799 0.348792
Si Si3 0.236421 0.010110 0.364732
Si Si4 0.408032 0.931989 0.171309
Si Si5 0.912235 0.364125 0.444498
Si Si6 0.055488 0.363656 0.818417
Si Si7 0.063854 0.858370 0.226256
Si Si8 0.644025 0.997132 0.213003
O O1 0.288990 0.750000 0.801008
O O2 0.375203 0.866573 0.401707
O O3 0.272911 0.944309 0.878057
O O4 0.171746 0.860892 0.895932
O O5 0.492986 0.250000 0.439087
O O6 0.563416 0.079644 0.359148
O O7 0.400971 0.088338 0.571120
O O8 0.563536 0.139215 0.043532
O O9 0.308502 0.989674 0.356874
O O10 0.185142 0.914562 0.406433
O O11 0.161984 0.091028 0.593684
O O12 0.308161 0.051913 0.058075
O O13 0.500000 0.000000 0.000000
O O14 0.891459 0.250000 0.494714
O O15 0.939282 0.401427 0.574304
O O16 0.997278 0.391923 0.119648
O O17 0.065082 0.250000 0.783895
O O18 0.006064 0.407183 0.757702
O O19 0.026653 0.750000 0.330184
#
# Coordination Sequence:
#
# PCOD8075267 Si02
#       8
#     4   4   4   4   4   4   4   4
#     4  11  20  36  61  89 119 154 194 252 313 358
#     4  10  21  39  61  84 117 163 202 249 316 368
#     4  11  23  39  62  86 120 162 200 254 316 364
#     4  11  23  40  59  86 124 155 206 261 304 374
#     4  10  20  37  62  92 124 158 206 261 311 367
#     4  10  22  41  60  89 128 165 207 251 303 376
#     4   9  19  36  60  91 122 156 204 254 304 366
#     4  10  21  37  58  89 120 151 204 258 294 375
#
# _framework density 21.159962
#
# number of rings (size 3 to 8) (size 9 to 14) (size 15 to 20)
#    0.000    1.750    2.500    1.875    0.000    4.500 
#    2.250    1.250    0.000    0.000    0.000    0.000 
#    0.000    0.000    0.000    0.000    0.000    0.000 
#
# Total GULP energy -396498.106439 kJ/mol
# GULP energy per Si atom -12390.565826 kJ/mol
# Density = 2.111180 g / cm^3
# Si number density = 21.159962 Si / 1000 Ang^3
#
#
#
# Elastic Constant Matrix: (Units=GPa)
#
#
# Indices 1 2 3 4 5 6 
#
# 1 85.4044 32.2529 42.0393 0.0000 -5.2102 0.0000
# 2 32.2529 67.5774 44.0669 0.0000 -4.0524 0.0000
# 3 42.0393 44.0669 115.5174 0.0000 1.3073 0.0000
# 4 0.0000 0.0000 0.0000 30.0328 0.0000 -1.5278
# 5 -5.2102 -4.0524 1.3073 0.0000 37.2513 0.0000
# 6 0.0000 0.0000 0.0000 -1.5278 0.0000 17.9045
#
#
#
# Elastic Compliance Matrix: (Units=1/GPa)
#
#
# Indices 1 2 3 4 5 6 
#
# 1 0.015518 -0.004797 -0.003838 0.000000 0.001783 0.000000
# 2 -0.004797 0.021399 -0.006439 0.000000 0.001883 0.000000
# 3 -0.003838 -0.006439 0.012529 0.000000 -0.001677 0.000000
# 4 0.000000 0.000000 0.000000 0.033442 0.000000 0.002854
# 5 0.001783 0.001883 -0.001677 0.000000 0.027358 0.000000
# 6 0.000000 0.000000 0.000000 0.002854 0.000000 0.056095
#
#
# Mechanical properties :
#
#
# Convention : Reuss Voigt Hill
#
# Bulk Modulus (GPa) = 51.81631 56.13525 53.97578
# Shear Modulus (GPa) = 24.64011 27.04705 25.84358
#
# Velocity S-wave (km/s) = 3.41613 3.57910 3.49856
# Velocity P-wave (km/s) = 6.33254 6.60806 6.47177
#
# Compressibility (1/GPa) = 0.01929894
#
# Stress axis : x y z
#
# Youngs Moduli (GPa) = 64.43927 46.73138 79.81796
#
# Poissons Ratio (x) = 0.22417 0.30632
# Poissons Ratio (y) = 0.30912 0.51392
# Poissons Ratio (z) = 0.24730 0.30089
#
# Static dielectric constant tensor:
#      x y z
#    x 3.883140 0.000000 0.118910 
#    y 0.000000 3.584170 0.000000 
#    z 0.118910 0.000000 3.887960 
# 
# 
# High freq. dielectric constant tensor:
#      x y z
#    x 1.819000 0.000000 0.008430 
#    y 0.000000 1.810860 0.000000 
#    z 0.008430 0.000000 1.840460 
# 
# From -- ./inp_files/27793.got.cif
#   From: 2010.06.25/outbox.cif.g09.slc.cpg/sg11_14_cif.got.tgz:27793.got - 2010.06.27 23:14:04.
