data_PCOD8075190
_publ_section_title
;
Structure prediction by ZEFSAII (Michael W. Deem and Ramdas Pophale) SiO2 
 PCOD8075190
Probable space group: P 21/M
;
_chemical_formula_sum "Si O2"
_cell_formula_units_Z 28
_cell_length_a 15.440274
_cell_length_b 9.220395
_cell_length_c 11.674620
_cell_angle_alpha 90.000000
_cell_angle_beta 120.941452
_cell_angle_gamma 90.000000
_cell_volume 1425.539394
_symmetry_space_group_name_H-M "P 21/M"
_symmetry_group_IT_number 11
_symmetry_cell_setting 'monoclinic'
loop_
_space_group_symop_operation_xyz
x,y,z
-x,1/2+y,-z
-x,-y,-z
x,1/2-y,z
loop_
_atom_site_type_symbol
_atom_site_label
_atom_site_fract_x
_atom_site_fract_y
_atom_site_fract_z
Si Si1 0.718431 0.418978 0.884809
Si Si2 0.474863 0.580271 0.101266
Si Si3 0.602244 0.085155 0.582412
Si Si4 0.072712 0.083321 0.964501
Si Si5 0.973937 0.914086 0.322423
Si Si6 0.154004 0.920526 0.602116
Si Si7 0.635994 0.416638 0.349865
O O1 0.748122 0.250000 0.895746
O O2 0.640915 0.444514 0.937742
O O3 0.670570 0.475162 0.732364
O O4 0.817812 0.512134 0.973313
O O5 0.497349 0.750000 0.100735
O O6 0.543280 0.517415 0.250026
O O7 0.500000 0.500000 0.000000
O O8 0.573648 0.250000 0.592153
O O9 0.660650 0.071388 0.501640
O O10 0.500000 0.000000 0.500000
O O11 0.085465 0.250000 0.012002
O O12 0.015105 0.072359 0.805204
O O13 0.000000 0.000000 0.000000
O O14 0.952480 0.750000 0.346306
O O15 0.077875 0.970479 0.449594
O O16 0.879499 0.009012 0.301158
O O17 0.154354 0.750000 0.617770
O O18 0.265692 0.975150 0.648825
O O19 0.610900 0.250000 0.300048
#
# Coordination Sequence:
#
# PCOD8075190 Si02
#       7
#     4   4   4   4   4   4   4
#     4  10  23  42  63  87 120 161 201 247 303 356
#     4  11  24  41  61  88 124 162 202 247 297 358
#     4  10  20  37  61  86 117 153 193 243 295 352
#     4  11  25  42  63  89 120 158 202 248 298 356
#     4   9  20  39  60  84 115 151 193 242 294 347
#     4   9  19  36  60  86 114 149 190 239 296 352
#     4  10  21  36  60  90 117 153 196 241 299 357
#
# _framework density 19.641687999999998
#
# number of rings (size 3 to 8) (size 9 to 14) (size 15 to 20)
#    0.000    2.000    1.429    0.857    4.000    3.429 
#    0.000    0.000    0.000    0.000    0.000    0.000 
#    0.000    0.000    0.000    0.000    0.000    0.000 
#
# Total GULP energy -347231.121439 kJ/mol
# GULP energy per Si atom -12401.111480 kJ/mol
# Density = 1.959698 g / cm^3
# Si number density = 19.641688 Si / 1000 Ang^3
#
#
#
# Elastic Constant Matrix: (Units=GPa)
#
#
# Indices 1 2 3 4 5 6 
#
# 1 119.2068 55.7744 24.7462 0.0000 1.2574 0.0000
# 2 55.7744 81.9553 33.7786 0.0000 2.6035 0.0000
# 3 24.7462 33.7786 72.3747 0.0000 -7.1226 0.0000
# 4 0.0000 0.0000 0.0000 31.4795 0.0000 0.0315
# 5 1.2574 2.6035 -7.1226 0.0000 30.8242 0.0000
# 6 0.0000 0.0000 0.0000 0.0315 0.0000 34.8449
#
#
#
# Elastic Compliance Matrix: (Units=1/GPa)
#
#
# Indices 1 2 3 4 5 6 
#
# 1 0.012316 -0.008239 -0.000355 0.000000 0.000111 0.000000
# 2 -0.008239 0.020891 -0.007238 0.000000 -0.003101 0.000000
# 3 -0.000355 -0.007238 0.017782 0.000000 0.004735 0.000000
# 4 0.000000 0.000000 0.000000 0.031767 0.000000 -0.000029
# 5 0.000111 -0.003101 0.004735 0.000000 0.033793 0.000000
# 6 0.000000 0.000000 0.000000 -0.000029 0.000000 0.028699
#
#
# Mechanical properties :
#
#
# Convention : Reuss Voigt Hill
#
# Bulk Modulus (GPa) = 51.74584 55.79280 53.76932
# Shear Modulus (GPa) = 27.26973 30.04557 28.65765
#
# Velocity S-wave (km/s) = 3.73011 3.91536 3.82386
# Velocity P-wave (km/s) = 6.70476 6.99336 6.85058
#
# Compressibility (1/GPa) = 0.01932522
#
# Stress axis : x y z
#
# Youngs Moduli (GPa) = 81.19442 47.86857 56.23527
#
# Poissons Ratio (x) = 0.39439 0.01996
# Poissons Ratio (y) = 0.66896 0.40704
# Poissons Ratio (z) = 0.02881 0.34648
#
# Static dielectric constant tensor:
#      x y z
#    x 3.683110 0.000000 -0.107580 
#    y 0.000000 3.450460 0.000000 
#    z -0.107580 0.000000 3.739990 
# 
# 
# High freq. dielectric constant tensor:
#      x y z
#    x 1.770340 0.000000 -0.006590 
#    y 0.000000 1.761460 0.000000 
#    z -0.006590 0.000000 1.769790 
# 
# From -- ./inp_files/38446.got.cif
#   From: 2010.06.25/outbox.cif.g09.slc.cpg/sg11_20_cif.got.tgz:38446.got - 2010.06.27 23:14:04.
