data_PCOD8075854
_publ_section_title
;
Structure prediction by ZEFSAII (Michael W. Deem and Ramdas Pophale) SiO2 
 PCOD8075854
Probable space group: P 21/M
;
_chemical_formula_sum "Si O2"
_cell_formula_units_Z 24
_cell_length_a 9.945057
_cell_length_b 8.874992
_cell_length_c 14.243077
_cell_angle_alpha 90.000000
_cell_angle_beta 99.987490
_cell_angle_gamma 90.000000
_cell_volume 1238.075807
_symmetry_space_group_name_H-M "P 21/M"
_symmetry_group_IT_number 11
_symmetry_cell_setting 'monoclinic'
loop_
_space_group_symop_operation_xyz
x,y,z
-x,1/2+y,-z
-x,-y,-z
x,1/2-y,z
loop_
_atom_site_type_symbol
_atom_site_label
_atom_site_fract_x
_atom_site_fract_y
_atom_site_fract_z
Si Si1 0.923275 0.927163 0.126358
Si Si2 0.185823 0.072422 0.085698
Si Si3 0.624043 0.570692 0.570983
Si Si4 0.442034 0.428172 0.229234
Si Si5 0.146636 0.574512 0.518595
Si Si6 0.745805 0.075332 0.260781
O O1 0.939685 0.750000 0.132690
O O2 0.850567 0.982646 0.210968
O O3 0.835091 0.977452 0.024626
O O4 0.073394 0.997706 0.139133
O O5 0.170462 0.250000 0.096731
O O6 0.335719 0.017181 0.136596
O O7 0.500000 0.500000 0.500000
O O8 0.619597 0.750000 0.560420
O O9 0.611336 0.515891 0.676657
O O10 0.766573 0.507866 0.550723
O O11 0.453773 0.250000 0.233626
O O12 0.593359 0.490505 0.224809
O O13 0.134147 0.750000 0.492610
O O14 0.219310 0.549498 0.626727
O O15 0.000000 0.500000 0.500000
O O16 0.757561 0.250000 0.234316
#
# Coordination Sequence:
#
# PCOD8075854 Si02
#       6
#     4   4   4   4   4   4
#     4  10  21  36  56  86 117 144 184 237 283 330
#     4   9  19  38  61  82 110 149 188 229 284 344
#     4  11  21  38  61  86 117 154 194 237 283 341
#     4   9  19  37  60  83 108 148 193 226 275 345
#     4  11  24  41  59  85 117 154 195 238 289 344
#     4  10  21  39  59  80 112 153 189 226 282 345
#
# _framework density 19.384919
#
# number of rings (size 3 to 8) (size 9 to 14) (size 15 to 20)
#    0.000    2.000    1.667    1.500    2.333    2.667 
#    0.000    1.667    0.000    0.000    0.000    0.000 
#    0.000    0.000    0.000    0.000    0.000    0.000 
#
# Total GULP energy -297650.267948 kJ/mol
# GULP energy per Si atom -12402.094498 kJ/mol
# Density = 1.934080 g / cm^3
# Si number density = 19.384919 Si / 1000 Ang^3
#
#
#
# Elastic Constant Matrix: (Units=GPa)
#
#
# Indices 1 2 3 4 5 6 
#
# 1 100.7744 22.3774 -0.1793 0.0000 5.1847 0.0000
# 2 22.3774 53.6231 13.0728 0.0000 0.6245 0.0000
# 3 -0.1793 13.0728 31.0664 0.0000 -1.6942 0.0000
# 4 0.0000 0.0000 0.0000 27.7011 0.0000 -1.2894
# 5 5.1847 0.6245 -1.6942 0.0000 40.4196 0.0000
# 6 0.0000 0.0000 0.0000 -1.2894 0.0000 30.7340
#
#
#
# Elastic Compliance Matrix: (Units=1/GPa)
#
#
# Indices 1 2 3 4 5 6 
#
# 1 0.011138 -0.005162 0.002168 0.000000 -0.001258 0.000000
# 2 -0.005162 0.023192 -0.009795 0.000000 -0.000107 0.000000
# 3 0.002168 -0.009795 0.036400 0.000000 0.001399 0.000000
# 4 0.000000 0.000000 0.000000 0.036170 0.000000 0.001518
# 5 -0.001258 -0.000107 0.001399 0.000000 0.024962 0.000000
# 6 0.000000 0.000000 0.000000 0.001518 0.000000 0.032601
#
#
# Mechanical properties :
#
#
# Convention : Reuss Voigt Hill
#
# Bulk Modulus (GPa) = 22.14751 28.44506 25.29629
# Shear Modulus (GPa) = 24.37943 29.78381 27.08162
#
# Velocity S-wave (km/s) = 3.55018 3.92400 3.74176
# Velocity P-wave (km/s) = 5.31554 5.93599 5.63432
#
# Compressibility (1/GPa) = 0.04515180
#
# Stress axis : x y z
#
# Youngs Moduli (GPa) = 89.78319 43.11854 27.47284
#
# Poissons Ratio (x) = 0.22257 -0.05955
# Poissons Ratio (y) = 0.46344 0.26909
# Poissons Ratio (z) = -0.19463 0.42234
#
# Static dielectric constant tensor:
#      x y z
#    x 3.827430 0.000000 0.040580 
#    y 0.000000 3.601050 0.000000 
#    z 0.040580 0.000000 3.714190 
# 
# 
# High freq. dielectric constant tensor:
#      x y z
#    x 1.768640 0.000000 0.001870 
#    y 0.000000 1.741780 0.000000 
#    z 0.001870 0.000000 1.756530 
# 
# From -- ./inp_files/20630.got.cif
#   From: 2010.06.25/outbox.cif.g09.slc.cpg/sg11_11_cif.got.tgz:20630.got - 2010.06.27 23:14:04.
