data_PCOD8075800
_publ_section_title
;
Structure prediction by ZEFSAII (Michael W. Deem and Ramdas Pophale) SiO2 
 PCOD8075800
Probable space group: P 21/M
;
_chemical_formula_sum "Si O2"
_cell_formula_units_Z 24
_cell_length_a 18.028030
_cell_length_b 9.171890
_cell_length_c 15.190674
_cell_angle_alpha 90.000000
_cell_angle_beta 149.757293
_cell_angle_gamma 90.000000
_cell_volume 1265.100651
_symmetry_space_group_name_H-M "P 21/M"
_symmetry_group_IT_number 11
_symmetry_cell_setting 'monoclinic'
loop_
_space_group_symop_operation_xyz
x,y,z
-x,1/2+y,-z
-x,-y,-z
x,1/2-y,z
loop_
_atom_site_type_symbol
_atom_site_label
_atom_site_fract_x
_atom_site_fract_y
_atom_site_fract_z
Si Si1 0.674523 0.917361 0.920918
Si Si2 0.846569 0.420081 0.244852
Si Si3 0.156668 0.579313 0.257692
Si Si4 0.665395 0.080779 0.391329
Si Si5 0.178207 0.081537 0.107496
Si Si6 0.813580 0.920263 0.386994
O O1 0.718439 0.750000 0.986513
O O2 0.503947 0.946131 0.760908
O O3 0.709540 0.955424 0.855650
O O4 0.769926 0.023519 0.078631
O O5 0.814734 0.250000 0.225062
O O6 0.778799 0.505115 0.258180
O O7 0.019611 0.452493 0.412925
O O8 0.181634 0.750000 0.273432
O O9 0.238892 0.521629 0.428816
O O10 0.228221 0.506618 0.244812
O O11 0.985745 0.535411 0.091046
O O12 0.700047 0.250000 0.408060
O O13 0.703810 0.987646 0.345324
O O14 0.181402 0.250000 0.136561
O O15 0.780871 0.750000 0.343926
#
# Coordination Sequence:
#
# PCOD8075800 Si02
#       6
#     4   4   4   4   4   4
#     4  10  21  36  54  78 109 144 179 216 262 315
#     4  10  21  37  58  82 106 136 176 220 265 314
#     4   9  18  33  53  76 103 137 177 220 263 308
#     4  10  21  36  54  78 109 144 179 216 262 315
#     4   9  18  33  53  76 103 137 177 220 263 308
#     4  10  21  37  58  82 106 136 176 220 265 314
#
# _framework density 18.970821999999998
#
# number of rings (size 3 to 8) (size 9 to 14) (size 15 to 20)
#    0.000    2.333    0.000    2.000    0.000    6.667 
#    0.000    3.333    0.000    0.000    0.000    0.000 
#    0.000    0.000    0.000    0.000    0.000    0.000 
#
# Total GULP energy -297712.650415 kJ/mol
# GULP energy per Si atom -12404.693767 kJ/mol
# Density = 1.892764 g / cm^3
# Si number density = 18.970822 Si / 1000 Ang^3
#
#
#
# Elastic Constant Matrix: (Units=GPa)
#
#
# Indices 1 2 3 4 5 6 
#
# 1 139.6518 50.5960 17.2819 0.0000 6.0606 0.0000
# 2 50.5960 66.1985 16.7516 0.0000 3.1345 0.0000
# 3 17.2819 16.7516 22.0435 0.0000 2.7897 0.0000
# 4 0.0000 0.0000 0.0000 27.6996 0.0000 -6.2805
# 5 6.0606 3.1345 2.7897 0.0000 20.0889 0.0000
# 6 0.0000 0.0000 0.0000 -6.2805 0.0000 38.1216
#
#
#
# Elastic Compliance Matrix: (Units=1/GPa)
#
#
# Indices 1 2 3 4 5 6 
#
# 1 0.010066 -0.007022 -0.002351 0.000000 -0.001615 0.000000
# 2 -0.007022 0.023620 -0.012465 0.000000 0.000164 0.000000
# 3 -0.002351 -0.012465 0.057352 0.000000 -0.005310 0.000000
# 4 0.000000 0.000000 0.000000 0.037502 0.000000 0.006178
# 5 -0.001615 0.000164 -0.005310 0.000000 0.050978 0.000000
# 6 0.000000 0.000000 0.000000 0.006178 0.000000 0.027250
#
#
# Mechanical properties :
#
#
# Convention : Reuss Voigt Hill
#
# Bulk Modulus (GPa) = 21.11390 44.12811 32.62100
# Shear Modulus (GPa) = 18.78075 26.73299 22.75687
#
# Velocity S-wave (km/s) = 3.14981 3.75796 3.46724
# Velocity P-wave (km/s) = 4.93784 6.49162 5.76730
#
# Compressibility (1/GPa) = 0.04736216
#
# Stress axis : x y z
#
# Youngs Moduli (GPa) = 99.34715 42.33789 17.43609
#
# Poissons Ratio (x) = 0.29730 0.04099
# Poissons Ratio (y) = 0.69761 0.21734
# Poissons Ratio (z) = 0.23355 0.52774
#
# Static dielectric constant tensor:
#      x y z
#    x 3.518180 0.000000 -0.039650 
#    y 0.000000 3.448610 0.000000 
#    z -0.039650 0.000000 3.388680 
# 
# 
# High freq. dielectric constant tensor:
#      x y z
#    x 1.746880 0.000000 -0.005480 
#    y 0.000000 1.734240 0.000000 
#    z -0.005480 0.000000 1.729500 
# 
# From -- ./inp_files/20536.got.cif
#   From: 2010.06.25/outbox.cif.g09.slc.cpg/sg11_11_cif.got.tgz:20536.got - 2010.06.27 23:14:04.
