data_PCOD8075239
_publ_section_title
;
Structure prediction by ZEFSAII (Michael W. Deem and Ramdas Pophale) SiO2 
 PCOD8075239
Probable space group: P 21/M
;
_chemical_formula_sum "Si O2"
_cell_formula_units_Z 24
_cell_length_a 14.908007
_cell_length_b 8.779523
_cell_length_c 17.617107
_cell_angle_alpha 90.000000
_cell_angle_beta 32.279955
_cell_angle_gamma 90.000000
_cell_volume 1231.437538
_symmetry_space_group_name_H-M "P 21/M"
_symmetry_group_IT_number 11
_symmetry_cell_setting 'monoclinic'
loop_
_space_group_symop_operation_xyz
x,y,z
-x,1/2+y,-z
-x,-y,-z
x,1/2-y,z
loop_
_atom_site_type_symbol
_atom_site_label
_atom_site_fract_x
_atom_site_fract_y
_atom_site_fract_z
Si Si1 0.750306 0.427126 0.855749
Si Si2 0.908772 0.429262 0.342666
Si Si3 0.451117 0.572831 0.151733
Si Si4 0.392066 0.070479 0.350854
Si Si5 0.750429 0.425676 0.160631
Si Si6 0.927082 0.925665 0.168313
O O1 0.766191 0.250000 0.863577
O O2 0.676492 0.457746 0.825540
O O3 0.931842 0.502410 0.727925
O O4 0.631707 0.499935 0.004681
O O5 0.910107 0.250000 0.352422
O O6 0.742248 0.497036 0.497908
O O7 0.910164 0.469801 0.253486
O O8 0.478461 0.750000 0.147523
O O9 0.368778 0.494681 0.283361
O O10 0.365887 0.250000 0.367104
O O11 0.573978 0.024201 0.252122
O O12 0.751784 0.250000 0.185004
O O13 0.784449 0.528108 0.210081
O O14 0.889737 0.456643 0.997188
O O15 0.902288 0.750000 0.208803
#
# Coordination Sequence:
#
# PCOD8075239 Si02
#       6
#     4   4   4   4   4   4
#     4  10  21  39  62  87 116 151 192 236 284 340
#     4  12  25  39  57  83 117 154 194 240 289 343
#     4  10  21  38  62  90 117 148 190 238 285 337
#     4  11  23  39  59  83 117 157 194 236 287 343
#     4   9  20  38  60  86 113 146 189 234 282 339
#     4  10  20  37  62  88 114 146 187 236 289 344
#
# _framework density 19.489415999999999
#
# number of rings (size 3 to 8) (size 9 to 14) (size 15 to 20)
#    0.000    1.667    0.000    4.500    0.000    6.667 
#    0.000    0.000    0.000    0.000    0.000    0.000 
#    0.000    0.000    0.000    0.000    0.000    0.000 
#
# Total GULP energy -297764.934794 kJ/mol
# GULP energy per Si atom -12406.872283 kJ/mol
# Density = 1.944506 g / cm^3
# Si number density = 19.489416 Si / 1000 Ang^3
#
#
#
# Elastic Constant Matrix: (Units=GPa)
#
#
# Indices 1 2 3 4 5 6 
#
# 1 96.1621 59.0089 60.1611 0.0000 0.8164 0.0000
# 2 59.0089 115.2036 53.7511 0.0000 -5.0848 0.0000
# 3 60.1611 53.7511 107.0276 0.0000 -3.3304 0.0000
# 4 0.0000 0.0000 0.0000 36.1045 0.0000 2.8158
# 5 0.8164 -5.0848 -3.3304 0.0000 8.1041 0.0000
# 6 0.0000 0.0000 0.0000 2.8158 0.0000 37.2510
#
#
#
# Elastic Compliance Matrix: (Units=1/GPa)
#
#
# Indices 1 2 3 4 5 6 
#
# 1 0.019567 -0.006753 -0.007901 0.000000 -0.009455 0.000000
# 2 -0.006753 0.013858 -0.002909 0.000000 0.008180 0.000000
# 3 -0.007901 -0.002909 0.015411 0.000000 0.005304 0.000000
# 4 0.000000 0.000000 0.000000 0.027862 0.000000 -0.002106
# 5 -0.009455 0.008180 0.005304 0.000000 0.131659 0.000000
# 6 0.000000 0.000000 0.000000 -0.002106 0.000000 0.027004
#
#
# Mechanical properties :
#
#
# Convention : Reuss Voigt Hill
#
# Bulk Modulus (GPa) = 72.94905 73.80395 73.37650
# Shear Modulus (GPa) = 18.17815 25.99007 22.08411
#
# Velocity S-wave (km/s) = 3.05736 3.65574 3.36986
# Velocity P-wave (km/s) = 7.06927 7.46794 7.27134
#
# Compressibility (1/GPa) = 0.01370820
#
# Stress axis : x y z
#
# Youngs Moduli (GPa) = 51.10772 72.16244 64.88981
#
# Poissons Ratio (x) = 0.48732 0.51271
# Poissons Ratio (y) = 0.34513 0.18877
# Poissons Ratio (z) = 0.40381 0.20992
#
# Static dielectric constant tensor:
#      x y z
#    x 3.592190 0.000000 -0.051690 
#    y 0.000000 3.669660 0.000000 
#    z -0.051690 0.000000 3.537710 
# 
# 
# High freq. dielectric constant tensor:
#      x y z
#    x 1.769020 0.000000 -0.000390 
#    y 0.000000 1.772690 0.000000 
#    z -0.000390 0.000000 1.758190 
# 
# From -- ./inp_files/53155.got.cif
#   From: 2010.06.25/outbox.cif.g09.slc.cpg/sg11_27_cif.got.tgz:53155.got - 2010.06.27 23:14:04.
