data_PCOD8075627
_publ_section_title
;
Structure prediction by ZEFSAII (Michael W. Deem and Ramdas Pophale) SiO2 
 PCOD8075627
Probable space group: P 21/M
;
_chemical_formula_sum "Si O2"
_cell_formula_units_Z 32
_cell_length_a 23.272965
_cell_length_b 8.542719
_cell_length_c 15.116992
_cell_angle_alpha 90.000000
_cell_angle_beta 149.398898
_cell_angle_gamma 90.000000
_cell_volume 1529.961360
_symmetry_space_group_name_H-M "P 21/M"
_symmetry_group_IT_number 11
_symmetry_cell_setting 'monoclinic'
loop_
_space_group_symop_operation_xyz
x,y,z
-x,1/2+y,-z
-x,-y,-z
x,1/2-y,z
loop_
_atom_site_type_symbol
_atom_site_label
_atom_site_fract_x
_atom_site_fract_y
_atom_site_fract_z
Si Si1 0.336811 0.565124 0.027625
Si Si2 0.265075 0.431695 0.545843
Si Si3 0.913695 0.931197 0.314767
Si Si4 0.030183 0.069954 0.305719
Si Si5 0.496861 0.568854 0.898684
Si Si6 0.053392 0.433067 0.982795
Si Si7 0.725484 0.929977 0.634780
Si Si8 0.506308 0.436164 0.607109
O O1 0.332800 0.750000 0.021303
O O2 0.210271 0.504760 0.845657
O O3 0.414655 0.512926 0.049299
O O4 0.388526 0.507381 0.191260
O O5 0.302487 0.250000 0.601998
O O6 0.164565 0.464917 0.482254
O O7 0.369280 0.544851 0.698995
O O8 0.221044 0.478406 0.389157
O O9 0.899504 0.750000 0.315788
O O10 0.000000 0.000000 0.500000
O O11 0.968483 0.956339 0.291651
O O12 0.007082 0.250000 0.301036
O O13 0.981755 0.038797 0.145146
O O14 0.528235 0.750000 0.942769
O O15 0.500000 0.500000 0.000000
O O16 0.022965 0.250000 0.929289
O O17 0.187665 0.460041 0.170743
O O18 0.000000 0.500000 0.000000
O O19 0.695172 0.750000 0.587814
O O20 0.605266 0.010337 0.494511
O O21 0.500000 0.500000 0.500000
O O22 0.507111 0.250000 0.602497
#
# Coordination Sequence:
#
# PCOD8075627 Si02
#       8
#     4   4   4   4   4   4   4   4
#     4  11  24  47  73 100 135 176 225 279 335 399
#     4  10  20  41  67  92 129 171 216 271 332 394
#     4  12  28  50  73  98 132 176 225 282 339 402
#     4  11  24  43  67  96 132 175 225 279 334 397
#     4  12  26  43  68 101 133 169 214 270 335 400
#     4  11  21  36  59  92 131 174 218 266 324 392
#     4   9  18  37  60  86 124 171 212 260 324 386
#     4  10  22  40  64  92 128 172 218 270 328 390
#
# _framework density 20.915559999999999
#
# number of rings (size 3 to 8) (size 9 to 14) (size 15 to 20)
#    0.000    1.250    2.500    3.375    3.500    2.000 
#    0.000    0.625    0.000    0.000    0.000    0.000 
#    0.000    0.000    0.000    0.000    0.000    0.000 
#
# Total GULP energy -396654.304224 kJ/mol
# GULP energy per Si atom -12395.447007 kJ/mol
# Density = 2.086796 g / cm^3
# Si number density = 20.915560 Si / 1000 Ang^3
#
#
#
# Elastic Constant Matrix: (Units=GPa)
#
#
# Indices 1 2 3 4 5 6 
#
# 1 123.5823 31.8628 71.2604 0.0000 -1.5591 0.0000
# 2 31.8628 82.1867 40.8305 0.0000 5.7001 0.0000
# 3 71.2604 40.8305 135.7432 0.0000 5.6268 0.0000
# 4 0.0000 0.0000 0.0000 34.9488 0.0000 -1.6273
# 5 -1.5591 5.7001 5.6268 0.0000 38.5239 0.0000
# 6 0.0000 0.0000 0.0000 -1.6273 0.0000 35.4115
#
#
#
# Elastic Compliance Matrix: (Units=1/GPa)
#
#
# Indices 1 2 3 4 5 6 
#
# 1 0.011915 -0.001869 -0.005759 0.000000 0.001600 0.000000
# 2 -0.001869 0.014685 -0.003363 0.000000 -0.001757 0.000000
# 3 -0.005759 -0.003363 0.011460 0.000000 -0.001409 0.000000
# 4 0.000000 0.000000 0.000000 0.028675 0.000000 0.001318
# 5 0.001600 -0.001757 -0.001409 0.000000 0.026488 0.000000
# 6 0.000000 0.000000 0.000000 0.001318 0.000000 0.028300
#
#
# Mechanical properties :
#
#
# Convention : Reuss Voigt Hill
#
# Bulk Modulus (GPa) = 62.19907 69.93550 66.06728
# Shear Modulus (GPa) = 33.58788 34.94741 34.26764
#
# Velocity S-wave (km/s) = 4.01169 4.09208 4.05208
# Velocity P-wave (km/s) = 7.15968 7.47238 7.31770
#
# Compressibility (1/GPa) = 0.01607741
#
# Stress axis : x y z
#
# Youngs Moduli (GPa) = 83.93116 68.09826 87.26001
#
# Poissons Ratio (x) = 0.12728 0.50251
# Poissons Ratio (y) = 0.15687 0.29345
# Poissons Ratio (z) = 0.48334 0.22901
#
# Static dielectric constant tensor:
#      x y z
#    x 1.120950 0.000000 0.516330 
#    y 0.000000 3.488560 0.000000 
#    z 0.516330 0.000000 4.056530 
# 
# 
# High freq. dielectric constant tensor:
#      x y z
#    x 1.826940 0.000000 0.002440 
#    y 0.000000 1.807740 0.000000 
#    z 0.002440 0.000000 1.834950 
# 
# From -- ./inp_files/55730.got.cif
#   From: 2010.06.25/outbox.cif.g09.slc.cpg/sg11_28_cif.got.tgz:55730.got - 2010.06.27 23:14:04.
