data_PCOD8075373
_publ_section_title
;
Structure prediction by ZEFSAII (Michael W. Deem and Ramdas Pophale) SiO2 
 PCOD8075373
Probable space group: P 21/M
;
_chemical_formula_sum "Si O2"
_cell_formula_units_Z 28
_cell_length_a 18.198667
_cell_length_b 8.649867
_cell_length_c 22.540988
_cell_angle_alpha 90.000000
_cell_angle_beta 156.155228
_cell_angle_gamma 90.000000
_cell_volume 1434.441620
_symmetry_space_group_name_H-M "P 21/M"
_symmetry_group_IT_number 11
_symmetry_cell_setting 'monoclinic'
loop_
_space_group_symop_operation_xyz
x,y,z
-x,1/2+y,-z
-x,-y,-z
x,1/2-y,z
loop_
_atom_site_type_symbol
_atom_site_label
_atom_site_fract_x
_atom_site_fract_y
_atom_site_fract_z
Si Si1 0.344933 0.067558 0.219536
Si Si2 0.006496 0.932953 0.439490
Si Si3 0.694154 0.432833 0.127437
Si Si4 0.952765 0.432195 0.079164
Si Si5 0.696910 0.430244 0.996029
Si Si6 0.660609 0.432601 0.657189
Si Si7 0.596228 0.068539 0.298854
O O1 0.350524 0.250000 0.236507
O O2 0.501571 0.011539 0.289679
O O3 0.148616 0.022872 0.048380
O O4 0.379116 0.973505 0.304272
O O5 0.990857 0.750000 0.431315
O O6 0.195185 0.986305 0.548161
O O7 0.000000 0.000000 0.500000
O O8 0.842822 0.998205 0.280574
O O9 0.690432 0.250000 0.132066
O O10 0.500000 0.500000 0.000000
O O11 0.744241 0.484306 0.097419
O O12 0.940814 0.250000 0.057787
O O13 0.862962 0.477853 0.075818
O O14 0.158479 0.486523 0.233033
O O15 0.661568 0.250000 0.968044
O O16 0.508296 0.504922 0.835714
O O17 0.500000 0.500000 0.500000
O O18 0.675820 0.250000 0.660174
O O19 0.581091 0.250000 0.283546
#
# Coordination Sequence:
#
# PCOD8075373 Si02
#       7
#     4   4   4   4   4   4   4
#     4  10  20  38  61  86 114 149 189 231 277 333
#     4  11  23  39  58  84 115 151 190 233 281 334
#     4  11  23  39  58  84 115 151 190 233 281 334
#     4  10  20  38  61  86 114 149 189 231 277 333
#     4   9  20  37  59  85 114 146 186 231 279 331
#     4  12  25  40  57  82 114 150 188 234 285 336
#     4   9  20  37  59  85 114 146 186 231 279 331
#
# _framework density 19.519791000000001
#
# number of rings (size 3 to 8) (size 9 to 14) (size 15 to 20)
#    0.000    1.714    0.000    4.286    0.000    6.857 
#    0.000    2.857    0.000    0.000    0.000    0.000 
#    0.000    0.000    0.000    0.000    0.000    0.000 
#
# Total GULP energy -347299.304542 kJ/mol
# GULP energy per Si atom -12403.546591 kJ/mol
# Density = 1.947536 g / cm^3
# Si number density = 19.519791 Si / 1000 Ang^3
#
#
#
# Elastic Constant Matrix: (Units=GPa)
#
#
# Indices 1 2 3 4 5 6 
#
# 1 126.1104 34.7364 85.1632 0.0000 -1.5422 0.0000
# 2 34.7364 51.9309 29.3443 0.0000 6.6819 0.0000
# 3 85.1632 29.3443 165.5669 0.0000 5.5232 0.0000
# 4 0.0000 0.0000 0.0000 38.7606 0.0000 -2.4361
# 5 -1.5422 6.6819 5.5232 0.0000 23.4936 0.0000
# 6 0.0000 0.0000 0.0000 -2.4361 0.0000 29.4086
#
#
#
# Elastic Compliance Matrix: (Units=1/GPa)
#
#
# Indices 1 2 3 4 5 6 
#
# 1 0.013886 -0.006345 -0.006157 0.000000 0.004164 0.000000
# 2 -0.006345 0.024957 -0.000916 0.000000 -0.007299 0.000000
# 3 -0.006157 -0.000916 0.009448 0.000000 -0.002365 0.000000
# 4 0.000000 0.000000 0.000000 0.025934 0.000000 0.002148
# 5 0.004164 -0.007299 -0.002365 0.000000 0.045470 0.000000
# 6 0.000000 0.000000 0.000000 0.002148 0.000000 0.034182
#
#
# Mechanical properties :
#
#
# Convention : Reuss Voigt Hill
#
# Bulk Modulus (GPa) = 46.60840 71.34400 58.97620
# Shear Modulus (GPa) = 26.61481 31.29018 28.95249
#
# Velocity S-wave (km/s) = 3.69654 4.00809 3.85546
# Velocity P-wave (km/s) = 6.49219 7.61896 7.07803
#
# Compressibility (1/GPa) = 0.02145536
#
# Stress axis : x y z
#
# Youngs Moduli (GPa) = 72.01513 40.06837 105.84176
#
# Poissons Ratio (x) = 0.25423 0.65166
# Poissons Ratio (y) = 0.45693 0.09697
# Poissons Ratio (z) = 0.44339 0.03671
#
# Static dielectric constant tensor:
#      x y z
#    x 4.024550 0.000000 0.071100 
#    y 0.000000 3.632400 0.000000 
#    z 0.071100 0.000000 3.643640 
# 
# 
# High freq. dielectric constant tensor:
#      x y z
#    x 1.775300 0.000000 0.002820 
#    y 0.000000 1.768670 0.000000 
#    z 0.002820 0.000000 1.762610 
# 
# From -- ./inp_files/69841.got.cif
#   From: 2010.06.25/outbox.cif.g09.slc.cpg/sg11_35_cif.got.tgz:69841.got - 2010.06.27 23:14:04.
