data_PCOD8075564
_publ_section_title
;
Structure prediction by ZEFSAII (Michael W. Deem and Ramdas Pophale) SiO2 
 PCOD8075564
Probable space group: P 21/M
;
_chemical_formula_sum "Si O2"
_cell_formula_units_Z 32
_cell_length_a 21.772659
_cell_length_b 13.870954
_cell_length_c 16.045986
_cell_angle_alpha 90.000000
_cell_angle_beta 161.059567
_cell_angle_gamma 90.000000
_cell_volume 1572.941713
_symmetry_space_group_name_H-M "P 21/M"
_symmetry_group_IT_number 11
_symmetry_cell_setting 'monoclinic'
loop_
_space_group_symop_operation_xyz
x,y,z
-x,1/2+y,-z
-x,-y,-z
x,1/2-y,z
loop_
_atom_site_type_symbol
_atom_site_label
_atom_site_fract_x
_atom_site_fract_y
_atom_site_fract_z
Si Si1 0.911745 0.060329 0.460055
Si Si2 0.794550 0.531516 0.475013
Si Si3 0.572858 0.046654 0.753728
Si Si4 0.280156 0.356729 0.001605
Si Si5 0.664342 0.357306 0.413380
Si Si6 0.200362 0.549196 0.247393
Si Si7 0.856255 0.139271 0.999660
Si Si8 0.558238 0.361314 0.915704
O O1 0.069407 0.133529 0.696131
O O2 0.846646 0.982369 0.445508
O O3 0.739425 0.124246 0.206305
O O4 0.000000 0.000000 0.500000
O O5 0.739413 0.426878 0.438512
O O6 0.622263 0.605582 0.262494
O O7 0.969918 0.572329 0.751809
O O8 0.575094 0.077086 0.853107
O O9 0.357306 0.036003 0.445776
O O10 0.679812 0.124690 0.835396
O O11 0.678069 0.942454 0.878798
O O12 0.298613 0.250000 0.066877
O O13 0.436456 0.366105 0.128429
O O14 0.724944 0.250000 0.464727
O O15 0.758907 0.380849 0.623328
O O16 0.211468 0.613403 0.179368
O O17 0.000000 0.500000 0.000000
O O18 0.919805 0.250000 0.085678
O O19 0.536293 0.250000 0.863427
#
# Coordination Sequence:
#
# PCOD8075564 Si02
#       8
#     4   4   4   4   4   4   4   4
#     4  12  23  42  64  93 131 169 216 268 325 382
#     4  12  23  43  66  92 135 169 214 273 319 384
#     4  11  22  44  66  94 136 168 212 272 319 382
#     4  10  20  39  66  90 122 169 208 260 324 377
#     4  10  21  40  66  92 126 169 213 264 327 383
#     4  11  21  41  68  94 132 169 212 267 324 381
#     4  12  24  41  66  98 132 176 219 261 321 388
#     4  12  24  42  66  96 129 174 220 266 322 384
#
# _framework density 20.344047
#
# number of rings (size 3 to 8) (size 9 to 14) (size 15 to 20)
#    0.000    0.750    6.250    2.250    0.000    1.500 
#    0.000    5.000    0.000    0.000    0.000    0.000 
#    0.000    0.000    0.000    0.000    0.000    0.000 
#
# Total GULP energy -396895.639359 kJ/mol
# GULP energy per Si atom -12402.988730 kJ/mol
# Density = 2.029774 g / cm^3
# Si number density = 20.344047 Si / 1000 Ang^3
#
#
#
# Elastic Constant Matrix: (Units=GPa)
#
#
# Indices 1 2 3 4 5 6 
#
# 1 95.6161 21.9869 30.4951 0.0000 -1.3038 0.0000
# 2 21.9869 110.2857 36.1525 0.0000 3.6941 0.0000
# 3 30.4951 36.1525 130.3873 0.0000 20.6700 0.0000
# 4 0.0000 0.0000 0.0000 25.8839 0.0000 0.4744
# 5 -1.3038 3.6941 20.6700 0.0000 22.1083 0.0000
# 6 0.0000 0.0000 0.0000 0.4744 0.0000 24.9385
#
#
#
# Elastic Compliance Matrix: (Units=1/GPa)
#
#
# Indices 1 2 3 4 5 6 
#
# 1 0.011789 -0.001516 -0.002920 0.000000 0.003678 0.000000
# 2 -0.001516 0.010191 -0.002567 0.000000 0.000608 0.000000
# 3 -0.002920 -0.002567 0.010594 0.000000 -0.009648 0.000000
# 4 0.000000 0.000000 0.000000 0.038647 0.000000 -0.000735
# 5 0.003678 0.000608 -0.009648 0.000000 0.054367 0.000000
# 6 0.000000 0.000000 0.000000 -0.000735 0.000000 0.040113
#
#
# Mechanical properties :
#
#
# Convention : Reuss Voigt Hill
#
# Bulk Modulus (GPa) = 53.86176 57.06201 55.46188
# Shear Modulus (GPa) = 26.89670 31.09643 28.99657
#
# Velocity S-wave (km/s) = 3.64000 3.91388 3.77942
# Velocity P-wave (km/s) = 6.64824 6.96664 6.80930
#
# Compressibility (1/GPa) = 0.01856605
#
# Stress axis : x y z
#
# Youngs Moduli (GPa) = 84.82805 98.12682 94.39613
#
# Poissons Ratio (x) = 0.14879 0.27562
# Poissons Ratio (y) = 0.12862 0.24235
# Poissons Ratio (z) = 0.24769 0.25193
#
# Static dielectric constant tensor:
#      x y z
#    x 3.634010 0.000000 0.133720 
#    y 0.000000 3.791240 0.000000 
#    z 0.133720 0.000000 4.192700 
# 
# 
# High freq. dielectric constant tensor:
#      x y z
#    x 1.787400 0.000000 0.011410 
#    y 0.000000 1.798670 0.000000 
#    z 0.011410 0.000000 1.807940 
# 
# From -- ./inp_files/55015.got.cif
#   From: 2010.06.25/outbox.cif.g09.slc.cpg/sg11_28_cif.got.tgz:55015.got - 2010.06.27 23:14:04.
