data_PCOD8075437
_publ_section_title
;
Structure prediction by ZEFSAII (Michael W. Deem and Ramdas Pophale) SiO2 
 PCOD8075437
Probable space group: P 21/M
;
_chemical_formula_sum "Si O2"
_cell_formula_units_Z 28
_cell_length_a 12.416528
_cell_length_b 8.890353
_cell_length_c 17.273881
_cell_angle_alpha 90.000000
_cell_angle_beta 132.769338
_cell_angle_gamma 90.000000
_cell_volume 1399.781984
_symmetry_space_group_name_H-M "P 21/M"
_symmetry_group_IT_number 11
_symmetry_cell_setting 'monoclinic'
loop_
_space_group_symop_operation_xyz
x,y,z
-x,1/2+y,-z
-x,-y,-z
x,1/2-y,z
loop_
_atom_site_type_symbol
_atom_site_label
_atom_site_fract_x
_atom_site_fract_y
_atom_site_fract_z
Si Si1 0.671427 0.571016 0.686538
Si Si2 0.369946 0.573094 0.612017
Si Si3 0.152100 0.573316 0.094850
Si Si4 0.333730 0.924974 0.032228
Si Si5 0.372247 0.573635 0.785956
Si Si6 0.178650 0.926950 0.379335
Si Si7 0.134049 0.573748 0.793702
O O1 0.679484 0.750000 0.688167
O O2 0.515289 0.509923 0.640898
O O3 0.797899 0.507342 0.803021
O O4 0.700890 0.505839 0.616072
O O5 0.387388 0.750000 0.628708
O O6 0.354475 0.503883 0.690795
O O7 0.226994 0.532891 0.490990
O O8 0.132988 0.750000 0.099508
O O9 0.267405 0.538474 0.083487
O O10 0.000000 0.500000 0.000000
O O11 0.360702 0.750000 0.032180
O O12 0.490056 0.004879 0.101494
O O13 0.224009 0.984488 0.912243
O O14 0.399829 0.750000 0.796004
O O15 0.225175 0.535705 0.761043
O O16 0.184961 0.750000 0.367210
O O17 0.016790 0.984979 0.284142
O O18 0.098631 0.750000 0.783715
#
# Coordination Sequence:
#
# PCOD8075437 Si02
#       7
#     4   4   4   4   4   4   4
#     4  11  21  38  61  84 116 153 195 245 299 354
#     4   9  20  38  60  87 117 152 194 246 296 347
#     4  11  22  35  55  85 121 159 197 240 290 347
#     4  10  21  37  56  84 119 150 190 242 288 340
#     4  10  20  38  63  87 115 154 197 237 289 353
#     4  11  23  39  59  85 118 154 198 245 295 354
#     4  10  22  39  59  86 120 156 194 239 292 347
#
# _framework density 20.003115000000001
#
# number of rings (size 3 to 8) (size 9 to 14) (size 15 to 20)
#    0.000    1.714    1.429    3.000    0.000    3.429 
#    0.000    3.571    0.000    0.000    0.000    0.000 
#    0.000    0.000    0.000    0.000    0.000    0.000 
#
# Total GULP energy -347278.695949 kJ/mol
# GULP energy per Si atom -12402.810570 kJ/mol
# Density = 1.995759 g / cm^3
# Si number density = 20.003115 Si / 1000 Ang^3
#
#
#
# Elastic Constant Matrix: (Units=GPa)
#
#
# Indices 1 2 3 4 5 6 
#
# 1 81.1123 31.1933 34.2932 0.0000 -6.5100 0.0000
# 2 31.1933 60.0339 25.7506 0.0000 -2.7224 0.0000
# 3 34.2932 25.7506 118.2047 0.0000 -7.5053 0.0000
# 4 0.0000 0.0000 0.0000 21.2198 0.0000 -0.2667
# 5 -6.5100 -2.7224 -7.5053 0.0000 27.9017 0.0000
# 6 0.0000 0.0000 0.0000 -0.2667 0.0000 22.2255
#
#
#
# Elastic Compliance Matrix: (Units=1/GPa)
#
#
# Indices 1 2 3 4 5 6 
#
# 1 0.016589 -0.007184 -0.003099 0.000000 0.002336 0.000000
# 2 -0.007184 0.021500 -0.002617 0.000000 -0.000283 0.000000
# 3 -0.003099 -0.002617 0.010039 0.000000 0.001722 0.000000
# 4 0.000000 0.000000 0.000000 0.047133 0.000000 0.000566
# 5 0.002336 -0.000283 0.001722 0.000000 0.036821 0.000000
# 6 0.000000 0.000000 0.000000 0.000566 0.000000 0.045000
#
#
# Mechanical properties :
#
#
# Convention : Reuss Voigt Hill
#
# Bulk Modulus (GPa) = 44.79144 49.09168 46.94156
# Shear Modulus (GPa) = 23.77262 25.47700 24.62481
#
# Velocity S-wave (km/s) = 3.45112 3.57270 3.51244
# Velocity P-wave (km/s) = 6.19041 6.45091 6.32200
#
# Compressibility (1/GPa) = 0.02232570
#
# Stress axis : x y z
#
# Youngs Moduli (GPa) = 60.27959 46.51145 99.61544
#
# Poissons Ratio (x) = 0.33416 0.30875
# Poissons Ratio (y) = 0.43307 0.26073
# Poissons Ratio (z) = 0.18683 0.12174
#
# Static dielectric constant tensor:
#      x y z
#    x 4.038190 0.000000 -0.340910 
#    y 0.000000 3.460360 0.000000 
#    z -0.340910 0.000000 3.866870 
# 
# 
# High freq. dielectric constant tensor:
#      x y z
#    x 1.786670 0.000000 -0.005130 
#    y 0.000000 1.764360 0.000000 
#    z -0.005130 0.000000 1.795080 
# 
# From -- ./inp_files/60129.got.cif
#   From: 2010.06.25/outbox.cif.g09.slc.cpg/sg11_31_cif.got.tgz:60129.got - 2010.06.27 23:14:04.
