data_PCOD8075732
_publ_section_title
;
Structure prediction by ZEFSAII (Michael W. Deem and Ramdas Pophale) SiO2 
 PCOD8075732
Probable space group: P 21/M
;
_chemical_formula_sum "Si O2"
_cell_formula_units_Z 32
_cell_length_a 20.441444
_cell_length_b 9.006335
_cell_length_c 25.752740
_cell_angle_alpha 90.000000
_cell_angle_beta 159.920428
_cell_angle_gamma 90.000000
_cell_volume 1627.752433
_symmetry_space_group_name_H-M "P 21/M"
_symmetry_group_IT_number 11
_symmetry_cell_setting 'monoclinic'
loop_
_space_group_symop_operation_xyz
x,y,z
-x,1/2+y,-z
-x,-y,-z
x,1/2-y,z
loop_
_atom_site_type_symbol
_atom_site_label
_atom_site_fract_x
_atom_site_fract_y
_atom_site_fract_z
Si Si1 0.822537 0.580647 0.018838
Si Si2 0.831401 0.574074 0.905602
Si Si3 0.836470 0.917084 0.407743
Si Si4 0.555509 0.924219 0.387348
Si Si5 0.215327 0.925192 0.822572
Si Si6 0.602690 0.421928 0.315502
Si Si7 0.037277 0.075807 0.271033
Si Si8 0.638418 0.914582 0.157453
O O1 0.885551 0.750000 0.072696
O O2 0.950212 0.486796 0.153180
O O3 0.856506 0.529591 0.984650
O O4 0.598771 0.559307 0.864394
O O5 0.832234 0.750000 0.898783
O O6 0.632033 0.512365 0.733763
O O7 0.000000 0.500000 0.000000
O O8 0.892191 0.750000 0.467848
O O9 0.666491 0.908530 0.239812
O O10 0.774566 0.019572 0.409072
O O11 0.000000 0.000000 0.500000
O O12 0.509982 0.750000 0.353513
O O13 0.737138 0.961206 0.559406
O O14 0.610641 0.974785 0.371266
O O15 0.193464 0.750000 0.803275
O O16 0.066900 0.989313 0.754704
O O17 0.194447 0.991932 0.748416
O O18 0.426906 0.982449 0.994862
O O19 0.633763 0.250000 0.354173
O O20 0.000994 0.250000 0.242922
O O21 0.644595 0.750000 0.137934
#
# Coordination Sequence:
#
# PCOD8075732 Si02
#       8
#     4   4   4   4   4   4   4   4
#     4   9  20  37  59  87 116 147 187 231 278 334
#     4  10  21  40  65  93 121 154 193 231 276 334
#     4  11  23  36  51  73 103 140 187 240 293 346
#     4  10  21  37  58  88 121 154 192 235 284 339
#     4   9  18  33  52  72 100 136 176 228 279 333
#     4  10  21  38  57  80 110 148 195 243 290 346
#     4  10  21  35  55  84 115 148 190 235 283 337
#     4   9  19  34  49  70  97 133 182 229 284 343
#
# _framework density 19.659009000000001
#
# number of rings (size 3 to 8) (size 9 to 14) (size 15 to 20)
#    0.000    2.250    0.000    3.000    1.750    6.500 
#    0.000    3.125    0.000    0.000    0.000    0.000 
#    0.000    0.000    0.000    0.000    0.000    0.000 
#
# Total GULP energy -396661.475597 kJ/mol
# GULP energy per Si atom -12395.671112 kJ/mol
# Density = 1.961426 g / cm^3
# Si number density = 19.659009 Si / 1000 Ang^3
#
#
#
# Elastic Constant Matrix: (Units=GPa)
#
#
# Indices 1 2 3 4 5 6 
#
# 1 70.9118 28.0226 31.4461 0.0000 26.4421 0.0000
# 2 28.0226 71.0375 40.1533 0.0000 10.5733 0.0000
# 3 31.4461 40.1533 85.6811 0.0000 14.4262 0.0000
# 4 0.0000 0.0000 0.0000 31.3828 0.0000 0.8853
# 5 26.4421 10.5733 14.4262 0.0000 33.7636 0.0000
# 6 0.0000 0.0000 0.0000 0.8853 0.0000 35.5204
#
#
#
# Elastic Compliance Matrix: (Units=1/GPa)
#
#
# Indices 1 2 3 4 5 6 
#
# 1 0.023320 -0.004827 -0.003746 0.000000 -0.015151 0.000000
# 2 -0.004827 0.020320 -0.007884 0.000000 0.000785 0.000000
# 3 -0.003746 -0.007884 0.017058 0.000000 -0.001886 0.000000
# 4 0.000000 0.000000 0.000000 0.031887 0.000000 -0.000795
# 5 -0.015151 0.000785 -0.001886 0.000000 0.042044 0.000000
# 6 0.000000 0.000000 0.000000 -0.000795 0.000000 0.028173
#
#
# Mechanical properties :
#
#
# Convention : Reuss Voigt Hill
#
# Bulk Modulus (GPa) = 35.98888 47.43049 41.70968
# Shear Modulus (GPa) = 24.39303 28.66724 26.53013
#
# Velocity S-wave (km/s) = 3.52633 3.82281 3.67756
# Velocity P-wave (km/s) = 5.90985 6.60789 6.26859
#
# Compressibility (1/GPa) = 0.02778636
#
# Stress axis : x y z
#
# Youngs Moduli (GPa) = 42.88099 49.21163 58.62356
#
# Poissons Ratio (x) = 0.23754 0.21959
# Poissons Ratio (y) = 0.20698 0.46216
# Poissons Ratio (z) = 0.16062 0.38796
#
# Static dielectric constant tensor:
#      x y z
#    x 3.441530 0.000000 -0.046080 
#    y 0.000000 3.600030 0.000000 
#    z -0.046080 0.000000 3.730400 
# 
# 
# High freq. dielectric constant tensor:
#      x y z
#    x 1.750720 0.000000 0.000770 
#    y 0.000000 1.767550 0.000000 
#    z 0.000770 0.000000 1.769960 
# 
# From -- ./inp_files/72186.got.cif
#   From: 2010.06.25/outbox.cif.g09.slc.cpg/sg11_37_cif.got.tgz:72186.got - 2010.06.27 23:14:04.
