data_PCOD8075880
_publ_section_title
;
Structure prediction by ZEFSAII (Michael W. Deem and Ramdas Pophale) SiO2 
 PCOD8075880
Probable space group: P 21/M
;
_chemical_formula_sum "Si O2"
_cell_formula_units_Z 28
_cell_length_a 15.177221
_cell_length_b 22.256655
_cell_length_c 10.086033
_cell_angle_alpha 90.000000
_cell_angle_beta 157.941298
_cell_angle_gamma 90.000000
_cell_volume 1279.521626
_symmetry_space_group_name_H-M "P 21/M"
_symmetry_group_IT_number 11
_symmetry_cell_setting 'monoclinic'
loop_
_space_group_symop_operation_xyz
x,y,z
-x,1/2+y,-z
-x,-y,-z
x,1/2-y,z
loop_
_atom_site_type_symbol
_atom_site_label
_atom_site_fract_x
_atom_site_fract_y
_atom_site_fract_z
Si Si1 0.918496 0.923579 0.288697
Si Si2 0.740080 0.682563 0.892099
Si Si3 0.249996 0.872939 0.249995
Si Si4 0.418505 0.423581 0.788708
Si Si5 0.577094 0.053981 0.283153
Si Si6 0.922910 0.053980 0.216852
Si Si7 0.240088 0.182563 0.392112
O O1 0.119523 0.928497 0.685221
O O2 0.924133 0.981763 0.200963
O O3 0.933929 0.862383 0.225626
O O4 0.671568 0.921227 0.018647
O O5 0.805468 0.750000 0.028218
O O6 0.477375 0.668742 0.574897
O O7 0.750000 0.675646 0.749999
O O8 0.228822 0.915620 0.351391
O O9 0.271172 0.915620 0.148600
O O10 0.022616 0.831259 0.925086
O O11 0.424145 0.481764 0.700976
O O12 0.433937 0.362383 0.725639
O O13 0.171577 0.421232 0.518658
O O14 0.619532 0.428498 0.185232
O O15 0.305477 0.250000 0.528231
#
# Coordination Sequence:
#
# PCOD8075880 Si02
#       7
#     4   4   4   4   4   4   4
#     4   9  19  35  53  80 112 138 178 222 269 325
#     4  10  22  38  56  79 110 146 182 219 263 321
#     4  10  21  36  58  80 107 140 184 226 270 312
#     4   9  19  35  53  80 112 138 178 222 269 325
#     4   9  19  33  54  84 106 140 175 224 280 311
#     4   9  19  33  54  84 106 140 175 224 280 311
#     4  10  22  38  56  79 110 146 182 219 263 321
#
# _framework density 21.883178999999998
#
# number of rings (size 3 to 8) (size 9 to 14) (size 15 to 20)
#    0.000    2.571    0.000    0.429    6.000    2.286 
#    0.000   12.857    0.000    3.429    0.000    0.000 
#    0.000    0.000    0.000    0.000    0.000    0.000 
#
# Total GULP energy -347116.816410 kJ/mol
# GULP energy per Si atom -12397.029158 kJ/mol
# Density = 2.183337 g / cm^3
# Si number density = 21.883179 Si / 1000 Ang^3
#
#
#
# Elastic Constant Matrix: (Units=GPa)
#
#
# Indices 1 2 3 4 5 6 
#
# 1 42.6593 42.1629 6.4380 0.0000 -26.9589 0.0000
# 2 42.1629 202.8060 61.5361 0.0000 -39.3994 0.0000
# 3 6.4380 61.5361 67.7101 0.0000 -23.0217 0.0000
# 4 0.0000 0.0000 0.0000 25.1455 0.0000 -0.9888
# 5 -26.9589 -39.3994 -23.0217 0.0000 29.0024 0.0000
# 6 0.0000 0.0000 0.0000 -0.9888 0.0000 30.6610
#
#
#
# Elastic Compliance Matrix: (Units=1/GPa)
#
#
# Indices 1 2 3 4 5 6 
#
# 1 0.087569 -0.009843 0.032528 0.000000 0.093847 0.000000
# 2 -0.009843 0.008754 -0.008338 0.000000 -0.003876 0.000000
# 3 0.032528 -0.008338 0.035177 0.000000 0.046832 0.000000
# 4 0.000000 0.000000 0.000000 0.039819 0.000000 0.001284
# 5 0.093847 -0.003876 0.046832 0.000000 0.153624 0.000000
# 6 0.000000 0.000000 0.000000 0.001284 0.000000 0.032656
#
#
# Mechanical properties :
#
#
# Convention : Reuss Voigt Hill
#
# Bulk Modulus (GPa) = 6.24246 59.27215 32.75731
# Shear Modulus (GPa) = 13.07864 30.49767 21.78816
#
# Velocity S-wave (km/s) = 2.44736 3.73722 3.15883
# Velocity P-wave (km/s) = 3.29316 6.76513 5.32033
#
# Compressibility (1/GPa) = 0.16019315
#
# Stress axis : x y z
#
# Youngs Moduli (GPa) = 11.41959 114.23172 28.42802
#
# Poissons Ratio (x) = 1.12441 -0.92470
# Poissons Ratio (y) = 0.11241 0.23703
# Poissons Ratio (z) = -0.37145 0.95244
#
# Static dielectric constant tensor:
#      x y z
#    x 4.083500 0.000000 -0.445780 
#    y 0.000000 3.971730 0.000000 
#    z -0.445780 0.000000 4.279350 
# 
# 
# High freq. dielectric constant tensor:
#      x y z
#    x 1.867500 0.000000 -0.005400 
#    y 0.000000 1.848740 0.000000 
#    z -0.005400 0.000000 1.846950 
# 
# From -- ./inp_files/14062.got.cif
#   From: 2010.06.25/outbox.cif.g09.slc.cpg/sg11_8_cif.got.tgz:14062.got - 2010.06.27 23:14:04.
