data_PCOD8075851
_publ_section_title
;
Structure prediction by ZEFSAII (Michael W. Deem and Ramdas Pophale) SiO2 
 PCOD8075851
Probable space group: P 21/M
;
_chemical_formula_sum "Si O2"
_cell_formula_units_Z 28
_cell_length_a 10.606852
_cell_length_b 9.128746
_cell_length_c 15.918224
_cell_angle_alpha 90.000000
_cell_angle_beta 59.745466
_cell_angle_gamma 90.000000
_cell_volume 1331.383745
_symmetry_space_group_name_H-M "P 21/M"
_symmetry_group_IT_number 11
_symmetry_cell_setting 'monoclinic'
loop_
_space_group_symop_operation_xyz
x,y,z
-x,1/2+y,-z
-x,-y,-z
x,1/2-y,z
loop_
_atom_site_type_symbol
_atom_site_label
_atom_site_fract_x
_atom_site_fract_y
_atom_site_fract_z
Si Si1 0.286323 0.909974 0.091115
Si Si2 0.951717 0.578058 0.758111
Si Si3 0.898948 0.077931 0.464636
Si Si4 0.929766 0.417570 0.101820
Si Si5 0.579583 0.589437 0.084676
Si Si6 0.411669 0.919141 0.762950
Si Si7 0.561805 0.424557 0.561946
O O1 0.217782 0.750000 0.094020
O O2 0.452452 0.886691 0.060808
O O3 0.200311 0.989917 0.195806
O O4 0.283467 0.009511 0.007436
O O5 0.921571 0.750000 0.766597
O O6 0.050741 0.532571 0.645896
O O7 0.020017 0.524263 0.823515
O O8 0.916429 0.250000 0.473908
O O9 0.729224 0.030505 0.526994
O O10 0.000000 0.000000 0.500000
O O11 0.974548 0.250000 0.076936
O O12 0.757501 0.439132 0.161013
O O13 0.000000 0.500000 0.000000
O O14 0.631989 0.750000 0.099547
O O15 0.512128 0.489385 0.181194
O O16 0.456936 0.750000 0.734557
O O17 0.457932 0.015326 0.668876
O O18 0.500000 0.500000 0.500000
O O19 0.548804 0.250000 0.557021
#
# Coordination Sequence:
#
# PCOD8075851 Si02
#       7
#     4   4   4   4   4   4   4
#     4  10  21  36  56  84 118 154 196 245 297 360
#     4  10  21  39  61  84 117 160 201 248 312 374
#     4  10  24  44  66  94 129 169 219 276 332 391
#     4  10  22  39  60  89 126 163 204 254 309 373
#     4  10  21  37  56  83 119 156 197 245 300 361
#     4  11  23  39  62  90 122 159 205 254 309 372
#     4  11  24  44  68  95 129 168 217 273 329 389
#
# _framework density 21.030750000000001
#
# number of rings (size 3 to 8) (size 9 to 14) (size 15 to 20)
#    0.000    1.714    0.000    3.429    2.000    9.714 
#    0.000    1.429    0.000    0.000    0.000    0.000 
#    0.000    0.000    0.000    0.000    0.000    0.000 
#
# Total GULP energy -347094.851819 kJ/mol
# GULP energy per Si atom -12396.244708 kJ/mol
# Density = 2.098288 g / cm^3
# Si number density = 21.030750 Si / 1000 Ang^3
#
#
#
# Elastic Constant Matrix: (Units=GPa)
#
#
# Indices 1 2 3 4 5 6 
#
# 1 78.1823 43.5118 38.2145 0.0000 11.6899 0.0000
# 2 43.5118 113.8644 64.2548 0.0000 1.4193 0.0000
# 3 38.2145 64.2548 148.7998 0.0000 11.2881 0.0000
# 4 0.0000 0.0000 0.0000 39.7978 0.0000 2.5445
# 5 11.6899 1.4193 11.2881 0.0000 29.3469 0.0000
# 6 0.0000 0.0000 0.0000 2.5445 0.0000 29.5426
#
#
#
# Elastic Compliance Matrix: (Units=1/GPa)
#
#
# Indices 1 2 3 4 5 6 
#
# 1 0.017712 -0.005803 -0.001575 0.000000 -0.006169 0.000000
# 2 -0.005803 0.013570 -0.004630 0.000000 0.003436 0.000000
# 3 -0.001575 -0.004630 0.009332 0.000000 -0.002738 0.000000
# 4 0.000000 0.000000 0.000000 0.025266 0.000000 -0.002176
# 5 -0.006169 0.003436 -0.002738 0.000000 0.037420 0.000000
# 6 0.000000 0.000000 0.000000 -0.002176 0.000000 0.034037
#
#
# Mechanical properties :
#
#
# Convention : Reuss Voigt Hill
#
# Bulk Modulus (GPa) = 60.24752 70.31209 65.27980
# Shear Modulus (GPa) = 29.96061 32.72849 31.34455
#
# Velocity S-wave (km/s) = 3.77849 3.94918 3.86478
# Velocity P-wave (km/s) = 6.90982 7.36887 7.14303
#
# Compressibility (1/GPa) = 0.01659819
#
# Stress axis : x y z
#
# Youngs Moduli (GPa) = 56.45750 73.69272 107.15745
#
# Poissons Ratio (x) = 0.42763 0.16878
# Poissons Ratio (y) = 0.32761 0.49615
# Poissons Ratio (z) = 0.08893 0.34121
#
# Static dielectric constant tensor:
#      x y z
#    x 3.793000 0.000000 0.016240 
#    y 0.000000 4.074850 0.000000 
#    z 0.016240 0.000000 4.039980 
# 
# 
# High freq. dielectric constant tensor:
#      x y z
#    x 1.820400 0.000000 -0.000860 
#    y 0.000000 1.831030 0.000000 
#    z -0.000860 0.000000 1.833310 
# 
# From -- ./inp_files/49181.got.cif
#   From: 2010.06.25/outbox.cif.g09.slc.cpg/sg11_25_cif.got.tgz:49181.got - 2010.06.27 23:14:04.
