data_PCOD8075659
_publ_section_title
;
Structure prediction by ZEFSAII (Michael W. Deem and Ramdas Pophale) SiO2 
 PCOD8075659
Probable space group: P 21/M
;
_chemical_formula_sum "Si O2"
_cell_formula_units_Z 28
_cell_length_a 15.972312
_cell_length_b 10.312975
_cell_length_c 10.906973
_cell_angle_alpha 90.000000
_cell_angle_beta 126.874654
_cell_angle_gamma 90.000000
_cell_volume 1437.205708
_symmetry_space_group_name_H-M "P 21/M"
_symmetry_group_IT_number 11
_symmetry_cell_setting 'monoclinic'
loop_
_space_group_symop_operation_xyz
x,y,z
-x,1/2+y,-z
-x,-y,-z
x,1/2-y,z
loop_
_atom_site_type_symbol
_atom_site_label
_atom_site_fract_x
_atom_site_fract_y
_atom_site_fract_z
Si Si1 0.273235 0.100319 0.547804
Si Si2 0.729507 0.900490 0.177224
Si Si3 0.475703 0.400402 0.586142
Si Si4 0.078640 0.983077 0.251283
Si Si5 0.869573 0.103429 0.962882
Si Si6 0.328862 0.599853 0.066578
Si Si7 0.966621 0.890550 0.377464
O O1 0.293404 0.250000 0.580020
O O2 0.273348 0.045171 0.686057
O O3 0.368624 0.044708 0.551587
O O4 0.162858 0.079191 0.384230
O O5 0.690501 0.750000 0.130350
O O6 0.847803 0.912841 0.231348
O O7 0.659713 0.001376 0.038083
O O8 0.500000 0.500000 0.500000
O O9 0.465730 0.250000 0.530675
O O10 0.564676 0.409537 0.765730
O O11 0.040184 0.885185 0.322415
O O12 0.133673 0.910949 0.186769
O O13 0.977669 0.056872 0.114221
O O14 0.861116 0.250000 0.991980
O O15 0.765786 0.041983 0.932486
O O16 0.311266 0.750000 0.008290
O O17 0.976555 0.750000 0.451958
O O18 0.000000 0.000000 0.500000
#
# Coordination Sequence:
#
# PCOD8075659 Si02
#       7
#     4   4   4   4   4   4   4
#     4  10  21  38  59  84 114 153 195 237 288 347
#     4  10  21  38  58  85 117 152 193 238 285 345
#     4  10  22  41  64  87 116 152 194 239 289 345
#     4  11  20  35  55  81 114 151 192 238 282 337
#     4  10  21  34  52  79 112 148 187 234 289 338
#     4  10  21  39  59  84 116 151 189 240 292 340
#     4  11  22  36  57  85 119 156 196 238 286 343
#
# _framework density 19.482250000000001
#
# number of rings (size 3 to 8) (size 9 to 14) (size 15 to 20)
#    0.000    1.714    2.857    1.714    0.000    2.286 
#    0.000    2.143    0.000    0.000    0.000    0.000 
#    0.000    0.000    0.000    0.000    0.000    0.000 
#
# Total GULP energy -347030.183450 kJ/mol
# GULP energy per Si atom -12393.935123 kJ/mol
# Density = 1.943791 g / cm^3
# Si number density = 19.482250 Si / 1000 Ang^3
#
#
#
# Elastic Constant Matrix: (Units=GPa)
#
#
# Indices 1 2 3 4 5 6 
#
# 1 106.3639 14.9513 36.9621 0.0000 -12.2990 0.0000
# 2 14.9513 88.8395 41.2529 0.0000 -2.3189 0.0000
# 3 36.9621 41.2529 104.4608 0.0000 -18.2574 0.0000
# 4 0.0000 0.0000 0.0000 31.5969 0.0000 -2.8216
# 5 -12.2990 -2.3189 -18.2574 0.0000 37.3586 0.0000
# 6 0.0000 0.0000 0.0000 -2.8216 0.0000 25.7629
#
#
#
# Elastic Compliance Matrix: (Units=1/GPa)
#
#
# Indices 1 2 3 4 5 6 
#
# 1 0.010838 -0.000180 -0.003436 0.000000 0.001878 0.000000
# 2 -0.000180 0.013921 -0.005788 0.000000 -0.002024 0.000000
# 3 -0.003436 -0.005788 0.014011 0.000000 0.005357 0.000000
# 4 0.000000 0.000000 0.000000 0.031961 0.000000 0.003500
# 5 0.001878 -0.002024 0.005357 0.000000 0.029878 0.000000
# 6 0.000000 0.000000 0.000000 0.003500 0.000000 0.039199
#
#
# Mechanical properties :
#
#
# Convention : Reuss Voigt Hill
#
# Bulk Modulus (GPa) = 50.09131 53.99963 52.04547
# Shear Modulus (GPa) = 30.25374 32.71021 31.48198
#
# Velocity S-wave (km/s) = 3.94494 4.10198 4.02423
# Velocity P-wave (km/s) = 6.82035 7.08607 6.95448
#
# Compressibility (1/GPa) = 0.01996354
#
# Stress axis : x y z
#
# Youngs Moduli (GPa) = 92.26783 71.83269 71.37464
#
# Poissons Ratio (x) = 0.01290 0.24523
# Poissons Ratio (y) = 0.01657 0.41310
# Poissons Ratio (z) = 0.31701 0.41575
#
# Static dielectric constant tensor:
#      x y z
#    x 3.985020 0.000000 -0.118540 
#    y 0.000000 3.503280 0.000000 
#    z -0.118540 0.000000 3.596500 
# 
# 
# High freq. dielectric constant tensor:
#      x y z
#    x 1.770930 0.000000 -0.003940 
#    y 0.000000 1.746520 0.000000 
#    z -0.003940 0.000000 1.754740 
# 
# From -- ./inp_files/21418.got.cif
#   From: 2010.06.25/outbox.cif.g09.slc.cpg/sg11_11_cif.got.tgz:21418.got - 2010.06.27 23:14:04.
