data_PCOD8075598
_publ_section_title
;
Structure prediction by ZEFSAII (Michael W. Deem and Ramdas Pophale) SiO2 
 PCOD8075598
Probable space group: P 21/M
;
_chemical_formula_sum "Si O2"
_cell_formula_units_Z 32
_cell_length_a 22.594856
_cell_length_b 8.785151
_cell_length_c 15.219584
_cell_angle_alpha 90.000000
_cell_angle_beta 31.424323
_cell_angle_gamma 90.000000
_cell_volume 1575.104009
_symmetry_space_group_name_H-M "P 21/M"
_symmetry_group_IT_number 11
_symmetry_cell_setting 'monoclinic'
loop_
_space_group_symop_operation_xyz
x,y,z
-x,1/2+y,-z
-x,-y,-z
x,1/2-y,z
loop_
_atom_site_type_symbol
_atom_site_label
_atom_site_fract_x
_atom_site_fract_y
_atom_site_fract_z
Si Si1 0.248374 0.569474 0.492902
Si Si2 0.307762 0.924364 0.077460
Si Si3 0.232872 0.571268 0.869921
Si Si4 0.053968 0.922578 0.349014
Si Si5 0.624326 0.930427 0.834109
Si Si6 0.398713 0.071360 0.798697
Si Si7 0.986652 0.570925 0.244773
Si Si8 0.651788 0.428653 0.451152
O O1 0.261535 0.750000 0.465539
O O2 0.312274 0.488956 0.332221
O O3 0.303241 0.506031 0.513437
O O4 0.116431 0.524450 0.664246
O O5 0.339224 0.750000 0.059039
O O6 0.188540 0.939597 0.179501
O O7 0.303342 0.018898 0.173021
O O8 0.398648 0.993879 0.894897
O O9 0.257801 0.750000 0.849221
O O10 0.298770 0.487970 0.864104
O O11 0.276631 0.505111 0.721375
O O12 0.098928 0.537403 0.045235
O O13 0.015537 0.750000 0.402508
O O14 0.007685 0.991506 0.316785
O O15 0.000000 0.000000 0.500000
O O16 0.615933 0.750000 0.840951
O O17 0.500000 0.000000 0.000000
O O18 0.384462 0.250000 0.830850
O O19 0.520176 0.029367 0.602604
O O20 0.958015 0.750000 0.280686
O O21 0.670639 0.250000 0.429970
#
# Coordination Sequence:
#
# PCOD8075598 Si02
#       8
#     4   4   4   4   4   4   4   4
#     4  11  23  41  62  89 124 164 209 256 306 369
#     4  11  22  39  61  88 119 161 203 244 303 367
#     4  10  20  40  64  86 119 163 203 254 315 371
#     4  10  21  36  55  82 113 151 195 241 296 358
#     4  12  25  42  63  91 124 164 207 254 305 362
#     4  11  21  36  60  93 126 157 200 257 312 374
#     4  10  21  39  60  85 120 161 205 254 308 367
#     4   9  21  39  61  87 119 159 204 254 314 368
#
# _framework density 20.316119
#
# number of rings (size 3 to 8) (size 9 to 14) (size 15 to 20)
#    0.000    1.500    1.250    4.125    0.000    5.500 
#    0.000    3.750    0.000    0.000    0.000    0.000 
#    0.000    0.000    0.000    0.000    0.000    0.000 
#
# Total GULP energy -396886.243981 kJ/mol
# GULP energy per Si atom -12402.695124 kJ/mol
# Density = 2.026988 g / cm^3
# Si number density = 20.316119 Si / 1000 Ang^3
#
#
#
# Elastic Constant Matrix: (Units=GPa)
#
#
# Indices 1 2 3 4 5 6 
#
# 1 97.1683 36.0400 36.8039 0.0000 7.6405 0.0000
# 2 36.0400 90.7896 44.9526 0.0000 -0.1854 0.0000
# 3 36.8039 44.9526 131.1954 0.0000 15.1006 0.0000
# 4 0.0000 0.0000 0.0000 33.0661 0.0000 -3.9190
# 5 7.6405 -0.1854 15.1006 0.0000 40.9792 0.0000
# 6 0.0000 0.0000 0.0000 -3.9190 0.0000 22.7393
#
#
#
# Elastic Compliance Matrix: (Units=1/GPa)
#
#
# Indices 1 2 3 4 5 6 
#
# 1 0.012674 -0.004057 -0.001975 0.000000 -0.001654 0.000000
# 2 -0.004057 0.014693 -0.004168 0.000000 0.002359 0.000000
# 3 -0.001975 -0.004168 0.009988 0.000000 -0.003331 0.000000
# 4 0.000000 0.000000 0.000000 0.030873 0.000000 0.005321
# 5 -0.001654 0.002359 -0.003331 0.000000 0.025949 0.000000
# 6 0.000000 0.000000 0.000000 0.005321 0.000000 0.044894
#
#
# Mechanical properties :
#
#
# Convention : Reuss Voigt Hill
#
# Bulk Modulus (GPa) = 58.97691 61.63849 60.30770
# Shear Modulus (GPa) = 30.28051 32.78069 31.53060
#
# Velocity S-wave (km/s) = 3.86485 4.02124 3.94382
# Velocity P-wave (km/s) = 7.00062 7.20875 7.10544
#
# Compressibility (1/GPa) = 0.01695579
#
# Stress axis : x y z
#
# Youngs Moduli (GPa) = 78.90067 68.05824 100.12177
#
# Poissons Ratio (x) = 0.27608 0.19776
# Poissons Ratio (y) = 0.32007 0.41731
# Poissons Ratio (z) = 0.15584 0.28367
#
# Static dielectric constant tensor:
#      x y z
#    x 3.788050 0.000000 0.153620 
#    y 0.000000 3.661730 0.000000 
#    z 0.153620 0.000000 3.928880 
# 
# 
# High freq. dielectric constant tensor:
#      x y z
#    x 1.800580 0.000000 0.002560 
#    y 0.000000 1.781320 0.000000 
#    z 0.002560 0.000000 1.808870 
# 
# From -- ./inp_files/55514.got.cif
#   From: 2010.06.25/outbox.cif.g09.slc.cpg/sg11_28_cif.got.tgz:55514.got - 2010.06.27 23:14:04.
