data_PCOD8075756
_publ_section_title
;
Structure prediction by ZEFSAII (Michael W. Deem and Ramdas Pophale) SiO2 
 PCOD8075756
Probable space group: P 21/M
;
_chemical_formula_sum "Si O2"
_cell_formula_units_Z 20
_cell_length_a 12.183353
_cell_length_b 8.254765
_cell_length_c 20.735659
_cell_angle_alpha 90.000000
_cell_angle_beta 28.324679
_cell_angle_gamma 90.000000
_cell_volume 989.454376
_symmetry_space_group_name_H-M "P 21/M"
_symmetry_group_IT_number 11
_symmetry_cell_setting 'monoclinic'
loop_
_space_group_symop_operation_xyz
x,y,z
-x,1/2+y,-z
-x,-y,-z
x,1/2-y,z
loop_
_atom_site_type_symbol
_atom_site_label
_atom_site_fract_x
_atom_site_fract_y
_atom_site_fract_z
Si Si1 0.840587 0.565768 0.638740
Si Si2 0.764839 0.750000 0.013876
Si Si3 0.065049 0.250000 0.711599
Si Si4 0.461241 0.750000 0.776047
Si Si5 0.128368 0.001755 0.789348
Si Si6 0.246883 0.750000 0.237661
Si Si7 0.912377 0.750000 0.080519
Si Si8 0.490685 0.250000 0.397636
O O1 0.923929 0.750000 0.618681
O O2 0.574039 0.589508 0.751512
O O3 0.854749 0.422008 0.683753
O O4 0.000000 0.500000 0.500000
O O5 0.895206 0.596040 0.918830
O O6 0.515671 0.750000 0.111716
O O7 0.763910 0.750000 0.092217
O O8 0.813921 0.250000 0.807006
O O9 0.092259 0.096790 0.742566
O O10 0.247963 0.250000 0.558964
O O11 0.550916 0.750000 0.656778
O O12 0.185695 0.750000 0.922882
O O13 0.159475 0.096882 0.840111
O O14 0.363241 0.905436 0.656995
#
# Coordination Sequence:
#
# PCOD8075756 Si02
#       8
#     4   2   2   2   4   2   2   2
#     4  10  21  38  60  94 134 176 216 258 329 392
#     4  11  23  39  66  96 126 159 224 268 342 391
#     4  11  25  45  62  87 135 175 232 255 318 397
#     4  10  21  35  67  94 135 164 210 279 338 384
#     4  10  23  40  66  93 125 171 211 276 328 381
#     4  12  24  42  64  93 135 180 216 276 316 396
#     4  11  20  38  63 100 127 155 211 274 341 392
#     4  11  21  41  66  94 126 173 211 278 323 392
#
# _framework density 20.213160999999999
#
# number of rings (size 3 to 8) (size 9 to 14) (size 15 to 20)
#    0.600    0.800    3.000    3.600    2.800    0.800 
#    3.600    0.000    0.000    0.000    0.000    0.000 
#    0.000    0.000    0.000    0.000    0.000    0.000 
#
# Total GULP energy -247791.849133 kJ/mol
# GULP energy per Si atom -12389.592457 kJ/mol
# Density = 2.016716 g / cm^3
# Si number density = 20.213161 Si / 1000 Ang^3
#
#
#
# Elastic Constant Matrix: (Units=GPa)
#
#
# Indices 1 2 3 4 5 6 
#
# 1 136.3511 41.5277 36.1974 0.0000 10.0346 0.0000
# 2 41.5277 139.9255 25.4357 0.0000 10.7472 0.0000
# 3 36.1974 25.4357 74.8808 0.0000 5.3427 0.0000
# 4 0.0000 0.0000 0.0000 -486.4444 0.0000 120.4981
# 5 10.0346 10.7472 5.3427 0.0000 34.0283 0.0000
# 6 0.0000 0.0000 0.0000 120.4981 0.0000 -9.3014
#
#
#
# Elastic Compliance Matrix: (Units=1/GPa)
#
#
# Indices 1 2 3 4 5 6 
#
# 1 0.008973 -0.001897 -0.003587 0.000000 -0.001484 0.000000
# 2 -0.001897 0.008158 -0.001730 0.000000 -0.001746 0.000000
# 3 -0.003587 -0.001730 0.015738 0.000000 -0.000867 0.000000
# 4 0.000000 0.000000 0.000000 0.000931 0.000000 0.012056
# 5 -0.001484 -0.001746 -0.000867 0.000000 0.030512 0.000000
# 6 0.000000 0.000000 0.000000 0.012056 0.000000 0.048668
#
#
# Mechanical properties :
#
#
# Convention : Reuss Voigt Hill
#
# Bulk Modulus (GPa) = 54.22586 61.94209 58.08397
# Shear Modulus (GPa) = 37.43758 -75.81039 -19.18640
#
# Velocity S-wave (km/s) = 4.30832 -6.13081 -3.08426
# Velocity P-wave (km/s) = 7.18568 4.40510 4.01430
#
# Compressibility (1/GPa) = 0.01844139
#
# Stress axis : x y z
#
# Youngs Moduli (GPa) = 111.44115 122.57666 63.54010
#
# Poissons Ratio (x) = 0.23254 0.22795
# Poissons Ratio (y) = 0.21141 0.10990
# Poissons Ratio (z) = 0.39979 0.21201
#
# Static dielectric constant tensor:
#      x y z
#    x 3.580080 0.000000 0.005030 
#    y 0.000000 4.112820 0.000000 
#    z 0.005030 0.000000 3.565190 
# 
# 
# High freq. dielectric constant tensor:
#      x y z
#    x 1.781110 0.000000 -0.002750 
#    y 0.000000 1.807510 0.000000 
#    z -0.002750 0.000000 1.785800 
# 
# From -- ./inp_files/33612.got.cif
#   From: 2010.06.25/outbox.cif.g09.slc.cpg/sg11_17_cif.got.tgz:33612.got - 2010.06.27 23:14:04.
