data_PCOD8075483
_publ_section_title
;
Structure prediction by ZEFSAII (Michael W. Deem and Ramdas Pophale) SiO2 
 PCOD8075483
Probable space group: P 21/M
;
_chemical_formula_sum "Si O2"
_cell_formula_units_Z 22
_cell_length_a 11.629238
_cell_length_b 11.804377
_cell_length_c 13.125385
_cell_angle_alpha 90.000000
_cell_angle_beta 145.983116
_cell_angle_gamma 90.000000
_cell_volume 1007.993445
_symmetry_space_group_name_H-M "P 21/M"
_symmetry_group_IT_number 11
_symmetry_cell_setting 'monoclinic'
loop_
_space_group_symop_operation_xyz
x,y,z
-x,1/2+y,-z
-x,-y,-z
x,1/2-y,z
loop_
_atom_site_type_symbol
_atom_site_label
_atom_site_fract_x
_atom_site_fract_y
_atom_site_fract_z
Si Si1 0.247024 0.250000 0.005760
Si Si2 0.699309 0.510314 0.215579
Si Si3 0.164120 0.010140 0.032557
Si Si4 0.012540 0.615642 0.724449
Si Si5 0.864474 0.750000 0.308476
Si Si6 0.314062 0.750000 0.593605
Si Si7 0.378108 0.512537 0.610260
O O1 0.158148 0.139981 0.995224
O O2 0.163507 0.250000 0.831894
O O3 0.493591 0.250000 0.186972
O O4 0.758245 0.640674 0.278753
O O5 0.650311 0.462179 0.290041
O O6 0.885270 0.442957 0.299006
O O7 0.500000 0.500000 0.000000
O O8 0.117046 0.926216 0.904729
O O9 0.388452 0.975417 0.241172
O O10 0.000000 0.000000 0.000000
O O11 0.033859 0.750000 0.731476
O O12 0.772341 0.580801 0.548056
O O13 0.107112 0.750000 0.509368
O O14 0.326888 0.638709 0.528984
#
# Coordination Sequence:
#
# PCOD8075483 Si02
#       7
#     2   4   4   4   2   2   4
#     4  10  20  44  67  97 123 170 231 275 324 387
#     4  12  24  40  66 101 137 177 217 268 331 403
#     4  11  25  47  72  95 130 175 231 283 334 388
#     4  12  27  44  66 101 140 178 219 271 340 404
#     4  12  22  40  65  90 137 175 217 259 331 396
#     4  10  20  38  66  91 128 169 222 260 313 393
#     4  11  24  43  67 102 136 175 221 272 334 396
#
# _framework density 21.825538000000002
#
# number of rings (size 3 to 8) (size 9 to 14) (size 15 to 20)
#    0.000    0.727    5.455    1.636    5.091    1.455 
#    0.000    0.000    0.000    0.000    0.000    0.000 
#    0.000    0.000    0.000    0.000    0.000    0.000 
#
# Total GULP energy -272848.078272 kJ/mol
# GULP energy per Si atom -12402.185376 kJ/mol
# Density = 2.177586 g / cm^3
# Si number density = 21.825538 Si / 1000 Ang^3
#
#
#
# Elastic Constant Matrix: (Units=GPa)
#
#
# Indices 1 2 3 4 5 6 
#
# 1 73.9315 24.7952 16.8461 0.0000 29.0267 0.0000
# 2 24.7952 166.7361 39.1798 0.0000 13.2416 0.0000
# 3 16.8461 39.1798 107.2715 0.0000 33.6779 0.0000
# 4 0.0000 0.0000 0.0000 62.8557 0.0000 -86.3385
# 5 29.0267 13.2416 33.6779 0.0000 32.9563 0.0000
# 6 0.0000 0.0000 0.0000 -86.3385 0.0000 362.6913
#
#
#
# Elastic Compliance Matrix: (Units=1/GPa)
#
#
# Indices 1 2 3 4 5 6 
#
# 1 0.022692 -0.002627 0.004917 0.000000 -0.023955 0.000000
# 2 -0.002627 0.006866 -0.002879 0.000000 0.002498 0.000000
# 3 0.004917 -0.002879 0.015604 0.000000 -0.019120 0.000000
# 4 0.000000 0.000000 0.000000 0.023639 0.000000 0.005627
# 5 -0.023955 0.002498 -0.019120 0.000000 0.069977 0.000000
# 6 0.000000 0.000000 0.000000 0.005627 0.000000 0.004097
#
#
# Mechanical properties :
#
#
# Convention : Reuss Voigt Hill
#
# Bulk Modulus (GPa) = 22.73635 56.62016 39.67825
# Shear Modulus (GPa) = 31.50275 109.50852 70.50564
#
# Velocity S-wave (km/s) = 3.80332 7.09108 5.68984
# Velocity P-wave (km/s) = 5.45224 9.64588 7.83486
#
# Compressibility (1/GPa) = 0.04398243
#
# Stress axis : x y z
#
# Youngs Moduli (GPa) = 44.06836 145.63497 64.08499
#
# Poissons Ratio (x) = 0.38265 -0.31509
# Poissons Ratio (y) = 0.11579 0.18453
# Poissons Ratio (z) = -0.21667 0.41935
#
# Static dielectric constant tensor:
#      x y z
#    x 3.613680 0.000000 0.161880 
#    y 0.000000 4.961900 0.000000 
#    z 0.161880 0.000000 4.239420 
# 
# 
# High freq. dielectric constant tensor:
#      x y z
#    x 1.819800 0.000000 0.014100 
#    y 0.000000 1.877070 0.000000 
#    z 0.014100 0.000000 1.879170 
# 
# From -- ./inp_files/17054.got.cif
#   From: 2010.06.25/outbox.cif.g09.slc.cpg/sg11_9_cif.got.tgz:17054.got - 2010.06.27 23:14:04.
