data_PCOD8075375
_publ_section_title
;
Structure prediction by ZEFSAII (Michael W. Deem and Ramdas Pophale) SiO2 
 PCOD8075375
Probable space group: P 21/M
;
_chemical_formula_sum "Si O2"
_cell_formula_units_Z 24
_cell_length_a 15.249047
_cell_length_b 13.971760
_cell_length_c 12.474116
_cell_angle_alpha 90.000000
_cell_angle_beta 153.226236
_cell_angle_gamma 90.000000
_cell_volume 1197.204361
_symmetry_space_group_name_H-M "P 21/M"
_symmetry_group_IT_number 11
_symmetry_cell_setting 'monoclinic'
loop_
_space_group_symop_operation_xyz
x,y,z
-x,1/2+y,-z
-x,-y,-z
x,1/2-y,z
loop_
_atom_site_type_symbol
_atom_site_label
_atom_site_fract_x
_atom_site_fract_y
_atom_site_fract_z
Si Si1 0.790275 0.250000 0.487435
Si Si2 0.767634 0.250000 0.206629
Si Si3 0.653932 0.750000 0.987923
Si Si4 0.992871 0.888495 0.670851
Si Si5 0.912903 0.907163 0.165067
Si Si6 0.002748 0.143021 0.080128
Si Si7 0.728491 0.983178 0.745310
Si Si8 0.673483 0.750000 0.260701
O O1 0.805488 0.250000 0.374751
O O2 0.897065 0.343447 0.651124
O O3 0.571397 0.250000 0.292123
O O4 0.860709 0.344376 0.256343
O O5 0.542436 0.250000 0.928925
O O6 0.753218 0.846275 0.054195
O O7 0.675165 0.750000 0.136407
O O8 0.776997 0.847692 0.413019
O O9 0.046684 0.854241 0.848589
O O10 0.011536 0.002948 0.681978
O O11 0.812211 0.941230 0.946756
O O12 0.008584 0.250000 0.039483
O O13 0.210821 0.090961 0.282951
O O14 0.831461 0.084771 0.832947
O O15 0.500000 0.000000 0.500000
#
# Coordination Sequence:
#
# PCOD8075375 Si02
#       8
#     2   2   2   4   4   4   4   2
#     4  10  23  41  58  83 124 157 197 246 292 350
#     4  10  21  37  58  90 120 154 200 243 291 354
#     4  10  23  39  58  90 118 158 204 241 285 358
#     4  10  20  38  61  86 119 155 191 248 296 346
#     4  10  22  40  61  84 118 158 197 241 299 350
#     4  10  21  40  61  87 120 155 190 240 298 347
#     4  10  24  41  59  91 121 150 199 246 287 355
#     4  10  21  37  58  89 124 153 199 244 294 348
#
# _framework density 20.046702
#
# number of rings (size 3 to 8) (size 9 to 14) (size 15 to 20)
#    0.000    2.000    1.667    2.000    2.333   11.333 
#    0.000    3.333    0.000    0.000    0.000    0.000 
#    0.000    0.000    0.000    0.000    0.000    0.000 
#
# Total GULP energy -297546.445006 kJ/mol
# GULP energy per Si atom -12397.768542 kJ/mol
# Density = 2.000108 g / cm^3
# Si number density = 20.046702 Si / 1000 Ang^3
#
#
#
# Elastic Constant Matrix: (Units=GPa)
#
#
# Indices 1 2 3 4 5 6 
#
# 1 44.5841 25.5265 20.3606 0.0000 14.5836 0.0000
# 2 25.5265 173.1108 58.8853 0.0000 19.7800 0.0000
# 3 20.3606 58.8853 118.9550 0.0000 24.2600 0.0000
# 4 0.0000 0.0000 0.0000 70.0821 0.0000 61.6913
# 5 14.5836 19.7800 24.2600 0.0000 36.3811 0.0000
# 6 0.0000 0.0000 0.0000 61.6913 0.0000 120.9627
#
#
#
# Elastic Compliance Matrix: (Units=1/GPa)
#
#
# Indices 1 2 3 4 5 6 
#
# 1 0.027419 -0.002484 -0.001733 0.000000 -0.008485 0.000000
# 2 -0.002484 0.007265 -0.002973 0.000000 -0.000972 0.000000
# 3 -0.001733 -0.002973 0.011231 0.000000 -0.005178 0.000000
# 4 0.000000 0.000000 0.000000 0.025894 0.000000 -0.013206
# 5 -0.008485 -0.000972 -0.005178 0.000000 0.034869 0.000000
# 6 0.000000 0.000000 0.000000 -0.013206 0.000000 0.015002
#
#
# Mechanical properties :
#
#
# Convention : Reuss Voigt Hill
#
# Bulk Modulus (GPa) = 31.71129 60.68830 46.19979
# Shear Modulus (GPa) = 34.11301 60.94368 47.52835
#
# Velocity S-wave (km/s) = 4.12961 5.51968 4.87445
# Velocity P-wave (km/s) = 6.21219 8.42387 7.40111
#
# Compressibility (1/GPa) = 0.03153451
#
# Stress axis : x y z
#
# Youngs Moduli (GPa) = 36.47157 137.64026 89.03982
#
# Poissons Ratio (x) = 0.34191 0.15430
# Poissons Ratio (y) = 0.09060 0.26473
# Poissons Ratio (z) = 0.06320 0.40922
#
# Static dielectric constant tensor:
#      x y z
#    x 3.746740 0.000000 0.139470 
#    y 0.000000 -6.652900 0.000000 
#    z 0.139470 0.000000 3.741740 
# 
# 
# High freq. dielectric constant tensor:
#      x y z
#    x 1.790190 0.000000 0.000330 
#    y 0.000000 1.792980 0.000000 
#    z 0.000330 0.000000 1.773340 
# 
# From -- ./inp_files/39765.got.cif
#   From: 2010.06.25/outbox.cif.g09.slc.cpg/sg11_20_cif.got.tgz:39765.got - 2010.06.27 23:14:04.
