data_PCOD8075001
_publ_section_title
;
Structure prediction by ZEFSAII (Michael W. Deem and Ramdas Pophale) SiO2 
 PCOD8075001
Probable space group: P 21/M
;
_chemical_formula_sum "Si O2"
_cell_formula_units_Z 20
_cell_length_a 12.033341
_cell_length_b 14.388675
_cell_length_c 17.531754
_cell_angle_alpha 90.000000
_cell_angle_beta 20.154632
_cell_angle_gamma 90.000000
_cell_volume 1045.901816
_symmetry_space_group_name_H-M "P 21/M"
_symmetry_group_IT_number 11
_symmetry_cell_setting 'monoclinic'
loop_
_space_group_symop_operation_xyz
x,y,z
-x,1/2+y,-z
-x,-y,-z
x,1/2-y,z
loop_
_atom_site_type_symbol
_atom_site_label
_atom_site_fract_x
_atom_site_fract_y
_atom_site_fract_z
Si Si1 0.785191 0.050762 0.773341
Si Si2 0.350128 0.145015 0.477382
Si Si3 0.359709 0.359652 0.923996
Si Si4 0.426692 0.534024 0.357214
Si Si5 0.333213 0.643798 0.567636
O O1 0.657822 0.108445 0.783393
O O2 0.967574 0.123576 0.712544
O O3 0.046309 0.972554 0.578211
O O4 0.500000 0.000000 0.000000
O O5 0.440060 0.250000 0.395305
O O6 0.429508 0.127246 0.514401
O O7 0.548676 0.072672 0.294877
O O8 0.380606 0.250000 0.893662
O O9 0.367105 0.414707 0.839437
O O10 0.028103 0.387811 0.178249
O O11 0.466468 0.586190 0.411502
O O12 0.327710 0.750000 0.545480
#
# Coordination Sequence:
#
# PCOD8075001 Si02
#       5
#     4   4   4   4   4
#     4  10  20  37  57  80 115 145 189 231 285 332
#     4   9  20  36  57  82 115 151 187 236 285 330
#     4  11  21  36  58  84 113 149 190 235 279 335
#     4  10  21  35  59  83 112 148 191 233 278 338
#     4  10  20  37  58  84 115 150 189 233 283 334
#
# _framework density 19.122253000000001
#
# number of rings (size 3 to 8) (size 9 to 14) (size 15 to 20)
#    1.200    0.800    2.000    2.400    0.000    0.800 
#    0.000    0.000    0.000    8.400    0.000    0.000 
#    0.000    0.000    0.000    0.000    0.000    0.000 
#
# Total GULP energy -247828.797552 kJ/mol
# GULP energy per Si atom -12391.439878 kJ/mol
# Density = 1.907873 g / cm^3
# Si number density = 19.122253 Si / 1000 Ang^3
#
#
#
# Elastic Constant Matrix: (Units=GPa)
#
#
# Indices 1 2 3 4 5 6 
#
# 1 116.6221 57.2572 28.0231 0.0000 -6.6413 0.0000
# 2 57.2572 105.8713 16.6404 0.0000 6.5416 0.0000
# 3 28.0231 16.6404 23.7366 0.0000 -1.6943 0.0000
# 4 0.0000 0.0000 0.0000 22.1321 0.0000 -5.8225
# 5 -6.6413 6.5416 -1.6943 0.0000 24.6702 0.0000
# 6 0.0000 0.0000 0.0000 -5.8225 0.0000 37.0890
#
#
#
# Elastic Compliance Matrix: (Units=1/GPa)
#
#
# Indices 1 2 3 4 5 6 
#
# 1 0.015146 -0.006448 -0.013011 0.000000 0.004894 0.000000
# 2 -0.006448 0.013642 -0.002344 0.000000 -0.005514 0.000000
# 3 -0.013011 -0.002344 0.059218 0.000000 0.001186 0.000000
# 4 0.000000 0.000000 0.000000 0.047130 0.000000 0.007399
# 5 0.004894 -0.005514 0.001186 0.000000 0.043396 0.000000
# 6 0.000000 0.000000 0.000000 0.007399 0.000000 0.028124
#
#
# Mechanical properties :
#
#
# Convention : Reuss Voigt Hill
#
# Bulk Modulus (GPa) = 22.52348 50.00792 36.26570
# Shear Modulus (GPa) = 18.86356 26.39888 22.63122
#
# Velocity S-wave (km/s) = 3.14422 3.71958 3.44394
# Velocity P-wave (km/s) = 4.99858 6.68248 5.90090
#
# Compressibility (1/GPa) = 0.04439811
#
# Stress axis : x y z
#
# Youngs Moduli (GPa) = 66.02531 73.30267 16.88685
#
# Poissons Ratio (x) = 0.47269 0.21971
# Poissons Ratio (y) = 0.42576 0.03959
# Poissons Ratio (z) = 0.85905 0.17185
#
# Static dielectric constant tensor:
#      x y z
#    x 3.513050 0.000000 -0.238940 
#    y 0.000000 3.615810 0.000000 
#    z -0.238940 0.000000 3.220870 
# 
# 
# High freq. dielectric constant tensor:
#      x y z
#    x 1.749260 0.000000 -0.019140 
#    y 0.000000 1.752210 0.000000 
#    z -0.019140 0.000000 1.716360 
# 
# From -- ./inp_files/4244.got.cif
#   From: 2010.06.25/outbox.cif.g09.slc.cpg/sg11_3_cif.got.tgz:4244.got - 2010.06.27 23:14:04.
