data_PCOD8075586
_publ_section_title
;
Structure prediction by ZEFSAII (Michael W. Deem and Ramdas Pophale) SiO2 
 PCOD8075586
Probable space group: P 21/M
;
_chemical_formula_sum "Si O2"
_cell_formula_units_Z 28
_cell_length_a 14.894372
_cell_length_b 18.929854
_cell_length_c 9.345409
_cell_angle_alpha 90.000000
_cell_angle_beta 149.568480
_cell_angle_gamma 90.000000
_cell_volume 1334.609579
_symmetry_space_group_name_H-M "P 21/M"
_symmetry_group_IT_number 11
_symmetry_cell_setting 'monoclinic'
loop_
_space_group_symop_operation_xyz
x,y,z
-x,1/2+y,-z
-x,-y,-z
x,1/2-y,z
loop_
_atom_site_type_symbol
_atom_site_label
_atom_site_fract_x
_atom_site_fract_y
_atom_site_fract_z
Si Si1 0.346271 0.830661 0.822075
Si Si2 0.241883 0.632375 0.108122
Si Si3 0.001393 0.169501 0.473606
Si Si4 0.821697 0.514795 0.840379
Si Si5 0.731730 0.570621 0.008131
Si Si6 0.424783 0.674415 0.613658
Si Si7 0.478398 0.568746 0.218210
O O1 0.412687 0.750000 0.941212
O O2 0.331857 0.848062 0.634129
O O3 0.153598 0.841554 0.624946
O O4 0.481628 0.890142 0.070368
O O5 0.242363 0.557573 0.184495
O O6 0.276400 0.685963 0.286092
O O7 0.408452 0.630028 0.228674
O O8 0.065029 0.654088 0.779412
O O9 0.074284 0.250000 0.581094
O O10 0.151865 0.111894 0.714324
O O11 0.838796 0.565097 0.004269
O O12 0.675257 0.544027 0.528307
O O13 0.000000 0.500000 0.000000
O O14 0.558901 0.616455 0.739618
O O15 0.667027 0.495048 0.981675
O O16 0.521109 0.750000 0.768320
#
# Coordination Sequence:
#
# PCOD8075586 Si02
#       7
#     4   4   4   4   4   4   4
#     4   9  22  39  62  92 127 163 207 263 320 376
#     4  10  20  40  62  87 126 164 206 253 316 377
#     4  10  22  40  61  93 129 165 213 260 310 377
#     4  11  23  39  62  93 125 159 212 271 315 369
#     4  11  22  39  64  91 127 165 209 260 311 375
#     4  11  21  38  64  91 122 167 210 254 315 377
#     4  10  20  42  63  89 128 162 212 260 314 386
#
# _framework density 20.979918000000001
#
# number of rings (size 3 to 8) (size 9 to 14) (size 15 to 20)
#    0.000    1.714    2.857    1.714    2.000    7.429 
#    0.000    0.000    0.000    0.857    0.000    0.000 
#    0.000    0.000    0.000    0.000    0.000    0.000 
#
# Total GULP energy -346948.557190 kJ/mol
# GULP energy per Si atom -12391.019900 kJ/mol
# Density = 2.093217 g / cm^3
# Si number density = 20.979918 Si / 1000 Ang^3
#
#
#
# Elastic Constant Matrix: (Units=GPa)
#
#
# Indices 1 2 3 4 5 6 
#
# 1 89.0348 34.3458 57.5863 0.0000 -23.7598 0.0000
# 2 34.3458 97.0819 54.5289 0.0000 -16.5213 0.0000
# 3 57.5863 54.5289 144.7909 0.0000 -19.2476 0.0000
# 4 0.0000 0.0000 0.0000 26.3412 0.0000 -5.2725
# 5 -23.7598 -16.5213 -19.2476 0.0000 28.8056 0.0000
# 6 0.0000 0.0000 0.0000 -5.2725 0.0000 20.6865
#
#
#
# Elastic Compliance Matrix: (Units=1/GPa)
#
#
# Indices 1 2 3 4 5 6 
#
# 1 0.017990 -0.001711 -0.005123 0.000000 0.010434 0.000000
# 2 -0.001711 0.013811 -0.004012 0.000000 0.003829 0.000000
# 3 -0.005123 -0.004012 0.010522 0.000000 0.000504 0.000000
# 4 0.000000 0.000000 0.000000 0.040004 0.000000 0.010196
# 5 0.010434 0.003829 0.000504 0.000000 0.045854 0.000000
# 6 0.000000 0.000000 0.000000 0.010196 0.000000 0.050940
#
#
# Mechanical properties :
#
#
# Convention : Reuss Voigt Hill
#
# Bulk Modulus (GPa) = 48.47279 69.31441 58.89360
# Shear Modulus (GPa) = 24.07435 27.46311 25.76873
#
# Velocity S-wave (km/s) = 3.39114 3.62196 3.50845
# Velocity P-wave (km/s) = 6.20384 7.11348 6.67418
#
# Compressibility (1/GPa) = 0.02063013
#
# Stress axis : x y z
#
# Youngs Moduli (GPa) = 55.58719 72.40678 95.03885
#
# Poissons Ratio (x) = 0.12389 0.48693
# Poissons Ratio (y) = 0.09511 0.38126
# Poissons Ratio (z) = 0.28480 0.29047
#
# Static dielectric constant tensor:
#      x y z
#    x 2.033280 0.000000 0.165870 
#    y 0.000000 4.036460 0.000000 
#    z 0.165870 0.000000 3.584760 
# 
# 
# High freq. dielectric constant tensor:
#      x y z
#    x 1.811820 0.000000 -0.022790 
#    y 0.000000 1.832830 0.000000 
#    z -0.022790 0.000000 1.810640 
# 
# From -- ./inp_files/23231.got.cif
#   From: 2010.06.25/outbox.cif.g09.slc.cpg/sg11_12_cif.got.tgz:23231.got - 2010.06.27 23:14:04.
