data_PCOD8075183
_publ_section_title
;
Structure prediction by ZEFSAII (Michael W. Deem and Ramdas Pophale) SiO2 
 PCOD8075183
Probable space group: P 21/M
;
_chemical_formula_sum "Si O2"
_cell_formula_units_Z 28
_cell_length_a 12.547811
_cell_length_b 8.720785
_cell_length_c 16.011957
_cell_angle_alpha 90.000000
_cell_angle_beta 55.349679
_cell_angle_gamma 90.000000
_cell_volume 1441.372985
_symmetry_space_group_name_H-M "P 21/M"
_symmetry_group_IT_number 11
_symmetry_cell_setting 'monoclinic'
loop_
_space_group_symop_operation_xyz
x,y,z
-x,1/2+y,-z
-x,-y,-z
x,1/2-y,z
loop_
_atom_site_type_symbol
_atom_site_label
_atom_site_fract_x
_atom_site_fract_y
_atom_site_fract_z
Si Si1 0.557030 0.930051 0.785691
Si Si2 0.976511 0.431570 0.270609
Si Si3 0.766707 0.069199 0.795608
Si Si4 0.516658 0.071350 0.366114
Si Si5 0.942540 0.924603 0.944750
Si Si6 0.294642 0.072094 0.594918
Si Si7 0.663193 0.927147 0.009957
O O1 0.585594 0.750000 0.773486
O O2 0.507388 0.984380 0.717279
O O3 0.689713 0.020635 0.746371
O O4 0.450230 0.970162 0.902266
O O5 0.997631 0.250000 0.266414
O O6 0.085299 0.512261 0.279493
O O7 0.995806 0.494014 0.167356
O O8 0.835267 0.477491 0.365387
O O9 0.762808 0.250000 0.810933
O O10 0.695172 0.984323 0.903406
O O11 0.551639 0.250000 0.355146
O O12 0.388782 0.033876 0.476232
O O13 0.639035 0.979213 0.347923
O O14 0.983941 0.750000 0.930502
O O15 0.788179 0.946657 0.013265
O O16 0.000000 0.000000 0.000000
O O17 0.259797 0.250000 0.616317
O O18 0.619257 0.750000 0.024895
#
# Coordination Sequence:
#
# PCOD8075183 Si02
#       7
#     4   4   4   4   4   4   4
#     4  11  22  37  58  82 112 150 189 233 280 328
#     4  10  21  38  58  81 111 149 186 226 280 337
#     4  11  22  38  58  83 112 147 190 233 277 332
#     4   9  21  39  58  84 115 147 186 231 280 333
#     4   9  20  34  50  75 110 144 180 224 268 322
#     4  10  20  37  61  86 113 146 186 231 280 335
#     4  10  21  37  54  79 113 151 189 228 276 329
#
# _framework density 19.425920999999999
#
# number of rings (size 3 to 8) (size 9 to 14) (size 15 to 20)
#    0.000    2.000    0.000    4.286    2.000    5.143 
#    0.000    0.714    0.000    0.000    0.000    0.000 
#    0.000    0.000    0.000    0.000    0.000    0.000 
#
# Total GULP energy -347297.704297 kJ/mol
# GULP energy per Si atom -12403.489439 kJ/mol
# Density = 1.938171 g / cm^3
# Si number density = 19.425921 Si / 1000 Ang^3
#
#
#
# Elastic Constant Matrix: (Units=GPa)
#
#
# Indices 1 2 3 4 5 6 
#
# 1 105.1251 34.8338 33.7750 0.0000 -5.5202 0.0000
# 2 34.8338 68.9549 13.2075 0.0000 -1.0806 0.0000
# 3 33.7750 13.2075 43.9151 0.0000 -6.8216 0.0000
# 4 0.0000 0.0000 0.0000 27.3688 0.0000 -2.3763
# 5 -5.5202 -1.0806 -6.8216 0.0000 27.9651 0.0000
# 6 0.0000 0.0000 0.0000 -2.3763 0.0000 39.4747
#
#
#
# Elastic Compliance Matrix: (Units=1/GPa)
#
#
# Indices 1 2 3 4 5 6 
#
# 1 0.014334 -0.005448 -0.009333 0.000000 0.000342 0.000000
# 2 -0.005448 0.017468 -0.001170 0.000000 -0.000686 0.000000
# 3 -0.009333 -0.001170 0.031189 0.000000 0.005721 0.000000
# 4 0.000000 0.000000 0.000000 0.036730 0.000000 0.002211
# 5 0.000342 -0.000686 0.005721 0.000000 0.037195 0.000000
# 6 0.000000 0.000000 0.000000 0.002211 0.000000 0.025466
#
#
# Mechanical properties :
#
#
# Convention : Reuss Voigt Hill
#
# Bulk Modulus (GPa) = 32.16462 42.40309 37.28385
# Shear Modulus (GPa) = 24.43232 28.04032 26.23632
#
# Velocity S-wave (km/s) = 3.55028 3.80340 3.67901
# Velocity P-wave (km/s) = 5.77923 6.41586 6.10585
#
# Compressibility (1/GPa) = 0.03109006
#
# Stress axis : x y z
#
# Youngs Moduli (GPa) = 69.76332 57.24813 32.06229
#
# Poissons Ratio (x) = 0.31190 0.29922
# Poissons Ratio (y) = 0.38009 0.03751
# Poissons Ratio (z) = 0.65107 0.06697
#
# Static dielectric constant tensor:
#      x y z
#    x 3.924010 0.000000 0.420080 
#    y 0.000000 3.564250 0.000000 
#    z 0.420080 0.000000 4.501950 
# 
# 
# High freq. dielectric constant tensor:
#      x y z
#    x 1.769710 0.000000 -0.004020 
#    y 0.000000 1.761830 0.000000 
#    z -0.004020 0.000000 1.734860 
# 
# From -- ./inp_files/49129.got.cif
#   From: 2010.06.25/outbox.cif.g09.slc.cpg/sg11_25_cif.got.tgz:49129.got - 2010.06.27 23:14:04.
