data_PCOD8075972
_publ_section_title
;
Structure prediction by ZEFSAII (Michael W. Deem and Ramdas Pophale) SiO2 
 PCOD8075972
Probable space group: P 21/M
;
_chemical_formula_sum "Si O2"
_cell_formula_units_Z 32
_cell_length_a 21.246409
_cell_length_b 8.981990
_cell_length_c 12.451301
_cell_angle_alpha 90.000000
_cell_angle_beta 128.266890
_cell_angle_gamma 90.000000
_cell_volume 1865.592730
_symmetry_space_group_name_H-M "P 21/M"
_symmetry_group_IT_number 11
_symmetry_cell_setting 'monoclinic'
loop_
_space_group_symop_operation_xyz
x,y,z
-x,1/2+y,-z
-x,-y,-z
x,1/2-y,z
loop_
_atom_site_type_symbol
_atom_site_label
_atom_site_fract_x
_atom_site_fract_y
_atom_site_fract_z
Si Si1 0.921691 0.423161 0.791442
Si Si2 0.325650 0.921126 0.706266
Si Si3 0.654438 0.076810 0.025439
Si Si4 0.828834 0.579065 0.508900
Si Si5 0.501839 0.921871 0.888398
Si Si6 0.106479 0.423317 0.022617
Si Si7 0.917721 0.577672 0.383895
Si Si8 0.819863 0.073962 0.095825
O O1 0.902307 0.250000 0.786366
O O2 0.886894 0.480871 0.643113
O O3 0.880572 0.513666 0.844445
O O4 0.016257 0.453242 0.888254
O O5 0.297729 0.750000 0.668369
O O6 0.328265 0.969949 0.833616
O O7 0.413191 0.943431 0.742936
O O8 0.262457 0.022972 0.576237
O O9 0.636125 0.250000 0.998206
O O10 0.729589 0.029767 0.032464
O O11 0.574625 0.993048 0.896457
O O12 0.834296 0.750000 0.551247
O O13 0.855175 0.557175 0.414105
O O14 0.520602 0.750000 0.926008
O O15 0.500000 0.000000 0.000000
O O16 0.128428 0.250000 0.044715
O O17 0.166400 0.512250 0.008716
O O18 0.934111 0.750000 0.375737
O O19 0.882996 0.501463 0.241692
O O20 0.000000 0.500000 0.500000
O O21 0.833422 0.250000 0.114443
#
# Coordination Sequence:
#
# PCOD8075972 Si02
#       8
#     4   4   4   4   4   4   4   4
#     4  10  21  37  56  74  97 131 168 212 260 302
#     4   9  17  31  47  68  99 134 168 202 247 297
#     4   9  18  31  47  70 100 135 169 204 246 296
#     4  11  22  33  49  74 101 131 169 211 251 297
#     4   9  17  28  45  68  96 131 168 205 246 295
#     4  10  21  37  56  77  99 127 169 216 258 300
#     4  11  23  35  48  70 100 136 173 206 250 303
#     4  11  21  34  52  74 103 136 170 208 252 301
#
# _framework density 17.152726000000001
#
# number of rings (size 3 to 8) (size 9 to 14) (size 15 to 20)
#    0.000    2.000    1.250    3.750    0.000    8.500 
#    0.000    0.000    0.000    0.000    0.000    0.875 
#    0.000    0.000    0.000    0.000    0.000    0.000 
#
# Total GULP energy -396827.534282 kJ/mol
# GULP energy per Si atom -12400.860446 kJ/mol
# Density = 1.711369 g / cm^3
# Si number density = 17.152726 Si / 1000 Ang^3
#
#
#
# Elastic Constant Matrix: (Units=GPa)
#
#
# Indices 1 2 3 4 5 6 
#
# 1 88.6736 44.0374 15.4623 0.0000 8.1942 0.0000
# 2 44.0374 83.9396 19.2966 0.0000 10.2735 0.0000
# 3 15.4623 19.2966 24.8153 0.0000 3.7321 0.0000
# 4 0.0000 0.0000 0.0000 30.5194 0.0000 2.3396
# 5 8.1942 10.2735 3.7321 0.0000 25.5435 0.0000
# 6 0.0000 0.0000 0.0000 2.3396 0.0000 31.6193
#
#
#
# Elastic Compliance Matrix: (Units=1/GPa)
#
#
# Indices 1 2 3 4 5 6 
#
# 1 0.015643 -0.007096 -0.003992 0.000000 -0.001581 0.000000
# 2 -0.007096 0.018198 -0.009173 0.000000 -0.003703 0.000000
# 3 -0.003992 -0.009173 0.050275 0.000000 -0.002376 0.000000
# 4 0.000000 0.000000 0.000000 0.032953 0.000000 -0.002438
# 5 -0.001581 -0.003703 -0.002376 0.000000 0.041492 0.000000
# 6 0.000000 0.000000 0.000000 -0.002438 0.000000 0.031807
#
#
# Mechanical properties :
#
#
# Convention : Reuss Voigt Hill
#
# Bulk Modulus (GPa) = 22.93794 39.44679 31.19237
# Shear Modulus (GPa) = 20.37318 25.44526 22.90922
#
# Velocity S-wave (km/s) = 3.45012 3.85574 3.65855
# Velocity P-wave (km/s) = 5.41044 6.54749 6.00593
#
# Compressibility (1/GPa) = 0.04359589
#
# Stress axis : x y z
#
# Youngs Moduli (GPa) = 63.92450 54.95146 19.89063
#
# Poissons Ratio (x) = 0.38993 0.07940
# Poissons Ratio (y) = 0.45360 0.18245
# Poissons Ratio (z) = 0.25517 0.50405
#
# Static dielectric constant tensor:
#      x y z
#    x 3.531270 0.000000 0.355790 
#    y 0.000000 3.377580 0.000000 
#    z 0.355790 0.000000 3.085990 
# 
# 
# High freq. dielectric constant tensor:
#      x y z
#    x 1.656890 0.000000 0.018620 
#    y 0.000000 1.677940 0.000000 
#    z 0.018620 0.000000 1.630220 
# 
# From -- ./inp_files/42794.got.cif
#   From: 2010.06.25/outbox.cif.g09.slc.cpg/sg11_22_cif.got.tgz:42794.got - 2010.06.27 23:14:04.
