data_PCOD8075096
_publ_section_title
;
Structure prediction by ZEFSAII (Michael W. Deem and Ramdas Pophale) SiO2 
 PCOD8075096
Probable space group: P 21/M
;
_chemical_formula_sum "Si O2"
_cell_formula_units_Z 28
_cell_length_a 5.166786
_cell_length_b 16.685768
_cell_length_c 20.508995
_cell_angle_alpha 90.000000
_cell_angle_beta 129.999722
_cell_angle_gamma 90.000000
_cell_volume 1354.461887
_symmetry_space_group_name_H-M "P 21/M"
_symmetry_group_IT_number 11
_symmetry_cell_setting 'monoclinic'
loop_
_space_group_symop_operation_xyz
x,y,z
-x,1/2+y,-z
-x,-y,-z
x,1/2-y,z
loop_
_atom_site_type_symbol
_atom_site_label
_atom_site_fract_x
_atom_site_fract_y
_atom_site_fract_z
Si Si1 0.297551 0.157289 0.439209
Si Si2 0.353248 0.014329 0.739199
Si Si3 0.396058 0.585865 0.629649
Si Si4 0.223537 0.159710 0.904823
Si Si5 0.388766 0.942528 0.403304
Si Si6 0.758795 0.059774 0.924132
Si Si7 0.635411 0.337812 0.718135
O O1 0.387068 0.250000 0.468583
O O2 0.339898 0.141863 0.368072
O O3 0.549847 0.091444 0.513990
O O4 0.931068 0.139772 0.409556
O O5 0.500865 0.008086 0.836360
O O6 0.415303 0.104862 0.727130
O O7 0.950260 0.003627 0.663632
O O8 0.536338 0.947234 0.722693
O O9 0.321851 0.504242 0.575468
O O10 0.320824 0.250000 0.941984
O O11 0.557394 0.107477 0.947485
O O12 0.985473 0.122089 0.921152
O O13 0.025119 0.160525 0.804012
O O14 0.380118 0.862255 0.359377
O O15 0.000000 0.000000 0.000000
O O16 0.475741 0.250000 0.699949
#
# Coordination Sequence:
#
# PCOD8075096 Si02
#       7
#     4   4   4   4   4   4   4
#     4  12  26  40  60  89 120 157 206 259 303 349
#     4  10  22  38  63  87 123 163 205 240 308 361
#     4  11  24  43  62  83 120 161 203 246 301 364
#     4  10  20  37  59  88 126 164 192 237 315 374
#     4  11  21  38  61  89 122 158 203 244 309 365
#     4  11  22  39  63  96 124 158 207 257 296 361
#     4   9  19  32  53  88 126 158 191 238 297 374
#
# _framework density 20.672416999999999
#
# number of rings (size 3 to 8) (size 9 to 14) (size 15 to 20)
#    0.000    1.429    2.857    2.571    4.000    1.714 
#    0.000    0.000    0.000    5.143    0.000    0.000 
#    0.000    0.000    0.000    0.000    0.000    0.000 
#
# Total GULP energy -346927.728761 kJ/mol
# GULP energy per Si atom -12390.276027 kJ/mol
# Density = 2.062537 g / cm^3
# Si number density = 20.672417 Si / 1000 Ang^3
#
#
#
# Elastic Constant Matrix: (Units=GPa)
#
#
# Indices 1 2 3 4 5 6 
#
# 1 97.6267 27.8138 18.4560 0.0000 7.4538 0.0000
# 2 27.8138 76.8691 6.9866 0.0000 -0.5648 0.0000
# 3 18.4560 6.9866 53.4883 0.0000 -1.9714 0.0000
# 4 0.0000 0.0000 0.0000 25.4423 0.0000 1.9726
# 5 7.4538 -0.5648 -1.9714 0.0000 19.8942 0.0000
# 6 0.0000 0.0000 0.0000 1.9726 0.0000 34.9316
#
#
#
# Elastic Compliance Matrix: (Units=1/GPa)
#
#
# Indices 1 2 3 4 5 6 
#
# 1 0.012604 -0.004237 -0.003989 0.000000 -0.005238 0.000000
# 2 -0.004237 0.014590 -0.000372 0.000000 0.001965 0.000000
# 3 -0.003989 -0.000372 0.020249 0.000000 0.003490 0.000000
# 4 0.000000 0.000000 0.000000 0.039477 0.000000 -0.002229
# 5 -0.005238 0.001965 0.003490 0.000000 0.052630 0.000000
# 6 0.000000 0.000000 0.000000 -0.002229 0.000000 0.028753
#
#
# Mechanical properties :
#
#
# Convention : Reuss Voigt Hill
#
# Bulk Modulus (GPa) = 33.05791 37.16631 35.11211
# Shear Modulus (GPa) = 25.56484 27.70213 26.63348
#
# Velocity S-wave (km/s) = 3.52044 3.66464 3.59327
# Velocity P-wave (km/s) = 5.70532 5.99365 5.85126
#
# Compressibility (1/GPa) = 0.03024995
#
# Stress axis : x y z
#
# Youngs Moduli (GPa) = 79.33961 68.53891 49.38477
#
# Poissons Ratio (x) = 0.29037 0.19698
# Poissons Ratio (y) = 0.33612 0.01835
# Poissons Ratio (z) = 0.31646 0.02547
#
# Static dielectric constant tensor:
#      x y z
#    x 3.809290 0.000000 -0.145400 
#    y 0.000000 3.812590 0.000000 
#    z -0.145400 0.000000 3.693930 
# 
# 
# High freq. dielectric constant tensor:
#      x y z
#    x 1.818060 0.000000 -0.013450 
#    y 0.000000 1.809180 0.000000 
#    z -0.013450 0.000000 1.769890 
# 
# From -- ./inp_files/62913.got.cif
#   From: 2010.06.25/outbox.cif.g09.slc.cpg/sg11_32_cif.got.tgz:62913.got - 2010.06.27 23:14:04.
