data_PCOD8075872
_publ_section_title
;
Structure prediction by ZEFSAII (Michael W. Deem and Ramdas Pophale) SiO2 
 PCOD8075872
Probable space group: P 21/M
;
_chemical_formula_sum "Si O2"
_cell_formula_units_Z 28
_cell_length_a 22.025567
_cell_length_b 8.956367
_cell_length_c 15.266954
_cell_angle_alpha 90.000000
_cell_angle_beta 153.114384
_cell_angle_gamma 90.000000
_cell_volume 1361.922253
_symmetry_space_group_name_H-M "P 21/M"
_symmetry_group_IT_number 11
_symmetry_cell_setting 'monoclinic'
loop_
_space_group_symop_operation_xyz
x,y,z
-x,1/2+y,-z
-x,-y,-z
x,1/2-y,z
loop_
_atom_site_type_symbol
_atom_site_label
_atom_site_fract_x
_atom_site_fract_y
_atom_site_fract_z
Si Si1 0.351013 0.071206 0.312026
Si Si2 0.790193 0.574194 0.050460
Si Si3 0.851410 0.069857 0.806012
Si Si4 0.304247 0.922958 0.562921
Si Si5 0.993397 0.587601 0.580762
Si Si6 0.303381 0.412501 0.740536
Si Si7 0.599344 0.574345 0.955454
O O1 0.361613 0.250000 0.339879
O O2 0.500000 0.000000 0.500000
O O3 0.253339 0.998317 0.258914
O O4 0.281771 0.029283 0.131493
O O5 0.807598 0.750000 0.078282
O O6 0.935613 0.498572 0.246734
O O7 0.706620 0.508522 0.025615
O O8 0.856581 0.250000 0.823478
O O9 0.796797 0.017828 0.640904
O O10 0.000000 0.000000 0.000000
O O11 0.281035 0.750000 0.543770
O O12 0.455471 0.961840 0.727891
O O13 0.280600 0.988143 0.627360
O O14 0.061925 0.750000 0.657826
O O15 0.000000 0.500000 0.500000
O O16 0.839979 0.611040 0.402515
O O17 0.363301 0.250000 0.790907
O O18 0.391853 0.490123 0.932966
O O19 0.623496 0.750000 0.995922
#
# Coordination Sequence:
#
# PCOD8075872 Si02
#       7
#     4   4   4   4   4   4   4
#     4  11  24  43  70 100 130 168 214 270 331 390
#     4  10  21  39  63  88 121 162 203 249 307 371
#     4  11  25  45  66  92 127 170 220 273 330 388
#     4  10  22  39  62  86 114 156 205 249 300 366
#     4  11  22  37  57  86 121 160 201 249 305 365
#     4  10  21  36  57  85 120 157 194 241 300 358
#     4   9  17  36  60  85 119 155 190 238 297 358
#
# _framework density 20.559176000000001
#
# number of rings (size 3 to 8) (size 9 to 14) (size 15 to 20)
#    0.000    1.714    1.429    2.571    2.000    5.714 
#    0.000    0.714    0.000    0.000    0.000    0.000 
#    0.000    0.000    0.000    0.000    0.000    0.000 
#
# Total GULP energy -346978.433459 kJ/mol
# GULP energy per Si atom -12392.086909 kJ/mol
# Density = 2.051238 g / cm^3
# Si number density = 20.559176 Si / 1000 Ang^3
#
#
#
# Elastic Constant Matrix: (Units=GPa)
#
#
# Indices 1 2 3 4 5 6 
#
# 1 101.8844 33.9264 44.8798 0.0000 -15.3826 0.0000
# 2 33.9264 63.7102 53.3888 0.0000 -6.7562 0.0000
# 3 44.8798 53.3888 147.3911 0.0000 -32.6788 0.0000
# 4 0.0000 0.0000 0.0000 32.1420 0.0000 1.1625
# 5 -15.3826 -6.7562 -32.6788 0.0000 33.7983 0.0000
# 6 0.0000 0.0000 0.0000 1.1625 0.0000 30.7061
#
#
#
# Elastic Compliance Matrix: (Units=1/GPa)
#
#
# Indices 1 2 3 4 5 6 
#
# 1 0.012651 -0.005454 -0.001072 0.000000 0.003632 0.000000
# 2 -0.005454 0.025393 -0.008862 0.000000 -0.005975 0.000000
# 3 -0.001072 -0.008862 0.012500 0.000000 0.009826 0.000000
# 4 0.000000 0.000000 0.000000 0.031155 0.000000 -0.001180
# 5 0.003632 -0.005975 0.009826 0.000000 0.039547 0.000000
# 6 0.000000 0.000000 0.000000 -0.001180 0.000000 0.032611
#
#
# Mechanical properties :
#
#
# Convention : Reuss Voigt Hill
#
# Bulk Modulus (GPa) = 50.58361 64.15284 57.36822
# Shear Modulus (GPa) = 26.14763 31.38200 28.76482
#
# Velocity S-wave (km/s) = 3.57013 3.91119 3.74454
# Velocity P-wave (km/s) = 6.45382 7.18806 6.83081
#
# Compressibility (1/GPa) = 0.01976925
#
# Stress axis : x y z
#
# Youngs Moduli (GPa) = 79.04206 39.38079 80.00231
#
# Poissons Ratio (x) = 0.21478 0.08572
# Poissons Ratio (y) = 0.43110 0.70898
# Poissons Ratio (z) = 0.08469 0.34899
#
# Static dielectric constant tensor:
#      x y z
#    x 4.365600 0.000000 0.145700 
#    y 0.000000 3.721180 0.000000 
#    z 0.145700 0.000000 4.202490 
# 
# 
# High freq. dielectric constant tensor:
#      x y z
#    x 1.805640 0.000000 -0.004640 
#    y 0.000000 1.792090 0.000000 
#    z -0.004640 0.000000 1.826120 
# 
# From -- ./inp_files/49130.got.cif
#   From: 2010.06.25/outbox.cif.g09.slc.cpg/sg11_25_cif.got.tgz:49130.got - 2010.06.27 23:14:04.
