data_PCOD8075801
_publ_section_title
;
Structure prediction by ZEFSAII (Michael W. Deem and Ramdas Pophale) SiO2 
 PCOD8075801
Probable space group: P 21/M
;
_chemical_formula_sum "Si O2"
_cell_formula_units_Z 32
_cell_length_a 26.052396
_cell_length_b 8.993932
_cell_length_c 15.018339
_cell_angle_alpha 90.000000
_cell_angle_beta 150.695073
_cell_angle_gamma 90.000000
_cell_volume 1722.400367
_symmetry_space_group_name_H-M "P 21/M"
_symmetry_group_IT_number 11
_symmetry_cell_setting 'monoclinic'
loop_
_space_group_symop_operation_xyz
x,y,z
-x,1/2+y,-z
-x,-y,-z
x,1/2-y,z
loop_
_atom_site_type_symbol
_atom_site_label
_atom_site_fract_x
_atom_site_fract_y
_atom_site_fract_z
Si Si1 0.402363 0.573981 0.802713
Si Si2 0.284126 0.920908 0.301403
Si Si3 0.952355 0.418937 0.010638
Si Si4 0.220185 0.575494 0.661755
Si Si5 0.009016 0.073477 0.288945
Si Si6 0.333271 0.926493 0.009314
Si Si7 0.570158 0.573934 0.341419
Si Si8 0.218828 0.926802 0.009941
O O1 0.421399 0.750000 0.828142
O O2 0.296047 0.534733 0.694602
O O3 0.387239 0.508935 0.681471
O O4 0.500000 0.500000 0.000000
O O5 0.323215 0.750000 0.364280
O O6 0.363549 0.028048 0.472450
O O7 0.172329 0.935408 0.179690
O O8 0.275502 0.979398 0.186638
O O9 0.986780 0.250000 0.054585
O O10 0.000945 0.484078 0.175143
O O11 0.000000 0.500000 0.000000
O O12 0.201503 0.750000 0.638835
O O13 0.108400 0.498424 0.485554
O O14 0.271683 0.513985 0.830212
O O15 0.019426 0.250000 0.307993
O O16 0.902556 0.021033 0.177921
O O17 0.328901 0.750000 0.006094
O O18 0.452401 0.980468 0.182233
O O19 0.280577 0.993801 0.018803
O O20 0.576974 0.750000 0.336063
O O21 0.220364 0.750000 0.012798
#
# Coordination Sequence:
#
# PCOD8075801 Si02
#       8
#     4   4   4   4   4   4   4   4
#     4  11  22  38  57  79 111 148 183 223 273 325
#     4   9  19  36  55  79 108 141 181 224 273 326
#     4   9  19  34  51  73 104 138 176 220 267 322
#     4  10  21  36  54  79 110 144 179 218 269 324
#     4   9  19  35  54  80 107 137 180 222 265 321
#     4   9  18  35  56  79 107 144 184 220 270 328
#     4  11  22  36  55  82 112 146 185 225 269 322
#     4   8  16  35  60  78 106 146 179 221 276 326
#
# _framework density 18.578724000000001
#
# number of rings (size 3 to 8) (size 9 to 14) (size 15 to 20)
#    0.000    2.500    1.250    2.250    1.750    3.000 
#    0.000    1.875    0.000    3.000    0.000    0.000 
#    0.000    0.000    0.000    0.000    0.000    0.000 
#
# Total GULP energy -396769.036487 kJ/mol
# GULP energy per Si atom -12399.032390 kJ/mol
# Density = 1.853644 g / cm^3
# Si number density = 18.578724 Si / 1000 Ang^3
#
#
#
# Elastic Constant Matrix: (Units=GPa)
#
#
# Indices 1 2 3 4 5 6 
#
# 1 160.5969 37.0731 64.2788 0.0000 -11.1283 0.0000
# 2 37.0731 43.5277 34.6560 0.0000 -1.5809 0.0000
# 3 64.2788 34.6560 138.7776 0.0000 -7.9430 0.0000
# 4 0.0000 0.0000 0.0000 33.8289 0.0000 -1.5412
# 5 -11.1283 -1.5809 -7.9430 0.0000 16.4448 0.0000
# 6 0.0000 0.0000 0.0000 -1.5412 0.0000 20.5028
#
#
#
# Elastic Compliance Matrix: (Units=1/GPa)
#
#
# Indices 1 2 3 4 5 6 
#
# 1 0.008737 -0.005315 -0.002479 0.000000 0.004204 0.000000
# 2 -0.005315 0.031917 -0.005696 0.000000 -0.003280 0.000000
# 3 -0.002479 -0.005696 0.009923 0.000000 0.002568 0.000000
# 4 0.000000 0.000000 0.000000 0.029662 0.000000 0.002230
# 5 0.004204 -0.003280 0.002568 0.000000 0.064580 0.000000
# 6 0.000000 0.000000 0.000000 0.002230 0.000000 0.048942
#
#
# Mechanical properties :
#
#
# Convention : Reuss Voigt Hill
#
# Bulk Modulus (GPa) = 42.37844 68.32423 55.35133
# Shear Modulus (GPa) = 21.87152 27.94824 24.90988
#
# Velocity S-wave (km/s) = 3.43481 3.88276 3.66563
# Velocity P-wave (km/s) = 6.21211 7.54695 6.91183
#
# Compressibility (1/GPa) = 0.02359690
#
# Stress axis : x y z
#
# Youngs Moduli (GPa) = 114.45177 31.33113 100.77147
#
# Poissons Ratio (x) = 0.16653 0.24981
# Poissons Ratio (y) = 0.60834 0.57402
# Poissons Ratio (z) = 0.28372 0.17847
#
# Static dielectric constant tensor:
#      x y z
#    x 3.647450 0.000000 0.016770 
#    y 0.000000 3.135960 0.000000 
#    z 0.016770 0.000000 3.451220 
# 
# 
# High freq. dielectric constant tensor:
#      x y z
#    x 1.730220 0.000000 -0.002210 
#    y 0.000000 1.692740 0.000000 
#    z -0.002210 0.000000 1.728100 
# 
# From -- ./inp_files/56159.got.cif
#   From: 2010.06.25/outbox.cif.g09.slc.cpg/sg11_29_cif.got.tgz:56159.got - 2010.06.27 23:14:04.
