data_PCOD8075544
_publ_section_title
;
Structure prediction by ZEFSAII (Michael W. Deem and Ramdas Pophale) SiO2 
 PCOD8075544
Probable space group: P 21/M
;
_chemical_formula_sum "Si O2"
_cell_formula_units_Z 28
_cell_length_a 9.805706
_cell_length_b 19.986293
_cell_length_c 15.797498
_cell_angle_alpha 90.000000
_cell_angle_beta 25.467861
_cell_angle_gamma 90.000000
_cell_volume 1331.290002
_symmetry_space_group_name_H-M "P 21/M"
_symmetry_group_IT_number 11
_symmetry_cell_setting 'monoclinic'
loop_
_space_group_symop_operation_xyz
x,y,z
-x,1/2+y,-z
-x,-y,-z
x,1/2-y,z
loop_
_atom_site_type_symbol
_atom_site_label
_atom_site_fract_x
_atom_site_fract_y
_atom_site_fract_z
Si Si1 0.770001 0.421397 0.462792
Si Si2 0.352283 0.826020 0.793348
Si Si3 0.449512 0.824408 0.547069
Si Si4 0.219308 0.176827 0.302146
Si Si5 0.837959 0.322592 0.842335
Si Si6 0.949044 0.942266 0.096325
Si Si7 0.829177 0.465618 0.835332
O O1 0.774409 0.374428 0.378033
O O2 0.425041 0.430947 0.692755
O O3 0.994156 0.384597 0.404880
O O4 0.896719 0.494125 0.366008
O O5 0.219709 0.750000 0.872718
O O6 0.429354 0.847615 0.654951
O O7 0.694966 0.831101 0.647274
O O8 0.096753 0.874313 0.978383
O O9 0.311468 0.750000 0.612364
O O10 0.813173 0.827706 0.309650
O O11 0.060081 0.250000 0.373675
O O12 0.563124 0.174249 0.065303
O O13 0.820346 0.250000 0.802904
O O14 0.807019 0.390968 0.805375
O O15 0.096748 0.960983 0.105473
O O16 0.000000 0.000000 0.000000
O O17 0.500000 0.500000 0.000000
#
# Coordination Sequence:
#
# PCOD8075544 Si02
#       7
#     4   4   4   4   4   4   4
#     4  12  23  40  62  93 125 160 204 262 301 365
#     4  10  21  41  63  87 123 163 204 248 303 372
#     4  10  21  38  66  95 122 161 206 254 307 361
#     4  10  20  39  65  93 122 156 202 251 306 365
#     4  10  20  39  64  90 119 162 207 247 301 375
#     4  12  26  42  60  91 126 165 201 252 316 360
#     4  12  23  42  65  90 119 163 210 252 304 367
#
# _framework density 21.032230999999999
#
# number of rings (size 3 to 8) (size 9 to 14) (size 15 to 20)
#    0.000    1.143    4.286    1.714    2.000    1.143 
#    2.571    1.429    0.000    0.000    0.000    0.000 
#    0.000    0.000    0.000    0.000    0.000    0.000 
#
# Total GULP energy -346968.767410 kJ/mol
# GULP energy per Si atom -12391.741693 kJ/mol
# Density = 2.098436 g / cm^3
# Si number density = 21.032231 Si / 1000 Ang^3
#
#
#
# Elastic Constant Matrix: (Units=GPa)
#
#
# Indices 1 2 3 4 5 6 
#
# 1 85.9464 50.6625 44.6583 0.0000 0.1396 0.0000
# 2 50.6625 179.7075 45.5255 0.0000 -4.8856 0.0000
# 3 44.6583 45.5255 93.3354 0.0000 -10.0243 0.0000
# 4 0.0000 0.0000 0.0000 29.1018 0.0000 -4.9005
# 5 0.1396 -4.8856 -10.0243 0.0000 23.1530 0.0000
# 6 0.0000 0.0000 0.0000 -4.9005 0.0000 30.0418
#
#
#
# Elastic Compliance Matrix: (Units=1/GPa)
#
#
# Indices 1 2 3 4 5 6 
#
# 1 0.017188 -0.003152 -0.007099 0.000000 -0.003842 0.000000
# 2 -0.003152 0.006927 -0.001795 0.000000 0.000703 0.000000
# 3 -0.007099 -0.001795 0.015680 0.000000 0.006453 0.000000
# 4 0.000000 0.000000 0.000000 0.035333 0.000000 0.005764
# 5 -0.003842 0.000703 0.006453 0.000000 0.046156 0.000000
# 6 0.000000 0.000000 0.000000 0.005764 0.000000 0.034227
#
#
# Mechanical properties :
#
#
# Convention : Reuss Voigt Hill
#
# Bulk Modulus (GPa) = 63.68564 71.18688 67.43626
# Shear Modulus (GPa) = 27.05080 31.00217 29.02649
#
# Velocity S-wave (km/s) = 3.59020 3.84348 3.71899
# Velocity P-wave (km/s) = 6.89433 7.32233 7.11155
#
# Compressibility (1/GPa) = 0.01570213
#
# Stress axis : x y z
#
# Youngs Moduli (GPa) = 58.17992 144.36286 63.77710
#
# Poissons Ratio (x) = 0.45497 0.45278
# Poissons Ratio (y) = 0.18336 0.11450
# Poissons Ratio (z) = 0.41305 0.25917
#
# Static dielectric constant tensor:
#      x y z
#    x 3.710120 0.000000 -0.017600 
#    y 0.000000 4.593360 0.000000 
#    z -0.017600 0.000000 3.680670 
# 
# 
# High freq. dielectric constant tensor:
#      x y z
#    x 1.799860 0.000000 -0.006230 
#    y 0.000000 1.854760 0.000000 
#    z -0.006230 0.000000 1.817170 
# 
# From -- ./inp_files/23181.got.cif
#   From: 2010.06.25/outbox.cif.g09.slc.cpg/sg11_12_cif.got.tgz:23181.got - 2010.06.27 23:14:04.
