data_PCOD8075959
_publ_section_title
;
Structure prediction by ZEFSAII (Michael W. Deem and Ramdas Pophale) SiO2 
 PCOD8075959
Probable space group: P 21/M
;
_chemical_formula_sum "Si O2"
_cell_formula_units_Z 28
_cell_length_a 7.001502
_cell_length_b 14.335079
_cell_length_c 18.950272
_cell_angle_alpha 90.000000
_cell_angle_beta 48.474940
_cell_angle_gamma 90.000000
_cell_volume 1423.950096
_symmetry_space_group_name_H-M "P 21/M"
_symmetry_group_IT_number 11
_symmetry_cell_setting 'monoclinic'
loop_
_space_group_symop_operation_xyz
x,y,z
-x,1/2+y,-z
-x,-y,-z
x,1/2-y,z
loop_
_atom_site_type_symbol
_atom_site_label
_atom_site_fract_x
_atom_site_fract_y
_atom_site_fract_z
Si Si1 0.616257 0.485570 0.547720
Si Si2 0.528371 0.357343 0.230148
Si Si3 0.663021 0.076173 0.918868
Si Si4 0.323221 0.139679 0.875014
Si Si5 0.239359 0.025150 0.762045
Si Si6 0.773969 0.147462 0.033412
Si Si7 0.904212 0.640408 0.561576
O O1 0.500000 0.500000 0.500000
O O2 0.384142 0.453019 0.654154
O O3 0.751577 0.581728 0.539525
O O4 0.814151 0.399839 0.497927
O O5 0.603386 0.250000 0.222267
O O6 0.726093 0.415993 0.228698
O O7 0.565167 0.395169 0.139606
O O8 0.239435 0.373573 0.327709
O O9 0.533838 0.116678 0.881298
O O10 0.940012 0.042174 0.826745
O O11 0.684757 0.154264 0.974262
O O12 0.500000 0.000000 0.000000
O O13 0.313952 0.250000 0.862588
O O14 0.378410 0.088546 0.787590
O O15 0.051990 0.098512 0.969905
O O16 0.817365 0.250000 0.052118
O O17 0.913426 0.750000 0.537751
#
# Coordination Sequence:
#
# PCOD8075959 Si02
#       7
#     4   4   4   4   4   4   4
#     4  10  22  39  60  85 114 147 186 239 294 345
#     4   9  17  34  59  81 108 144 179 226 285 338
#     4  11  21  32  53  81 111 149 191 230 270 323
#     4  10  21  37  55  77 113 155 190 229 275 329
#     4  10  22  38  55  80 113 145 185 230 280 337
#     4   9  18  33  52  77 108 141 180 224 269 320
#     4   9  20  39  61  85 113 146 186 233 289 350
#
# _framework density 19.663609999999998
#
# number of rings (size 3 to 8) (size 9 to 14) (size 15 to 20)
#    0.000    2.286    0.000    2.143    0.000    8.571 
#    0.000    0.714    0.000    6.000    0.000    0.000 
#    0.000    0.000    0.000    0.000    0.000    0.000 
#
# Total GULP energy -346930.182069 kJ/mol
# GULP energy per Si atom -12390.363645 kJ/mol
# Density = 1.961885 g / cm^3
# Si number density = 19.663610 Si / 1000 Ang^3
#
#
#
# Elastic Constant Matrix: (Units=GPa)
#
#
# Indices 1 2 3 4 5 6 
#
# 1 134.2931 38.5223 78.9563 0.0000 4.4736 0.0000
# 2 38.5223 92.4960 53.6615 0.0000 -6.9226 0.0000
# 3 78.9563 53.6615 179.0761 0.0000 2.9325 0.0000
# 4 0.0000 0.0000 0.0000 26.7395 0.0000 -1.2686
# 5 4.4736 -6.9226 2.9325 0.0000 26.2004 0.0000
# 6 0.0000 0.0000 0.0000 -1.2686 0.0000 20.9457
#
#
#
# Elastic Compliance Matrix: (Units=1/GPa)
#
#
# Indices 1 2 3 4 5 6 
#
# 1 0.010447 -0.002230 -0.003906 0.000000 -0.001936 0.000000
# 2 -0.002230 0.013973 -0.003277 0.000000 0.004439 0.000000
# 3 -0.003906 -0.003277 0.008307 0.000000 -0.001129 0.000000
# 4 0.000000 0.000000 0.000000 0.037506 0.000000 0.002272
# 5 -0.001936 0.004439 -0.001129 0.000000 0.039797 0.000000
# 6 0.000000 0.000000 0.000000 0.002272 0.000000 0.047880
#
#
# Mechanical properties :
#
#
# Convention : Reuss Voigt Hill
#
# Bulk Modulus (GPa) = 71.93372 83.12726 77.53049
# Shear Modulus (GPa) = 27.56800 30.42547 28.99673
#
# Velocity S-wave (km/s) = 3.74837 3.93784 3.84427
# Velocity P-wave (km/s) = 7.44280 7.93989 7.69536
#
# Compressibility (1/GPa) = 0.01390169
#
# Stress axis : x y z
#
# Youngs Moduli (GPa) = 95.71941 71.56601 120.38005
#
# Poissons Ratio (x) = 0.15956 0.47026
# Poissons Ratio (y) = 0.21341 0.39446
# Poissons Ratio (z) = 0.37393 0.23451
#
# Static dielectric constant tensor:
#      x y z
#    x 3.753480 0.000000 0.113560 
#    y 0.000000 3.679880 0.000000 
#    z 0.113560 0.000000 4.020210 
# 
# 
# High freq. dielectric constant tensor:
#      x y z
#    x 1.747720 0.000000 -0.002960 
#    y 0.000000 1.770940 0.000000 
#    z -0.002960 0.000000 1.780530 
# 
# From -- ./inp_files/56903.got.cif
#   From: 2010.06.25/outbox.cif.g09.slc.cpg/sg11_29_cif.got.tgz:56903.got - 2010.06.27 23:14:04.
