data_PCOD8075344
_publ_section_title
;
Structure prediction by ZEFSAII (Michael W. Deem and Ramdas Pophale) SiO2 
 PCOD8075344
Probable space group: P 21/M
;
_chemical_formula_sum "Si O2"
_cell_formula_units_Z 26
_cell_length_a 6.983461
_cell_length_b 27.362226
_cell_length_c 8.541749
_cell_angle_alpha 90.000000
_cell_angle_beta 125.309533
_cell_angle_gamma 90.000000
_cell_volume 1331.929241
_symmetry_space_group_name_H-M "P 21/M"
_symmetry_group_IT_number 11
_symmetry_cell_setting 'monoclinic'
loop_
_space_group_symop_operation_xyz
x,y,z
-x,1/2+y,-z
-x,-y,-z
x,1/2-y,z
loop_
_atom_site_type_symbol
_atom_site_label
_atom_site_fract_x
_atom_site_fract_y
_atom_site_fract_z
Si Si1 0.866485 0.150942 0.537966
Si Si2 0.585257 0.750000 0.086623
Si Si3 0.399445 0.406309 0.289476
Si Si4 0.112927 0.069128 0.460003
Si Si5 0.956496 0.250000 0.101740
Si Si6 0.992912 0.750000 0.522835
Si Si7 0.842752 0.670505 0.026646
Si Si8 0.354007 0.989775 0.774303
O O1 0.610580 0.128887 0.436491
O O2 0.848788 0.203160 0.444354
O O3 0.037729 0.116894 0.518587
O O4 0.958924 0.157160 0.756093
O O5 0.634299 0.701553 0.007851
O O6 0.749290 0.750000 0.315927
O O7 0.322331 0.750000 0.019770
O O8 0.240850 0.414544 0.364406
O O9 0.488082 0.458145 0.268434
O O10 0.253302 0.380389 0.083660
O O11 0.888124 0.037685 0.299768
O O12 0.292020 0.039743 0.655794
O O13 0.073980 0.250000 0.327236
O O14 0.036713 0.201208 0.053367
O O15 0.500000 0.000000 0.000000
#
# Coordination Sequence:
#
# PCOD8075344 Si02
#       8
#     4   2   4   4   2   2   4   4
#     4  10  22  39  57  83 119 152 187 236 283 332
#     4   9  21  39  56  78 116 155 189 237 288 334
#     4  11  22  37  60  86 114 150 189 236 289 341
#     4  10  22  39  59  87 114 147 195 233 281 347
#     4  11  21  35  56  80 108 149 195 237 282 338
#     4  10  20  38  60  82 116 156 190 230 282 336
#     4  10  22  36  54  84 113 146 195 236 281 347
#     4  10  22  40  61  84 116 150 185 238 292 338
#
# _framework density 19.520555000000002
#
# number of rings (size 3 to 8) (size 9 to 14) (size 15 to 20)
#    0.000    1.846    0.000    3.692    0.000    7.385 
#    0.000    2.308    0.000    0.000    0.000    0.000 
#    0.000    0.000    0.000    0.000    0.000    0.000 
#
# Total GULP energy -322526.591519 kJ/mol
# GULP energy per Si atom -12404.868905 kJ/mol
# Density = 1.947613 g / cm^3
# Si number density = 19.520555 Si / 1000 Ang^3
#
#
#
# Elastic Constant Matrix: (Units=GPa)
#
#
# Indices 1 2 3 4 5 6 
#
# 1 102.2762 27.7342 32.9093 0.0000 -7.3975 0.0000
# 2 27.7342 106.4083 38.3749 0.0000 -6.7301 0.0000
# 3 32.9093 38.3749 118.5131 0.0000 -12.7909 0.0000
# 4 0.0000 0.0000 0.0000 35.6431 0.0000 -1.8680
# 5 -7.3975 -6.7301 -12.7909 0.0000 22.8886 0.0000
# 6 0.0000 0.0000 0.0000 -1.8680 0.0000 3.1020
#
#
#
# Elastic Compliance Matrix: (Units=1/GPa)
#
#
# Indices 1 2 3 4 5 6 
#
# 1 0.011173 -0.001982 -0.002271 0.000000 0.001759 0.000000
# 2 -0.001982 0.011027 -0.002915 0.000000 0.000973 0.000000
# 3 -0.002271 -0.002915 0.010472 0.000000 0.004261 0.000000
# 4 0.000000 0.000000 0.000000 0.028970 0.000000 0.017445
# 5 0.001759 0.000973 0.004261 0.000000 0.046926 0.000000
# 6 0.000000 0.000000 0.000000 0.017445 0.000000 0.332876
#
#
# Mechanical properties :
#
#
# Convention : Reuss Voigt Hill
#
# Bulk Modulus (GPa) = 54.53690 58.35938 56.44814
# Shear Modulus (GPa) = 10.82502 27.53867 19.18185
#
# Velocity S-wave (km/s) = 2.35743 3.76007 3.13812
# Velocity P-wave (km/s) = 5.95053 6.98657 6.48926
#
# Compressibility (1/GPa) = 0.01833621
#
# Stress axis : x y z
#
# Youngs Moduli (GPa) = 89.50296 90.68474 95.48917
#
# Poissons Ratio (x) = 0.17972 0.21685
# Poissons Ratio (y) = 0.17738 0.27838
# Poissons Ratio (z) = 0.20326 0.26438
#
# Static dielectric constant tensor:
#      x y z
#    x 3.529890 0.000000 -0.020400 
#    y 0.000000 3.948840 0.000000 
#    z -0.020400 0.000000 3.599070 
# 
# 
# High freq. dielectric constant tensor:
#      x y z
#    x 1.761140 0.000000 -0.003040 
#    y 0.000000 1.773520 0.000000 
#    z -0.003040 0.000000 1.772680 
# 
# From -- ./inp_files/10781.got.cif
#   From: 2010.06.25/outbox.cif.g09.slc.cpg/sg11_6_cif.got.tgz:10781.got - 2010.06.27 23:14:04.
