data_PCOD8075625
_publ_section_title
;
Structure prediction by ZEFSAII (Michael W. Deem and Ramdas Pophale) SiO2 
 PCOD8075625
Probable space group: P 21/M
;
_chemical_formula_sum "Si O2"
_cell_formula_units_Z 32
_cell_length_a 15.348772
_cell_length_b 8.683496
_cell_length_c 12.070899
_cell_angle_alpha 90.000000
_cell_angle_beta 91.357172
_cell_angle_gamma 90.000000
_cell_volume 1608.370175
_symmetry_space_group_name_H-M "P 21/M"
_symmetry_group_IT_number 11
_symmetry_cell_setting 'monoclinic'
loop_
_space_group_symop_operation_xyz
x,y,z
-x,1/2+y,-z
-x,-y,-z
x,1/2-y,z
loop_
_atom_site_type_symbol
_atom_site_label
_atom_site_fract_x
_atom_site_fract_y
_atom_site_fract_z
Si Si1 0.904879 0.070010 0.486730
Si Si2 0.593407 0.932232 0.477858
Si Si3 0.907293 0.567472 0.025178
Si Si4 0.147166 0.079229 0.734924
Si Si5 0.350940 0.421121 0.759376
Si Si6 0.754114 0.933210 0.631544
Si Si7 0.406754 0.928575 0.979189
Si Si8 0.247983 0.566647 0.123245
O O1 0.906743 0.250000 0.512611
O O2 0.873962 0.042536 0.360606
O O3 0.840324 0.990005 0.571644
O O4 0.000000 0.000000 0.500000
O O5 0.589670 0.750000 0.483522
O O6 0.616938 0.989015 0.355952
O O7 0.667436 0.992209 0.564986
O O8 0.500000 0.000000 0.500000
O O9 0.903592 0.750000 0.008610
O O10 0.892779 0.519476 0.151785
O O11 0.836382 0.491609 0.943669
O O12 0.000000 0.500000 0.000000
O O13 0.110743 0.250000 0.702524
O O14 0.248699 0.091878 0.754638
O O15 0.390313 0.250000 0.783328
O O16 0.379345 0.540006 0.853116
O O17 0.757302 0.750000 0.636130
O O18 0.751399 0.000273 0.753920
O O19 0.415071 0.750000 0.999743
O O20 0.334457 0.994868 0.062282
O O21 0.500000 0.000000 0.000000
O O22 0.245420 0.750000 0.127798
#
# Coordination Sequence:
#
# PCOD8075625 Si02
#       8
#     4   4   4   4   4   4   4   4
#     4  12  26  43  67  96 129 169 213 262 317 378
#     4  10  23  41  64  93 126 164 207 259 314 375
#     4  11  24  42  67  95 128 169 211 262 317 378
#     4  10  21  42  68  92 124 165 212 262 317 374
#     4  10  20  41  67  91 123 162 207 261 317 371
#     4  11  24  45  67  92 128 170 214 262 319 379
#     4  11  25  42  64  94 128 167 213 262 315 377
#     4  11  25  44  64  93 130 168 213 265 319 380
#
# _framework density 19.895918000000002
#
# number of rings (size 3 to 8) (size 9 to 14) (size 15 to 20)
#    0.000    1.250    2.500    2.625    3.500    4.500 
#    0.000    0.000    0.000    0.000    0.000    0.000 
#    0.000    0.000    0.000    0.000    0.000    0.000 
#
# Total GULP energy -396866.799196 kJ/mol
# GULP energy per Si atom -12402.087475 kJ/mol
# Density = 1.985063 g / cm^3
# Si number density = 19.895918 Si / 1000 Ang^3
#
#
#
# Elastic Constant Matrix: (Units=GPa)
#
#
# Indices 1 2 3 4 5 6 
#
# 1 169.2022 45.3728 90.3282 0.0000 -14.6765 0.0000
# 2 45.3728 75.0131 47.1387 0.0000 0.8627 0.0000
# 3 90.3282 47.1387 184.9367 0.0000 -19.2115 0.0000
# 4 0.0000 0.0000 0.0000 -3.4217 0.0000 13.2166
# 5 -14.6765 0.8627 -19.2115 0.0000 37.6025 0.0000
# 6 0.0000 0.0000 0.0000 13.2166 0.0000 33.0667
#
#
#
# Elastic Compliance Matrix: (Units=1/GPa)
#
#
# Indices 1 2 3 4 5 6 
#
# 1 0.008649 -0.003234 -0.003212 0.000000 0.001809 0.000000
# 2 -0.003234 0.017321 -0.003177 0.000000 -0.003282 0.000000
# 3 -0.003212 -0.003177 0.008093 0.000000 0.002954 0.000000
# 4 0.000000 0.000000 0.000000 -0.114885 0.000000 0.045919
# 5 0.001809 -0.003282 0.002954 0.000000 0.028884 0.000000
# 6 0.000000 0.000000 0.000000 0.045919 0.000000 0.011888
#
#
# Mechanical properties :
#
#
# Convention : Reuss Voigt Hill
#
# Bulk Modulus (GPa) = 67.48702 88.31460 77.90081
# Shear Modulus (GPa) = -315.14387 29.87030 -142.63678
#
# Velocity S-wave (km/s) = -12.59921 3.87890 -8.47627
# Velocity P-wave (km/s) = 13.32891 8.03404 7.52044
#
# Compressibility (1/GPa) = 0.01481766
#
# Stress axis : x y z
#
# Youngs Moduli (GPa) = 115.62071 57.73394 123.56779
#
# Poissons Ratio (x) = 0.18669 0.39693
# Poissons Ratio (y) = 0.37388 0.39251
# Poissons Ratio (z) = 0.37140 0.18339
#
# Static dielectric constant tensor:
#      x y z
#    x 3.604540 0.000000 -0.062480 
#    y 0.000000 4.350670 0.000000 
#    z -0.062480 0.000000 3.695100 
# 
# 
# High freq. dielectric constant tensor:
#      x y z
#    x 1.790420 0.000000 -0.004600 
#    y 0.000000 1.777040 0.000000 
#    z -0.004600 0.000000 1.792090 
# 
# From -- ./inp_files/38218.got.cif
#   From: 2010.06.25/outbox.cif.g09.slc.cpg/sg11_20_cif.got.tgz:38218.got - 2010.06.27 23:14:04.
