data_PCOD8075924
_publ_section_title
;
Structure prediction by ZEFSAII (Michael W. Deem and Ramdas Pophale) SiO2 
 PCOD8075924
Probable space group: P 21/M
;
_chemical_formula_sum "Si O2"
_cell_formula_units_Z 20
_cell_length_a 5.124353
_cell_length_b 7.592268
_cell_length_c 26.661185
_cell_angle_alpha 90.000000
_cell_angle_beta 66.854008
_cell_angle_gamma 90.000000
_cell_volume 953.772313
_symmetry_space_group_name_H-M "P 21/M"
_symmetry_group_IT_number 11
_symmetry_cell_setting 'monoclinic'
loop_
_space_group_symop_operation_xyz
x,y,z
-x,1/2+y,-z
-x,-y,-z
x,1/2-y,z
loop_
_atom_site_type_symbol
_atom_site_label
_atom_site_fract_x
_atom_site_fract_y
_atom_site_fract_z
Si Si1 0.238783 0.946057 0.373524
Si Si2 0.115914 0.454355 0.937088
Si Si3 0.551281 0.750000 0.712423
Si Si4 0.905882 0.750000 0.783535
Si Si5 0.384162 0.952906 0.562847
Si Si6 0.743697 0.039182 0.872367
O O1 0.341514 0.750000 0.351362
O O2 0.334117 0.074971 0.322402
O O3 0.370659 0.002863 0.416356
O O4 0.899504 0.939625 0.404103
O O5 0.157886 0.250000 0.929640
O O6 0.425481 0.534585 0.903544
O O7 0.899659 0.520363 0.911431
O O8 0.000000 0.500000 0.000000
O O9 0.656963 0.750000 0.761441
O O10 0.211768 0.750000 0.734275
O O11 0.882808 0.569231 0.816694
O O12 0.300944 0.750000 0.572407
O O13 0.500000 0.000000 0.500000
O O14 0.767426 0.250000 0.860209
#
# Coordination Sequence:
#
# PCOD8075924 Si02
#       6
#     4   4   2   2   4   4
#     4  12  25  45  68  97 137 174 220 279 332 392
#     4  10  21  36  60  90 126 165 202 251 317 386
#     4  12  26  46  66  98 124 172 228 278 324 380
#     4  12  26  42  72  88 124 176 218 272 334 366
#     4  12  23  42  67 101 140 177 219 267 327 405
#     4  10  23  41  59  91 127 158 211 266 311 386
#
# _framework density 20.969366000000001
#
# number of rings (size 3 to 8) (size 9 to 14) (size 15 to 20)
#    0.000    0.800    2.000    5.400    2.800    1.600 
#    0.000    0.000    0.000    0.000    0.000    0.000 
#    0.000    0.000    0.000    0.000    0.000    0.000 
#
# Total GULP energy -248081.550849 kJ/mol
# GULP energy per Si atom -12404.077542 kJ/mol
# Density = 2.092164 g / cm^3
# Si number density = 20.969366 Si / 1000 Ang^3
#
#
#
# Elastic Constant Matrix: (Units=GPa)
#
#
# Indices 1 2 3 4 5 6 
#
# 1 93.5662 26.8498 22.3382 0.0000 -2.2484 0.0000
# 2 26.8498 109.6979 49.0729 0.0000 11.2432 0.0000
# 3 22.3382 49.0729 108.3978 0.0000 1.3980 0.0000
# 4 0.0000 0.0000 0.0000 40.2185 0.0000 -1.5864
# 5 -2.2484 11.2432 1.3980 0.0000 50.1009 0.0000
# 6 0.0000 0.0000 0.0000 -1.5864 0.0000 15.2158
#
#
#
# Elastic Compliance Matrix: (Units=1/GPa)
#
#
# Indices 1 2 3 4 5 6 
#
# 1 0.011719 -0.002375 -0.001354 0.000000 0.001097 0.000000
# 2 -0.002375 0.012214 -0.005005 0.000000 -0.002708 0.000000
# 3 -0.001354 -0.005005 0.011761 0.000000 0.000734 0.000000
# 4 0.000000 0.000000 0.000000 0.024967 0.000000 0.002603
# 5 0.001097 -0.002708 0.000734 0.000000 0.020596 0.000000
# 6 0.000000 0.000000 0.000000 0.002603 0.000000 0.065993
#
#
# Mechanical properties :
#
#
# Convention : Reuss Voigt Hill
#
# Bulk Modulus (GPa) = 54.86861 56.46485 55.66673
# Shear Modulus (GPa) = 29.27546 35.33375 32.30460
#
# Velocity S-wave (km/s) = 3.74050 4.10935 3.92926
# Velocity P-wave (km/s) = 6.69911 7.03573 6.86948
#
# Compressibility (1/GPa) = 0.01822536
#
# Stress axis : x y z
#
# Youngs Moduli (GPa) = 85.33332 81.87507 85.02965
#
# Poissons Ratio (x) = 0.19446 0.11512
# Poissons Ratio (y) = 0.20267 0.42557
# Poissons Ratio (z) = 0.11553 0.40978
#
# Static dielectric constant tensor:
#      x y z
#    x 4.636830 0.000000 -0.022050 
#    y 0.000000 4.358630 0.000000 
#    z -0.022050 0.000000 3.639050 
# 
# 
# High freq. dielectric constant tensor:
#      x y z
#    x 1.843540 0.000000 0.001590 
#    y 0.000000 1.833590 0.000000 
#    z 0.001590 0.000000 1.818690 
# 
# From -- ./inp_files/67495.got.cif
#   From: 2010.06.25/outbox.cif.g09.slc.cpg/sg11_34_cif.got.tgz:67495.got - 2010.06.27 23:14:04.
