data_PCOD8075629
_publ_section_title
;
Structure prediction by ZEFSAII (Michael W. Deem and Ramdas Pophale) SiO2 
 PCOD8075629
Probable space group: P 21/M
;
_chemical_formula_sum "Si O2"
_cell_formula_units_Z 32
_cell_length_a 15.129131
_cell_length_b 21.459345
_cell_length_c 8.587378
_cell_angle_alpha 90.000000
_cell_angle_beta 32.820858
_cell_angle_gamma 90.000000
_cell_volume 1511.129451
_symmetry_space_group_name_H-M "P 21/M"
_symmetry_group_IT_number 11
_symmetry_cell_setting 'monoclinic'
loop_
_space_group_symop_operation_xyz
x,y,z
-x,1/2+y,-z
-x,-y,-z
x,1/2-y,z
loop_
_atom_site_type_symbol
_atom_site_label
_atom_site_fract_x
_atom_site_fract_y
_atom_site_fract_z
Si Si1 0.121117 0.946344 0.264083
Si Si2 0.019142 0.680187 0.914736
Si Si3 0.665500 0.392941 0.549932
Si Si4 0.158339 0.507858 0.872925
Si Si5 0.020166 0.180144 0.393707
Si Si6 0.699277 0.882975 0.383815
Si Si7 0.436231 0.558011 0.993022
Si Si8 0.610323 0.820556 0.210908
O O1 0.068476 0.875667 0.383296
O O2 0.299364 0.961794 0.070617
O O3 0.000000 0.000000 0.500000
O O4 0.123954 0.949881 0.073659
O O5 0.036681 0.750000 0.948556
O O6 0.175292 0.643489 0.745247
O O7 0.017564 0.674792 0.731812
O O8 0.851867 0.653350 0.235440
O O9 0.693253 0.463140 0.447348
O O10 0.504517 0.365463 0.714787
O O11 0.646797 0.393254 0.764104
O O12 0.223329 0.440404 0.828681
O O13 0.000000 0.500000 0.000000
O O14 0.966109 0.250000 0.532467
O O15 0.213474 0.172820 0.128542
O O16 0.582370 0.905308 0.694099
O O17 0.606202 0.839243 0.399117
O O18 0.500000 0.500000 0.000000
O O19 0.546346 0.750000 0.294732
#
# Coordination Sequence:
#
# PCOD8075629 Si02
#       8
#     4   4   4   4   4   4   4   4
#     4  12  25  41  70 102 136 185 232 286 350 413
#     4  10  20  41  69  93 127 181 226 272 340 412
#     4  12  23  42  68  97 141 173 224 282 344 406
#     4  12  25  41  67 100 134 178 227 286 342 407
#     4   9  20  41  65  94 134 177 226 281 345 413
#     4  11  23  43  68  94 137 179 226 280 345 405
#     4  12  27  42  65 108 141 175 228 290 347 412
#     4  10  23  43  68  98 133 179 227 278 339 414
#
# _framework density 21.176214000000002
#
# number of rings (size 3 to 8) (size 9 to 14) (size 15 to 20)
#    0.000    1.000    3.750    4.500    3.500    1.000 
#    0.000    6.250    0.000    0.000    0.000    0.000 
#    0.000    0.000    0.000    0.000    0.000    0.000 
#
# Total GULP energy -396797.961726 kJ/mol
# GULP energy per Si atom -12399.936304 kJ/mol
# Density = 2.112802 g / cm^3
# Si number density = 21.176214 Si / 1000 Ang^3
#
#
#
# Elastic Constant Matrix: (Units=GPa)
#
#
# Indices 1 2 3 4 5 6 
#
# 1 91.0158 22.9588 40.2719 0.0000 -12.6711 0.0000
# 2 22.9588 105.2145 29.1633 0.0000 -1.5637 0.0000
# 3 40.2719 29.1633 89.4623 0.0000 6.1204 0.0000
# 4 0.0000 0.0000 0.0000 38.4075 0.0000 -0.9276
# 5 -12.6711 -1.5637 6.1204 0.0000 37.8684 0.0000
# 6 0.0000 0.0000 0.0000 -0.9276 0.0000 31.6810
#
#
#
# Elastic Compliance Matrix: (Units=1/GPa)
#
#
# Indices 1 2 3 4 5 6 
#
# 1 0.015198 -0.001333 -0.006826 0.000000 0.006134 0.000000
# 2 -0.001333 0.010602 -0.002888 0.000000 0.000458 0.000000
# 3 -0.006826 -0.002888 0.015528 0.000000 -0.004913 0.000000
# 4 0.000000 0.000000 0.000000 0.026055 0.000000 0.000763
# 5 0.006134 0.000458 -0.004913 0.000000 0.029273 0.000000
# 6 0.000000 0.000000 0.000000 0.000763 0.000000 0.031587
#
#
# Mechanical properties :
#
#
# Convention : Reuss Voigt Hill
#
# Bulk Modulus (GPa) = 51.98981 52.27562 52.13272
# Shear Modulus (GPa) = 31.89822 34.47795 33.18809
#
# Velocity S-wave (km/s) = 3.88535 4.03941 3.96313
# Velocity P-wave (km/s) = 6.68822 6.81875 6.75380
#
# Compressibility (1/GPa) = 0.01923454
#
# Stress axis : x y z
#
# Youngs Moduli (GPa) = 65.79919 94.31783 64.39869
#
# Poissons Ratio (x) = 0.12572 0.43961
# Poissons Ratio (y) = 0.08771 0.18595
# Poissons Ratio (z) = 0.44917 0.27235
#
# Static dielectric constant tensor:
#      x y z
#    x 3.763600 0.000000 -0.107860 
#    y 0.000000 4.067270 0.000000 
#    z -0.107860 0.000000 3.894660 
# 
# 
# High freq. dielectric constant tensor:
#      x y z
#    x 1.822530 0.000000 -0.013810 
#    y 0.000000 1.844510 0.000000 
#    z -0.013810 0.000000 1.829290 
# 
# From -- ./inp_files/23340.got.cif
#   From: 2010.06.25/outbox.cif.g09.slc.cpg/sg11_12_cif.got.tgz:23340.got - 2010.06.27 23:14:04.
