data_PCOD8075689
_publ_section_title
;
Structure prediction by ZEFSAII (Michael W. Deem and Ramdas Pophale) SiO2 
 PCOD8075689
Probable space group: P 21/M
;
_chemical_formula_sum "Si O2"
_cell_formula_units_Z 32
_cell_length_a 11.566536
_cell_length_b 19.799657
_cell_length_c 9.993191
_cell_angle_alpha 90.000000
_cell_angle_beta 129.036241
_cell_angle_gamma 90.000000
_cell_volume 1777.645551
_symmetry_space_group_name_H-M "P 21/M"
_symmetry_group_IT_number 11
_symmetry_cell_setting 'monoclinic'
loop_
_space_group_symop_operation_xyz
x,y,z
-x,1/2+y,-z
-x,-y,-z
x,1/2-y,z
loop_
_atom_site_type_symbol
_atom_site_label
_atom_site_fract_x
_atom_site_fract_y
_atom_site_fract_z
Si Si1 0.557137 0.676435 0.824384
Si Si2 0.459538 0.176559 0.488335
Si Si3 0.907296 0.562765 0.273391
Si Si4 0.910707 0.824701 0.075030
Si Si5 0.466496 0.460121 0.609798
Si Si6 0.105828 0.174462 0.234214
Si Si7 0.129140 0.439687 0.449217
Si Si8 0.583627 0.536169 0.943520
O O1 0.503545 0.750000 0.843287
O O2 0.487397 0.666316 0.626047
O O3 0.511757 0.611804 0.880909
O O4 0.733801 0.676826 0.947709
O O5 0.514700 0.250000 0.581721
O O6 0.522098 0.117328 0.628904
O O7 0.282696 0.174037 0.359738
O O8 0.972808 0.624667 0.233300
O O9 0.869351 0.586413 0.396556
O O10 0.030209 0.505561 0.362181
O O11 0.758473 0.535722 0.096185
O O12 0.973652 0.750000 0.153445
O O13 0.959055 0.846148 0.959420
O O14 0.500000 0.500000 0.500000
O O15 0.293017 0.460868 0.521373
O O16 0.564551 0.494118 0.794786
O O17 0.049740 0.250000 0.231985
O O18 0.054728 0.119784 0.306653
O O19 0.500000 0.500000 0.000000
#
# Coordination Sequence:
#
# PCOD8075689 Si02
#       8
#     4   4   4   4   4   4   4   4
#     4   8  14  27  48  72  98 131 168 208 253 299
#     4   8  14  27  48  73  99 128 168 212 250 298
#     4  10  21  35  51  76 108 139 172 211 256 311
#     4   8  15  29  50  75 101 130 170 215 255 301
#     4  11  20  34  54  80 104 136 175 214 264 310
#     4   8  15  29  50  75 101 130 170 216 257 298
#     4  10  21  35  51  77 106 138 174 212 258 306
#     4  11  20  34  52  78 107 137 173 214 261 307
#
# _framework density 18.001339000000002
#
# number of rings (size 3 to 8) (size 9 to 14) (size 15 to 20)
#    0.000    2.750    2.500    1.500    1.750    1.000 
#    0.000    0.625    0.000    3.000    0.000    0.000 
#    0.000    0.000    0.000    0.000    0.000    0.000 
#
# Total GULP energy -396517.583613 kJ/mol
# GULP energy per Si atom -12391.174488 kJ/mol
# Density = 1.796037 g / cm^3
# Si number density = 18.001339 Si / 1000 Ang^3
#
#
#
# Elastic Constant Matrix: (Units=GPa)
#
#
# Indices 1 2 3 4 5 6 
#
# 1 48.9114 37.9044 33.8195 0.0000 -18.7271 0.0000
# 2 37.9044 152.2129 71.8942 0.0000 -26.4853 0.0000
# 3 33.8195 71.8942 106.1035 0.0000 -28.6683 0.0000
# 4 0.0000 0.0000 0.0000 33.1103 0.0000 -10.4426
# 5 -18.7271 -26.4853 -28.6683 0.0000 27.0674 0.0000
# 6 0.0000 0.0000 0.0000 -10.4426 0.0000 22.8393
#
#
#
# Elastic Compliance Matrix: (Units=1/GPa)
#
#
# Indices 1 2 3 4 5 6 
#
# 1 0.031186 -0.003549 -0.003704 0.000000 0.014181 0.000000
# 2 -0.003549 0.010313 -0.005314 0.000000 0.002007 0.000000
# 3 -0.003704 -0.005314 0.016963 0.000000 0.010204 0.000000
# 4 0.000000 0.000000 0.000000 0.035291 0.000000 0.016136
# 5 0.014181 0.002007 0.010204 0.000000 0.059528 0.000000
# 6 0.000000 0.000000 0.000000 0.016136 0.000000 0.051162
#
#
# Mechanical properties :
#
#
# Convention : Reuss Voigt Hill
#
# Bulk Modulus (GPa) = 30.00506 66.05155 48.02830
# Shear Modulus (GPa) = 20.77390 27.51073 24.14231
#
# Velocity S-wave (km/s) = 3.40077 3.91354 3.66613
# Velocity P-wave (km/s) = 5.66787 7.56262 6.68274
#
# Compressibility (1/GPa) = 0.03332771
#
# Stress axis : x y z
#
# Youngs Moduli (GPa) = 32.06552 96.96630 58.95084
#
# Poissons Ratio (x) = 0.34414 0.21835
# Poissons Ratio (y) = 0.11380 0.31329
# Poissons Ratio (z) = 0.11877 0.51531
#
# Static dielectric constant tensor:
#      x y z
#    x 2.996750 0.000000 -0.329790 
#    y 0.000000 4.027550 0.000000 
#    z -0.329790 0.000000 3.350280 
# 
# 
# High freq. dielectric constant tensor:
#      x y z
#    x 1.653430 0.000000 -0.023260 
#    y 0.000000 1.714440 0.000000 
#    z -0.023260 0.000000 1.685820 
# 
# From -- ./inp_files/19191.got.cif
#   From: 2010.06.25/outbox.cif.g09.slc.cpg/sg11_10_cif.got.tgz:19191.got - 2010.06.27 23:14:04.
