data_PCOD8075395
_publ_section_title
;
Structure prediction by ZEFSAII (Michael W. Deem and Ramdas Pophale) SiO2 
 PCOD8075395
Probable space group: P 21/M
;
_chemical_formula_sum "Si O2"
_cell_formula_units_Z 24
_cell_length_a 14.948540
_cell_length_b 8.634732
_cell_length_c 9.411762
_cell_angle_alpha 90.000000
_cell_angle_beta 80.711571
_cell_angle_gamma 90.000000
_cell_volume 1198.910025
_symmetry_space_group_name_H-M "P 21/M"
_symmetry_group_IT_number 11
_symmetry_cell_setting 'monoclinic'
loop_
_space_group_symop_operation_xyz
x,y,z
-x,1/2+y,-z
-x,-y,-z
x,1/2-y,z
loop_
_atom_site_type_symbol
_atom_site_label
_atom_site_fract_x
_atom_site_fract_y
_atom_site_fract_z
Si Si1 0.751853 0.933655 0.854871
Si Si2 0.583882 0.066006 0.067292
Si Si3 0.420418 0.434828 0.614938
Si Si4 0.935158 0.923140 0.408639
Si Si5 0.256452 0.433665 0.467130
Si Si6 0.056703 0.574047 0.109021
O O1 0.741671 0.750000 0.871621
O O2 0.733276 0.991843 0.698495
O O3 0.853403 0.978845 0.875624
O O4 0.678978 0.013394 0.975680
O O5 0.577765 0.250000 0.068346
O O6 0.577438 0.005906 0.229228
O O7 0.500000 0.000000 0.000000
O O8 0.500000 0.500000 0.500000
O O9 0.424850 0.250000 0.625836
O O10 0.332827 0.496886 0.552790
O O11 0.920655 0.750000 0.466165
O O12 0.836209 0.001760 0.441466
O O13 0.979713 0.933195 0.246137
O O14 0.000000 0.000000 0.500000
O O15 0.260963 0.250000 0.465800
O O16 0.086013 0.750000 0.068291
O O17 0.000000 0.500000 0.000000
#
# Coordination Sequence:
#
# PCOD8075395 Si02
#       6
#     4   4   4   4   4   4
#     4  11  22  41  67  93 126 168 210 261 322 383
#     4  12  26  45  67  96 130 167 213 263 322 387
#     4  11  23  42  68  97 129 167 212 262 318 380
#     4  10  20  38  61  89 121 163 211 258 309 368
#     4   9  20  38  63  91 122 162 208 256 313 376
#     4  11  24  39  60  91 128 169 215 265 317 378
#
# _framework density 20.018184999999999
#
# number of rings (size 3 to 8) (size 9 to 14) (size 15 to 20)
#    0.000    1.333    1.667    4.000    2.333    2.000 
#    0.000    4.167    0.000    0.000    0.000    0.000 
#    0.000    0.000    0.000    0.000    0.000    0.000 
#
# Total GULP energy -297514.946504 kJ/mol
# GULP energy per Si atom -12396.456104 kJ/mol
# Density = 1.997262 g / cm^3
# Si number density = 20.018185 Si / 1000 Ang^3
#
#
#
# Elastic Constant Matrix: (Units=GPa)
#
#
# Indices 1 2 3 4 5 6 
#
# 1 182.4224 51.1914 92.7309 0.0000 6.5193 0.0000
# 2 51.1914 105.1066 63.3336 0.0000 2.1264 0.0000
# 3 92.7309 63.3336 144.2393 0.0000 14.3061 0.0000
# 4 0.0000 0.0000 0.0000 31.4732 0.0000 -0.0157
# 5 6.5193 2.1264 14.3061 0.0000 47.3547 0.0000
# 6 0.0000 0.0000 0.0000 -0.0157 0.0000 35.2338
#
#
#
# Elastic Compliance Matrix: (Units=1/GPa)
#
#
# Indices 1 2 3 4 5 6 
#
# 1 0.008245 -0.001097 -0.004857 0.000000 0.000381 0.000000
# 2 -0.001097 0.013146 -0.005179 0.000000 0.001125 0.000000
# 3 -0.004857 -0.005179 0.012618 0.000000 -0.002911 0.000000
# 4 0.000000 0.000000 0.000000 0.031773 0.000000 0.000014
# 5 0.000381 0.001125 -0.002911 0.000000 0.021894 0.000000
# 6 0.000000 0.000000 0.000000 0.000014 0.000000 0.028382
#
#
# Mechanical properties :
#
#
# Convention : Reuss Voigt Hill
#
# Bulk Modulus (GPa) = 85.14848 94.03112 89.58980
# Shear Modulus (GPa) = 35.15263 37.77982 36.46623
#
# Velocity S-wave (km/s) = 4.19505 4.34899 4.27272
# Velocity P-wave (km/s) = 8.12973 8.50254 8.31822
#
# Compressibility (1/GPa) = 0.01174419
#
# Stress axis : x y z
#
# Youngs Moduli (GPa) = 121.28881 76.06813 79.25180
#
# Poissons Ratio (x) = 0.08343 0.38491
# Poissons Ratio (y) = 0.13302 0.41043
# Poissons Ratio (z) = 0.58908 0.39394
#
# Static dielectric constant tensor:
#      x y z
#    x 3.485400 0.000000 0.312330 
#    y 0.000000 3.705450 0.000000 
#    z 0.312330 0.000000 3.604320 
# 
# 
# High freq. dielectric constant tensor:
#      x y z
#    x 1.804240 0.000000 -0.002390 
#    y 0.000000 1.775470 0.000000 
#    z -0.002390 0.000000 1.797200 
# 
# From -- ./inp_files/20375.got.cif
#   From: 2010.06.25/outbox.cif.g09.slc.cpg/sg11_11_cif.got.tgz:20375.got - 2010.06.27 23:14:04.
