data_PCOD8075960
_publ_section_title
;
Structure prediction by ZEFSAII (Michael W. Deem and Ramdas Pophale) SiO2 
 PCOD8075960
Probable space group: P 21/M
;
_chemical_formula_sum "Si O2"
_cell_formula_units_Z 32
_cell_length_a 15.645552
_cell_length_b 9.018105
_cell_length_c 25.253397
_cell_angle_alpha 90.000000
_cell_angle_beta 150.248169
_cell_angle_gamma 90.000000
_cell_volume 1768.159629
_symmetry_space_group_name_H-M "P 21/M"
_symmetry_group_IT_number 11
_symmetry_cell_setting 'monoclinic'
loop_
_space_group_symop_operation_xyz
x,y,z
-x,1/2+y,-z
-x,-y,-z
x,1/2-y,z
loop_
_atom_site_type_symbol
_atom_site_label
_atom_site_fract_x
_atom_site_fract_y
_atom_site_fract_z
Si Si1 0.849015 0.421489 0.949668
Si Si2 0.245286 0.924278 0.984674
Si Si3 0.408016 0.574910 0.802668
Si Si4 0.348321 0.923552 0.449439
Si Si5 0.032994 0.420897 0.781514
Si Si6 0.114106 0.417946 0.704705
Si Si7 0.721449 0.420896 0.469969
Si Si8 0.463442 0.424284 0.724057
O O1 0.884021 0.250000 0.961315
O O2 0.664468 0.466346 0.825746
O O3 0.851734 0.466287 0.012995
O O4 0.000000 0.500000 0.000000
O O5 0.283560 0.750000 0.002836
O O6 0.127941 0.971829 0.872976
O O7 0.426404 0.008386 0.078701
O O8 0.427831 0.750000 0.809267
O O9 0.240925 0.535815 0.746980
O O10 0.383244 0.508365 0.730969
O O11 0.372638 0.750000 0.457534
O O12 0.354409 0.969773 0.514168
O O13 0.166307 0.969803 0.326078
O O14 0.500000 0.000000 0.500000
O O15 0.052318 0.250000 0.809679
O O16 0.114151 0.444255 0.767501
O O17 0.174470 0.250000 0.724822
O O18 0.925801 0.444272 0.579160
O O19 0.675626 0.250000 0.432966
O O20 0.636963 0.528180 0.381997
O O21 0.441434 0.250000 0.722132
#
# Coordination Sequence:
#
# PCOD8075960 Si02
#       8
#     4   4   4   4   4   4   4   4
#     4   9  20  36  53  75 103 136 172 212 259 307
#     4  10  21  37  55  78 108 139 174 217 263 311
#     4  11  22  36  56  80 105 137 176 215 261 316
#     4   9  19  35  54  78 109 142 178 220 263 310
#     4   9  19  36  56  78 105 140 179 217 261 311
#     4   9  19  37  57  77 106 139 174 219 262 305
#     4   9  19  36  56  78 105 140 179 217 261 311
#     4  10  21  37  55  78 108 139 174 217 263 311
#
# _framework density 18.097913999999999
#
# number of rings (size 3 to 8) (size 9 to 14) (size 15 to 20)
#    0.000    2.500    0.000    4.125    0.000    7.000 
#    0.000    7.500    0.000    0.000    0.000    0.000 
#    0.000    0.000    0.000    0.000    0.000    0.000 
#
# Total GULP energy -396846.672350 kJ/mol
# GULP energy per Si atom -12401.458511 kJ/mol
# Density = 1.805672 g / cm^3
# Si number density = 18.097914 Si / 1000 Ang^3
#
#
#
# Elastic Constant Matrix: (Units=GPa)
#
#
# Indices 1 2 3 4 5 6 
#
# 1 114.4146 58.7029 70.9102 0.0000 13.1265 0.0000
# 2 58.7029 95.3310 59.3958 0.0000 -0.4606 0.0000
# 3 70.9102 59.3958 116.2823 0.0000 -14.3801 0.0000
# 4 0.0000 0.0000 0.0000 36.0052 0.0000 0.8264
# 5 13.1265 -0.4606 -14.3801 0.0000 29.1813 0.0000
# 6 0.0000 0.0000 0.0000 0.8264 0.0000 37.2942
#
#
#
# Elastic Compliance Matrix: (Units=1/GPa)
#
#
# Indices 1 2 3 4 5 6 
#
# 1 0.020359 -0.005465 -0.011465 0.000000 -0.014894 0.000000
# 2 -0.005465 0.017274 -0.005488 0.000000 0.000027 0.000000
# 3 -0.011465 -0.005488 0.020256 0.000000 0.015053 0.000000
# 4 0.000000 0.000000 0.000000 0.027788 0.000000 -0.000616
# 5 -0.014894 0.000027 0.015053 0.000000 0.048386 0.000000
# 6 0.000000 0.000000 0.000000 -0.000616 0.000000 0.026827
#
#
# Mechanical properties :
#
#
# Convention : Reuss Voigt Hill
#
# Bulk Modulus (GPa) = 76.61084 78.22728 77.41906
# Shear Modulus (GPa) = 23.80078 29.63074 26.71576
#
# Velocity S-wave (km/s) = 3.63038 4.05068 3.84628
# Velocity P-wave (km/s) = 7.74571 8.07438 7.91176
#
# Compressibility (1/GPa) = 0.01305298
#
# Stress axis : x y z
#
# Youngs Moduli (GPa) = 49.11923 57.89012 49.36819
#
# Poissons Ratio (x) = 0.31636 0.56602
# Poissons Ratio (y) = 0.26843 0.27091
# Poissons Ratio (z) = 0.56317 0.31768
#
# Static dielectric constant tensor:
#      x y z
#    x 3.199840 0.000000 -0.099950 
#    y 0.000000 3.272170 0.000000 
#    z -0.099950 0.000000 3.355320 
# 
# 
# High freq. dielectric constant tensor:
#      x y z
#    x 1.703570 0.000000 -0.000430 
#    y 0.000000 1.701800 0.000000 
#    z -0.000430 0.000000 1.704240 
# 
# From -- ./inp_files/51636.got.cif
#   From: 2010.06.25/outbox.cif.g09.slc.cpg/sg11_26_cif.got.tgz:51636.got - 2010.06.27 23:14:04.
