data_PCOD8075543
_publ_section_title
;
Structure prediction by ZEFSAII (Michael W. Deem and Ramdas Pophale) SiO2 
 PCOD8075543
Probable space group: P 21/M
;
_chemical_formula_sum "Si O2"
_cell_formula_units_Z 32
_cell_length_a 25.343202
_cell_length_b 14.008724
_cell_length_c 9.316332
_cell_angle_alpha 90.000000
_cell_angle_beta 151.564814
_cell_angle_gamma 90.000000
_cell_volume 1574.932235
_symmetry_space_group_name_H-M "P 21/M"
_symmetry_group_IT_number 11
_symmetry_cell_setting 'monoclinic'
loop_
_space_group_symop_operation_xyz
x,y,z
-x,1/2+y,-z
-x,-y,-z
x,1/2-y,z
loop_
_atom_site_type_symbol
_atom_site_label
_atom_site_fract_x
_atom_site_fract_y
_atom_site_fract_z
Si Si1 0.550944 0.462277 0.408003
Si Si2 0.128444 0.140708 0.450177
Si Si3 0.552520 0.141819 0.701240
Si Si4 0.662617 0.637025 0.224773
Si Si5 0.969554 0.140172 0.812896
Si Si6 0.741004 0.357562 0.376193
Si Si7 0.732705 0.010273 0.607808
Si Si8 0.982573 0.008437 0.290955
O O1 0.531163 0.567858 0.424833
O O2 0.576111 0.387203 0.594085
O O3 0.658876 0.473690 0.570254
O O4 0.449921 0.420439 0.073302
O O5 0.112199 0.250000 0.456622
O O6 0.257652 0.118929 0.723609
O O7 0.075382 0.080579 0.451627
O O8 0.068107 0.117815 0.156766
O O9 0.503204 0.250000 0.588149
O O10 0.667941 0.137803 0.059678
O O11 0.642312 0.750000 0.198946
O O12 0.717195 0.595954 0.502903
O O13 0.949294 0.250000 0.733496
O O14 0.858778 0.095159 0.617077
O O15 0.995522 0.095187 0.721999
O O16 0.755750 0.250000 0.467560
O O17 0.688807 0.417421 0.380567
O O18 0.857640 0.038077 0.951682
O O19 0.000000 0.000000 0.500000
#
# Coordination Sequence:
#
# PCOD8075543 Si02
#       8
#     4   4   4   4   4   4   4   4
#     4  11  25  41  64  93 131 168 206 262 316 370
#     4  10  21  41  67  90 118 162 215 260 304 375
#     4  10  23  43  64  92 124 167 215 256 311 373
#     4  11  23  41  67  92 121 166 219 265 310 370
#     4  10  20  39  64  90 118 161 212 254 302 373
#     4  10  21  38  66  92 121 163 208 257 308 367
#     4  12  24  42  60  96 128 163 209 259 315 381
#     4  12  26  38  62  94 133 166 198 258 327 380
#
# _framework density 20.318335999999999
#
# number of rings (size 3 to 8) (size 9 to 14) (size 15 to 20)
#    0.000    1.250    3.750    1.875    1.750    3.000 
#    0.000    0.000    0.000    0.000    0.000    0.000 
#    0.000    0.000    0.000    0.000    0.000    0.000 
#
# Total GULP energy -396808.731078 kJ/mol
# GULP energy per Si atom -12400.272846 kJ/mol
# Density = 2.027209 g / cm^3
# Si number density = 20.318336 Si / 1000 Ang^3
#
#
#
# Elastic Constant Matrix: (Units=GPa)
#
#
# Indices 1 2 3 4 5 6 
#
# 1 127.4513 42.4040 28.7791 0.0000 0.7238 0.0000
# 2 42.4040 94.7158 26.1977 0.0000 -3.4293 0.0000
# 3 28.7791 26.1977 55.4722 0.0000 -0.8673 0.0000
# 4 0.0000 0.0000 0.0000 26.0577 0.0000 2.3055
# 5 0.7238 -3.4293 -0.8673 0.0000 33.6460 0.0000
# 6 0.0000 0.0000 0.0000 2.3055 0.0000 18.1900
#
#
#
# Elastic Compliance Matrix: (Units=1/GPa)
#
#
# Indices 1 2 3 4 5 6 
#
# 1 0.009776 -0.003445 -0.003455 0.000000 -0.000650 0.000000
# 2 -0.003445 0.013398 -0.004520 0.000000 0.001323 0.000000
# 3 -0.003455 -0.004520 0.021957 0.000000 0.000180 0.000000
# 4 0.000000 0.000000 0.000000 0.038812 0.000000 -0.004919
# 5 -0.000650 0.001323 0.000180 0.000000 0.029875 0.000000
# 6 0.000000 0.000000 0.000000 -0.004919 0.000000 0.055599
#
#
# Mechanical properties :
#
#
# Convention : Reuss Voigt Hill
#
# Bulk Modulus (GPa) = 44.85918 52.48900 48.67409
# Shear Modulus (GPa) = 25.03930 27.59596 26.31763
#
# Velocity S-wave (km/s) = 3.51429 3.68935 3.60288
# Velocity P-wave (km/s) = 6.21234 6.63610 6.42771
#
# Compressibility (1/GPa) = 0.02229198
#
# Stress axis : x y z
#
# Youngs Moduli (GPa) = 102.29046 74.63768 45.54359
#
# Poissons Ratio (x) = 0.25709 0.15737
# Poissons Ratio (y) = 0.35235 0.20584
# Poissons Ratio (z) = 0.35344 0.33734
#
# Static dielectric constant tensor:
#      x y z
#    x 3.582520 0.000000 0.094820 
#    y 0.000000 3.937920 0.000000 
#    z 0.094820 0.000000 3.706190 
# 
# 
# High freq. dielectric constant tensor:
#      x y z
#    x 1.785300 0.000000 0.006690 
#    y 0.000000 1.806860 0.000000 
#    z 0.006690 0.000000 1.793040 
# 
# From -- ./inp_files/27827.got.cif
#   From: 2010.06.25/outbox.cif.g09.slc.cpg/sg11_14_cif.got.tgz:27827.got - 2010.06.27 23:14:04.
