data_PCOD8075746
_publ_section_title
;
Structure prediction by ZEFSAII (Michael W. Deem and Ramdas Pophale) SiO2 
 PCOD8075746
Probable space group: P 21/M
;
_chemical_formula_sum "Si O2"
_cell_formula_units_Z 24
_cell_length_a 14.585665
_cell_length_b 16.581180
_cell_length_c 4.936686
_cell_angle_alpha 90.000000
_cell_angle_beta 102.196312
_cell_angle_gamma 90.000000
_cell_volume 1166.977851
_symmetry_space_group_name_H-M "P 21/M"
_symmetry_group_IT_number 11
_symmetry_cell_setting 'monoclinic'
loop_
_space_group_symop_operation_xyz
x,y,z
-x,1/2+y,-z
-x,-y,-z
x,1/2-y,z
loop_
_atom_site_type_symbol
_atom_site_label
_atom_site_fract_x
_atom_site_fract_y
_atom_site_fract_z
Si Si1 0.678107 0.388865 0.814187
Si Si2 0.217502 0.449628 0.082268
Si Si3 0.891193 0.497231 0.490086
Si Si4 0.783866 0.161344 0.381162
Si Si5 0.520106 0.908120 0.091195
Si Si6 0.623438 0.843811 0.651479
O O1 0.699936 0.483918 0.848105
O O2 0.695307 0.358642 0.519665
O O3 0.572420 0.369503 0.833272
O O4 0.748806 0.340669 0.051688
O O5 0.131843 0.464951 0.233767
O O6 0.271929 0.366428 0.176399
O O7 0.170408 0.450852 0.758567
O O8 0.866077 0.402757 0.476307
O O9 0.000000 0.500000 0.500000
O O10 0.824839 0.250000 0.467774
O O11 0.600774 0.897763 0.370085
O O12 0.547510 0.859763 0.839138
O O13 0.500000 0.000000 0.000000
O O14 0.622524 0.750000 0.571124
#
# Coordination Sequence:
#
# PCOD8075746 Si02
#       6
#     4   4   4   4   4   4
#     4  10  21  35  59  83 112 160 200 236 295 362
#     4  10  21  39  61  84 117 156 196 243 302 370
#     4  10  21  39  64  89 113 153 202 244 300 380
#     4  10  21  36  56  86 121 148 189 252 308 349
#     4  12  24  39  63  88 123 170 217 254 295 364
#     4  12  26  41  60  91 128 165 210 262 305 353
#
# _framework density 20.565943000000001
#
# number of rings (size 3 to 8) (size 9 to 14) (size 15 to 20)
#    0.000    1.333    1.667    4.000    4.667    4.000 
#    0.000    1.667    0.000    0.000    0.000    0.000 
#    0.000    0.000    0.000    0.000    0.000    0.000 
#
# Total GULP energy -297664.162394 kJ/mol
# GULP energy per Si atom -12402.673433 kJ/mol
# Density = 2.051913 g / cm^3
# Si number density = 20.565943 Si / 1000 Ang^3
#
#
#
# Elastic Constant Matrix: (Units=GPa)
#
#
# Indices 1 2 3 4 5 6 
#
# 1 105.8633 36.4283 4.1585 0.0000 -7.4037 0.0000
# 2 36.4283 107.8812 29.1016 0.0000 8.3751 0.0000
# 3 4.1585 29.1016 88.2951 0.0000 -5.5588 0.0000
# 4 0.0000 0.0000 0.0000 22.0887 0.0000 1.7317
# 5 -7.4037 8.3751 -5.5588 0.0000 22.4797 0.0000
# 6 0.0000 0.0000 0.0000 1.7317 0.0000 15.8000
#
#
#
# Elastic Compliance Matrix: (Units=1/GPa)
#
#
# Indices 1 2 3 4 5 6 
#
# 1 0.011410 -0.004676 0.001371 0.000000 0.005839 0.000000
# 2 -0.004676 0.012602 -0.004394 0.000000 -0.007322 0.000000
# 3 0.001371 -0.004394 0.013044 0.000000 0.005314 0.000000
# 4 0.000000 0.000000 0.000000 0.045664 0.000000 -0.005005
# 5 0.005839 -0.007322 0.005314 0.000000 0.050449 0.000000
# 6 0.000000 0.000000 0.000000 -0.005005 0.000000 0.063840
#
#
# Mechanical properties :
#
#
# Convention : Reuss Voigt Hill
#
# Bulk Modulus (GPa) = 46.17216 49.04626 47.60921
# Shear Modulus (GPa) = 22.76594 27.56378 25.16486
#
# Velocity S-wave (km/s) = 3.33073 3.66493 3.50182
# Velocity P-wave (km/s) = 6.10665 6.46599 6.28889
#
# Compressibility (1/GPa) = 0.02165807
#
# Stress axis : x y z
#
# Youngs Moduli (GPa) = 87.64508 79.35132 76.66361
#
# Poissons Ratio (x) = 0.37104 -0.10514
# Poissons Ratio (y) = 0.40982 0.33689
# Poissons Ratio (z) = -0.12020 0.34870
#
# Static dielectric constant tensor:
#      x y z
#    x 3.519310 0.000000 -0.194440 
#    y 0.000000 3.604950 0.000000 
#    z -0.194440 0.000000 3.927610 
# 
# 
# High freq. dielectric constant tensor:
#      x y z
#    x 1.788160 0.000000 -0.016790 
#    y 0.000000 1.787580 0.000000 
#    z -0.016790 0.000000 1.822260 
# 
# From -- ./inp_files/6467.got.cif
#   From: 2010.06.25/outbox.cif.g09.slc.cpg/sg11_4_cif.got.tgz:6467.got - 2010.06.27 23:14:04.
