data_PCOD8075971
_publ_section_title
;
Structure prediction by ZEFSAII (Michael W. Deem and Ramdas Pophale) SiO2 
 PCOD8075971
Probable space group: P 21/M
;
_chemical_formula_sum "Si O2"
_cell_formula_units_Z 28
_cell_length_a 9.515131
_cell_length_b 8.973132
_cell_length_c 31.459581
_cell_angle_alpha 90.000000
_cell_angle_beta 35.177566
_cell_angle_gamma 90.000000
_cell_volume 1547.458197
_symmetry_space_group_name_H-M "P 21/M"
_symmetry_group_IT_number 11
_symmetry_cell_setting 'monoclinic'
loop_
_space_group_symop_operation_xyz
x,y,z
-x,1/2+y,-z
-x,-y,-z
x,1/2-y,z
loop_
_atom_site_type_symbol
_atom_site_label
_atom_site_fract_x
_atom_site_fract_y
_atom_site_fract_z
Si Si1 0.390443 0.573100 0.299040
Si Si2 0.233072 0.079351 0.422599
Si Si3 0.125883 0.424825 0.602485
Si Si4 0.239812 0.573502 0.852055
Si Si5 0.739738 0.574046 0.068582
Si Si6 0.500651 0.083276 0.440590
Si Si7 0.674122 0.576769 0.991347
O O1 0.433245 0.750000 0.288391
O O2 0.344195 0.518511 0.357877
O O3 0.624641 0.489016 0.222763
O O4 0.154086 0.523837 0.330208
O O5 0.170717 0.250000 0.424530
O O6 0.445526 0.079022 0.404796
O O7 0.000000 0.000000 0.500000
O O8 0.134116 0.250000 0.602746
O O9 0.252738 0.490219 0.613032
O O10 0.272778 0.482544 0.524305
O O11 0.267653 0.750000 0.848817
O O12 0.371274 0.499622 0.861253
O O13 0.956433 0.526310 0.916825
O O14 0.767059 0.750000 0.068568
O O15 0.592234 0.541961 0.060810
O O16 0.000000 0.500000 0.000000
O O17 0.551513 0.250000 0.443965
O O18 0.652057 0.750000 0.987314
O O19 0.500000 0.500000 0.000000
#
# Coordination Sequence:
#
# PCOD8075971 Si02
#       7
#     4   4   4   4   4   4   4
#     4  11  22  37  55  79 109 142 182 228 278 330
#     4  11  21  35  54  78 107 141 183 230 276 329
#     4   9  18  33  51  74 101 130 170 219 267 320
#     4  10  21  37  55  81 111 144 184 226 271 324
#     4   9  17  32  54  81 109 141 178 219 259 309
#     4   9  18  33  51  74 101 129 170 222 268 317
#     4   9  19  34  56  85 115 142 179 221 262 315
#
# _framework density 18.094187999999999
#
# number of rings (size 3 to 8) (size 9 to 14) (size 15 to 20)
#    0.000    2.286    1.429    2.571    0.000    5.714 
#    0.000    1.429    0.000    0.000    0.000    0.000 
#    0.000    0.000    0.000    0.000    0.000    0.000 
#
# Total GULP energy -347017.963342 kJ/mol
# GULP energy per Si atom -12393.498691 kJ/mol
# Density = 1.805300 g / cm^3
# Si number density = 18.094188 Si / 1000 Ang^3
#
#
#
# Elastic Constant Matrix: (Units=GPa)
#
#
# Indices 1 2 3 4 5 6 
#
# 1 112.2379 45.5311 42.8510 0.0000 2.7149 0.0000
# 2 45.5311 65.0951 34.9133 0.0000 -0.3895 0.0000
# 3 42.8510 34.9133 93.5225 0.0000 9.4805 0.0000
# 4 0.0000 0.0000 0.0000 30.8182 0.0000 2.5554
# 5 2.7149 -0.3895 9.4805 0.0000 23.8232 0.0000
# 6 0.0000 0.0000 0.0000 2.5554 0.0000 36.1324
#
#
#
# Elastic Compliance Matrix: (Units=1/GPa)
#
#
# Indices 1 2 3 4 5 6 
#
# 1 0.013187 -0.007507 -0.003204 0.000000 -0.000350 0.000000
# 2 -0.007507 0.023734 -0.005780 0.000000 0.003544 0.000000
# 3 -0.003204 -0.005780 0.014892 0.000000 -0.005656 0.000000
# 4 0.000000 0.000000 0.000000 0.032640 0.000000 -0.002308
# 5 -0.000350 0.003544 -0.005656 0.000000 0.044324 0.000000
# 6 0.000000 0.000000 0.000000 -0.002308 0.000000 0.027839
#
#
# Mechanical properties :
#
#
# Convention : Reuss Voigt Hill
#
# Bulk Modulus (GPa) = 53.10492 57.49404 55.29948
# Shear Modulus (GPa) = 25.52646 27.99209 26.75927
#
# Velocity S-wave (km/s) = 3.76008 3.93749 3.84980
# Velocity P-wave (km/s) = 6.94721 7.24676 7.09857
#
# Compressibility (1/GPa) = 0.01883065
#
# Stress axis : x y z
#
# Youngs Moduli (GPa) = 75.83350 42.13308 67.15181
#
# Poissons Ratio (x) = 0.31630 0.21515
# Poissons Ratio (y) = 0.56930 0.38813
# Poissons Ratio (z) = 0.24297 0.24352
#
# Static dielectric constant tensor:
#      x y z
#    x 3.485650 0.000000 0.010560 
#    y 0.000000 3.471520 0.000000 
#    z 0.010560 0.000000 2.674910 
# 
# 
# High freq. dielectric constant tensor:
#      x y z
#    x 1.700190 0.000000 0.011220 
#    y 0.000000 1.709880 0.000000 
#    z 0.011220 0.000000 1.676720 
# 
# From -- ./inp_files/72708.got.cif
#   From: 2010.06.25/outbox.cif.g09.slc.cpg/sg11_37_cif.got.tgz:72708.got - 2010.06.27 23:14:04.
