data_PCOD8075453
_publ_section_title
;
Structure prediction by ZEFSAII (Michael W. Deem and Ramdas Pophale) SiO2 
 PCOD8075453
Probable space group: P 21/M
;
_chemical_formula_sum "Si O2"
_cell_formula_units_Z 32
_cell_length_a 20.141965
_cell_length_b 8.835317
_cell_length_c 26.927495
_cell_angle_alpha 90.000000
_cell_angle_beta 19.208617
_cell_angle_gamma 90.000000
_cell_volume 1576.620876
_symmetry_space_group_name_H-M "P 21/M"
_symmetry_group_IT_number 11
_symmetry_cell_setting 'monoclinic'
loop_
_space_group_symop_operation_xyz
x,y,z
-x,1/2+y,-z
-x,-y,-z
x,1/2-y,z
loop_
_atom_site_type_symbol
_atom_site_label
_atom_site_fract_x
_atom_site_fract_y
_atom_site_fract_z
Si Si1 0.659212 0.926559 0.851447
Si Si2 0.392855 0.927728 0.376361
Si Si3 0.029376 0.569959 0.306155
Si Si4 0.647633 0.070139 0.118245
Si Si5 0.396005 0.921607 0.688979
Si Si6 0.665013 0.425890 0.994609
Si Si7 0.676365 0.577933 0.404675
Si Si8 0.045783 0.571928 0.859803
O O1 0.685922 0.750000 0.844088
O O2 0.870814 0.011000 0.712431
O O3 0.564091 0.952477 0.863856
O O4 0.500000 0.000000 0.000000
O O5 0.365751 0.750000 0.390278
O O6 0.446524 0.999257 0.284842
O O7 0.578680 0.967214 0.282314
O O8 0.192257 0.001476 0.540421
O O9 0.018561 0.750000 0.314946
O O10 0.162554 0.509834 0.164843
O O11 0.630585 0.250000 0.131400
O O12 0.671969 0.004244 0.045010
O O13 0.836423 0.012852 0.017965
O O14 0.358470 0.750000 0.733937
O O15 0.611556 0.928085 0.507791
O O16 0.207444 0.974248 0.788109
O O17 0.712596 0.250000 0.965462
O O18 0.500000 0.500000 0.500000
O O19 0.705733 0.750000 0.366063
O O20 0.878381 0.485707 0.248226
O O21 0.011797 0.750000 0.882025
#
# Coordination Sequence:
#
# PCOD8075453 Si02
#       8
#     4   4   4   4   4   4   4   4
#     4   9  16  32  58  91 124 153 190 237 285 340
#     4  12  26  41  57  84 118 154 197 248 298 351
#     4  10  20  38  63  91 121 154 192 238 290 350
#     4  11  23  41  61  83 115 159 199 241 296 351
#     4   9  20  38  58  79 110 153 196 240 293 351
#     4   8  18  36  62  91 118 151 192 236 284 342
#     4   9  17  31  53  81 111 142 181 233 289 343
#     4  10  21  37  57  84 115 149 193 245 296 348
#
# _framework density 20.296572000000001
#
# number of rings (size 3 to 8) (size 9 to 14) (size 15 to 20)
#    0.000    2.250    0.000    4.500    1.750    3.500 
#    0.000    7.500    0.000    0.000    0.000    0.000 
#    0.000    0.000    0.000    0.000    0.000    0.000 
#
# Total GULP energy -396555.215478 kJ/mol
# GULP energy per Si atom -12392.350484 kJ/mol
# Density = 2.025038 g / cm^3
# Si number density = 20.296572 Si / 1000 Ang^3
#
#
#
# Elastic Constant Matrix: (Units=GPa)
#
#
# Indices 1 2 3 4 5 6 
#
# 1 102.2870 44.2250 53.7220 0.0000 -0.9820 0.0000
# 2 44.2250 106.5343 36.7627 0.0000 0.8900 0.0000
# 3 53.7220 36.7627 81.4213 0.0000 6.0883 0.0000
# 4 0.0000 0.0000 0.0000 36.0960 0.0000 -4.1227
# 5 -0.9820 0.8900 6.0883 0.0000 24.0603 0.0000
# 6 0.0000 0.0000 0.0000 -4.1227 0.0000 25.7774
#
#
#
# Elastic Compliance Matrix: (Units=1/GPa)
#
#
# Indices 1 2 3 4 5 6 
#
# 1 0.016256 -0.003544 -0.009362 0.000000 0.003164 0.000000
# 2 -0.003544 0.011910 -0.003053 0.000000 0.000187 0.000000
# 3 -0.009362 -0.003053 0.020241 0.000000 -0.005391 0.000000
# 4 0.000000 0.000000 0.000000 0.028219 0.000000 0.004513
# 5 0.003164 0.000187 -0.005391 0.000000 0.043049 0.000000
# 6 0.000000 0.000000 0.000000 0.004513 0.000000 0.039515
#
#
# Mechanical properties :
#
#
# Convention : Reuss Voigt Hill
#
# Bulk Modulus (GPa) = 60.65047 62.18468 61.41757
# Shear Modulus (GPa) = 25.43169 27.55561 26.49365
#
# Velocity S-wave (km/s) = 3.54362 3.68863 3.61685
# Velocity P-wave (km/s) = 6.83301 6.98898 6.91143
#
# Compressibility (1/GPa) = 0.01648792
#
# Stress axis : x y z
#
# Youngs Moduli (GPa) = 61.51470 83.96395 49.40544
#
# Poissons Ratio (x) = 0.29758 0.46255
# Poissons Ratio (y) = 0.21801 0.15084
# Poissons Ratio (z) = 0.57592 0.25635
#
# Static dielectric constant tensor:
#      x y z
#    x 4.068310 0.000000 0.016590 
#    y 0.000000 4.587970 0.000000 
#    z 0.016590 0.000000 3.925520 
# 
# 
# High freq. dielectric constant tensor:
#      x y z
#    x 1.784520 0.000000 -0.006000 
#    y 0.000000 1.786600 0.000000 
#    z -0.006000 0.000000 1.782520 
# 
# From -- ./inp_files/72030.got.cif
#   From: 2010.06.25/outbox.cif.g09.slc.cpg/sg11_37_cif.got.tgz:72030.got - 2010.06.27 23:14:04.
