data_PCOD8075942
_publ_section_title
;
Structure prediction by ZEFSAII (Michael W. Deem and Ramdas Pophale) SiO2 
 PCOD8075942
Probable space group: P 21/M
;
_chemical_formula_sum "Si O2"
_cell_formula_units_Z 24
_cell_length_a 11.850446
_cell_length_b 8.652308
_cell_length_c 20.762925
_cell_angle_alpha 90.000000
_cell_angle_beta 141.104712
_cell_angle_gamma 90.000000
_cell_volume 1336.734108
_symmetry_space_group_name_H-M "P 21/M"
_symmetry_group_IT_number 11
_symmetry_cell_setting 'monoclinic'
loop_
_space_group_symop_operation_xyz
x,y,z
-x,1/2+y,-z
-x,-y,-z
x,1/2-y,z
loop_
_atom_site_type_symbol
_atom_site_label
_atom_site_fract_x
_atom_site_fract_y
_atom_site_fract_z
Si Si1 0.838840 0.568904 0.735419
Si Si2 0.107328 0.931138 0.367395
Si Si3 0.908626 0.071552 0.396473
Si Si4 0.859462 0.930340 0.888947
Si Si5 0.458330 0.927153 0.707481
Si Si6 0.541574 0.570566 0.424299
O O1 0.872217 0.750000 0.742179
O O2 0.955709 0.478133 0.733062
O O3 0.896165 0.510530 0.832264
O O4 0.628919 0.531894 0.632685
O O5 0.138062 0.750000 0.387431
O O6 0.293697 0.021683 0.458032
O O7 0.962636 0.982823 0.355844
O O8 0.967391 0.250000 0.417463
O O9 0.692015 0.054773 0.304223
O O10 0.000000 0.000000 0.500000
O O11 0.887002 0.750000 0.903220
O O12 0.656351 0.975215 0.820852
O O13 0.000000 0.000000 0.000000
O O14 0.464848 0.750000 0.684943
O O15 0.399435 0.037096 0.622838
O O16 0.496314 0.750000 0.413960
#
# Coordination Sequence:
#
# PCOD8075942 Si02
#       6
#     4   4   4   4   4   4
#     4  10  21  37  53  74 105 138 176 218 268 320
#     4  12  23  34  49  73 108 145 180 218 261 311
#     4  11  21  34  53  76 107 147 186 219 256 307
#     4   9  19  36  59  83 105 132 167 218 274 322
#     4   9  19  35  53  76 108 142 178 218 262 311
#     4  11  20  31  50  75 105 141 179 217 261 312
#
# _framework density 17.954208000000001
#
# number of rings (size 3 to 8) (size 9 to 14) (size 15 to 20)
#    0.000    1.667    1.667    5.500    0.000    4.000 
#    0.000    0.000    0.000    1.000    0.000    0.000 
#    0.000    0.000    0.000    0.000    0.000    0.000 
#
# Total GULP energy -297563.011307 kJ/mol
# GULP energy per Si atom -12398.458804 kJ/mol
# Density = 1.791334 g / cm^3
# Si number density = 17.954208 Si / 1000 Ang^3
#
#
#
# Elastic Constant Matrix: (Units=GPa)
#
#
# Indices 1 2 3 4 5 6 
#
# 1 125.6864 30.4154 54.2373 0.0000 -17.2217 0.0000
# 2 30.4154 68.4653 26.7629 0.0000 -5.2391 0.0000
# 3 54.2373 26.7629 99.2203 0.0000 -7.7946 0.0000
# 4 0.0000 0.0000 0.0000 27.1906 0.0000 -3.1767
# 5 -17.2217 -5.2391 -7.7946 0.0000 15.2773 0.0000
# 6 0.0000 0.0000 0.0000 -3.1767 0.0000 30.9662
#
#
#
# Elastic Compliance Matrix: (Units=1/GPa)
#
#
# Indices 1 2 3 4 5 6 
#
# 1 0.012227 -0.002627 -0.005170 0.000000 0.010244 0.000000
# 2 -0.002627 0.017073 -0.003065 0.000000 0.001330 0.000000
# 3 -0.005170 -0.003065 0.013742 0.000000 0.000132 0.000000
# 4 0.000000 0.000000 0.000000 0.037224 0.000000 0.003819
# 5 0.010244 0.001330 0.000132 0.000000 0.077528 0.000000
# 6 0.000000 0.000000 0.000000 0.003819 0.000000 0.032685
#
#
# Mechanical properties :
#
#
# Convention : Reuss Voigt Hill
#
# Bulk Modulus (GPa) = 46.90912 57.35592 52.13252
# Shear Modulus (GPa) = 22.79906 26.81723 24.80814
#
# Velocity S-wave (km/s) = 3.56735 3.86896 3.72122
# Velocity P-wave (km/s) = 6.56901 7.20927 6.89657
#
# Compressibility (1/GPa) = 0.02131781
#
# Stress axis : x y z
#
# Youngs Moduli (GPa) = 81.78779 58.57333 72.77040
#
# Poissons Ratio (x) = 0.15386 0.37625
# Poissons Ratio (y) = 0.21483 0.22302
# Poissons Ratio (z) = 0.42287 0.17951
#
# Static dielectric constant tensor:
#      x y z
#    x 3.593690 0.000000 -0.180690 
#    y 0.000000 3.475500 0.000000 
#    z -0.180690 0.000000 3.714150 
# 
# 
# High freq. dielectric constant tensor:
#      x y z
#    x 1.702840 0.000000 -0.008040 
#    y 0.000000 1.703450 0.000000 
#    z -0.008040 0.000000 1.655180 
# 
# From -- ./inp_files/36973.got.cif
#   From: 2010.06.25/outbox.cif.g09.slc.cpg/sg11_19_cif.got.tgz:36973.got - 2010.06.27 23:14:04.
