data_PCOD8075303
_publ_section_title
;
Structure prediction by ZEFSAII (Michael W. Deem and Ramdas Pophale) SiO2 
 PCOD8075303
Probable space group: P 21/M
;
_chemical_formula_sum "Si O2"
_cell_formula_units_Z 32
_cell_length_a 13.826273
_cell_length_b 17.269526
_cell_length_c 11.966642
_cell_angle_alpha 90.000000
_cell_angle_beta 145.583973
_cell_angle_gamma 90.000000
_cell_volume 1614.947079
_symmetry_space_group_name_H-M "P 21/M"
_symmetry_group_IT_number 11
_symmetry_cell_setting 'monoclinic'
loop_
_space_group_symop_operation_xyz
x,y,z
-x,1/2+y,-z
-x,-y,-z
x,1/2-y,z
loop_
_atom_site_type_symbol
_atom_site_label
_atom_site_fract_x
_atom_site_fract_y
_atom_site_fract_z
Si Si1 0.563724 0.567711 0.483683
Si Si2 0.789849 0.488397 0.528480
Si Si3 0.695387 0.514352 0.196843
Si Si4 0.113490 0.163131 0.631746
Si Si5 0.880904 0.661359 0.886561
Si Si6 0.095009 0.588514 0.758969
Si Si7 0.770750 0.159789 0.899660
Si Si8 0.963488 0.336553 0.734617
O O1 0.500000 0.500000 0.500000
O O2 0.625609 0.528977 0.426888
O O3 0.721754 0.611624 0.692185
O O4 0.403882 0.623026 0.310972
O O5 0.762185 0.472294 0.371396
O O6 0.823809 0.404634 0.618100
O O7 0.947014 0.548117 0.691107
O O8 0.726299 0.606443 0.233460
O O9 0.792699 0.480880 0.183163
O O10 0.500000 0.500000 0.000000
O O11 0.178266 0.250000 0.671721
O O12 0.969245 0.142575 0.403180
O O13 0.046527 0.153203 0.693037
O O14 0.850655 0.750000 0.819688
O O15 0.062196 0.630813 0.009626
O O16 0.891855 0.654334 0.031765
O O17 0.207040 0.640649 0.948422
O O18 0.747556 0.250000 0.860350
O O19 0.879600 0.250000 0.665287
#
# Coordination Sequence:
#
# PCOD8075303 Si02
#       8
#     4   4   4   4   4   4   4   4
#     4  12  26  40  64  99 127 168 220 266 316 382
#     4  11  21  40  63  91 127 167 209 263 320 375
#     4  11  22  38  59  92 131 167 206 260 318 382
#     4  10  20  38  62  91 119 161 214 258 314 380
#     4  10  23  43  64  90 128 172 209 265 329 372
#     4  11  20  40  65  93 124 169 211 259 322 383
#     4  11  24  43  66  95 129 168 215 269 323 382
#     4  10  20  37  65  90 119 165 215 260 314 383
#
# _framework density 19.814892
#
# number of rings (size 3 to 8) (size 9 to 14) (size 15 to 20)
#    0.000    1.250    3.750    3.000    1.750    2.000 
#    0.000    5.625    0.000    0.000    0.000    0.000 
#    0.000    0.000    0.000    0.000    0.000    0.000 
#
# Total GULP energy -396776.232152 kJ/mol
# GULP energy per Si atom -12399.257255 kJ/mol
# Density = 1.976979 g / cm^3
# Si number density = 19.814892 Si / 1000 Ang^3
#
#
#
# Elastic Constant Matrix: (Units=GPa)
#
#
# Indices 1 2 3 4 5 6 
#
# 1 99.8943 51.2031 54.6239 0.0000 2.5662 0.0000
# 2 51.2031 120.7012 74.0082 0.0000 8.1587 0.0000
# 3 54.6239 74.0082 134.6170 0.0000 8.0456 0.0000
# 4 0.0000 0.0000 0.0000 36.5199 0.0000 1.2094
# 5 2.5662 8.1587 8.0456 0.0000 37.5668 0.0000
# 6 0.0000 0.0000 0.0000 1.2094 0.0000 31.0113
#
#
#
# Elastic Compliance Matrix: (Units=1/GPa)
#
#
# Indices 1 2 3 4 5 6 
#
# 1 0.013879 -0.003702 -0.003634 0.000000 0.000634 0.000000
# 2 -0.003702 0.013544 -0.005858 0.000000 -0.001434 0.000000
# 3 -0.003634 -0.005858 0.012189 0.000000 -0.001090 0.000000
# 4 0.000000 0.000000 0.000000 0.027418 0.000000 -0.001069
# 5 0.000634 -0.001434 -0.001090 0.000000 0.027121 0.000000
# 6 0.000000 0.000000 0.000000 -0.001069 0.000000 0.032288
#
#
# Mechanical properties :
#
#
# Convention : Reuss Voigt Hill
#
# Bulk Modulus (GPa) = 75.62626 79.43143 77.52885
# Shear Modulus (GPa) = 31.79915 32.71141 32.25528
#
# Velocity S-wave (km/s) = 4.01035 4.06747 4.03902
# Velocity P-wave (km/s) = 7.72613 7.88878 7.80788
#
# Compressibility (1/GPa) = 0.01322292
#
# Stress axis : x y z
#
# Youngs Moduli (GPa) = 72.04984 73.83106 82.04063
#
# Poissons Ratio (x) = 0.27334 0.29817
# Poissons Ratio (y) = 0.26675 0.48062
# Poissons Ratio (z) = 0.26186 0.43253
#
# Static dielectric constant tensor:
#      x y z
#    x 3.380650 0.000000 -0.293840 
#    y 0.000000 5.832450 0.000000 
#    z -0.293840 0.000000 3.340060 
# 
# 
# High freq. dielectric constant tensor:
#      x y z
#    x 1.774290 0.000000 -0.017850 
#    y 0.000000 1.783410 0.000000 
#    z -0.017850 0.000000 1.767970 
# 
# From -- ./inp_files/40047.got.cif
#   From: 2010.06.25/outbox.cif.g09.slc.cpg/sg11_21_cif.got.tgz:40047.got - 2010.06.27 23:14:04.
