data_PCOD8075430
_publ_section_title
;
Structure prediction by ZEFSAII (Michael W. Deem and Ramdas Pophale) SiO2 
 PCOD8075430
Probable space group: P 21/M
;
_chemical_formula_sum "Si O2"
_cell_formula_units_Z 28
_cell_length_a 7.992963
_cell_length_b 21.918138
_cell_length_c 6.381944
_cell_angle_alpha 90.000000
_cell_angle_beta 103.840125
_cell_angle_gamma 90.000000
_cell_volume 1085.597703
_symmetry_space_group_name_H-M "P 21/M"
_symmetry_group_IT_number 11
_symmetry_cell_setting 'monoclinic'
loop_
_space_group_symop_operation_xyz
x,y,z
-x,1/2+y,-z
-x,-y,-z
x,1/2-y,z
loop_
_atom_site_type_symbol
_atom_site_label
_atom_site_fract_x
_atom_site_fract_y
_atom_site_fract_z
Si Si1 0.566502 0.680238 0.565775
Si Si2 0.063721 0.320025 0.424565
Si Si3 0.814732 0.863880 0.107277
Si Si4 0.302284 0.001875 0.872490
Si Si5 0.464725 0.818928 0.056624
Si Si6 0.839996 0.398634 0.932821
Si Si7 0.746815 0.105190 0.423162
O O1 0.533312 0.750000 0.614148
O O2 0.766783 0.661249 0.661223
O O3 0.525622 0.668259 0.310457
O O4 0.431085 0.642639 0.668524
O O5 0.010508 0.250000 0.358581
O O6 0.113282 0.321926 0.685264
O O7 0.904265 0.365822 0.332276
O O8 0.636534 0.833438 0.964191
O O9 0.966493 0.870878 0.977004
O O10 0.766629 0.930519 0.184807
O O11 0.281500 0.965121 0.647970
O O12 0.180082 0.969337 0.009638
O O13 0.500000 0.000000 0.000000
O O14 0.402955 0.750000 0.003535
O O15 0.301994 0.863296 0.964850
O O16 0.799267 0.390981 0.678203
#
# Coordination Sequence:
#
# PCOD8075430 Si02
#       7
#     4   4   4   4   4   4   4
#     4   8  15  32  59  90 120 156 200 251 312 373
#     4   9  18  36  65  97 124 155 208 263 312 379
#     4  10  20  38  62  91 124 166 207 252 318 363
#     4  12  25  44  61  89 133 166 214 263 302 370
#     4   9  17  34  61  93 123 155 204 255 308 378
#     4  10  22  41  63  92 122 166 208 260 315 369
#     4  10  22  39  64  92 121 168 206 253 321 367
#
# _framework density 25.792244
#
# number of rings (size 3 to 8) (size 9 to 14) (size 15 to 20)
#    0.000    2.286    1.429    2.143    0.000    6.857 
#    5.143    1.429    0.000    0.000    0.000    0.000 
#    0.000    0.000    0.000    0.000    0.000    0.000 
#
# Total GULP energy -347240.379034 kJ/mol
# GULP energy per Si atom -12401.442108 kJ/mol
# Density = 2.573354 g / cm^3
# Si number density = 25.792244 Si / 1000 Ang^3
#
#
#
# Elastic Constant Matrix: (Units=GPa)
#
#
# Indices 1 2 3 4 5 6 
#
# 1 153.6519 28.1280 55.5368 0.0000 -22.5937 0.0000
# 2 28.1280 113.1075 -10.0288 0.0000 4.2369 0.0000
# 3 55.5368 -10.0288 49.8231 0.0000 2.4937 0.0000
# 4 0.0000 0.0000 0.0000 22.1981 0.0000 -1.3338
# 5 -22.5937 4.2369 2.4937 0.0000 51.3160 0.0000
# 6 0.0000 0.0000 0.0000 -1.3338 0.0000 48.9277
#
#
#
# Elastic Compliance Matrix: (Units=1/GPa)
#
#
# Indices 1 2 3 4 5 6 
#
# 1 0.015751 -0.005930 -0.019169 0.000000 0.008356 0.000000
# 2 -0.005930 0.011270 0.009078 0.000000 -0.003982 0.000000
# 3 -0.019169 0.009078 0.043832 0.000000 -0.011319 0.000000
# 4 0.000000 0.000000 0.000000 0.045123 0.000000 0.001230
# 5 0.008356 -0.003982 -0.011319 0.000000 0.024045 0.000000
# 6 0.000000 0.000000 0.000000 0.001230 0.000000 0.020472
#
#
# Mechanical properties :
#
#
# Convention : Reuss Voigt Hill
#
# Bulk Modulus (GPa) = 25.76630 51.53941 38.65285
# Shear Modulus (GPa) = 24.33416 40.68480 32.50948
#
# Velocity S-wave (km/s) = 3.07492 3.97596 3.55411
# Velocity P-wave (km/s) = 4.75589 6.41121 5.64456
#
# Compressibility (1/GPa) = 0.03881038
#
# Stress axis : x y z
#
# Youngs Moduli (GPa) = 63.48769 88.73263 22.81422
#
# Poissons Ratio (x) = 0.52616 0.43733
# Poissons Ratio (y) = 0.37646 -0.20710
# Poissons Ratio (z) = 1.21701 -0.80547
#
# Static dielectric constant tensor:
#      x y z
#    x 5.487410 0.000000 -0.006130 
#    y 0.000000 4.339250 0.000000 
#    z -0.006130 0.000000 4.505340 
# 
# 
# High freq. dielectric constant tensor:
#      x y z
#    x 2.064010 0.000000 0.002070 
#    y 0.000000 2.007900 0.000000 
#    z 0.002070 0.000000 2.071650 
# 
# From -- ./inp_files/13591.got.cif
#   From: 2010.06.25/outbox.cif.g09.slc.cpg/sg11_7_cif.got.tgz:13591.got - 2010.06.27 23:14:04.
