data_PCOD8075166
_publ_section_title
;
Structure prediction by ZEFSAII (Michael W. Deem and Ramdas Pophale) SiO2 
 PCOD8075166
Probable space group: P 21/M
;
_chemical_formula_sum "Si O2"
_cell_formula_units_Z 32
_cell_length_a 12.174456
_cell_length_b 17.724944
_cell_length_c 16.010229
_cell_angle_alpha 90.000000
_cell_angle_beta 152.815773
_cell_angle_gamma 90.000000
_cell_volume 1578.368917
_symmetry_space_group_name_H-M "P 21/M"
_symmetry_group_IT_number 11
_symmetry_cell_setting 'monoclinic'
loop_
_space_group_symop_operation_xyz
x,y,z
-x,1/2+y,-z
-x,-y,-z
x,1/2-y,z
loop_
_atom_site_type_symbol
_atom_site_label
_atom_site_fract_x
_atom_site_fract_y
_atom_site_fract_z
Si Si1 0.005483 0.088634 0.005573
Si Si2 0.345214 0.335908 0.695360
Si Si3 0.608184 0.838127 0.847949
Si Si4 0.318324 0.582201 0.955226
Si Si5 0.061966 0.662878 0.456858
Si Si6 0.526490 0.335793 0.639108
Si Si7 0.285570 0.408921 0.908907
Si Si8 0.915543 0.662132 0.764446
O O1 0.241427 0.118004 0.119389
O O2 0.008747 0.117648 0.102093
O O3 0.764115 0.114335 0.795212
O O4 0.000000 0.000000 0.000000
O O5 0.428720 0.250000 0.772850
O O6 0.357925 0.351542 0.605513
O O7 0.075723 0.348667 0.547970
O O8 0.520008 0.396121 0.856086
O O9 0.632023 0.750000 0.846118
O O10 0.332980 0.865768 0.653372
O O11 0.710149 0.854988 0.008466
O O12 0.250071 0.494497 0.914440
O O13 0.076747 0.631799 0.796447
O O14 0.460832 0.601418 0.967005
O O15 0.055276 0.750000 0.424488
O O16 0.937572 0.613908 0.300336
O O17 0.616073 0.250000 0.699909
O O18 0.363028 0.352419 0.447284
O O19 0.966873 0.750000 0.813220
#
# Coordination Sequence:
#
# PCOD8075166 Si02
#       8
#     4   4   4   4   4   4   4   4
#     4  12  26  44  65  88 126 167 208 258 312 370
#     4   9  17  35  62  90 125 159 199 259 308 353
#     4  11  24  40  63  88 120 165 209 247 302 373
#     4  10  20  37  60  92 128 164 201 248 307 371
#     4   9  20  38  60  90 123 162 208 252 300 362
#     4  10  22  39  64  95 123 158 208 263 310 358
#     4  10  22  39  57  90 130 165 202 245 306 366
#     4  11  23  40  66  95 120 157 210 262 311 362
#
# _framework density 20.274094000000002
#
# number of rings (size 3 to 8) (size 9 to 14) (size 15 to 20)
#    0.000    1.750    1.250    2.625    1.750    4.000 
#    0.000    3.125    0.000    0.000    0.000    0.000 
#    0.000    0.000    0.000    0.000    0.000    0.000 
#
# Total GULP energy -396873.432926 kJ/mol
# GULP energy per Si atom -12402.294779 kJ/mol
# Density = 2.022795 g / cm^3
# Si number density = 20.274094 Si / 1000 Ang^3
#
#
#
# Elastic Constant Matrix: (Units=GPa)
#
#
# Indices 1 2 3 4 5 6 
#
# 1 65.6760 34.8080 33.3506 0.0000 18.5146 0.0000
# 2 34.8080 110.7618 44.8446 0.0000 8.2393 0.0000
# 3 33.3506 44.8446 97.8091 0.0000 16.9429 0.0000
# 4 0.0000 0.0000 0.0000 9.9410 0.0000 10.1484
# 5 18.5146 8.2393 16.9429 0.0000 33.1516 0.0000
# 6 0.0000 0.0000 0.0000 10.1484 0.0000 29.9966
#
#
#
# Elastic Compliance Matrix: (Units=1/GPa)
#
#
# Indices 1 2 3 4 5 6 
#
# 1 0.022323 -0.004781 -0.003802 0.000000 -0.009335 0.000000
# 2 -0.004781 0.012111 -0.004239 0.000000 0.001827 0.000000
# 3 -0.003802 -0.004239 0.014168 0.000000 -0.004064 0.000000
# 4 0.000000 0.000000 0.000000 0.153666 0.000000 -0.051988
# 5 -0.009335 0.001827 -0.004064 0.000000 0.037001 0.000000
# 6 0.000000 0.000000 0.000000 -0.051988 0.000000 0.050925
#
#
# Mechanical properties :
#
#
# Convention : Reuss Voigt Hill
#
# Bulk Modulus (GPa) = 43.55978 55.58371 49.57174
# Shear Modulus (GPa) = 15.45634 25.36744 20.41189
#
# Velocity S-wave (km/s) = 2.76410 3.54110 3.17645
# Velocity P-wave (km/s) = 5.63197 6.64792 6.16092
#
# Compressibility (1/GPa) = 0.02295696
#
# Stress axis : x y z
#
# Youngs Moduli (GPa) = 44.79710 82.56712 70.58149
#
# Poissons Ratio (x) = 0.39478 0.26837
# Poissons Ratio (y) = 0.21419 0.29920
# Poissons Ratio (z) = 0.17033 0.35001
#
# Static dielectric constant tensor:
#      x y z
#    x 3.776610 0.000000 0.143920 
#    y 0.000000 3.639190 0.000000 
#    z 0.143920 0.000000 3.641710 
# 
# 
# High freq. dielectric constant tensor:
#      x y z
#    x 1.794540 0.000000 0.006390 
#    y 0.000000 1.791270 0.000000 
#    z 0.006390 0.000000 1.790510 
# 
# From -- ./inp_files/50729.got.cif
#   From: 2010.06.25/outbox.cif.g09.slc.cpg/sg11_26_cif.got.tgz:50729.got - 2010.06.27 23:14:04.
