data_PCOD8075477
_publ_section_title
;
Structure prediction by ZEFSAII (Michael W. Deem and Ramdas Pophale) SiO2 
 PCOD8075477
Probable space group: P 21/M
;
_chemical_formula_sum "Si O2"
_cell_formula_units_Z 32
_cell_length_a 11.761140
_cell_length_b 17.320536
_cell_length_c 14.146592
_cell_angle_alpha 90.000000
_cell_angle_beta 147.175367
_cell_angle_gamma 90.000000
_cell_volume 1562.131470
_symmetry_space_group_name_H-M "P 21/M"
_symmetry_group_IT_number 11
_symmetry_cell_setting 'monoclinic'
loop_
_space_group_symop_operation_xyz
x,y,z
-x,1/2+y,-z
-x,-y,-z
x,1/2-y,z
loop_
_atom_site_type_symbol
_atom_site_label
_atom_site_fract_x
_atom_site_fract_y
_atom_site_fract_z
Si Si1 0.976154 0.840602 0.055625
Si Si2 0.866544 0.160695 0.329017
Si Si3 0.310888 0.415057 0.639025
Si Si4 0.444530 0.659736 0.358602
Si Si5 0.144000 0.340575 0.821634
Si Si6 0.480722 0.912481 0.017570
Si Si7 0.764836 0.091747 0.447968
Si Si8 0.416883 0.339291 0.334701
O O1 0.004169 0.750000 0.082971
O O2 0.817759 0.863777 0.860681
O O3 0.881722 0.870240 0.088789
O O4 0.207760 0.874203 0.198211
O O5 0.856490 0.250000 0.298396
O O6 0.737746 0.142334 0.334669
O O7 0.106756 0.136966 0.509055
O O8 0.758114 0.115570 0.165859
O O9 0.434103 0.390742 0.632100
O O10 0.463643 0.401558 0.834205
O O11 0.238196 0.502801 0.582413
O O12 0.449443 0.750000 0.334104
O O13 0.560677 0.645483 0.538912
O O14 0.091905 0.250000 0.775026
O O15 0.377068 0.358074 0.949567
O O16 0.989054 0.390325 0.649408
O O17 0.500000 0.000000 0.000000
O O18 0.581983 0.109700 0.393615
O O19 0.461604 0.250000 0.341228
#
# Coordination Sequence:
#
# PCOD8075477 Si02
#       8
#     4   4   4   4   4   4   4   4
#     4   9  19  37  63  93 122 158 212 274 321 361
#     4  12  25  43  70  99 124 170 228 269 318 393
#     4  12  27  44  63  94 138 178 209 263 332 399
#     4  10  22  42  64  89 125 171 217 262 316 388
#     4  11  21  38  68  98 124 165 219 273 322 378
#     4  12  25  44  65  94 138 174 208 265 336 390
#     4  12  22  40  66  94 132 168 210 271 335 382
#     4  10  20  38  65  94 124 163 217 274 317 371
#
# _framework density 20.484832000000001
#
# number of rings (size 3 to 8) (size 9 to 14) (size 15 to 20)
#    0.000    1.000    3.750    3.750    0.000    4.000 
#    0.000    1.875    0.000    0.000    0.000    0.000 
#    0.000    0.000    0.000    0.000    0.000    0.000 
#
# Total GULP energy -396954.893362 kJ/mol
# GULP energy per Si atom -12404.840418 kJ/mol
# Density = 2.043821 g / cm^3
# Si number density = 20.484832 Si / 1000 Ang^3
#
#
#
# Elastic Constant Matrix: (Units=GPa)
#
#
# Indices 1 2 3 4 5 6 
#
# 1 100.5840 21.0593 31.0319 0.0000 -9.8333 0.0000
# 2 21.0593 72.2957 17.7560 0.0000 -7.8084 0.0000
# 3 31.0319 17.7560 116.3238 0.0000 -21.6082 0.0000
# 4 0.0000 0.0000 0.0000 32.4804 0.0000 1.9264
# 5 -9.8333 -7.8084 -21.6082 0.0000 24.2381 0.0000
# 6 0.0000 0.0000 0.0000 1.9264 0.0000 26.3633
#
#
#
# Elastic Compliance Matrix: (Units=1/GPa)
#
#
# Indices 1 2 3 4 5 6 
#
# 1 0.011361 -0.002554 -0.002322 0.000000 0.001716 0.000000
# 2 -0.002554 0.015156 -0.001100 0.000000 0.002866 0.000000
# 3 -0.002322 -0.001100 0.010958 0.000000 0.008473 0.000000
# 4 0.000000 0.000000 0.000000 0.030922 0.000000 -0.002260
# 5 0.001716 0.002866 0.008473 0.000000 0.050430 0.000000
# 6 0.000000 0.000000 0.000000 -0.002260 0.000000 0.038097
#
#
# Mechanical properties :
#
#
# Convention : Reuss Voigt Hill
#
# Bulk Modulus (GPa) = 39.18006 47.65531 43.41769
# Shear Modulus (GPa) = 28.18781 31.24013 29.71397
#
# Velocity S-wave (km/s) = 3.71352 3.90941 3.81272
# Velocity P-wave (km/s) = 6.12820 6.61001 6.37366
#
# Compressibility (1/GPa) = 0.02552319
#
# Stress axis : x y z
#
# Youngs Moduli (GPa) = 88.02202 65.98220 91.25836
#
# Poissons Ratio (x) = 0.16849 0.21192
# Poissons Ratio (y) = 0.22478 0.10036
# Poissons Ratio (z) = 0.20440 0.07256
#
# Static dielectric constant tensor:
#      x y z
#    x 3.706760 0.000000 -0.027940 
#    y 0.000000 3.531680 0.000000 
#    z -0.027940 0.000000 4.054280 
# 
# 
# High freq. dielectric constant tensor:
#      x y z
#    x 1.796510 0.000000 -0.005250 
#    y 0.000000 1.788040 0.000000 
#    z -0.005250 0.000000 1.821730 
# 
# From -- ./inp_files/50742.got.cif
#   From: 2010.06.25/outbox.cif.g09.slc.cpg/sg11_26_cif.got.tgz:50742.got - 2010.06.27 23:14:04.
