data_PCOD8075481
_publ_section_title
;
Structure prediction by ZEFSAII (Michael W. Deem and Ramdas Pophale) SiO2 
 PCOD8075481
Probable space group: P 21/M
;
_chemical_formula_sum "Si O2"
_cell_formula_units_Z 28
_cell_length_a 10.601412
_cell_length_b 15.095002
_cell_length_c 7.408196
_cell_angle_alpha 90.000000
_cell_angle_beta 65.934272
_cell_angle_gamma 90.000000
_cell_volume 1082.473703
_symmetry_space_group_name_H-M "P 21/M"
_symmetry_group_IT_number 11
_symmetry_cell_setting 'monoclinic'
loop_
_space_group_symop_operation_xyz
x,y,z
-x,1/2+y,-z
-x,-y,-z
x,1/2-y,z
loop_
_atom_site_type_symbol
_atom_site_label
_atom_site_fract_x
_atom_site_fract_y
_atom_site_fract_z
Si Si1 0.745031 0.151542 0.760989
Si Si2 0.951183 0.651590 0.501490
Si Si3 0.015359 0.151097 0.099191
Si Si4 0.691826 0.542449 0.674340
Si Si5 0.477155 0.346943 0.502477
Si Si6 0.317063 0.411781 0.912681
Si Si7 0.725062 0.104147 0.160187
O O1 0.715923 0.250000 0.687785
O O2 0.909103 0.134274 0.690596
O O3 0.682382 0.065221 0.692609
O O4 0.689091 0.156659 0.997521
O O5 0.890624 0.750000 0.493509
O O6 0.994010 0.645858 0.682730
O O7 0.842348 0.574565 0.517517
O O8 0.991377 0.250000 0.040949
O O9 0.888540 0.093795 0.097882
O O10 0.164622 0.119983 0.943301
O O11 0.585888 0.575993 0.586369
O O12 0.659915 0.590838 0.884740
O O13 0.426547 0.250000 0.468038
O O14 0.434209 0.355257 0.739232
O O15 0.644113 0.351845 0.377247
O O16 0.339574 0.508616 0.826402
#
# Coordination Sequence:
#
# PCOD8075481 Si02
#       7
#     4   4   4   4   4   4   4
#     4  10  21  38  63  95 132 175 222 276 339 401
#     4   9  19  36  61  97 131 170 223 275 337 396
#     4  10  20  38  65  96 131 168 217 282 332 394
#     4  10  23  42  68  97 138 175 225 283 333 401
#     4  12  26  44  69  99 136 184 228 278 342 409
#     4  10  24  44  69  98 131 178 230 277 342 401
#     4  11  24  43  64  96 138 174 221 280 339 407
#
# _framework density 25.866676999999999
#
# number of rings (size 3 to 8) (size 9 to 14) (size 15 to 20)
#    0.000    1.714    0.000    3.429    4.000    4.000 
#    2.571    0.000    0.000    0.857    0.000    0.000 
#    0.000    0.000    0.000    0.000    0.000    0.000 
#
# Total GULP energy -347033.584036 kJ/mol
# GULP energy per Si atom -12394.056573 kJ/mol
# Density = 2.580780 g / cm^3
# Si number density = 25.866677 Si / 1000 Ang^3
#
#
#
# Elastic Constant Matrix: (Units=GPa)
#
#
# Indices 1 2 3 4 5 6 
#
# 1 36.9604 8.1913 16.0458 0.0000 0.4770 0.0000
# 2 8.1913 105.2518 33.2221 0.0000 2.2855 0.0000
# 3 16.0458 33.2221 134.1450 0.0000 -20.8410 0.0000
# 4 0.0000 0.0000 0.0000 76.0598 0.0000 -13.0826
# 5 0.4770 2.2855 -20.8410 0.0000 24.2304 0.0000
# 6 0.0000 0.0000 0.0000 -13.0826 0.0000 31.0948
#
#
#
# Elastic Compliance Matrix: (Units=1/GPa)
#
#
# Indices 1 2 3 4 5 6 
#
# 1 0.028973 -0.000971 -0.003808 0.000000 -0.003754 0.000000
# 2 -0.000971 0.010628 -0.003080 0.000000 -0.003633 0.000000
# 3 -0.003808 -0.003080 0.010076 0.000000 0.009032 0.000000
# 4 0.000000 0.000000 0.000000 0.014173 0.000000 0.005963
# 5 -0.003754 -0.003633 0.009032 0.000000 0.049456 0.000000
# 6 0.000000 0.000000 0.000000 0.005963 0.000000 0.034669
#
#
# Mechanical properties :
#
#
# Convention : Reuss Voigt Hill
#
# Bulk Modulus (GPa) = 29.44873 43.47506 36.46190
# Shear Modulus (GPa) = 28.56922 40.87022 34.71972
#
# Velocity S-wave (km/s) = 3.32698 3.97928 3.66766
# Velocity P-wave (km/s) = 5.11546 6.16090 5.66236
#
# Compressibility (1/GPa) = 0.03395732
#
# Stress axis : x y z
#
# Youngs Moduli (GPa) = 34.51488 94.09317 99.24290
#
# Poissons Ratio (x) = 0.09139 0.37795
# Poissons Ratio (y) = 0.03352 0.30569
# Poissons Ratio (z) = 0.13145 0.28983
#
# Static dielectric constant tensor:
#      x y z
#    x 4.298810 0.000000 -0.292020 
#    y 0.000000 4.797450 0.000000 
#    z -0.292020 0.000000 4.890340 
# 
# 
# High freq. dielectric constant tensor:
#      x y z
#    x 2.015080 0.000000 -0.014840 
#    y 0.000000 2.038900 0.000000 
#    z -0.014840 0.000000 2.046100 
# 
# From -- ./inp_files/17949.got.cif
#   From: 2010.06.25/outbox.cif.g09.slc.cpg/sg11_9_cif.got.tgz:17949.got - 2010.06.27 23:14:04.
