data_PCOD8075684
_publ_section_title
;
Structure prediction by ZEFSAII (Michael W. Deem and Ramdas Pophale) SiO2 
 PCOD8075684
Probable space group: P 21/M
;
_chemical_formula_sum "Si O2"
_cell_formula_units_Z 32
_cell_length_a 14.386018
_cell_length_b 9.364600
_cell_length_c 14.865087
_cell_angle_alpha 90.000000
_cell_angle_beta 58.136260
_cell_angle_gamma 90.000000
_cell_volume 1700.832122
_symmetry_space_group_name_H-M "P 21/M"
_symmetry_group_IT_number 11
_symmetry_cell_setting 'monoclinic'
loop_
_space_group_symop_operation_xyz
x,y,z
-x,1/2+y,-z
-x,-y,-z
x,1/2-y,z
loop_
_atom_site_type_symbol
_atom_site_label
_atom_site_fract_x
_atom_site_fract_y
_atom_site_fract_z
Si Si1 0.702805 0.083615 0.267613
Si Si2 0.506104 0.410390 0.165754
Si Si3 0.123886 0.419751 0.166800
Si Si4 0.500252 0.085594 0.656335
Si Si5 0.120985 0.919293 0.682214
Si Si6 0.731421 0.913519 0.743023
Si Si7 0.257919 0.584371 0.445375
Si Si8 0.257018 0.910675 0.961622
O O1 0.684380 0.250000 0.295433
O O2 0.800350 0.021376 0.279274
O O3 0.733382 0.051531 0.148725
O O4 0.588859 0.005976 0.353757
O O5 0.506208 0.250000 0.210695
O O6 0.501701 0.535671 0.239898
O O7 0.396757 0.426129 0.161102
O O8 0.621728 0.426958 0.054229
O O9 0.128573 0.250000 0.157091
O O10 0.195021 0.477039 0.214542
O O11 0.001085 0.478984 0.241535
O O12 0.172018 0.482316 0.050177
O O13 0.465729 0.250000 0.667749
O O14 0.626090 0.060871 0.561503
O O15 0.119126 0.750000 0.688657
O O16 0.164587 0.967484 0.562180
O O17 0.764299 0.750000 0.708904
O O18 0.755054 0.995349 0.638765
O O19 0.245144 0.750000 0.425775
O O20 0.212850 0.750000 0.996864
#
# Coordination Sequence:
#
# PCOD8075684 Si02
#       8
#     4   4   4   4   4   4   4   4
#     4   9  18  34  54  72  97 135 166 193 243 304
#     4   8  15  30  50  71  99 132 160 190 242 307
#     4  10  21  35  51  72  98 131 171 209 242 283
#     4   9  16  27  47  77 104 122 154 204 247 286
#     4   9  19  36  53  70  97 134 172 202 238 295
#     4   9  18  33  52  75 102 130 162 201 245 292
#     4   9  18  33  53  75 100 131 163 198 244 295
#     4   9  18  32  50  72  97 127 164 204 247 294
#
# _framework density 18.814319000000001
#
# number of rings (size 3 to 8) (size 9 to 14) (size 15 to 20)
#    0.000    3.000    0.000    1.125    0.000    5.000 
#    0.000    1.875    0.000    0.000    0.000    0.000 
#    0.000    0.000    0.000    0.000    0.000    0.000 
#
# Total GULP energy -396547.949097 kJ/mol
# GULP energy per Si atom -12392.123409 kJ/mol
# Density = 1.877150 g / cm^3
# Si number density = 18.814319 Si / 1000 Ang^3
#
#
#
# Elastic Constant Matrix: (Units=GPa)
#
#
# Indices 1 2 3 4 5 6 
#
# 1 88.7615 17.0397 13.4400 0.0000 -7.7759 0.0000
# 2 17.0397 42.5295 20.1296 0.0000 -5.0769 0.0000
# 3 13.4400 20.1296 62.5730 0.0000 -16.2743 0.0000
# 4 0.0000 0.0000 0.0000 24.2520 0.0000 -3.1383
# 5 -7.7759 -5.0769 -16.2743 0.0000 28.9293 0.0000
# 6 0.0000 0.0000 0.0000 -3.1383 0.0000 19.3059
#
#
#
# Elastic Compliance Matrix: (Units=1/GPa)
#
#
# Indices 1 2 3 4 5 6 
#
# 1 0.012403 -0.004384 -0.000687 0.000000 0.002178 0.000000
# 2 -0.004384 0.029287 -0.008726 0.000000 -0.000948 0.000000
# 3 -0.000687 -0.008726 0.021659 0.000000 0.010468 0.000000
# 4 0.000000 0.000000 0.000000 0.042120 0.000000 0.006847
# 5 0.002178 -0.000948 0.010468 0.000000 0.040875 0.000000
# 6 0.000000 0.000000 0.000000 0.006847 0.000000 0.052911
#
#
# Mechanical properties :
#
#
# Convention : Reuss Voigt Hill
#
# Bulk Modulus (GPa) = 27.96970 32.78697 30.37834
# Shear Modulus (GPa) = 20.94099 24.04774 22.49437
#
# Velocity S-wave (km/s) = 3.33984 3.57902 3.46149
# Velocity P-wave (km/s) = 5.45629 5.87738 5.67075
#
# Compressibility (1/GPa) = 0.03575297
#
# Stress axis : x y z
#
# Youngs Moduli (GPa) = 80.62837 34.14525 46.17067
#
# Poissons Ratio (x) = 0.14969 0.03173
# Poissons Ratio (y) = 0.35347 0.40290
# Poissons Ratio (z) = 0.05541 0.29796
#
# Static dielectric constant tensor:
#      x y z
#    x 3.792700 0.000000 -0.261120 
#    y 0.000000 3.263050 0.000000 
#    z -0.261120 0.000000 3.227940 
# 
# 
# High freq. dielectric constant tensor:
#      x y z
#    x 1.736330 0.000000 -0.013150 
#    y 0.000000 1.711880 0.000000 
#    z -0.013150 0.000000 1.709640 
# 
# From -- ./inp_files/51709.got.cif
#   From: 2010.06.25/outbox.cif.g09.slc.cpg/sg11_26_cif.got.tgz:51709.got - 2010.06.27 23:14:04.
