data_PCOD8075515
_publ_section_title
;
Structure prediction by ZEFSAII (Michael W. Deem and Ramdas Pophale) SiO2 
 PCOD8075515
Probable space group: P 21/M
;
_chemical_formula_sum "Si O2"
_cell_formula_units_Z 32
_cell_length_a 8.908700
_cell_length_b 13.789186
_cell_length_c 14.133234
_cell_angle_alpha 90.000000
_cell_angle_beta 114.793917
_cell_angle_gamma 90.000000
_cell_volume 1576.141556
_symmetry_space_group_name_H-M "P 21/M"
_symmetry_group_IT_number 11
_symmetry_cell_setting 'monoclinic'
loop_
_space_group_symop_operation_xyz
x,y,z
-x,1/2+y,-z
-x,-y,-z
x,1/2-y,z
loop_
_atom_site_type_symbol
_atom_site_label
_atom_site_fract_x
_atom_site_fract_y
_atom_site_fract_z
Si Si1 0.872258 0.039062 0.111507
Si Si2 0.705238 0.463497 0.458870
Si Si3 0.709035 0.979332 0.253454
Si Si4 0.983268 0.141756 0.628216
Si Si5 0.913023 0.141643 0.821613
Si Si6 0.386177 0.137647 0.440927
Si Si7 0.212958 0.361253 0.197884
Si Si8 0.659086 0.461166 0.875488
O O1 0.017253 0.118050 0.143454
O O2 0.792174 0.045298 0.194285
O O3 0.733535 0.061913 0.997769
O O4 0.944448 0.932072 0.106826
O O5 0.679972 0.457397 0.339653
O O6 0.681912 0.573137 0.490537
O O7 0.576416 0.389561 0.472207
O O8 0.890485 0.428589 0.530900
O O9 0.826780 0.889254 0.309481
O O10 0.534977 0.938672 0.169813
O O11 0.981558 0.250000 0.586833
O O12 0.888118 0.135352 0.702787
O O13 0.964353 0.250000 0.866929
O O14 0.738370 0.111819 0.820294
O O15 0.374848 0.250000 0.467526
O O16 0.277017 0.114590 0.319849
O O17 0.246826 0.250000 0.179558
O O18 0.308665 0.427736 0.147429
#
# Coordination Sequence:
#
# PCOD8075515 Si02
#       8
#     4   4   4   4   4   4   4   4
#     4  10  22  38  59  83 118 157 197 238 293 351
#     4  11  21  38  62  84 121 157 197 237 297 354
#     4  11  23  39  57  84 122 158 193 239 296 346
#     4  10  22  39  60  88 120 158 194 239 295 357
#     4   9  19  36  61  87 114 148 195 245 293 342
#     4  10  21  36  61  93 119 147 192 248 298 351
#     4  10  20  39  62  89 117 150 197 245 291 348
#     4  11  21  37  60  87 115 154 199 245 293 345
#
# _framework density 20.302745999999999
#
# number of rings (size 3 to 8) (size 9 to 14) (size 15 to 20)
#    0.000    1.750    1.250    4.875    1.750    3.000 
#    0.000    3.125    0.000    3.750    0.000    0.000 
#    0.000    0.000    0.000    0.000    0.000    0.000 
#
# Total GULP energy -396918.447712 kJ/mol
# GULP energy per Si atom -12403.701491 kJ/mol
# Density = 2.025654 g / cm^3
# Si number density = 20.302746 Si / 1000 Ang^3
#
#
#
# Elastic Constant Matrix: (Units=GPa)
#
#
# Indices 1 2 3 4 5 6 
#
# 1 96.0011 27.5398 36.0736 0.0000 12.9914 0.0000
# 2 27.5398 92.9767 29.4061 0.0000 3.2306 0.0000
# 3 36.0736 29.4061 100.2296 0.0000 19.6923 0.0000
# 4 0.0000 0.0000 0.0000 21.5153 0.0000 0.8677
# 5 12.9914 3.2306 19.6923 0.0000 37.7493 0.0000
# 6 0.0000 0.0000 0.0000 0.8677 0.0000 14.4979
#
#
#
# Elastic Compliance Matrix: (Units=1/GPa)
#
#
# Indices 1 2 3 4 5 6 
#
# 1 0.012756 -0.002637 -0.003342 0.000000 -0.002421 0.000000
# 2 -0.002637 0.012428 -0.002971 0.000000 0.001394 0.000000
# 3 -0.003342 -0.002971 0.013120 0.000000 -0.005440 0.000000
# 4 0.000000 0.000000 0.000000 0.046591 0.000000 -0.002788
# 5 -0.002421 0.001394 -0.005440 0.000000 0.030042 0.000000
# 6 0.000000 0.000000 0.000000 -0.002788 0.000000 0.069143
#
#
# Mechanical properties :
#
#
# Convention : Reuss Voigt Hill
#
# Bulk Modulus (GPa) = 49.00852 52.80518 50.90685
# Shear Modulus (GPa) = 23.94846 27.83168 25.89007
#
# Velocity S-wave (km/s) = 3.43821 3.70649 3.57487
# Velocity P-wave (km/s) = 6.32084 6.66204 6.49368
#
# Compressibility (1/GPa) = 0.02040462
#
# Stress axis : x y z
#
# Youngs Moduli (GPa) = 78.39150 80.46516 76.21849
#
# Poissons Ratio (x) = 0.21222 0.25470
# Poissons Ratio (y) = 0.20676 0.22643
# Poissons Ratio (z) = 0.26196 0.23904
#
# Static dielectric constant tensor:
#      x y z
#    x 3.661430 0.000000 -0.000070 
#    y 0.000000 3.553730 0.000000 
#    z -0.000070 0.000000 3.675040 
# 
# 
# High freq. dielectric constant tensor:
#      x y z
#    x 1.789720 0.000000 0.004040 
#    y 0.000000 1.778590 0.000000 
#    z 0.004040 0.000000 1.800000 
# 
# From -- ./inp_files/47638.got.cif
#   From: 2010.06.25/outbox.cif.g09.slc.cpg/sg11_24_cif.got.tgz:47638.got - 2010.06.27 23:14:04.
