data_PCOD8075304
_publ_section_title
;
Structure prediction by ZEFSAII (Michael W. Deem and Ramdas Pophale) SiO2 
 PCOD8075304
Probable space group: P 21/M
;
_chemical_formula_sum "Si O2"
_cell_formula_units_Z 32
_cell_length_a 16.196303
_cell_length_b 13.953109
_cell_length_c 8.491475
_cell_angle_alpha 90.000000
_cell_angle_beta 123.174142
_cell_angle_gamma 90.000000
_cell_volume 1606.206433
_symmetry_space_group_name_H-M "P 21/M"
_symmetry_group_IT_number 11
_symmetry_cell_setting 'monoclinic'
loop_
_space_group_symop_operation_xyz
x,y,z
-x,1/2+y,-z
-x,-y,-z
x,1/2-y,z
loop_
_atom_site_type_symbol
_atom_site_label
_atom_site_fract_x
_atom_site_fract_y
_atom_site_fract_z
Si Si1 0.835986 0.508224 0.305372
Si Si2 0.574198 0.484782 0.718769
Si Si3 0.694231 0.360124 0.310183
Si Si4 0.724292 0.359552 0.695305
Si Si5 0.498868 0.857412 0.081790
Si Si6 0.014906 0.022566 0.272353
Si Si7 0.668524 0.860867 0.022300
Si Si8 0.952901 0.359398 0.924186
O O1 0.763000 0.420927 0.266676
O O2 0.913520 0.467881 0.260987
O O3 0.776384 0.596787 0.169355
O O4 0.892253 0.545181 0.519512
O O5 0.500000 0.500000 0.500000
O O6 0.666604 0.420516 0.764071
O O7 0.514323 0.433141 0.794343
O O8 0.616660 0.586113 0.821595
O O9 0.730568 0.250000 0.339779
O O10 0.701003 0.398181 0.495781
O O11 0.581980 0.372081 0.138894
O O12 0.689358 0.250000 0.674244
O O13 0.839132 0.370923 0.852395
O O14 0.491530 0.750000 0.143674
O O15 0.604938 0.875124 0.114420
O O16 0.024302 0.915192 0.213371
O O17 0.018413 0.099233 0.134944
O O18 0.678056 0.750000 0.984612
O O19 0.982560 0.250000 0.924947
#
# Coordination Sequence:
#
# PCOD8075304 Si02
#       8
#     4   4   4   4   4   4   4   4
#     4  11  22  40  65  86 122 159 206 258 299 359
#     4  12  24  36  62  90 124 160 197 246 305 360
#     4  10  20  37  65  93 117 150 199 256 308 353
#     4  10  21  38  61  92 121 152 197 251 306 358
#     4  10  22  40  62  90 120 153 201 254 298 354
#     4  10  23  39  60  93 119 156 208 253 301 364
#     4  11  25  43  61  87 125 168 209 246 298 364
#     4  10  21  39  61  86 123 158 193 250 312 360
#
# _framework density 19.922720000000002
#
# number of rings (size 3 to 8) (size 9 to 14) (size 15 to 20)
#    0.000    1.500    2.500    2.250    1.750    3.500 
#    0.000    2.500    0.000    0.000    0.000    0.000 
#    0.000    0.000    0.000    0.000    0.000    0.000 
#
# Total GULP energy -396991.674569 kJ/mol
# GULP energy per Si atom -12405.989830 kJ/mol
# Density = 1.987737 g / cm^3
# Si number density = 19.922720 Si / 1000 Ang^3
#
#
#
# Elastic Constant Matrix: (Units=GPa)
#
#
# Indices 1 2 3 4 5 6 
#
# 1 42.8118 14.7584 4.0020 0.0000 2.7310 0.0000
# 2 14.7584 106.0683 43.8809 0.0000 -4.1033 0.0000
# 3 4.0020 43.8809 118.1771 0.0000 3.2915 0.0000
# 4 0.0000 0.0000 0.0000 26.2013 0.0000 -1.7508
# 5 2.7310 -4.1033 3.2915 0.0000 28.6554 0.0000
# 6 0.0000 0.0000 0.0000 -1.7508 0.0000 28.5381
#
#
#
# Elastic Compliance Matrix: (Units=1/GPa)
#
#
# Indices 1 2 3 4 5 6 
#
# 1 0.024812 -0.003846 0.000671 0.000000 -0.002993 0.000000
# 2 -0.003846 0.011860 -0.004345 0.000000 0.002564 0.000000
# 3 0.000671 -0.004345 0.010104 0.000000 -0.001847 0.000000
# 4 0.000000 0.000000 0.000000 0.038323 0.000000 0.002351
# 5 -0.002993 0.002564 -0.001847 0.000000 0.035762 0.000000
# 6 0.000000 0.000000 0.000000 0.002351 0.000000 0.035185
#
#
# Mechanical properties :
#
#
# Convention : Reuss Voigt Hill
#
# Bulk Modulus (GPa) = 31.50946 43.59331 37.55139
# Shear Modulus (GPa) = 27.52341 30.30667 28.91504
#
# Velocity S-wave (km/s) = 3.72090 3.90450 3.81381
# Velocity P-wave (km/s) = 5.85750 6.50043 6.18732
#
# Compressibility (1/GPa) = 0.03173650
#
# Stress axis : x y z
#
# Youngs Moduli (GPa) = 40.30313 84.31955 98.97183
#
# Poissons Ratio (x) = 0.32427 -0.06642
# Poissons Ratio (y) = 0.15500 0.43002
# Poissons Ratio (z) = -0.02705 0.36635
#
# Static dielectric constant tensor:
#      x y z
#    x 3.577430 0.000000 0.032260 
#    y 0.000000 3.670380 0.000000 
#    z 0.032260 0.000000 3.685710 
# 
# 
# High freq. dielectric constant tensor:
#      x y z
#    x 1.775910 0.000000 0.001380 
#    y 0.000000 1.776820 0.000000 
#    z 0.001380 0.000000 1.784470 
# 
# From -- ./inp_files/22228.got.cif
#   From: 2010.06.25/outbox.cif.g09.slc.cpg/sg11_12_cif.got.tgz:22228.got - 2010.06.27 23:14:04.
