data_PCOD8075612
_publ_section_title
;
Structure prediction by ZEFSAII (Michael W. Deem and Ramdas Pophale) SiO2 
 PCOD8075612
Probable space group: P 21/M
;
_chemical_formula_sum "Si O2"
_cell_formula_units_Z 32
_cell_length_a 11.276262
_cell_length_b 18.663667
_cell_length_c 13.882137
_cell_angle_alpha 90.000000
_cell_angle_beta 147.768006
_cell_angle_gamma 90.000000
_cell_volume 1558.223351
_symmetry_space_group_name_H-M "P 21/M"
_symmetry_group_IT_number 11
_symmetry_cell_setting 'monoclinic'
loop_
_space_group_symop_operation_xyz
x,y,z
-x,1/2+y,-z
-x,-y,-z
x,1/2-y,z
loop_
_atom_site_type_symbol
_atom_site_label
_atom_site_fract_x
_atom_site_fract_y
_atom_site_fract_z
Si Si1 0.825485 0.667393 0.780068
Si Si2 0.922580 0.333125 0.860047
Si Si3 0.529052 0.168870 0.979091
Si Si4 0.410280 0.927401 0.485264
Si Si5 0.785304 0.914697 0.364405
Si Si6 0.970377 0.666604 0.666882
Si Si7 0.385131 0.331439 0.089406
Si Si8 0.767872 0.069127 0.430791
O O1 0.749958 0.750000 0.732740
O O2 0.616185 0.619207 0.666123
O O3 0.904681 0.644703 0.729194
O O4 0.031899 0.654701 0.994876
O O5 0.863793 0.250000 0.797760
O O6 0.720691 0.382803 0.686586
O O7 0.145345 0.358237 0.958797
O O8 0.533923 0.250000 0.942610
O O9 0.436086 0.118466 0.832325
O O10 0.379245 0.162068 0.970573
O O11 0.775961 0.143808 0.176170
O O12 0.250473 0.943925 0.466749
O O13 0.500000 0.000000 0.500000
O O14 0.821352 0.877857 0.491739
O O15 0.988849 0.900803 0.430206
O O16 0.733225 0.997408 0.345600
O O17 0.931714 0.750000 0.619879
O O18 0.424140 0.250000 0.150147
O O19 0.582214 0.375520 0.271644
#
# Coordination Sequence:
#
# PCOD8075612 Si02
#       8
#     4   4   4   4   4   4   4   4
#     4  10  22  41  64  90 124 166 211 262 314 366
#     4  10  22  42  68  93 121 160 207 260 317 369
#     4  10  21  38  64  94 119 158 207 252 309 368
#     4  12  25  42  63  93 128 165 213 261 311 378
#     4  11  23  41  61  90 130 165 205 253 312 380
#     4  10  21  39  62  91 125 161 206 258 308 366
#     4  10  20  40  67  95 123 155 205 263 313 367
#     4  11  24  41  61  93 125 168 208 249 318 374
#
# _framework density 20.536208999999999
#
# number of rings (size 3 to 8) (size 9 to 14) (size 15 to 20)
#    0.000    1.500    2.500    2.250    0.000    4.000 
#    4.500    2.500    0.000    0.000    0.000    0.000 
#    0.000    0.000    0.000    0.000    0.000    0.000 
#
# Total GULP energy -396917.185066 kJ/mol
# GULP energy per Si atom -12403.662033 kJ/mol
# Density = 2.048947 g / cm^3
# Si number density = 20.536209 Si / 1000 Ang^3
#
#
#
# Elastic Constant Matrix: (Units=GPa)
#
#
# Indices 1 2 3 4 5 6 
#
# 1 95.7937 20.0503 5.8708 0.0000 -10.6686 0.0000
# 2 20.0503 77.2991 42.6956 0.0000 0.3164 0.0000
# 3 5.8708 42.6956 76.8589 0.0000 -10.5357 0.0000
# 4 0.0000 0.0000 0.0000 7.3485 0.0000 4.4134
# 5 -10.6686 0.3164 -10.5357 0.0000 25.3446 0.0000
# 6 0.0000 0.0000 0.0000 4.4134 0.0000 28.4838
#
#
#
# Elastic Compliance Matrix: (Units=1/GPa)
#
#
# Indices 1 2 3 4 5 6 
#
# 1 0.011893 -0.004423 0.002378 0.000000 0.006050 0.000000
# 2 -0.004423 0.020880 -0.012250 0.000000 -0.007215 0.000000
# 3 0.002378 -0.012250 0.020988 0.000000 0.009879 0.000000
# 4 0.000000 0.000000 0.000000 0.150044 0.000000 -0.023248
# 5 0.006050 -0.007215 0.009879 0.000000 0.046199 0.000000
# 6 0.000000 0.000000 0.000000 -0.023248 0.000000 0.038710
#
#
# Mechanical properties :
#
#
# Convention : Reuss Voigt Hill
#
# Bulk Modulus (GPa) = 39.72860 43.02056 41.37458
# Shear Modulus (GPa) = 15.35181 24.32440 19.83810
#
# Velocity S-wave (km/s) = 2.73710 3.44534 3.11144
# Velocity P-wave (km/s) = 5.42002 6.06805 5.75317
#
# Compressibility (1/GPa) = 0.02517078
#
# Stress axis : x y z
#
# Youngs Moduli (GPa) = 84.08362 47.89328 47.64553
#
# Poissons Ratio (x) = 0.21183 -0.11330
# Poissons Ratio (y) = 0.37190 0.58366
# Poissons Ratio (z) = -0.19994 0.58669
#
# Static dielectric constant tensor:
#      x y z
#    x 3.926740 0.000000 -0.001680 
#    y 0.000000 3.667930 0.000000 
#    z -0.001680 0.000000 3.571730 
# 
# 
# High freq. dielectric constant tensor:
#      x y z
#    x 1.816130 0.000000 -0.004890 
#    y 0.000000 1.798720 0.000000 
#    z -0.004890 0.000000 1.798720 
# 
# From -- ./inp_files/40000.got.cif
#   From: 2010.06.25/outbox.cif.g09.slc.cpg/sg11_20_cif.got.tgz:40000.got - 2010.06.27 23:14:04.
