data_PCOD8075666
_publ_section_title
;
Structure prediction by ZEFSAII (Michael W. Deem and Ramdas Pophale) SiO2 
 PCOD8075666
Probable space group: P 21/M
;
_chemical_formula_sum "Si O2"
_cell_formula_units_Z 28
_cell_length_a 6.198573
_cell_length_b 20.525227
_cell_length_c 12.300937
_cell_angle_alpha 90.000000
_cell_angle_beta 116.466223
_cell_angle_gamma 90.000000
_cell_volume 1400.995118
_symmetry_space_group_name_H-M "P 21/M"
_symmetry_group_IT_number 11
_symmetry_cell_setting 'monoclinic'
loop_
_space_group_symop_operation_xyz
x,y,z
-x,1/2+y,-z
-x,-y,-z
x,1/2-y,z
loop_
_atom_site_type_symbol
_atom_site_label
_atom_site_fract_x
_atom_site_fract_y
_atom_site_fract_z
Si Si1 0.696827 0.824354 0.095745
Si Si2 0.935125 0.914236 0.508431
Si Si3 0.908443 0.535832 0.745455
Si Si4 0.394759 0.177020 0.673259
Si Si5 0.604478 0.473988 0.411546
Si Si6 0.154633 0.596947 0.182858
Si Si7 0.338452 0.936832 0.993057
O O1 0.655368 0.750000 0.046358
O O2 0.705282 0.827760 0.227568
O O3 0.950772 0.850417 0.106455
O O4 0.484871 0.870396 0.002932
O O5 0.941333 0.931422 0.636654
O O6 0.815549 0.844782 0.457331
O O7 0.214465 0.912865 0.531203
O O8 0.777859 0.968039 0.404093
O O9 0.623232 0.544551 0.716411
O O10 0.954972 0.457516 0.759982
O O11 0.095891 0.569601 0.867945
O O12 0.467454 0.250000 0.658945
O O13 0.628988 0.132921 0.707327
O O14 0.500000 0.500000 0.500000
O O15 0.252121 0.559629 0.098056
O O16 0.500000 0.000000 0.000000
#
# Coordination Sequence:
#
# PCOD8075666 Si02
#       7
#     4   4   4   4   4   4   4
#     4  10  23  40  60  86 121 161 203 248 306 366
#     4  10  21  34  56  84 119 153 188 239 297 356
#     4  11  22  34  57  92 118 150 191 248 308 357
#     4  10  22  39  59  86 118 158 201 246 294 362
#     4   9  20  32  52  82 118 148 182 230 296 348
#     4  11  22  36  63  88 123 153 203 252 313 357
#     4  11  24  38  61  93 123 157 203 260 305 361
#
# _framework density 19.985793999999999
#
# number of rings (size 3 to 8) (size 9 to 14) (size 15 to 20)
#    0.000    1.714    2.857    0.857    8.000    0.571 
#    0.000    0.714    0.000    0.857    0.000    0.000 
#    0.000    0.000    0.000    0.000    0.000    0.000 
#
# Total GULP energy -346983.861374 kJ/mol
# GULP energy per Si atom -12392.280763 kJ/mol
# Density = 1.994031 g / cm^3
# Si number density = 19.985794 Si / 1000 Ang^3
#
#
#
# Elastic Constant Matrix: (Units=GPa)
#
#
# Indices 1 2 3 4 5 6 
#
# 1 114.2991 47.5398 49.7460 0.0000 30.3487 0.0000
# 2 47.5398 128.4382 60.0803 0.0000 12.0322 0.0000
# 3 49.7460 60.0803 101.8313 0.0000 30.3753 0.0000
# 4 0.0000 0.0000 0.0000 30.1824 0.0000 7.8137
# 5 30.3487 12.0322 30.3753 0.0000 41.3343 0.0000
# 6 0.0000 0.0000 0.0000 7.8137 0.0000 28.3475
#
#
#
# Elastic Compliance Matrix: (Units=1/GPa)
#
#
# Indices 1 2 3 4 5 6 
#
# 1 0.012864 -0.002942 -0.002544 0.000000 -0.006719 0.000000
# 2 -0.002942 0.011552 -0.006429 0.000000 0.003522 0.000000
# 3 -0.002544 -0.006429 0.017598 0.000000 -0.009193 0.000000
# 4 0.000000 0.000000 0.000000 0.035678 0.000000 -0.009834
# 5 -0.006719 0.003522 -0.009193 0.000000 0.034857 0.000000
# 6 0.000000 0.000000 0.000000 -0.009834 0.000000 0.037987
#
#
# Mechanical properties :
#
#
# Convention : Reuss Voigt Hill
#
# Bulk Modulus (GPa) = 54.99359 73.25566 64.12463
# Shear Modulus (GPa) = 27.71184 32.45300 30.08242
#
# Velocity S-wave (km/s) = 3.72772 4.03402 3.88389
# Velocity P-wave (km/s) = 6.78999 7.64403 7.22963
#
# Compressibility (1/GPa) = 0.01818394
#
# Stress axis : x y z
#
# Youngs Moduli (GPa) = 77.73672 86.56356 56.82310
#
# Poissons Ratio (x) = 0.25465 0.14458
# Poissons Ratio (y) = 0.22869 0.36533
# Poissons Ratio (z) = 0.19779 0.55653
#
# Static dielectric constant tensor:
#      x y z
#    x 4.200610 0.000000 0.468840 
#    y 0.000000 3.602300 0.000000 
#    z 0.468840 0.000000 3.589290 
# 
# 
# High freq. dielectric constant tensor:
#      x y z
#    x 1.799420 0.000000 0.018650 
#    y 0.000000 1.752250 0.000000 
#    z 0.018650 0.000000 1.760370 
# 
# From -- ./inp_files/5037.got.cif
#   From: 2010.06.25/outbox.cif.g09.slc.cpg/sg11_3_cif.got.tgz:5037.got - 2010.06.27 23:14:04.
