data_PCOD8075836
_publ_section_title
;
Structure prediction by ZEFSAII (Michael W. Deem and Ramdas Pophale) SiO2 
 PCOD8075836
Probable space group: P 21/M
;
_chemical_formula_sum "Si O2"
_cell_formula_units_Z 32
_cell_length_a 12.009707
_cell_length_b 8.896069
_cell_length_c 31.183635
_cell_angle_alpha 90.000000
_cell_angle_beta 150.425616
_cell_angle_gamma 90.000000
_cell_volume 1644.338253
_symmetry_space_group_name_H-M "P 21/M"
_symmetry_group_IT_number 11
_symmetry_cell_setting 'monoclinic'
loop_
_space_group_symop_operation_xyz
x,y,z
-x,1/2+y,-z
-x,-y,-z
x,1/2-y,z
loop_
_atom_site_type_symbol
_atom_site_label
_atom_site_fract_x
_atom_site_fract_y
_atom_site_fract_z
Si Si1 0.454082 0.420670 0.364531
Si Si2 0.648560 0.076442 0.286041
Si Si3 0.351747 0.074784 0.891568
Si Si4 0.198735 0.577917 0.756109
Si Si5 0.309006 0.074549 0.407576
Si Si6 0.027432 0.921273 0.464160
Si Si7 0.289329 0.927525 0.224356
Si Si8 0.166763 0.925730 0.910136
O O1 0.385732 0.250000 0.329167
O O2 0.321190 0.478085 0.361965
O O3 0.715568 0.429491 0.464580
O O4 0.399166 0.526892 0.306326
O O5 0.635399 0.250000 0.295621
O O6 0.648065 0.057800 0.234644
O O7 0.435613 0.990097 0.234049
O O8 0.882080 0.008819 0.380742
O O9 0.305023 0.250000 0.882746
O O10 0.303586 0.029469 0.826903
O O11 0.187086 0.984381 0.868193
O O12 0.610313 0.033735 0.988466
O O13 0.204758 0.750000 0.774442
O O14 0.940172 0.531530 0.659147
O O15 0.357105 0.250000 0.426318
O O16 0.500000 0.000000 0.500000
O O17 0.941495 0.750000 0.438871
O O18 0.000000 0.000000 0.500000
O O19 0.281142 0.750000 0.218379
O O20 0.038880 0.992380 0.135290
O O21 0.117632 0.750000 0.892148
#
# Coordination Sequence:
#
# PCOD8075836 Si02
#       8
#     4   4   4   4   4   4   4   4
#     4  10  21  36  56  81 114 151 188 236 297 352
#     4  11  23  39  57  80 115 158 201 245 295 351
#     4  10  21  38  64  95 120 150 191 234 284 345
#     4  10  22  39  60  84 116 159 198 237 292 351
#     4  10  21  37  56  82 113 149 189 233 284 337
#     4  11  21  34  54  80 111 153 198 243 291 344
#     4  12  24  37  58  87 114 147 194 244 294 347
#     4  10  21  39  63  90 123 153 183 233 292 348
#
# _framework density 19.460715
#
# number of rings (size 3 to 8) (size 9 to 14) (size 15 to 20)
#    0.000    1.500    1.250    4.125    0.000    5.000 
#    0.000    0.625    0.000    0.000    0.000    0.000 
#    0.000    0.000    0.000    0.000    0.000    0.000 
#
# Total GULP energy -396958.638211 kJ/mol
# GULP energy per Si atom -12404.957444 kJ/mol
# Density = 1.941642 g / cm^3
# Si number density = 19.460715 Si / 1000 Ang^3
#
#
#
# Elastic Constant Matrix: (Units=GPa)
#
#
# Indices 1 2 3 4 5 6 
#
# 1 120.9041 51.3233 42.4227 0.0000 9.5562 0.0000
# 2 51.3233 114.8585 42.7173 0.0000 3.3198 0.0000
# 3 42.4227 42.7173 87.3602 0.0000 2.5264 0.0000
# 4 0.0000 0.0000 0.0000 35.7988 0.0000 -0.5188
# 5 9.5562 3.3198 2.5264 0.0000 31.3692 0.0000
# 6 0.0000 0.0000 0.0000 -0.5188 0.0000 29.0014
#
#
#
# Elastic Compliance Matrix: (Units=1/GPa)
#
#
# Indices 1 2 3 4 5 6 
#
# 1 0.011302 -0.003616 -0.003640 0.000000 -0.002767 0.000000
# 2 -0.003616 0.011815 -0.004026 0.000000 0.000176 0.000000
# 3 -0.003640 -0.004026 0.015174 0.000000 0.000313 0.000000
# 4 0.000000 0.000000 0.000000 0.027941 0.000000 0.000500
# 5 -0.002767 0.000176 0.000313 0.000000 0.032678 0.000000
# 6 0.000000 0.000000 0.000000 0.000500 0.000000 0.034490
#
#
# Mechanical properties :
#
#
# Convention : Reuss Voigt Hill
#
# Bulk Modulus (GPa) = 63.58956 66.22770 64.90863
# Shear Modulus (GPa) = 31.01617 31.67785 31.34701
#
# Velocity S-wave (km/s) = 3.99655 4.03896 4.01781
# Velocity P-wave (km/s) = 7.35142 7.47371 7.41282
#
# Compressibility (1/GPa) = 0.01572585
#
# Stress axis : x y z
#
# Youngs Moduli (GPa) = 88.47911 84.64111 65.90218
#
# Poissons Ratio (x) = 0.30610 0.23988
# Poissons Ratio (y) = 0.31998 0.26532
# Poissons Ratio (z) = 0.32206 0.34076
#
# Static dielectric constant tensor:
#      x y z
#    x 3.628360 0.000000 0.210800 
#    y 0.000000 3.204660 0.000000 
#    z 0.210800 0.000000 3.536910 
# 
# 
# High freq. dielectric constant tensor:
#      x y z
#    x 1.763200 0.000000 0.009060 
#    y 0.000000 1.764010 0.000000 
#    z 0.009060 0.000000 1.752940 
# 
# From -- ./inp_files/73140.got.cif
#   From: 2010.06.25/outbox.cif.g09.slc.cpg/sg11_37_cif.got.tgz:73140.got - 2010.06.27 23:14:04.
