data_PCOD8075414
_publ_section_title
;
Structure prediction by ZEFSAII (Michael W. Deem and Ramdas Pophale) SiO2 
 PCOD8075414
Probable space group: P 21/M
;
_chemical_formula_sum "Si O2"
_cell_formula_units_Z 32
_cell_length_a 28.946691
_cell_length_b 8.958098
_cell_length_c 12.012292
_cell_angle_alpha 90.000000
_cell_angle_beta 32.160994
_cell_angle_gamma 90.000000
_cell_volume 1658.048177
_symmetry_space_group_name_H-M "P 21/M"
_symmetry_group_IT_number 11
_symmetry_cell_setting 'monoclinic'
loop_
_space_group_symop_operation_xyz
x,y,z
-x,1/2+y,-z
-x,-y,-z
x,1/2-y,z
loop_
_atom_site_type_symbol
_atom_site_label
_atom_site_fract_x
_atom_site_fract_y
_atom_site_fract_z
Si Si1 0.590879 0.075764 0.313032
Si Si2 0.156512 0.572629 0.902681
Si Si3 0.835614 0.916673 0.564913
Si Si4 0.655607 0.073329 0.413360
Si Si5 0.001339 0.073237 0.618540
Si Si6 0.088293 0.416353 0.833489
Si Si7 0.493596 0.428384 0.892147
Si Si8 0.342329 0.924809 0.061506
O O1 0.575118 0.250000 0.354576
O O2 0.643732 0.016905 0.311509
O O3 0.500000 0.000000 0.500000
O O4 0.640074 0.030949 0.101389
O O5 0.153705 0.750000 0.900498
O O6 0.250624 0.510059 0.745167
O O7 0.146132 0.506926 0.801624
O O8 0.082304 0.517355 0.140134
O O9 0.805819 0.750000 0.662745
O O10 0.911549 0.974533 0.492784
O O11 0.867725 0.909277 0.374669
O O12 0.757351 0.032618 0.720424
O O13 0.656262 0.250000 0.419637
O O14 0.577224 0.014482 0.651401
O O15 0.997380 0.250000 0.611904
O O16 0.000000 0.000000 0.500000
O O17 0.072064 0.250000 0.912729
O O18 0.000000 0.500000 0.000000
O O19 0.490814 0.250000 0.907141
O O20 0.500000 0.500000 0.000000
O O21 0.405343 0.483300 0.013893
O O22 0.355626 0.750000 0.058689
#
# Coordination Sequence:
#
# PCOD8075414 Si02
#       8
#     4   4   4   4   4   4   4   4
#     4  10  20  38  62  88 117 153 200 247 295 355
#     4  10  21  40  63  88 120 157 198 249 298 350
#     4  10  23  42  60  86 123 162 199 246 304 357
#     4   9  20  38  62  87 116 157 196 237 300 354
#     4  10  22  40  61  86 122 160 198 243 300 356
#     4  11  22  40  64  89 118 155 200 248 301 355
#     4  11  23  41  62  87 124 162 199 247 302 361
#     4  11  24  39  62  93 119 156 206 251 300 359
#
# _framework density 19.299800999999999
#
# number of rings (size 3 to 8) (size 9 to 14) (size 15 to 20)
#    0.000    1.750    2.500    1.125    3.500    2.500 
#    0.000    1.250    0.000    0.000    0.000    0.000 
#    0.000    0.000    0.000    0.000    0.000    0.000 
#
# Total GULP energy -396763.434368 kJ/mol
# GULP energy per Si atom -12398.857324 kJ/mol
# Density = 1.925587 g / cm^3
# Si number density = 19.299801 Si / 1000 Ang^3
#
#
#
# Elastic Constant Matrix: (Units=GPa)
#
#
# Indices 1 2 3 4 5 6 
#
# 1 183.3583 41.2124 67.3949 0.0000 -6.2028 0.0000
# 2 41.2124 48.4135 36.5146 0.0000 0.9522 0.0000
# 3 67.3949 36.5146 107.3267 0.0000 -12.6643 0.0000
# 4 0.0000 0.0000 0.0000 26.3144 0.0000 4.7837
# 5 -6.2028 0.9522 -12.6643 0.0000 41.0096 0.0000
# 6 0.0000 0.0000 0.0000 4.7837 0.0000 29.7719
#
#
#
# Elastic Compliance Matrix: (Units=1/GPa)
#
#
# Indices 1 2 3 4 5 6 
#
# 1 0.007591 -0.003883 -0.003425 0.000000 0.000181 0.000000
# 2 -0.003883 0.030323 -0.008334 0.000000 -0.003865 0.000000
# 3 -0.003425 -0.008334 0.014804 0.000000 0.004247 0.000000
# 4 0.000000 0.000000 0.000000 0.039145 0.000000 -0.006290
# 5 0.000181 -0.003865 0.004247 0.000000 0.025813 0.000000
# 6 0.000000 0.000000 0.000000 -0.006290 0.000000 0.034599
#
#
# Mechanical properties :
#
#
# Convention : Reuss Voigt Hill
#
# Bulk Modulus (GPa) = 46.65243 69.92692 58.28968
# Shear Modulus (GPa) = 26.21855 32.35095 29.28475
#
# Velocity S-wave (km/s) = 3.68977 4.09862 3.89956
# Velocity P-wave (km/s) = 6.50980 7.66217 7.10937
#
# Compressibility (1/GPa) = 0.02143511
#
# Stress axis : x y z
#
# Youngs Moduli (GPa) = 131.72821 32.97871 67.54742
#
# Poissons Ratio (x) = 0.12805 0.23132
# Poissons Ratio (y) = 0.51149 0.56295
# Poissons Ratio (z) = 0.45111 0.27485
#
# Static dielectric constant tensor:
#      x y z
#    x 3.791000 0.000000 -0.024420 
#    y 0.000000 3.487030 0.000000 
#    z -0.024420 0.000000 3.582500 
# 
# 
# High freq. dielectric constant tensor:
#      x y z
#    x 1.769680 0.000000 0.000270 
#    y 0.000000 1.739100 0.000000 
#    z 0.000270 0.000000 1.758200 
# 
# From -- ./inp_files/38212.got.cif
#   From: 2010.06.25/outbox.cif.g09.slc.cpg/sg11_20_cif.got.tgz:38212.got - 2010.06.27 23:14:04.
