data_PCOD8075075
_publ_section_title
;
Structure prediction by ZEFSAII (Michael W. Deem and Ramdas Pophale) SiO2 
 PCOD8075075
Probable space group: P 21/M
;
_chemical_formula_sum "Si O2"
_cell_formula_units_Z 28
_cell_length_a 26.719950
_cell_length_b 9.285818
_cell_length_c 9.163271
_cell_angle_alpha 90.000000
_cell_angle_beta 38.654670
_cell_angle_gamma 90.000000
_cell_volume 1420.122191
_symmetry_space_group_name_H-M "P 21/M"
_symmetry_group_IT_number 11
_symmetry_cell_setting 'monoclinic'
loop_
_space_group_symop_operation_xyz
x,y,z
-x,1/2+y,-z
-x,-y,-z
x,1/2-y,z
loop_
_atom_site_type_symbol
_atom_site_label
_atom_site_fract_x
_atom_site_fract_y
_atom_site_fract_z
Si Si1 0.834844 0.414989 0.711047
Si Si2 0.117781 0.582337 0.071723
Si Si3 0.008499 0.582725 0.828242
Si Si4 0.465710 0.089422 0.707695
Si Si5 0.562347 0.089764 0.769787
Si Si6 0.734520 0.082018 0.470882
Si Si7 0.288280 0.078946 0.186684
O O1 0.804875 0.250000 0.788160
O O2 0.869043 0.462467 0.790338
O O3 0.759919 0.516798 0.842149
O O4 0.901252 0.432784 0.434470
O O5 0.093862 0.750000 0.112721
O O6 0.047368 0.485286 0.168238
O O7 0.197332 0.547060 0.800360
O O8 0.986013 0.750000 0.903010
O O9 0.000000 0.500000 0.000000
O O10 0.449456 0.250000 0.688105
O O11 0.537291 0.085073 0.659722
O O12 0.500000 0.000000 0.500000
O O13 0.381363 0.029987 0.962504
O O14 0.558171 0.250000 0.843100
O O15 0.652090 0.030527 0.582764
O O16 0.500000 0.000000 0.000000
O O17 0.734288 0.250000 0.514001
O O18 0.749227 0.990193 0.582616
O O19 0.278477 0.250000 0.216899
#
# Coordination Sequence:
#
# PCOD8075075 Si02
#       7
#     4   4   4   4   4   4   4
#     4  10  23  41  62  87 119 157 195 235 287 352
#     4  10  22  40  62  89 118 151 194 242 289 343
#     4  11  23  40  63  91 120 155 196 236 286 346
#     4  10  23  39  57  84 117 153 196 243 291 346
#     4  10  20  37  59  84 114 151 195 242 290 343
#     4  10  21  37  60  86 113 152 197 238 290 352
#     4  11  23  39  58  86 120 153 194 244 291 340
#
# _framework density 19.716614
#
# number of rings (size 3 to 8) (size 9 to 14) (size 15 to 20)
#    0.000    1.714    1.429    2.143    2.000    7.429 
#    0.000    0.000    0.000    0.000    0.000    0.000 
#    0.000    0.000    0.000    0.000    0.000    0.000 
#
# Total GULP energy -347265.216359 kJ/mol
# GULP energy per Si atom -12402.329156 kJ/mol
# Density = 1.967174 g / cm^3
# Si number density = 19.716614 Si / 1000 Ang^3
#
#
#
# Elastic Constant Matrix: (Units=GPa)
#
#
# Indices 1 2 3 4 5 6 
#
# 1 115.9242 47.0247 22.2966 0.0000 0.6826 0.0000
# 2 47.0247 77.4540 35.6580 0.0000 4.9800 0.0000
# 3 22.2966 35.6580 74.9112 0.0000 12.6364 0.0000
# 4 0.0000 0.0000 0.0000 31.2877 0.0000 0.9290
# 5 0.6826 4.9800 12.6364 0.0000 37.3285 0.0000
# 6 0.0000 0.0000 0.0000 0.9290 0.0000 38.2425
#
#
#
# Elastic Compliance Matrix: (Units=1/GPa)
#
#
# Indices 1 2 3 4 5 6 
#
# 1 0.011468 -0.006891 -0.000269 0.000000 0.000800 0.000000
# 2 -0.006891 0.020683 -0.007795 0.000000 0.000005 0.000000
# 3 -0.000269 -0.007795 0.017991 0.000000 -0.005045 0.000000
# 4 0.000000 0.000000 0.000000 0.031984 0.000000 -0.000777
# 5 0.000800 0.000005 -0.005045 0.000000 0.028482 0.000000
# 6 0.000000 0.000000 0.000000 -0.000777 0.000000 0.026168
#
#
# Mechanical properties :
#
#
# Convention : Reuss Voigt Hill
#
# Bulk Modulus (GPa) = 49.42346 53.13867 51.28106
# Shear Modulus (GPa) = 28.83028 32.25910 30.54469
#
# Velocity S-wave (km/s) = 3.82806 4.04931 3.94024
# Velocity P-wave (km/s) = 6.68282 6.99087 6.83858
#
# Compressibility (1/GPa) = 0.02023331
#
# Stress axis : x y z
#
# Youngs Moduli (GPa) = 87.19556 48.34947 55.58459
#
# Poissons Ratio (x) = 0.33316 0.01492
# Poissons Ratio (y) = 0.60084 0.43328
# Poissons Ratio (z) = 0.02341 0.37689
#
# Static dielectric constant tensor:
#      x y z
#    x 3.657270 0.000000 -0.013450 
#    y 0.000000 3.482160 0.000000 
#    z -0.013450 0.000000 3.496090 
# 
# 
# High freq. dielectric constant tensor:
#      x y z
#    x 1.782130 0.000000 -0.003310 
#    y 0.000000 1.765050 0.000000 
#    z -0.003310 0.000000 1.771870 
# 
# From -- ./inp_files/28459.got.cif
#   From: 2010.06.25/outbox.cif.g09.slc.cpg/sg11_15_cif.got.tgz:28459.got - 2010.06.27 23:14:04.
