data_PCOD8075351
_publ_section_title
;
Structure prediction by ZEFSAII (Michael W. Deem and Ramdas Pophale) SiO2 
 PCOD8075351
Probable space group: P 21/M
;
_chemical_formula_sum "Si O2"
_cell_formula_units_Z 24
_cell_length_a 12.442427
_cell_length_b 8.884384
_cell_length_c 23.776160
_cell_angle_alpha 90.000000
_cell_angle_beta 29.630374
_cell_angle_gamma 90.000000
_cell_volume 1299.436333
_symmetry_space_group_name_H-M "P 21/M"
_symmetry_group_IT_number 11
_symmetry_cell_setting 'monoclinic'
loop_
_space_group_symop_operation_xyz
x,y,z
-x,1/2+y,-z
-x,-y,-z
x,1/2-y,z
loop_
_atom_site_type_symbol
_atom_site_label
_atom_site_fract_x
_atom_site_fract_y
_atom_site_fract_z
Si Si1 0.731967 0.426402 0.884488
Si Si2 0.369656 0.928415 0.875768
Si Si3 0.868769 0.074822 0.509335
Si Si4 0.801955 0.924668 0.738841
Si Si5 0.413074 0.571462 0.729553
Si Si6 0.999137 0.073116 0.872783
O O1 0.694978 0.250000 0.897787
O O2 0.844422 0.485521 0.776738
O O3 0.891786 0.468934 0.862480
O O4 0.500000 0.500000 0.000000
O O5 0.382431 0.750000 0.870164
O O6 0.586336 0.990993 0.807075
O O7 0.360174 0.988631 0.816410
O O8 0.158670 0.984562 0.005460
O O9 0.843029 0.250000 0.535038
O O10 0.993767 0.049232 0.394251
O O11 0.636580 0.998905 0.606684
O O12 0.000000 0.000000 0.500000
O O13 0.769034 0.750000 0.768623
O O14 0.433904 0.750000 0.718323
O O15 0.223879 0.516629 0.774264
O O16 0.044640 0.250000 0.857458
#
# Coordination Sequence:
#
# PCOD8075351 Si02
#       6
#     4   4   4   4   4   4
#     4  11  22  37  60  87 117 153 195 240 286 345
#     4   9  17  34  57  83 118 151 181 232 293 342
#     4  11  22  38  61  86 117 155 193 238 290 344
#     4  10  20  38  60  85 117 150 190 241 291 337
#     4  11  22  37  58  86 119 153 194 238 287 348
#     4  10  21  38  57  81 118 156 189 233 290 345
#
# _framework density 18.469546999999999
#
# number of rings (size 3 to 8) (size 9 to 14) (size 15 to 20)
#    0.000    1.667    3.333    2.000    0.000    2.667 
#    0.000    1.667    0.000    0.000    0.000    0.000 
#    0.000    0.000    0.000    0.000    0.000    0.000 
#
# Total GULP energy -297695.112605 kJ/mol
# GULP energy per Si atom -12403.963025 kJ/mol
# Density = 1.842751 g / cm^3
# Si number density = 18.469547 Si / 1000 Ang^3
#
#
#
# Elastic Constant Matrix: (Units=GPa)
#
#
# Indices 1 2 3 4 5 6 
#
# 1 132.4007 61.0263 73.7360 0.0000 -4.8772 0.0000
# 2 61.0263 76.9302 55.3474 0.0000 -4.8476 0.0000
# 3 73.7360 55.3474 125.9621 0.0000 -17.8664 0.0000
# 4 0.0000 0.0000 0.0000 31.4509 0.0000 -0.8800
# 5 -4.8772 -4.8476 -17.8664 0.0000 33.7250 0.0000
# 6 0.0000 0.0000 0.0000 -0.8800 0.0000 32.9741
#
#
#
# Elastic Compliance Matrix: (Units=1/GPa)
#
#
# Indices 1 2 3 4 5 6 
#
# 1 0.013669 -0.007338 -0.005024 0.000000 -0.001740 0.000000
# 2 -0.007338 0.023052 -0.005962 0.000000 -0.000906 0.000000
# 3 -0.005024 -0.005962 0.014353 0.000000 0.006020 0.000000
# 4 0.000000 0.000000 0.000000 0.031819 0.000000 0.000849
# 5 -0.001740 -0.000906 0.006020 0.000000 0.032459 0.000000
# 6 0.000000 0.000000 0.000000 0.000849 0.000000 0.030350
#
#
# Mechanical properties :
#
#
# Convention : Reuss Voigt Hill
#
# Bulk Modulus (GPa) = 69.31742 79.50136 74.40939
# Shear Modulus (GPa) = 26.71513 29.30888 28.01201
#
# Velocity S-wave (km/s) = 3.80734 3.98788 3.89866
# Velocity P-wave (km/s) = 7.54585 8.02136 7.78724
#
# Compressibility (1/GPa) = 0.01442639
#
# Stress axis : x y z
#
# Youngs Moduli (GPa) = 73.15795 43.37970 69.67017
#
# Poissons Ratio (x) = 0.31834 0.35002
# Poissons Ratio (y) = 0.53686 0.41536
# Poissons Ratio (z) = 0.36754 0.25862
#
# Static dielectric constant tensor:
#      x y z
#    x 3.444450 0.000000 0.176940 
#    y 0.000000 3.310700 0.000000 
#    z 0.176940 0.000000 3.044070 
# 
# 
# High freq. dielectric constant tensor:
#      x y z
#    x 1.718170 0.000000 0.000530 
#    y 0.000000 1.707600 0.000000 
#    z 0.000530 0.000000 1.720340 
# 
# From -- ./inp_files/33692.got.cif
#   From: 2010.06.25/outbox.cif.g09.slc.cpg/sg11_17_cif.got.tgz:33692.got - 2010.06.27 23:14:04.
