data_PCOD8075764
_publ_section_title
;
Structure prediction by ZEFSAII (Michael W. Deem and Ramdas Pophale) SiO2 
 PCOD8075764
Probable space group: P 21/M
;
_chemical_formula_sum "Si O2"
_cell_formula_units_Z 28
_cell_length_a 9.632065
_cell_length_b 9.107721
_cell_length_c 26.914559
_cell_angle_alpha 90.000000
_cell_angle_beta 141.227965
_cell_angle_gamma 90.000000
_cell_volume 1478.582810
_symmetry_space_group_name_H-M "P 21/M"
_symmetry_group_IT_number 11
_symmetry_cell_setting 'monoclinic'
loop_
_space_group_symop_operation_xyz
x,y,z
-x,1/2+y,-z
-x,-y,-z
x,1/2-y,z
loop_
_atom_site_type_symbol
_atom_site_label
_atom_site_fract_x
_atom_site_fract_y
_atom_site_fract_z
Si Si1 0.298994 0.925424 0.915810
Si Si2 0.780825 0.576976 0.209221
Si Si3 0.944807 0.582130 0.433971
Si Si4 0.584782 0.415410 0.476486
Si Si5 0.271664 0.588264 0.326687
Si Si6 0.417967 0.424100 0.742797
Si Si7 0.868914 0.415679 0.824174
O O1 0.317686 0.750000 0.921946
O O2 0.306342 0.983341 0.861553
O O3 0.075253 0.973581 0.882406
O O4 0.500000 0.000000 0.000000
O O5 0.739651 0.750000 0.186857
O O6 0.657247 0.519032 0.224036
O O7 0.041482 0.546090 0.289381
O O8 0.895772 0.750000 0.434969
O O9 0.152418 0.569990 0.454870
O O10 0.000000 0.500000 0.500000
O O11 0.737486 0.513175 0.345252
O O12 0.500000 0.500000 0.500000
O O13 0.508524 0.250000 0.461551
O O14 0.465994 0.476643 0.394164
O O15 0.344233 0.750000 0.364915
O O16 0.245717 0.585338 0.260934
O O17 0.389741 0.250000 0.733656
O O18 0.675650 0.469919 0.807796
O O19 0.949875 0.250000 0.860039
#
# Coordination Sequence:
#
# PCOD8075764 Si02
#       7
#     4   4   4   4   4   4   4
#     4  11  22  38  60  85 112 140 172 212 256 311
#     4   9  18  35  58  82 108 142 179 218 265 317
#     4  10  21  36  52  74 104 143 186 228 272 317
#     4  11  22  33  48  71 101 136 180 229 275 319
#     4   9  17  31  51  73 103 140 179 220 264 315
#     4   9  17  33  57  79 105 141 181 221 266 320
#     4   9  18  34  57  82 105 136 174 212 258 315
#
# _framework density 18.937052000000001
#
# number of rings (size 3 to 8) (size 9 to 14) (size 15 to 20)
#    0.000    2.286    0.000    4.286    0.000    6.857 
#    0.000    2.857    0.000    0.000    0.000    0.000 
#    0.000    0.000    0.000    0.000    0.000    0.000 
#
# Total GULP energy -347133.286328 kJ/mol
# GULP energy per Si atom -12397.617369 kJ/mol
# Density = 1.889395 g / cm^3
# Si number density = 18.937052 Si / 1000 Ang^3
#
#
#
# Elastic Constant Matrix: (Units=GPa)
#
#
# Indices 1 2 3 4 5 6 
#
# 1 111.7863 30.5068 32.2561 0.0000 7.6642 0.0000
# 2 30.5068 95.8030 49.8419 0.0000 3.0167 0.0000
# 3 32.2561 49.8419 96.9925 0.0000 9.8665 0.0000
# 4 0.0000 0.0000 0.0000 32.0003 0.0000 -0.3715
# 5 7.6642 3.0167 9.8665 0.0000 18.1486 0.0000
# 6 0.0000 0.0000 0.0000 -0.3715 0.0000 25.5003
#
#
#
# Elastic Compliance Matrix: (Units=1/GPa)
#
#
# Indices 1 2 3 4 5 6 
#
# 1 0.010315 -0.002132 -0.002041 0.000000 -0.002892 0.000000
# 2 -0.002132 0.014738 -0.007099 0.000000 0.002310 0.000000
# 3 -0.002041 -0.007099 0.015274 0.000000 -0.006262 0.000000
# 4 0.000000 0.000000 0.000000 0.031255 0.000000 0.000455
# 5 -0.002892 0.002310 -0.006262 0.000000 0.059342 0.000000
# 6 0.000000 0.000000 0.000000 0.000455 0.000000 0.039222
#
#
# Mechanical properties :
#
#
# Convention : Reuss Voigt Hill
#
# Bulk Modulus (GPa) = 56.23464 58.86571 57.55017
# Shear Modulus (GPa) = 25.17422 27.92832 26.55127
#
# Velocity S-wave (km/s) = 3.65000 3.84448 3.74850
# Velocity P-wave (km/s) = 6.89372 7.13155 7.01364
#
# Compressibility (1/GPa) = 0.01778263
#
# Stress axis : x y z
#
# Youngs Moduli (GPa) = 96.95089 67.85356 65.47155
#
# Poissons Ratio (x) = 0.14465 0.13360
# Poissons Ratio (y) = 0.20668 0.46480
# Poissons Ratio (z) = 0.19783 0.48171
#
# Static dielectric constant tensor:
#      x y z
#    x 3.861600 0.000000 0.176870 
#    y 0.000000 3.465550 0.000000 
#    z 0.176870 0.000000 3.484480 
# 
# 
# High freq. dielectric constant tensor:
#      x y z
#    x 1.745520 0.000000 0.007560 
#    y 0.000000 1.713970 0.000000 
#    z 0.007560 0.000000 1.726420 
# 
# From -- ./inp_files/70905.got.cif
#   From: 2010.06.25/outbox.cif.g09.slc.cpg/sg11_36_cif.got.tgz:70905.got - 2010.06.27 23:14:04.
