data_PCOD8075899
_publ_section_title
;
Structure prediction by ZEFSAII (Michael W. Deem and Ramdas Pophale) SiO2 
 PCOD8075899
Probable space group: P 21/M
;
_chemical_formula_sum "Si O2"
_cell_formula_units_Z 28
_cell_length_a 15.498750
_cell_length_b 8.769271
_cell_length_c 21.006081
_cell_angle_alpha 90.000000
_cell_angle_beta 151.277676
_cell_angle_gamma 90.000000
_cell_volume 1372.010824
_symmetry_space_group_name_H-M "P 21/M"
_symmetry_group_IT_number 11
_symmetry_cell_setting 'monoclinic'
loop_
_space_group_symop_operation_xyz
x,y,z
-x,1/2+y,-z
-x,-y,-z
x,1/2-y,z
loop_
_atom_site_type_symbol
_atom_site_label
_atom_site_fract_x
_atom_site_fract_y
_atom_site_fract_z
Si Si1 0.601157 0.075833 0.481303
Si Si2 0.068235 0.922836 0.607080
Si Si3 0.220455 0.073669 0.291915
Si Si4 0.305617 0.420383 0.581168
Si Si5 0.927608 0.930158 0.018826
Si Si6 0.449962 0.568498 0.899841
Si Si7 0.408781 0.926913 0.132143
O O1 0.644141 0.250000 0.525627
O O2 0.397383 0.035138 0.366233
O O3 0.741366 0.970215 0.610228
O O4 0.620806 0.045305 0.419630
O O5 0.109672 0.750000 0.615625
O O6 0.249791 0.993295 0.753925
O O7 0.908826 0.937718 0.555029
O O8 0.000000 0.000000 0.500000
O O9 0.164077 0.250000 0.250782
O O10 0.062730 0.968986 0.163294
O O11 0.357390 0.250000 0.591249
O O12 0.396718 0.449176 0.708869
O O13 0.908921 0.750000 0.997947
O O14 0.735897 0.999102 0.913964
O O15 0.000000 0.000000 0.000000
O O16 0.461225 0.750000 0.911046
O O17 0.586151 0.509256 0.933264
O O18 0.500000 0.500000 0.000000
O O19 0.361190 0.750000 0.090692
#
# Coordination Sequence:
#
# PCOD8075899 Si02
#       7
#     4   4   4   4   4   4   4
#     4  10  21  36  58  88 119 156 201 252 306 363
#     4  10  21  39  63  90 119 157 202 253 308 364
#     4  10  21  39  60  83 118 160 203 252 307 364
#     4  10  21  37  60  89 120 156 203 254 308 370
#     4  12  25  41  62  90 125 163 208 256 310 375
#     4  11  24  42  65  93 130 172 216 268 325 386
#     4  11  23  41  65  91 124 165 209 261 320 382
#
# _framework density 20.408003999999998
#
# number of rings (size 3 to 8) (size 9 to 14) (size 15 to 20)
#    0.000    1.429    1.429    3.857    0.000    7.429 
#    0.000    4.286    0.000    0.000    0.000    0.000 
#    0.000    0.000    0.000    0.000    0.000    0.000 
#
# Total GULP energy -347281.177907 kJ/mol
# GULP energy per Si atom -12402.899211 kJ/mol
# Density = 2.036155 g / cm^3
# Si number density = 20.408004 Si / 1000 Ang^3
#
#
#
# Elastic Constant Matrix: (Units=GPa)
#
#
# Indices 1 2 3 4 5 6 
#
# 1 117.5429 44.4344 42.0474 0.0000 -6.8548 0.0000
# 2 44.4344 98.7591 42.6147 0.0000 1.3359 0.0000
# 3 42.0474 42.6147 109.6741 0.0000 -1.9233 0.0000
# 4 0.0000 0.0000 0.0000 33.3339 0.0000 -4.9292
# 5 -6.8548 1.3359 -1.9233 0.0000 29.8198 0.0000
# 6 0.0000 0.0000 0.0000 -4.9292 0.0000 38.3718
#
#
#
# Elastic Compliance Matrix: (Units=1/GPa)
#
#
# Indices 1 2 3 4 5 6 
#
# 1 0.011080 -0.003852 -0.002707 0.000000 0.002545 0.000000
# 2 -0.003852 0.013526 -0.003809 0.000000 -0.001737 0.000000
# 3 -0.002707 -0.003809 0.011641 0.000000 0.000299 0.000000
# 4 0.000000 0.000000 0.000000 0.030580 0.000000 0.003928
# 5 0.002545 -0.001737 0.000299 0.000000 0.034217 0.000000
# 6 0.000000 0.000000 0.000000 0.003928 0.000000 0.026565
#
#
# Mechanical properties :
#
#
# Convention : Reuss Voigt Hill
#
# Bulk Modulus (GPa) = 64.46828 64.90766 64.68797
# Shear Modulus (GPa) = 32.56986 33.43041 33.00013
#
# Velocity S-wave (km/s) = 3.99925 4.05174 4.02558
# Velocity P-wave (km/s) = 7.27898 7.33231 7.30570
#
# Compressibility (1/GPa) = 0.01551151
#
# Stress axis : x y z
#
# Youngs Moduli (GPa) = 90.25037 73.93225 85.90301
#
# Poissons Ratio (x) = 0.28477 0.23252
# Poissons Ratio (y) = 0.34763 0.32723
# Poissons Ratio (z) = 0.24428 0.28163
#
# Static dielectric constant tensor:
#      x y z
#    x 4.036970 0.000000 0.529380 
#    y 0.000000 3.721870 0.000000 
#    z 0.529380 0.000000 4.320820 
# 
# 
# High freq. dielectric constant tensor:
#      x y z
#    x 1.796080 0.000000 0.000100 
#    y 0.000000 1.802920 0.000000 
#    z 0.000100 0.000000 1.802310 
# 
# From -- ./inp_files/65462.got.cif
#   From: 2010.06.25/outbox.cif.g09.slc.cpg/sg11_33_cif.got.tgz:65462.got - 2010.06.27 23:14:04.
