data_PCOD8075175
_publ_section_title
;
Structure prediction by ZEFSAII (Michael W. Deem and Ramdas Pophale) SiO2 
 PCOD8075175
Probable space group: P 21/M
;
_chemical_formula_sum "Si O2"
_cell_formula_units_Z 32
_cell_length_a 25.742351
_cell_length_b 9.202663
_cell_length_c 19.909274
_cell_angle_alpha 90.000000
_cell_angle_beta 21.149139
_cell_angle_gamma 90.000000
_cell_volume 1701.687625
_symmetry_space_group_name_H-M "P 21/M"
_symmetry_group_IT_number 11
_symmetry_cell_setting 'monoclinic'
loop_
_space_group_symop_operation_xyz
x,y,z
-x,1/2+y,-z
-x,-y,-z
x,1/2-y,z
loop_
_atom_site_type_symbol
_atom_site_label
_atom_site_fract_x
_atom_site_fract_y
_atom_site_fract_z
Si Si1 0.849128 0.078021 0.686909
Si Si2 0.413209 0.081958 0.746192
Si Si3 0.185448 0.421837 0.909808
Si Si4 0.327071 0.582999 0.372726
Si Si5 0.111549 0.080118 0.726958
Si Si6 0.705473 0.580977 0.366067
Si Si7 0.354574 0.583452 0.187314
Si Si8 0.351809 0.417411 0.971871
O O1 0.870421 0.250000 0.667236
O O2 0.764513 0.031833 0.721864
O O3 0.000000 0.000000 0.500000
O O4 0.764968 0.021324 0.853585
O O5 0.450278 0.250000 0.691316
O O6 0.301824 0.027697 0.824329
O O7 0.343048 0.053165 0.903096
O O8 0.561759 0.998326 0.561421
O O9 0.159296 0.250000 0.943031
O O10 0.241723 0.475585 0.769754
O O11 0.037139 0.498981 0.106114
O O12 0.298007 0.750000 0.429105
O O13 0.226490 0.476189 0.535081
O O14 0.292429 0.556636 0.336471
O O15 0.491669 0.541067 0.188812
O O16 0.088245 0.250000 0.743390
O O17 0.168270 0.046716 0.733386
O O18 0.668515 0.750000 0.407965
O O19 0.393979 0.750000 0.128557
O O20 0.500000 0.500000 0.000000
O O21 0.315568 0.250000 0.032414
#
# Coordination Sequence:
#
# PCOD8075175 Si02
#       8
#     4   4   4   4   4   4   4   4
#     4  11  24  40  60  87 119 153 188 230 282 337
#     4  10  21  37  60  87 113 149 193 234 281 341
#     4  10  22  39  57  81 116 153 190 235 287 338
#     4  10  20  37  61  85 113 150 189 233 284 336
#     4  11  23  37  56  85 116 149 192 238 284 335
#     4  10  21  37  58  84 114 150 191 237 285 337
#     4  10  21  37  60  87 112 145 188 232 278 330
#     4  10  20  37  61  86 114 149 189 232 281 338
#
# _framework density 18.804862
#
# number of rings (size 3 to 8) (size 9 to 14) (size 15 to 20)
#    0.000    1.750    2.500    1.500    0.000    4.500 
#    0.000    5.000    0.000    0.000    0.000    0.000 
#    0.000    0.000    0.000    0.000    0.000    0.000 
#
# Total GULP energy -396959.065236 kJ/mol
# GULP energy per Si atom -12404.970789 kJ/mol
# Density = 1.876206 g / cm^3
# Si number density = 18.804862 Si / 1000 Ang^3
#
#
#
# Elastic Constant Matrix: (Units=GPa)
#
#
# Indices 1 2 3 4 5 6 
#
# 1 84.5762 26.0373 21.2874 0.0000 0.5700 0.0000
# 2 26.0373 57.4600 42.0183 0.0000 -5.6533 0.0000
# 3 21.2874 42.0183 86.8944 0.0000 -2.5162 0.0000
# 4 0.0000 0.0000 0.0000 31.9586 0.0000 -0.7959
# 5 0.5700 -5.6533 -2.5162 0.0000 28.3413 0.0000
# 6 0.0000 0.0000 0.0000 -0.7959 0.0000 27.5400
#
#
#
# Elastic Compliance Matrix: (Units=1/GPa)
#
#
# Indices 1 2 3 4 5 6 
#
# 1 0.013822 -0.006041 -0.000509 0.000000 -0.001528 0.000000
# 2 -0.006041 0.030079 -0.012921 0.000000 0.004974 0.000000
# 3 -0.000509 -0.012921 0.017852 0.000000 -0.000982 0.000000
# 4 0.000000 0.000000 0.000000 0.031313 0.000000 0.000905
# 5 -0.001528 0.004974 -0.000982 0.000000 0.036220 0.000000
# 6 0.000000 0.000000 0.000000 0.000905 0.000000 0.036337
#
#
# Mechanical properties :
#
#
# Convention : Reuss Voigt Hill
#
# Bulk Modulus (GPa) = 43.83871 45.29073 44.56472
# Shear Modulus (GPa) = 23.56614 26.87383 25.21999
#
# Velocity S-wave (km/s) = 3.54389 3.78443 3.66613
# Velocity P-wave (km/s) = 6.33313 6.57516 6.45528
#
# Compressibility (1/GPa) = 0.02281089
#
# Stress axis : x y z
#
# Youngs Moduli (GPa) = 72.34865 33.24604 56.01503
#
# Poissons Ratio (x) = 0.20085 0.02851
# Poissons Ratio (y) = 0.43709 0.72375
# Poissons Ratio (z) = 0.03683 0.42956
#
# Static dielectric constant tensor:
#      x y z
#    x 3.776000 0.000000 0.049460 
#    y 0.000000 3.402300 0.000000 
#    z 0.049460 0.000000 3.350720 
# 
# 
# High freq. dielectric constant tensor:
#      x y z
#    x 1.746590 0.000000 0.002780 
#    y 0.000000 1.727810 0.000000 
#    z 0.002780 0.000000 1.731280 
# 
# From -- ./inp_files/67023.got.cif
#   From: 2010.06.25/outbox.cif.g09.slc.cpg/sg11_34_cif.got.tgz:67023.got - 2010.06.27 23:14:04.
