data_PCOD8075025
_publ_section_title
;
Structure prediction by ZEFSAII (Michael W. Deem and Ramdas Pophale) SiO2 
 PCOD8075025
Probable space group: P 21/M
;
_chemical_formula_sum "Si O2"
_cell_formula_units_Z 32
_cell_length_a 20.059372
_cell_length_b 8.921824
_cell_length_c 25.877796
_cell_angle_alpha 90.000000
_cell_angle_beta 158.792845
_cell_angle_gamma 90.000000
_cell_volume 1675.313148
_symmetry_space_group_name_H-M "P 21/M"
_symmetry_group_IT_number 11
_symmetry_cell_setting 'monoclinic'
loop_
_space_group_symop_operation_xyz
x,y,z
-x,1/2+y,-z
-x,-y,-z
x,1/2-y,z
loop_
_atom_site_type_symbol
_atom_site_label
_atom_site_fract_x
_atom_site_fract_y
_atom_site_fract_z
Si Si1 0.281889 0.425697 0.202427
Si Si2 0.174527 0.425579 0.652659
Si Si3 0.478996 0.076606 0.788417
Si Si4 0.364888 0.573163 0.601464
Si Si5 0.864820 0.922529 0.082286
Si Si6 0.302291 0.572106 0.849295
Si Si7 0.970973 0.923113 0.273989
Si Si8 0.954383 0.075501 0.890584
O O1 0.288780 0.250000 0.215156
O O2 0.478308 0.487290 0.324432
O O3 0.228201 0.495488 0.219119
O O4 0.133122 0.475059 0.052163
O O5 0.136571 0.250000 0.633994
O O6 0.355218 0.453445 0.749148
O O7 0.202121 0.505362 0.727127
O O8 0.000000 0.500000 0.500000
O O9 0.489555 0.250000 0.782097
O O10 0.386319 0.994404 0.673477
O O11 0.681291 0.019206 0.947440
O O12 0.383832 0.750000 0.620925
O O13 0.169298 0.524442 0.437399
O O14 0.806667 0.750000 0.031315
O O15 0.968850 0.946537 0.211137
O O16 0.008533 0.972868 0.141719
O O17 0.321659 0.750000 0.858243
O O18 0.181864 0.530476 0.812058
O O19 0.500000 0.500000 0.000000
O O20 0.930528 0.750000 0.259366
O O21 0.918190 0.250000 0.869612
#
# Coordination Sequence:
#
# PCOD8075025 Si02
#       8
#     4   4   4   4   4   4   4   4
#     4   9  17  31  52  79 111 147 185 227 277 330
#     4  11  24  41  60  87 119 151 191 239 293 350
#     4  11  23  36  56  85 112 142 185 235 282 331
#     4  10  20  37  58  83 115 151 189 230 280 343
#     4  10  20  37  58  83 112 146 188 232 281 338
#     4  12  25  42  63  86 116 154 197 243 291 349
#     4  10  22  39  62  86 113 151 191 234 289 347
#     4   9  17  31  52  79 111 145 185 231 277 328
#
# _framework density 19.100906999999999
#
# number of rings (size 3 to 8) (size 9 to 14) (size 15 to 20)
#    0.000    1.750    1.250    3.375    0.000    8.000 
#    0.000    0.625    0.000    0.000    0.000    0.000 
#    0.000    0.000    0.000    0.000    0.000    0.000 
#
# Total GULP energy -396906.522024 kJ/mol
# GULP energy per Si atom -12403.328813 kJ/mol
# Density = 1.905743 g / cm^3
# Si number density = 19.100907 Si / 1000 Ang^3
#
#
#
# Elastic Constant Matrix: (Units=GPa)
#
#
# Indices 1 2 3 4 5 6 
#
# 1 117.4542 34.4373 27.1113 0.0000 4.0103 0.0000
# 2 34.4373 59.0622 24.8427 0.0000 5.9062 0.0000
# 3 27.1113 24.8427 76.0394 0.0000 -5.3844 0.0000
# 4 0.0000 0.0000 0.0000 23.2259 0.0000 5.9379
# 5 4.0103 5.9062 -5.3844 0.0000 31.9188 0.0000
# 6 0.0000 0.0000 0.0000 5.9379 0.0000 32.3157
#
#
#
# Elastic Compliance Matrix: (Units=1/GPa)
#
#
# Indices 1 2 3 4 5 6 
#
# 1 0.010548 -0.005188 -0.002117 0.000000 -0.000723 0.000000
# 2 -0.005188 0.022925 -0.005966 0.000000 -0.004597 0.000000
# 3 -0.002117 -0.005966 0.016145 0.000000 0.004093 0.000000
# 4 0.000000 0.000000 0.000000 0.045178 0.000000 -0.008301
# 5 -0.000723 -0.004597 0.004093 0.000000 0.032961 0.000000
# 6 0.000000 0.000000 0.000000 -0.008301 0.000000 0.032470
#
#
# Mechanical properties :
#
#
# Convention : Reuss Voigt Hill
#
# Bulk Modulus (GPa) = 43.33299 47.25984 45.29641
# Shear Modulus (GPa) = 25.71213 28.56970 27.14091
#
# Velocity S-wave (km/s) = 3.67293 3.87166 3.77360
# Velocity P-wave (km/s) = 6.38145 6.69195 6.53854
#
# Compressibility (1/GPa) = 0.02307711
#
# Stress axis : x y z
#
# Youngs Moduli (GPa) = 94.80171 43.62057 61.93916
#
# Poissons Ratio (x) = 0.22629 0.13114
# Poissons Ratio (y) = 0.49179 0.36951
# Poissons Ratio (z) = 0.20072 0.26023
#
# Static dielectric constant tensor:
#      x y z
#    x 3.718020 0.000000 0.095980 
#    y 0.000000 3.521460 0.000000 
#    z 0.095980 0.000000 3.464430 
# 
# 
# High freq. dielectric constant tensor:
#      x y z
#    x 1.758850 0.000000 0.006330 
#    y 0.000000 1.738590 0.000000 
#    z 0.006330 0.000000 1.735460 
# 
# From -- ./inp_files/72096.got.cif
#   From: 2010.06.25/outbox.cif.g09.slc.cpg/sg11_37_cif.got.tgz:72096.got - 2010.06.27 23:14:04.
