data_PCOD8075147
_publ_section_title
;
Structure prediction by ZEFSAII (Michael W. Deem and Ramdas Pophale) SiO2 
 PCOD8075147
Probable space group: P 21/M
;
_chemical_formula_sum "Si O2"
_cell_formula_units_Z 32
_cell_length_a 16.522910
_cell_length_b 13.819186
_cell_length_c 7.038193
_cell_angle_alpha 90.000000
_cell_angle_beta 82.803347
_cell_angle_gamma 90.000000
_cell_volume 1594.392566
_symmetry_space_group_name_H-M "P 21/M"
_symmetry_group_IT_number 11
_symmetry_cell_setting 'monoclinic'
loop_
_space_group_symop_operation_xyz
x,y,z
-x,1/2+y,-z
-x,-y,-z
x,1/2-y,z
loop_
_atom_site_type_symbol
_atom_site_label
_atom_site_fract_x
_atom_site_fract_y
_atom_site_fract_z
Si Si1 0.788747 0.017380 0.393733
Si Si2 0.801339 0.863826 0.676242
Si Si3 0.020635 0.142774 0.350771
Si Si4 0.076955 0.932871 0.939617
Si Si5 0.885351 0.135653 0.659741
Si Si6 0.648666 0.640797 0.960954
Si Si7 0.614459 0.502604 0.314714
Si Si8 0.468480 0.139328 0.357669
O O1 0.851855 0.015310 0.200361
O O2 0.811643 0.086886 0.564608
O O3 0.782213 0.908186 0.475489
O O4 0.699874 0.047078 0.346025
O O5 0.796940 0.750000 0.651393
O O6 0.890973 0.907563 0.712990
O O7 0.735514 0.895401 0.852092
O O8 0.045063 0.250000 0.405268
O O9 0.962430 0.149177 0.183788
O O10 0.970891 0.096311 0.543095
O O11 0.116023 0.888487 0.117308
O O12 0.000000 0.000000 0.000000
O O13 0.876993 0.250000 0.632015
O O14 0.657271 0.750000 0.041880
O O15 0.579024 0.640400 0.824643
O O16 0.622507 0.563381 0.121826
O O17 0.583805 0.577790 0.479772
O O18 0.555164 0.411924 0.300771
O O19 0.481419 0.250000 0.426167
#
# Coordination Sequence:
#
# PCOD8075147 Si02
#       8
#     4   4   4   4   4   4   4   4
#     4  11  24  38  60  90 125 158 206 252 300 366
#     4  10  20  37  60  87 125 161 198 256 311 359
#     4   9  19  36  55  80 113 155 207 254 299 352
#     4  11  22  35  59  86 118 163 208 255 302 355
#     4  10  22  41  60  81 121 169 211 257 307 356
#     4  10  21  38  63  92 124 157 197 247 309 371
#     4  11  23  38  66  93 122 161 200 251 307 369
#     4  10  22  43  65  90 123 157 199 251 310 372
#
# _framework density 20.070340999999999
#
# number of rings (size 3 to 8) (size 9 to 14) (size 15 to 20)
#    0.000    1.750    1.250    2.625    3.500    3.500 
#    0.000    0.625    0.000    0.000    0.000    0.000 
#    0.000    0.000    0.000    0.000    0.000    0.000 
#
# Total GULP energy -396652.480707 kJ/mol
# GULP energy per Si atom -12395.390022 kJ/mol
# Density = 2.002466 g / cm^3
# Si number density = 20.070341 Si / 1000 Ang^3
#
#
#
# Elastic Constant Matrix: (Units=GPa)
#
#
# Indices 1 2 3 4 5 6 
#
# 1 136.1627 34.5567 39.0928 0.0000 -7.2496 0.0000
# 2 34.5567 59.8966 23.8098 0.0000 -3.3539 0.0000
# 3 39.0928 23.8098 101.7693 0.0000 -2.7364 0.0000
# 4 0.0000 0.0000 0.0000 21.7322 0.0000 2.3918
# 5 -7.2496 -3.3539 -2.7364 0.0000 28.3217 0.0000
# 6 0.0000 0.0000 0.0000 2.3918 0.0000 25.8954
#
#
#
# Elastic Compliance Matrix: (Units=1/GPa)
#
#
# Indices 1 2 3 4 5 6 
#
# 1 0.009225 -0.004234 -0.002510 0.000000 0.001618 0.000000
# 2 -0.004234 0.020440 -0.003128 0.000000 0.001034 0.000000
# 3 -0.002510 -0.003128 0.011525 0.000000 0.000101 0.000000
# 4 0.000000 0.000000 0.000000 0.046487 0.000000 -0.004294
# 5 0.001618 0.001034 0.000101 0.000000 0.035855 0.000000
# 6 0.000000 0.000000 0.000000 -0.004294 0.000000 0.039013
#
#
# Mechanical properties :
#
#
# Convention : Reuss Voigt Hill
#
# Bulk Modulus (GPa) = 46.62782 54.74969 50.68876
# Shear Modulus (GPa) = 26.39396 28.54782 27.47089
#
# Velocity S-wave (km/s) = 3.63033 3.77555 3.70365
# Velocity P-wave (km/s) = 6.39179 6.80768 6.60301
#
# Compressibility (1/GPa) = 0.02144642
#
# Stress axis : x y z
#
# Youngs Moduli (GPa) = 108.39601 48.92462 86.77072
#
# Poissons Ratio (x) = 0.20716 0.21776
# Poissons Ratio (y) = 0.45898 0.27139
# Poissons Ratio (z) = 0.27203 0.15302
#
# Static dielectric constant tensor:
#      x y z
#    x 3.906650 0.000000 -0.034890 
#    y 0.000000 3.662670 0.000000 
#    z -0.034890 0.000000 3.746090 
# 
# 
# High freq. dielectric constant tensor:
#      x y z
#    x 1.790260 0.000000 -0.002080 
#    y 0.000000 1.782530 0.000000 
#    z -0.002080 0.000000 1.783470 
# 
# From -- ./inp_files/8100.got.cif
#   From: 2010.06.25/outbox.cif.g09.slc.cpg/sg11_5_cif.got.tgz:8100.got - 2010.06.27 23:14:04.
