data_PCOD8075240
_publ_section_title
;
Structure prediction by ZEFSAII (Michael W. Deem and Ramdas Pophale) SiO2 
 PCOD8075240
Probable space group: P 21/M
;
_chemical_formula_sum "Si O2"
_cell_formula_units_Z 32
_cell_length_a 10.390748
_cell_length_b 8.963387
_cell_length_c 19.437785
_cell_angle_alpha 90.000000
_cell_angle_beta 56.845802
_cell_angle_gamma 90.000000
_cell_volume 1515.639342
_symmetry_space_group_name_H-M "P 21/M"
_symmetry_group_IT_number 11
_symmetry_cell_setting 'monoclinic'
loop_
_space_group_symop_operation_xyz
x,y,z
-x,1/2+y,-z
-x,-y,-z
x,1/2-y,z
loop_
_atom_site_type_symbol
_atom_site_label
_atom_site_fract_x
_atom_site_fract_y
_atom_site_fract_z
Si Si1 0.250176 0.085314 0.497230
Si Si2 0.826273 0.075252 0.611067
Si Si3 0.948630 0.422031 0.354886
Si Si4 0.469096 0.926509 0.217804
Si Si5 0.274419 0.079056 0.755539
Si Si6 0.953164 0.419732 0.805603
Si Si7 0.579759 0.417042 0.412491
Si Si8 0.396307 0.575618 0.086843
O O1 0.186412 0.250000 0.534320
O O2 0.420086 0.098436 0.416468
O O3 0.148593 0.009637 0.467854
O O4 0.229265 0.976979 0.574566
O O5 0.821290 0.250000 0.597315
O O6 0.672492 0.020183 0.694374
O O7 0.967978 0.033268 0.617500
O O8 0.977557 0.250000 0.363285
O O9 0.004633 0.457358 0.263057
O O10 0.469889 0.750000 0.210883
O O11 0.628182 0.984431 0.207578
O O12 0.443488 0.991158 0.148073
O O13 0.324431 0.250000 0.730553
O O14 0.088762 0.065856 0.823799
O O15 0.305228 0.000098 0.673500
O O16 0.953189 0.250000 0.775570
O O17 0.781960 0.458243 0.881434
O O18 0.500000 0.500000 0.500000
O O19 0.647237 0.250000 0.408478
O O20 0.429042 0.750000 0.075354
O O21 0.500000 0.500000 0.000000
#
# Coordination Sequence:
#
# PCOD8075240 Si02
#       8
#     4   4   4   4   4   4   4   4
#     4  11  23  37  51  76 114 156 204 255 304 349
#     4  11  20  36  59  81 111 152 200 250 302 355
#     4  12  24  36  54  82 117 157 203 250 300 353
#     4   9  18  36  63  89 117 154 194 238 295 360
#     4  10  20  37  62  88 114 155 204 249 297 351
#     4  10  21  39  62  88 120 154 196 246 297 351
#     4  11  23  36  52  76 112 158 207 257 300 349
#     4  10  21  41  66  94 123 154 189 234 295 362
#
# _framework density 21.113202000000001
#
# number of rings (size 3 to 8) (size 9 to 14) (size 15 to 20)
#    0.000    1.500    2.500    3.375    0.000    5.500 
#    0.000    1.250    0.000    0.000    0.000    0.000 
#    0.000    0.000    0.000    0.000    0.000    0.000 
#
# Total GULP energy -396489.580519 kJ/mol
# GULP energy per Si atom -12390.299391 kJ/mol
# Density = 2.106515 g / cm^3
# Si number density = 21.113202 Si / 1000 Ang^3
#
#
#
# Elastic Constant Matrix: (Units=GPa)
#
#
# Indices 1 2 3 4 5 6 
#
# 1 116.8387 23.6036 54.7454 0.0000 -14.5579 0.0000
# 2 23.6036 91.4787 31.6467 0.0000 -3.8143 0.0000
# 3 54.7454 31.6467 100.0738 0.0000 -13.2686 0.0000
# 4 0.0000 0.0000 0.0000 32.3065 0.0000 1.7830
# 5 -14.5579 -3.8143 -13.2686 0.0000 31.1271 0.0000
# 6 0.0000 0.0000 0.0000 1.7830 0.0000 22.1492
#
#
#
# Elastic Compliance Matrix: (Units=1/GPa)
#
#
# Indices 1 2 3 4 5 6 
#
# 1 0.011824 -0.000927 -0.005784 0.000000 0.002951 0.000000
# 2 -0.000927 0.012348 -0.003450 0.000000 -0.000391 0.000000
# 3 -0.005784 -0.003450 0.014661 0.000000 0.003122 0.000000
# 4 0.000000 0.000000 0.000000 0.031092 0.000000 -0.002503
# 5 0.002951 -0.000391 0.003122 0.000000 0.034789 0.000000
# 6 0.000000 0.000000 0.000000 -0.002503 0.000000 0.045350
#
#
# Mechanical properties :
#
#
# Convention : Reuss Voigt Hill
#
# Bulk Modulus (GPa) = 54.01766 58.70919 56.36343
# Shear Modulus (GPa) = 28.31975 30.34292 29.33134
#
# Velocity S-wave (km/s) = 3.66639 3.79509 3.73130
# Velocity P-wave (km/s) = 6.60027 6.86082 6.73181
#
# Compressibility (1/GPa) = 0.01851246
#
# Stress axis : x y z
#
# Youngs Moduli (GPa) = 84.57535 80.98662 68.20594
#
# Poissons Ratio (x) = 0.07506 0.39449
# Poissons Ratio (y) = 0.07839 0.23528
# Poissons Ratio (z) = 0.48917 0.27937
#
# Static dielectric constant tensor:
#      x y z
#    x 4.905580 0.000000 -0.357940 
#    y 0.000000 3.672750 0.000000 
#    z -0.357940 0.000000 3.688840 
# 
# 
# High freq. dielectric constant tensor:
#      x y z
#    x 1.868270 0.000000 -0.018570 
#    y 0.000000 1.812560 0.000000 
#    z -0.018570 0.000000 1.791530 
# 
# From -- ./inp_files/64354.got.cif
#   From: 2010.06.25/outbox.cif.g09.slc.cpg/sg11_33_cif.got.tgz:64354.got - 2010.06.27 23:14:04.
