data_PCOD8075407
_publ_section_title
;
Structure prediction by ZEFSAII (Michael W. Deem and Ramdas Pophale) SiO2 
 PCOD8075407
Probable space group: P 21/M
;
_chemical_formula_sum "Si O2"
_cell_formula_units_Z 28
_cell_length_a 10.869711
_cell_length_b 8.766629
_cell_length_c 14.427897
_cell_angle_alpha 90.000000
_cell_angle_beta 80.433514
_cell_angle_gamma 90.000000
_cell_volume 1355.725353
_symmetry_space_group_name_H-M "P 21/M"
_symmetry_group_IT_number 11
_symmetry_cell_setting 'monoclinic'
loop_
_space_group_symop_operation_xyz
x,y,z
-x,1/2+y,-z
-x,-y,-z
x,1/2-y,z
loop_
_atom_site_type_symbol
_atom_site_label
_atom_site_fract_x
_atom_site_fract_y
_atom_site_fract_z
Si Si1 0.937793 0.069889 0.237331
Si Si2 0.672278 0.070474 0.226141
Si Si3 0.524505 0.929435 0.396948
Si Si4 0.205336 0.076315 0.203070
Si Si5 0.893899 0.068563 0.449706
Si Si6 0.285079 0.075383 0.393054
Si Si7 0.469977 0.432532 0.102673
O O1 0.956485 0.250000 0.242337
O O2 0.819055 0.030417 0.185847
O O3 0.908466 0.007478 0.343680
O O4 0.072629 0.003552 0.183574
O O5 0.655714 0.250000 0.241552
O O6 0.580292 0.009013 0.157452
O O7 0.645834 0.993009 0.328968
O O8 0.532496 0.750000 0.403597
O O9 0.500000 0.000000 0.500000
O O10 0.409867 0.986364 0.347098
O O11 0.214499 0.250000 0.169121
O O12 0.193559 0.065198 0.316370
O O13 0.333419 0.999883 0.149479
O O14 0.894714 0.250000 0.455962
O O15 0.765379 0.003919 0.507663
O O16 0.000000 0.000000 0.500000
O O17 0.316898 0.250000 0.413008
O O18 0.470146 0.250000 0.101190
O O19 0.500000 0.500000 0.000000
#
# Coordination Sequence:
#
# PCOD8075407 Si02
#       7
#     4   4   4   4   4   4   4
#     4   9  18  33  56  82 112 153 198 240 288 346
#     4  10  20  38  62  87 116 152 198 251 301 355
#     4  12  24  37  55  82 119 161 203 245 295 354
#     4   9  17  34  58  83 110 147 188 233 293 355
#     4  11  20  31  49  79 117 161 206 247 293 351
#     4  11  20  35  56  79 112 152 202 251 295 347
#     4  10  21  39  64  89 115 149 192 245 308 370
#
# _framework density 20.653151000000001
#
# number of rings (size 3 to 8) (size 9 to 14) (size 15 to 20)
#    0.000    1.714    2.857    3.000    0.000    1.714 
#    0.000    1.429    0.000    0.000    0.000    0.000 
#    0.000    0.000    0.000    0.000    0.000    0.000 
#
# Total GULP energy -346924.245306 kJ/mol
# GULP energy per Si atom -12390.151618 kJ/mol
# Density = 2.060614 g / cm^3
# Si number density = 20.653151 Si / 1000 Ang^3
#
#
#
# Elastic Constant Matrix: (Units=GPa)
#
#
# Indices 1 2 3 4 5 6 
#
# 1 185.9586 22.7460 61.8672 0.0000 -15.7767 0.0000
# 2 22.7460 53.3420 18.8826 0.0000 -0.8388 0.0000
# 3 61.8672 18.8826 96.0071 0.0000 -6.0496 0.0000
# 4 0.0000 0.0000 0.0000 26.8666 0.0000 -2.1812
# 5 -15.7767 -0.8388 -6.0496 0.0000 25.9679 0.0000
# 6 0.0000 0.0000 0.0000 -2.1812 0.0000 21.7547
#
#
#
# Elastic Compliance Matrix: (Units=1/GPa)
#
#
# Indices 1 2 3 4 5 6 
#
# 1 0.007233 -0.001566 -0.004140 0.000000 0.003379 0.000000
# 2 -0.001566 0.020491 -0.003085 0.000000 -0.001008 0.000000
# 3 -0.004140 -0.003085 0.013727 0.000000 0.000583 0.000000
# 4 0.000000 0.000000 0.000000 0.037526 0.000000 0.003763
# 5 0.003379 -0.001008 0.000583 0.000000 0.040665 0.000000
# 6 0.000000 0.000000 0.000000 0.003763 0.000000 0.046344
#
#
# Mechanical properties :
#
#
# Convention : Reuss Voigt Hill
#
# Bulk Modulus (GPa) = 41.89349 60.25547 51.07448
# Shear Modulus (GPa) = 26.10624 30.37197 28.23911
#
# Velocity S-wave (km/s) = 3.55918 3.83897 3.70172
# Velocity P-wave (km/s) = 6.10071 6.99203 6.56152
#
# Compressibility (1/GPa) = 0.02387006
#
# Stress axis : x y z
#
# Youngs Moduli (GPa) = 138.25202 48.80275 72.84765
#
# Poissons Ratio (x) = 0.07641 0.30160
# Poissons Ratio (y) = 0.21645 0.22471
# Poissons Ratio (z) = 0.57239 0.15054
#
# Static dielectric constant tensor:
#      x y z
#    x 4.521540 0.000000 -0.239190 
#    y 0.000000 3.418740 0.000000 
#    z -0.239190 0.000000 3.524960 
# 
# 
# High freq. dielectric constant tensor:
#      x y z
#    x 1.839840 0.000000 -0.010110 
#    y 0.000000 1.768470 0.000000 
#    z -0.010110 0.000000 1.775720 
# 
# From -- ./inp_files/48916.got.cif
#   From: 2010.06.25/outbox.cif.g09.slc.cpg/sg11_25_cif.got.tgz:48916.got - 2010.06.27 23:14:04.
