data_PCOD8075497
_publ_section_title
;
Structure prediction by ZEFSAII (Michael W. Deem and Ramdas Pophale) SiO2 
 PCOD8075497
Probable space group: P 21/M
;
_chemical_formula_sum "Si O2"
_cell_formula_units_Z 32
_cell_length_a 15.598635
_cell_length_b 8.852501
_cell_length_c 26.307425
_cell_angle_alpha 90.000000
_cell_angle_beta 27.104083
_cell_angle_gamma 90.000000
_cell_volume 1655.093720
_symmetry_space_group_name_H-M "P 21/M"
_symmetry_group_IT_number 11
_symmetry_cell_setting 'monoclinic'
loop_
_space_group_symop_operation_xyz
x,y,z
-x,1/2+y,-z
-x,-y,-z
x,1/2-y,z
loop_
_atom_site_type_symbol
_atom_site_label
_atom_site_fract_x
_atom_site_fract_y
_atom_site_fract_z
Si Si1 0.667978 0.570117 0.442981
Si Si2 0.980569 0.925357 0.456011
Si Si3 0.058743 0.429050 0.230179
Si Si4 0.751445 0.073417 0.775224
Si Si5 0.851671 0.928580 0.010919
Si Si6 0.674291 0.570928 0.000929
Si Si7 0.740315 0.428334 0.170083
Si Si8 0.628415 0.929525 0.578913
O O1 0.500000 0.500000 0.500000
O O2 0.663594 0.750000 0.441183
O O3 0.646798 0.511504 0.511867
O O4 0.863557 0.507370 0.317683
O O5 0.948350 0.750000 0.482439
O O6 0.800548 0.994025 0.521471
O O7 0.167320 0.954990 0.324017
O O8 0.000000 0.000000 0.500000
O O9 0.032378 0.250000 0.242557
O O10 0.122791 0.480967 0.251811
O O11 0.213879 0.484696 0.107618
O O12 0.764338 0.250000 0.782864
O O13 0.539078 0.010438 0.889168
O O14 0.830518 0.750000 0.024888
O O15 0.068758 0.978649 0.902268
O O16 0.775817 0.993577 0.997636
O O17 0.726740 0.998688 0.121667
O O18 0.671360 0.750000 0.005465
O O19 0.730910 0.250000 0.168333
O O20 0.566979 0.489798 0.294747
O O21 0.634786 0.750000 0.575179
#
# Coordination Sequence:
#
# PCOD8075497 Si02
#       8
#     4   4   4   4   4   4   4   4
#     4  11  23  41  63  88 119 156 195 238 289 346
#     4  10  21  37  57  83 113 150 191 234 289 347
#     4  11  22  38  60  86 114 148 193 239 286 343
#     4  10  20  39  60  80 114 153 190 236 292 346
#     4   9  18  34  54  78 107 142 182 226 277 336
#     4   9  20  35  57  84 110 147 192 234 285 345
#     4   9  18  33  55  77 105 142 181 224 276 333
#     4   9  19  37  59  81 110 150 187 227 287 349
#
# _framework density 19.334253
#
# number of rings (size 3 to 8) (size 9 to 14) (size 15 to 20)
#    0.000    2.250    1.250    1.125    3.500    0.500 
#    0.000    3.750    0.000    0.000    0.000    0.000 
#    0.000    0.000    0.000    0.000    0.000    0.000 
#
# Total GULP energy -396864.621426 kJ/mol
# GULP energy per Si atom -12402.019420 kJ/mol
# Density = 1.929025 g / cm^3
# Si number density = 19.334253 Si / 1000 Ang^3
#
#
#
# Elastic Constant Matrix: (Units=GPa)
#
#
# Indices 1 2 3 4 5 6 
#
# 1 148.5652 35.6935 65.1161 0.0000 -2.3486 0.0000
# 2 35.6935 43.1593 35.3012 0.0000 0.4019 0.0000
# 3 65.1161 35.3012 155.8739 0.0000 -8.2002 0.0000
# 4 0.0000 0.0000 0.0000 24.6770 0.0000 2.6275
# 5 -2.3486 0.4019 -8.2002 0.0000 31.9820 0.0000
# 6 0.0000 0.0000 0.0000 2.6275 0.0000 31.1619
#
#
#
# Elastic Compliance Matrix: (Units=1/GPa)
#
#
# Indices 1 2 3 4 5 6 
#
# 1 0.009184 -0.005476 -0.002592 0.000000 0.000079 0.000000
# 2 -0.005476 0.031834 -0.005032 0.000000 -0.002092 0.000000
# 3 -0.002592 -0.005032 0.008749 0.000000 0.002116 0.000000
# 4 0.000000 0.000000 0.000000 0.040891 0.000000 -0.003448
# 5 0.000079 -0.002092 0.002116 0.000000 0.031842 0.000000
# 6 0.000000 0.000000 0.000000 -0.003448 0.000000 0.032381
#
#
# Mechanical properties :
#
#
# Convention : Reuss Voigt Hill
#
# Bulk Modulus (GPa) = 42.43245 68.86890 55.65068
# Shear Modulus (GPa) = 26.46374 31.66335 29.06355
#
# Velocity S-wave (km/s) = 3.70367 4.05122 3.88134
# Velocity P-wave (km/s) = 6.34697 7.58819 6.99517
#
# Compressibility (1/GPa) = 0.02356687
#
# Stress axis : x y z
#
# Youngs Moduli (GPa) = 108.88356 31.41303 114.29379
#
# Poissons Ratio (x) = 0.17201 0.29630
# Poissons Ratio (y) = 0.59622 0.57514
# Poissons Ratio (z) = 0.28227 0.15807
#
# Static dielectric constant tensor:
#      x y z
#    x 3.687560 0.000000 -0.089580 
#    y 0.000000 3.217550 0.000000 
#    z -0.089580 0.000000 3.885480 
# 
# 
# High freq. dielectric constant tensor:
#      x y z
#    x 1.760080 0.000000 -0.002160 
#    y 0.000000 1.721590 0.000000 
#    z -0.002160 0.000000 1.768240 
# 
# From -- ./inp_files/51730.got.cif
#   From: 2010.06.25/outbox.cif.g09.slc.cpg/sg11_26_cif.got.tgz:51730.got - 2010.06.27 23:14:04.
