data_PCOD8075422
_publ_section_title
;
Structure prediction by ZEFSAII (Michael W. Deem and Ramdas Pophale) SiO2 
 PCOD8075422
Probable space group: P 21/M
;
_chemical_formula_sum "Si O2"
_cell_formula_units_Z 26
_cell_length_a 10.001542
_cell_length_b 21.053249
_cell_length_c 9.082967
_cell_angle_alpha 90.000000
_cell_angle_beta 135.545950
_cell_angle_gamma 90.000000
_cell_volume 1339.432754
_symmetry_space_group_name_H-M "P 21/M"
_symmetry_group_IT_number 11
_symmetry_cell_setting 'monoclinic'
loop_
_space_group_symop_operation_xyz
x,y,z
-x,1/2+y,-z
-x,-y,-z
x,1/2-y,z
loop_
_atom_site_type_symbol
_atom_site_label
_atom_site_fract_x
_atom_site_fract_y
_atom_site_fract_z
Si Si1 0.169706 0.882890 0.942991
Si Si2 0.558445 0.938690 0.136812
Si Si3 0.745966 0.646255 0.042339
Si Si4 0.556182 0.250000 0.230801
Si Si5 0.160976 0.750000 0.792394
Si Si6 0.100694 0.017339 0.427090
Si Si7 0.972897 0.250000 0.623984
Si Si8 0.024633 0.564350 0.107118
O O1 0.128807 0.810490 0.869834
O O2 0.013883 0.926975 0.742703
O O3 0.377940 0.901882 0.055088
O O4 0.155566 0.889580 0.109696
O O5 0.680511 0.892090 0.132485
O O6 0.684629 0.959674 0.375270
O O7 0.500000 0.000000 0.000000
O O8 0.928229 0.688055 0.232156
O O9 0.819367 0.598084 0.973778
O O10 0.571967 0.687718 0.840627
O O11 0.626950 0.250000 0.115342
O O12 0.744398 0.250000 0.483941
O O13 0.005612 0.750000 0.537306
O O14 0.114951 0.953897 0.336851
O O15 0.000000 0.000000 0.500000
O O16 0.000000 0.500000 0.000000
#
# Coordination Sequence:
#
# PCOD8075422 Si02
#       8
#     4   4   4   2   2   4   2   4
#     4  11  23  41  59  91 132 164 204 264 322 380
#     4  12  21  34  64  94 119 167 214 258 313 376
#     4  11  20  38  64  89 123 163 211 258 308 369
#     4   9  21  37  62  96 110 157 216 264 288 370
#     4  10  20  38  62  88 121 158 203 264 317 361
#     4  11  21  38  65  93 120 167 214 262 311 368
#     4   9  21  37  62  96 113 155 219 274 291 363
#     4  10  23  41  60  92 133 163 201 258 326 378
#
# _framework density 19.411201999999999
#
# number of rings (size 3 to 8) (size 9 to 14) (size 15 to 20)
#    0.462    0.923    4.615    1.846    0.000    3.077 
#    0.000    3.077    0.000    1.846    0.000    0.000 
#    0.000    0.000    0.000    0.000    0.000    0.000 
#
# Total GULP energy -322315.771425 kJ/mol
# GULP energy per Si atom -12396.760439 kJ/mol
# Density = 1.936702 g / cm^3
# Si number density = 19.411202 Si / 1000 Ang^3
#
#
#
# Elastic Constant Matrix: (Units=GPa)
#
#
# Indices 1 2 3 4 5 6 
#
# 1 117.5170 54.0330 42.4670 0.0000 -6.8835 0.0000
# 2 54.0330 110.0958 48.0228 0.0000 6.8016 0.0000
# 3 42.4670 48.0228 104.6827 0.0000 14.8514 0.0000
# 4 0.0000 0.0000 0.0000 18.2851 0.0000 -1.9939
# 5 -6.8835 6.8016 14.8514 0.0000 32.8593 0.0000
# 6 0.0000 0.0000 0.0000 -1.9939 0.0000 44.7821
#
#
#
# Elastic Compliance Matrix: (Units=1/GPa)
#
#
# Indices 1 2 3 4 5 6 
#
# 1 0.012297 -0.004824 -0.003508 0.000000 0.005160 0.000000
# 2 -0.004824 0.013248 -0.003834 0.000000 -0.002020 0.000000
# 3 -0.003508 -0.003834 0.013598 0.000000 -0.006087 0.000000
# 4 0.000000 0.000000 0.000000 0.054956 0.000000 0.002447
# 5 0.005160 -0.002020 -0.006087 0.000000 0.034683 0.000000
# 6 0.000000 0.000000 0.000000 0.002447 0.000000 0.022439
#
#
# Mechanical properties :
#
#
# Convention : Reuss Voigt Hill
#
# Bulk Modulus (GPa) = 67.51345 69.03790 68.27567
# Shear Modulus (GPa) = 27.70246 31.70349 29.70297
#
# Velocity S-wave (km/s) = 3.78185 4.04574 3.91602
# Velocity P-wave (km/s) = 7.34343 7.58072 7.46302
#
# Compressibility (1/GPa) = 0.01481186
#
# Stress axis : x y z
#
# Youngs Moduli (GPa) = 81.31898 75.48558 73.54052
#
# Poissons Ratio (x) = 0.36414 0.25796
# Poissons Ratio (y) = 0.39228 0.28193
# Poissons Ratio (z) = 0.28524 0.28939
#
# Static dielectric constant tensor:
#      x y z
#    x 3.909940 0.000000 -0.391300 
#    y 0.000000 4.061620 0.000000 
#    z -0.391300 0.000000 4.210090 
# 
# 
# High freq. dielectric constant tensor:
#      x y z
#    x 1.753660 0.000000 0.004120 
#    y 0.000000 1.769600 0.000000 
#    z 0.004120 0.000000 1.739690 
# 
# From -- ./inp_files/14576.got.cif
#   From: 2010.06.25/outbox.cif.g09.slc.cpg/sg11_8_cif.got.tgz:14576.got - 2010.06.27 23:14:04.
