data_PCOD8075752
_publ_section_title
;
Structure prediction by ZEFSAII (Michael W. Deem and Ramdas Pophale) SiO2 
 PCOD8075752
Probable space group: P 21/M
;
_chemical_formula_sum "Si O2"
_cell_formula_units_Z 22
_cell_length_a 8.840653
_cell_length_b 20.262620
_cell_length_c 7.829092
_cell_angle_alpha 90.000000
_cell_angle_beta 130.260614
_cell_angle_gamma 90.000000
_cell_volume 1070.237238
_symmetry_space_group_name_H-M "P 21/M"
_symmetry_group_IT_number 11
_symmetry_cell_setting 'monoclinic'
loop_
_space_group_symop_operation_xyz
x,y,z
-x,1/2+y,-z
-x,-y,-z
x,1/2-y,z
loop_
_atom_site_type_symbol
_atom_site_label
_atom_site_fract_x
_atom_site_fract_y
_atom_site_fract_z
Si Si1 0.282341 0.509496 0.770692
Si Si2 0.595146 0.750000 0.034944
Si Si3 0.086651 0.250000 0.433226
Si Si4 0.920065 0.388015 0.954700
Si Si5 0.901802 0.998069 0.701460
Si Si6 0.876963 0.750000 0.928247
Si Si7 0.255488 0.649486 0.838526
O O1 0.248593 0.476998 0.560064
O O2 0.120432 0.483619 0.787613
O O3 0.500000 0.500000 0.000000
O O4 0.249067 0.586852 0.711776
O O5 0.689003 0.750000 0.915309
O O6 0.459440 0.686241 0.953459
O O7 0.754148 0.750000 0.301674
O O8 0.945722 0.187350 0.351278
O O9 0.188260 0.250000 0.319126
O O10 0.089849 0.434145 0.168301
O O11 0.001231 0.317629 0.943675
O O12 0.827603 0.434638 0.739783
O O13 0.746586 0.371819 0.963550
#
# Coordination Sequence:
#
# PCOD8075752 Si02
#       7
#     4   2   2   4   4   2   4
#     4  10  21  35  60  92 120 158 207 256 298 371
#     4  11  23  39  64  88 124 163 199 267 314 364
#     4   9  21  43  60  82 124 171 195 253 320 370
#     4   9  19  41  62  87 124 164 205 250 311 373
#     4   9  20  39  62  84 124 169 199 250 314 368
#     4  10  22  36  64  94 114 158 218 250 298 388
#     4   9  21  40  56  90 124 152 208 254 306 372
#
# _framework density 20.556190999999998
#
# number of rings (size 3 to 8) (size 9 to 14) (size 15 to 20)
#    0.000    2.545    0.000    0.545    5.091    4.364 
#    3.273   10.000    0.000    0.000    0.000    0.000 
#    0.000    0.000    0.000    0.000    0.000    0.000 
#
# Total GULP energy -272620.890272 kJ/mol
# GULP energy per Si atom -12391.858649 kJ/mol
# Density = 2.050940 g / cm^3
# Si number density = 20.556191 Si / 1000 Ang^3
#
#
#
# Elastic Constant Matrix: (Units=GPa)
#
#
# Indices 1 2 3 4 5 6 
#
# 1 95.4969 29.7969 37.0493 0.0000 0.3082 0.0000
# 2 29.7969 115.9675 3.4797 0.0000 -3.3726 0.0000
# 3 37.0493 3.4797 99.1600 0.0000 1.2941 0.0000
# 4 0.0000 0.0000 0.0000 1.6410 0.0000 -24.9003
# 5 0.3082 -3.3726 1.2941 0.0000 23.9535 0.0000
# 6 0.0000 0.0000 0.0000 -24.9003 0.0000 8.1312
#
#
#
# Elastic Compliance Matrix: (Units=1/GPa)
#
#
# Indices 1 2 3 4 5 6 
#
# 1 0.013400 -0.003307 -0.004886 0.000000 -0.000374 0.000000
# 2 -0.003307 0.009485 0.000886 0.000000 0.001330 0.000000
# 3 -0.004886 0.000886 0.011885 0.000000 -0.000455 0.000000
# 4 0.000000 0.000000 0.000000 -0.013403 0.000000 -0.041043
# 5 -0.000374 0.001330 -0.000455 0.000000 0.041964 0.000000
# 6 0.000000 0.000000 0.000000 -0.041043 0.000000 -0.002705
#
#
# Mechanical properties :
#
#
# Convention : Reuss Voigt Hill
#
# Bulk Modulus (GPa) = 49.61539 50.14180 49.87859
# Shear Modulus (GPa) = 61.00510 22.76506 41.88508
#
# Velocity S-wave (km/s) = 5.45359 3.33145 4.51886
# Velocity P-wave (km/s) = 7.99027 6.26447 7.17942
#
# Compressibility (1/GPa) = 0.02015504
#
# Stress axis : x y z
#
# Youngs Moduli (GPa) = 74.62561 105.42943 84.13927
#
# Poissons Ratio (x) = 0.34869 0.41109
# Poissons Ratio (y) = 0.24681 -0.07451
# Poissons Ratio (z) = 0.36461 -0.09336
#
# Static dielectric constant tensor:
#      x y z
#    x 3.793190 0.000000 -0.119620 
#    y 0.000000 3.950570 0.000000 
#    z -0.119620 0.000000 3.444100 
# 
# 
# High freq. dielectric constant tensor:
#      x y z
#    x 1.801640 0.000000 -0.016890 
#    y 0.000000 1.819630 0.000000 
#    z -0.016890 0.000000 1.775820 
# 
# From -- ./inp_files/14872.got.cif
#   From: 2010.06.25/outbox.cif.g09.slc.cpg/sg11_8_cif.got.tgz:14872.got - 2010.06.27 23:14:04.
