data_PCOD8075316
_publ_section_title
;
Structure prediction by ZEFSAII (Michael W. Deem and Ramdas Pophale) SiO2 
 PCOD8075316
Probable space group: P 21/M
;
_chemical_formula_sum "Si O2"
_cell_formula_units_Z 32
_cell_length_a 22.522728
_cell_length_b 17.099814
_cell_length_c 9.763971
_cell_angle_alpha 90.000000
_cell_angle_beta 153.218907
_cell_angle_gamma 90.000000
_cell_volume 1694.390996
_symmetry_space_group_name_H-M "P 21/M"
_symmetry_group_IT_number 11
_symmetry_cell_setting 'monoclinic'
loop_
_space_group_symop_operation_xyz
x,y,z
-x,1/2+y,-z
-x,-y,-z
x,1/2-y,z
loop_
_atom_site_type_symbol
_atom_site_label
_atom_site_fract_x
_atom_site_fract_y
_atom_site_fract_z
Si Si1 0.509429 0.586667 0.345413
Si Si2 0.465220 0.589544 0.944150
Si Si3 0.247355 0.658074 0.301419
Si Si4 0.225517 0.340132 0.154365
Si Si5 0.058057 0.158794 0.335215
Si Si6 0.737332 0.841876 0.469143
Si Si7 0.344623 0.556846 0.255389
Si Si8 0.882184 0.943442 0.280702
O O1 0.632240 0.644811 0.620942
O O2 0.411125 0.605195 0.268420
O O3 0.552063 0.494755 0.442571
O O4 0.445515 0.606231 0.065852
O O5 0.331807 0.615832 0.593618
O O6 0.500000 0.500000 0.000000
O O7 0.587124 0.635398 0.124955
O O8 0.282282 0.750000 0.366563
O O9 0.274335 0.619051 0.209476
O O10 0.093532 0.645170 0.019976
O O11 0.188992 0.250000 0.078585
O O12 0.225780 0.377446 0.306823
O O13 0.114793 0.384830 0.841514
O O14 0.083066 0.250000 0.420254
O O15 0.154404 0.127556 0.414367
O O16 0.101443 0.107479 0.551420
O O17 0.744889 0.750000 0.494064
O O18 0.248219 0.495677 0.982871
O O19 0.000000 0.000000 0.500000
#
# Coordination Sequence:
#
# PCOD8075316 Si02
#       8
#     4   4   4   4   4   4   4   4
#     4   9  20  36  60  85 120 142 189 243 293 346
#     4  11  21  36  60  88 119 154 193 243 296 349
#     4  11  23  40  59  84 121 158 194 242 300 354
#     4   9  19  37  60  83 110 149 193 244 291 342
#     4  10  22  40  60  86 120 158 200 245 292 353
#     4   9  20  39  61  86 115 152 199 242 287 349
#     4  10  20  38  57  87 113 153 189 240 292 351
#     4  11  21  36  58  82 117 152 196 238 290 348
#
# _framework density 18.885842
#
# number of rings (size 3 to 8) (size 9 to 14) (size 15 to 20)
#    0.000    2.000    2.500    0.750    1.750    2.000 
#    2.250    1.250    0.000    0.000    0.000    0.000 
#    0.000    0.000    0.000    0.000    0.000    0.000 
#
# Total GULP energy -396718.905318 kJ/mol
# GULP energy per Si atom -12397.465791 kJ/mol
# Density = 1.884286 g / cm^3
# Si number density = 18.885842 Si / 1000 Ang^3
#
#
#
# Elastic Constant Matrix: (Units=GPa)
#
#
# Indices 1 2 3 4 5 6 
#
# 1 133.1919 32.1647 61.3756 0.0000 0.6044 0.0000
# 2 32.1647 58.8561 40.3107 0.0000 -13.9511 0.0000
# 3 61.3756 40.3107 121.8130 0.0000 -13.1876 0.0000
# 4 0.0000 0.0000 0.0000 31.6371 0.0000 1.7745
# 5 0.6044 -13.9511 -13.1876 0.0000 20.2989 0.0000
# 6 0.0000 0.0000 0.0000 1.7745 0.0000 27.4425
#
#
#
# Elastic Compliance Matrix: (Units=1/GPa)
#
#
# Indices 1 2 3 4 5 6 
#
# 1 0.010690 -0.004086 -0.004703 0.000000 -0.006182 0.000000
# 2 -0.004086 0.026165 -0.004991 0.000000 0.014862 0.000000
# 3 -0.004703 -0.004991 0.012773 0.000000 0.005008 0.000000
# 4 0.000000 0.000000 0.000000 0.031724 0.000000 -0.002051
# 5 -0.006182 0.014862 0.005008 0.000000 0.062916 0.000000
# 6 0.000000 0.000000 0.000000 -0.002051 0.000000 0.036572
#
#
# Mechanical properties :
#
#
# Convention : Reuss Voigt Hill
#
# Bulk Modulus (GPa) = 45.31624 64.61812 54.96718
# Shear Modulus (GPa) = 23.17438 27.87636 25.52537
#
# Velocity S-wave (km/s) = 3.50677 3.84610 3.68035
# Velocity P-wave (km/s) = 6.35952 7.34933 6.87227
#
# Compressibility (1/GPa) = 0.02206715
#
# Stress axis : x y z
#
# Youngs Moduli (GPa) = 93.54430 38.21952 78.29150
#
# Poissons Ratio (x) = 0.15618 0.36823
# Poissons Ratio (y) = 0.38225 0.39072
# Poissons Ratio (z) = 0.43997 0.19074
#
# Static dielectric constant tensor:
#      x y z
#    x 3.605300 0.000000 -0.073720 
#    y 0.000000 3.424690 0.000000 
#    z -0.073720 0.000000 3.502780 
# 
# 
# High freq. dielectric constant tensor:
#      x y z
#    x 1.733800 0.000000 -0.005850 
#    y 0.000000 1.732410 0.000000 
#    z -0.005850 0.000000 1.733870 
# 
# From -- ./inp_files/27071.got.cif
#   From: 2010.06.25/outbox.cif.g09.slc.cpg/sg11_14_cif.got.tgz:27071.got - 2010.06.27 23:14:04.
