data_PCOD8075713
_publ_section_title
;
Structure prediction by ZEFSAII (Michael W. Deem and Ramdas Pophale) SiO2 
 PCOD8075713
Probable space group: P 21/M
;
_chemical_formula_sum "Si O2"
_cell_formula_units_Z 32
_cell_length_a 26.336893
_cell_length_b 9.135869
_cell_length_c 21.193049
_cell_angle_alpha 90.000000
_cell_angle_beta 160.151925
_cell_angle_gamma 90.000000
_cell_volume 1731.340537
_symmetry_space_group_name_H-M "P 21/M"
_symmetry_group_IT_number 11
_symmetry_cell_setting 'monoclinic'
loop_
_space_group_symop_operation_xyz
x,y,z
-x,1/2+y,-z
-x,-y,-z
x,1/2-y,z
loop_
_atom_site_type_symbol
_atom_site_label
_atom_site_fract_x
_atom_site_fract_y
_atom_site_fract_z
Si Si1 0.047324 0.918872 0.992464
Si Si2 0.289925 0.580270 0.007269
Si Si3 0.386567 0.916285 0.410762
Si Si4 0.047684 0.415484 0.344278
Si Si5 0.905615 0.583689 0.464611
Si Si6 0.441743 0.921165 0.616139
Si Si7 0.139775 0.921710 0.330612
Si Si8 0.798548 0.917023 0.211654
O O1 0.998296 0.750000 0.940126
O O2 0.224107 0.934272 0.190693
O O3 0.000000 0.000000 0.000000
O O4 0.975011 0.991955 0.847223
O O5 0.326144 0.750000 0.045747
O O6 0.307236 0.515330 0.956433
O O7 0.125107 0.548236 0.841786
O O8 0.408594 0.506703 0.191997
O O9 0.439240 0.750000 0.472630
O O10 0.388462 0.974694 0.484826
O O11 0.500000 0.000000 0.500000
O O12 0.060234 0.250000 0.332330
O O13 0.147550 0.433209 0.524871
O O14 0.113054 0.529557 0.370984
O O15 0.972450 0.750000 0.535062
O O16 0.771519 0.562405 0.256166
O O17 0.029504 0.460898 0.597418
O O18 0.477668 0.750000 0.659489
O O19 0.309458 0.960136 0.510156
O O20 0.108303 0.750000 0.286212
O O21 0.773363 0.750000 0.161467
#
# Coordination Sequence:
#
# PCOD8075713 Si02
#       8
#     4   4   4   4   4   4   4   4
#     4  11  22  40  62  84 110 141 180 224 268 320
#     4  10  21  35  53  80 112 144 181 225 272 323
#     4  10  23  41  59  83 112 140 176 223 271 319
#     4   9  19  35  53  80 113 142 177 224 270 317
#     4   8  15  28  47  74 109 142 177 222 269 317
#     4  10  22  41  57  76 109 144 179 223 269 320
#     4  11  23  39  58  81 109 144 184 224 269 322
#     4   9  15  26  48  76 106 143 179 218 270 321
#
# _framework density 18.482787999999999
#
# number of rings (size 3 to 8) (size 9 to 14) (size 15 to 20)
#    0.000    2.250    1.250    2.250    1.750    5.500 
#    0.000    0.000    0.000    0.750    0.000    0.000 
#    0.000    0.000    0.000    0.000    0.000    0.000 
#
# Total GULP energy -396670.821032 kJ/mol
# GULP energy per Si atom -12395.963157 kJ/mol
# Density = 1.844072 g / cm^3
# Si number density = 18.482788 Si / 1000 Ang^3
#
#
#
# Elastic Constant Matrix: (Units=GPa)
#
#
# Indices 1 2 3 4 5 6 
#
# 1 113.7375 53.1030 35.1437 0.0000 -9.6087 0.0000
# 2 53.1030 85.5455 33.9993 0.0000 -0.9320 0.0000
# 3 35.1437 33.9993 47.4921 0.0000 -3.4348 0.0000
# 4 0.0000 0.0000 0.0000 30.1774 0.0000 -3.7483
# 5 -9.6087 -0.9320 -3.4348 0.0000 22.8984 0.0000
# 6 0.0000 0.0000 0.0000 -3.7483 0.0000 34.3403
#
#
#
# Elastic Compliance Matrix: (Units=1/GPa)
#
#
# Indices 1 2 3 4 5 6 
#
# 1 0.013830 -0.006433 -0.005285 0.000000 0.004749 0.000000
# 2 -0.006433 0.019358 -0.009338 0.000000 -0.003312 0.000000
# 3 -0.005285 -0.009338 0.031809 0.000000 0.002173 0.000000
# 4 0.000000 0.000000 0.000000 0.033593 0.000000 0.003667
# 5 0.004749 -0.003312 0.002173 0.000000 0.045855 0.000000
# 6 0.000000 0.000000 0.000000 0.003667 0.000000 0.029521
#
#
# Mechanical properties :
#
#
# Convention : Reuss Voigt Hill
#
# Bulk Modulus (GPa) = 43.69563 54.58523 49.14043
# Shear Modulus (GPa) = 22.35085 25.78516 24.06800
#
# Velocity S-wave (km/s) = 3.48124 3.73914 3.61249
# Velocity P-wave (km/s) = 6.31279 6.94541 6.63664
#
# Compressibility (1/GPa) = 0.02288558
#
# Stress axis : x y z
#
# Youngs Moduli (GPa) = 72.30760 51.65866 31.43742
#
# Poissons Ratio (x) = 0.33230 0.16616
# Poissons Ratio (y) = 0.46512 0.29355
# Poissons Ratio (z) = 0.38218 0.48237
#
# Static dielectric constant tensor:
#      x y z
#    x 3.629270 0.000000 -0.549780 
#    y 0.000000 3.472740 0.000000 
#    z -0.549780 0.000000 3.588890 
# 
# 
# High freq. dielectric constant tensor:
#      x y z
#    x 1.711620 0.000000 -0.031810 
#    y 0.000000 1.725780 0.000000 
#    z -0.031810 0.000000 1.700260 
# 
# From -- ./inp_files/67237.got.cif
#   From: 2010.06.25/outbox.cif.g09.slc.cpg/sg11_34_cif.got.tgz:67237.got - 2010.06.27 23:14:04.
