data_PCOD8075782
_publ_section_title
;
Structure prediction by ZEFSAII (Michael W. Deem and Ramdas Pophale) SiO2 
 PCOD8075782
Probable space group: P 21/M
;
_chemical_formula_sum "Si O2"
_cell_formula_units_Z 28
_cell_length_a 19.797588
_cell_length_b 9.094825
_cell_length_c 23.593079
_cell_angle_alpha 90.000000
_cell_angle_beta 157.718123
_cell_angle_gamma 90.000000
_cell_volume 1610.711518
_symmetry_space_group_name_H-M "P 21/M"
_symmetry_group_IT_number 11
_symmetry_cell_setting 'monoclinic'
loop_
_space_group_symop_operation_xyz
x,y,z
-x,1/2+y,-z
-x,-y,-z
x,1/2-y,z
loop_
_atom_site_type_symbol
_atom_site_label
_atom_site_fract_x
_atom_site_fract_y
_atom_site_fract_z
Si Si1 0.694325 0.914478 0.489481
Si Si2 0.014205 0.924990 0.450557
Si Si3 0.674714 0.921137 0.113713
Si Si4 0.635211 0.583772 0.565290
Si Si5 0.674983 0.580412 0.983354
Si Si6 0.936477 0.420093 0.749497
Si Si7 0.636953 0.921334 0.320992
O O1 0.775246 0.750000 0.547900
O O2 0.565470 0.923146 0.445323
O O3 0.588475 0.950625 0.349599
O O4 0.859563 0.026095 0.628485
O O5 0.028393 0.750000 0.468239
O O6 0.843940 0.973273 0.281499
O O7 0.000000 0.000000 0.500000
O O8 0.187702 0.985834 0.554563
O O9 0.642413 0.750000 0.097126
O O10 0.709874 0.960355 0.075616
O O11 0.500000 0.000000 0.000000
O O12 0.500000 0.500000 0.500000
O O13 0.652781 0.750000 0.601034
O O14 0.833054 0.508631 0.719435
O O15 0.615981 0.750000 0.931439
O O16 0.523225 0.475572 0.841959
O O17 0.853209 0.549732 0.085529
O O18 0.892709 0.250000 0.722945
O O19 0.669878 0.750000 0.333259
#
# Coordination Sequence:
#
# PCOD8075782 Si02
#       7
#     4   4   4   4   4   4   4
#     4   8  18  33  50  75 107 137 173 217 263 310
#     4  11  23  39  57  79 106 139 178 223 270 323
#     4  10  22  38  55  76 104 137 176 220 268 317
#     4   9  17  31  52  81 112 140 176 222 267 319
#     4  10  21  36  53  76 106 140 179 223 267 317
#     4   9  17  31  53  78 104 137 177 219 266 314
#     4  11  22  36  54  78 107 142 179 221 270 318
#
# _framework density 17.383621999999999
#
# number of rings (size 3 to 8) (size 9 to 14) (size 15 to 20)
#    0.857    1.429    0.000    3.000    0.000    7.429 
#    0.000    0.000    0.000    0.857    0.000    0.000 
#    0.000    0.000    0.000    0.000    0.000    0.000 
#
# Total GULP energy -346973.239277 kJ/mol
# GULP energy per Si atom -12391.901403 kJ/mol
# Density = 1.734406 g / cm^3
# Si number density = 17.383622 Si / 1000 Ang^3
#
#
#
# Elastic Constant Matrix: (Units=GPa)
#
#
# Indices 1 2 3 4 5 6 
#
# 1 104.7864 54.2179 53.1424 0.0000 9.8541 0.0000
# 2 54.2179 102.7515 59.3657 0.0000 7.5843 0.0000
# 3 53.1424 59.3657 118.0870 0.0000 1.3520 0.0000
# 4 0.0000 0.0000 0.0000 29.6556 0.0000 2.5571
# 5 9.8541 7.5843 1.3520 0.0000 28.5886 0.0000
# 6 0.0000 0.0000 0.0000 2.5571 0.0000 30.3327
#
#
#
# Elastic Compliance Matrix: (Units=1/GPa)
#
#
# Indices 1 2 3 4 5 6 
#
# 1 0.014510 -0.005147 -0.003903 0.000000 -0.003452 0.000000
# 2 -0.005147 0.015863 -0.005634 0.000000 -0.002168 0.000000
# 3 -0.003903 -0.005634 0.013032 0.000000 0.002224 0.000000
# 4 0.000000 0.000000 0.000000 0.033967 0.000000 -0.002863
# 5 -0.003452 -0.002168 0.002224 0.000000 0.036639 0.000000
# 6 0.000000 0.000000 0.000000 -0.002863 0.000000 0.033209
#
#
# Mechanical properties :
#
#
# Convention : Reuss Voigt Hill
#
# Bulk Modulus (GPa) = 71.23681 73.23075 72.23378
# Shear Modulus (GPa) = 27.58375 28.30864 27.94619
#
# Velocity S-wave (km/s) = 3.98775 4.03980 4.01386
# Velocity P-wave (km/s) = 7.89120 7.99861 7.94509
#
# Compressibility (1/GPa) = 0.01403769
#
# Stress axis : x y z
#
# Youngs Moduli (GPa) = 68.91697 63.04021 76.73631
#
# Poissons Ratio (x) = 0.32445 0.29951
# Poissons Ratio (y) = 0.35469 0.43231
# Poissons Ratio (z) = 0.26899 0.35515
#
# Static dielectric constant tensor:
#      x y z
#    x 2.526120 0.000000 4.617580 
#    y 0.000000 3.359020 0.000000 
#    z 4.617580 0.000000 -25.980710 
# 
# 
# High freq. dielectric constant tensor:
#      x y z
#    x 1.668710 0.000000 0.001130 
#    y 0.000000 1.685070 0.000000 
#    z 0.001130 0.000000 1.651200 
# 
# From -- ./inp_files/69843.got.cif
#   From: 2010.06.25/outbox.cif.g09.slc.cpg/sg11_35_cif.got.tgz:69843.got - 2010.06.27 23:14:04.
