data_PCOD8075423
_publ_section_title
;
Structure prediction by ZEFSAII (Michael W. Deem and Ramdas Pophale) SiO2 
 PCOD8075423
Probable space group: P 21/M
;
_chemical_formula_sum "Si O2"
_cell_formula_units_Z 32
_cell_length_a 22.966913
_cell_length_b 9.093408
_cell_length_c 14.141624
_cell_angle_alpha 90.000000
_cell_angle_beta 147.604036
_cell_angle_gamma 90.000000
_cell_volume 1582.358216
_symmetry_space_group_name_H-M "P 21/M"
_symmetry_group_IT_number 11
_symmetry_cell_setting 'monoclinic'
loop_
_space_group_symop_operation_xyz
x,y,z
-x,1/2+y,-z
-x,-y,-z
x,1/2-y,z
loop_
_atom_site_type_symbol
_atom_site_label
_atom_site_fract_x
_atom_site_fract_y
_atom_site_fract_z
Si Si1 0.312387 0.579224 0.991453
Si Si2 0.241429 0.418770 0.564884
Si Si3 0.085158 0.075950 0.685973
Si Si4 0.992350 0.085050 0.242510
Si Si5 0.601219 0.419824 0.092020
Si Si6 0.903646 0.416475 0.918360
Si Si7 0.699935 0.920415 0.563255
Si Si8 0.514080 0.421545 0.619042
O O1 0.277111 0.750000 0.948639
O O2 0.375917 0.532320 0.174456
O O3 0.206439 0.480196 0.832407
O O4 0.392670 0.554726 0.012336
O O5 0.262594 0.250000 0.621941
O O6 0.287224 0.520776 0.710300
O O7 0.301802 0.458032 0.550116
O O8 0.114501 0.452528 0.378549
O O9 0.081885 0.250000 0.666391
O O10 0.051043 0.035864 0.745060
O O11 0.000000 0.000000 0.500000
O O12 0.986887 0.250000 0.279121
O O13 0.915665 0.075569 0.047072
O O14 0.588689 0.250000 0.099223
O O15 0.500000 0.500000 0.000000
O O16 0.906604 0.250000 0.885633
O O17 0.788211 0.485116 0.738363
O O18 0.000000 0.500000 0.000000
O O19 0.729112 0.750000 0.618328
O O20 0.584320 0.964025 0.447105
O O21 0.500000 0.500000 0.500000
O O22 0.515372 0.250000 0.599289
#
# Coordination Sequence:
#
# PCOD8075423 Si02
#       8
#     4   4   4   4   4   4   4   4
#     4  10  23  45  67  90 125 168 211 258 316 375
#     4  10  20  38  62  88 121 159 199 248 307 368
#     4  12  26  43  66  95 128 167 211 262 315 377
#     4  10  22  40  62  89 124 164 205 252 310 372
#     4  11  23  39  63  92 121 156 200 250 307 369
#     4  11  22  38  61  92 127 166 208 256 311 371
#     4  10  21  40  62  88 124 165 207 255 314 372
#     4  10  23  42  65  89 122 164 211 262 314 374
#
# _framework density 20.222981999999998
#
# number of rings (size 3 to 8) (size 9 to 14) (size 15 to 20)
#    0.000    1.500    1.250    3.375    1.750    8.000 
#    0.000    1.250    0.000    0.000    0.000    0.000 
#    0.000    0.000    0.000    0.000    0.000    0.000 
#
# Total GULP energy -396920.622937 kJ/mol
# GULP energy per Si atom -12403.769467 kJ/mol
# Density = 2.017695 g / cm^3
# Si number density = 20.222982 Si / 1000 Ang^3
#
#
#
# Elastic Constant Matrix: (Units=GPa)
#
#
# Indices 1 2 3 4 5 6 
#
# 1 104.5070 50.4475 35.3530 0.0000 0.0398 0.0000
# 2 50.4475 111.6367 63.1483 0.0000 0.8373 0.0000
# 3 35.3530 63.1483 122.2720 0.0000 -3.4899 0.0000
# 4 0.0000 0.0000 0.0000 38.8476 0.0000 1.0007
# 5 0.0398 0.8373 -3.4899 0.0000 32.6036 0.0000
# 6 0.0000 0.0000 0.0000 1.0007 0.0000 36.9891
#
#
#
# Elastic Compliance Matrix: (Units=1/GPa)
#
#
# Indices 1 2 3 4 5 6 
#
# 1 0.012319 -0.005018 -0.000970 0.000000 0.000010 0.000000
# 2 -0.005018 0.014733 -0.006188 0.000000 -0.001035 0.000000
# 3 -0.000970 -0.006188 0.011695 0.000000 0.001412 0.000000
# 4 0.000000 0.000000 0.000000 0.025760 0.000000 -0.000697
# 5 0.000010 -0.001035 0.001412 0.000000 0.030849 0.000000
# 6 0.000000 0.000000 0.000000 -0.000697 0.000000 0.027054
#
#
# Mechanical properties :
#
#
# Convention : Reuss Voigt Hill
#
# Bulk Modulus (GPa) = 69.46567 70.70147 70.08357
# Shear Modulus (GPa) = 32.99017 34.31920 33.65468
#
# Velocity S-wave (km/s) = 4.04334 4.12398 4.08386
# Velocity P-wave (km/s) = 7.49817 7.59692 7.54771
#
# Compressibility (1/GPa) = 0.01439560
#
# Stress axis : x y z
#
# Youngs Moduli (GPa) = 81.17336 67.87360 85.50774
#
# Poissons Ratio (x) = 0.34062 0.08293
# Poissons Ratio (y) = 0.40736 0.52909
# Poissons Ratio (z) = 0.07872 0.41998
#
# Static dielectric constant tensor:
#      x y z
#    x 3.721370 0.000000 -0.016880 
#    y 0.000000 3.172730 0.000000 
#    z -0.016880 0.000000 3.431420 
# 
# 
# High freq. dielectric constant tensor:
#      x y z
#    x 1.797850 0.000000 -0.001040 
#    y 0.000000 1.785530 0.000000 
#    z -0.001040 0.000000 1.802150 
# 
# From -- ./inp_files/55732.got.cif
#   From: 2010.06.25/outbox.cif.g09.slc.cpg/sg11_28_cif.got.tgz:55732.got - 2010.06.27 23:14:04.
