data_PCOD8075464
_publ_section_title
;
Structure prediction by ZEFSAII (Michael W. Deem and Ramdas Pophale) SiO2 
 PCOD8075464
Probable space group: P 21/M
;
_chemical_formula_sum "Si O2"
_cell_formula_units_Z 28
_cell_length_a 13.753205
_cell_length_b 9.082445
_cell_length_c 18.676607
_cell_angle_alpha 90.000000
_cell_angle_beta 36.498575
_cell_angle_gamma 90.000000
_cell_volume 1387.642757
_symmetry_space_group_name_H-M "P 21/M"
_symmetry_group_IT_number 11
_symmetry_cell_setting 'monoclinic'
loop_
_space_group_symop_operation_xyz
x,y,z
-x,1/2+y,-z
-x,-y,-z
x,1/2-y,z
loop_
_atom_site_type_symbol
_atom_site_label
_atom_site_fract_x
_atom_site_fract_y
_atom_site_fract_z
Si Si1 0.468175 0.918026 0.217351
Si Si2 0.011429 0.418851 0.215458
Si Si3 0.255924 0.421607 0.537638
Si Si4 0.843869 0.919714 0.563429
Si Si5 0.578662 0.921994 0.309786
Si Si6 0.911802 0.419747 0.117502
Si Si7 0.373378 0.420722 0.023551
O O1 0.406458 0.750000 0.251826
O O2 0.563766 0.950066 0.233903
O O3 0.312173 0.021902 0.301425
O O4 0.587770 0.956070 0.081834
O O5 0.974519 0.250000 0.259215
O O6 0.868425 0.522652 0.328801
O O7 0.023137 0.431818 0.122481
O O8 0.185188 0.470565 0.146420
O O9 0.292719 0.250000 0.527827
O O10 0.173465 0.452495 0.510151
O O11 0.425606 0.509933 0.443190
O O12 0.862711 0.750000 0.569692
O O13 0.000000 0.000000 0.500000
O O14 0.590995 0.750000 0.321357
O O15 0.740696 0.004603 0.238874
O O16 0.883296 0.250000 0.112860
O O17 0.000000 0.500000 0.000000
O O18 0.392025 0.250000 0.029075
O O19 0.500000 0.500000 0.000000
#
# Coordination Sequence:
#
# PCOD8075464 Si02
#       7
#     4   4   4   4   4   4   4
#     4   9  19  37  58  81 113 150 191 239 292 350
#     4  10  23  42  61  85 120 160 199 243 299 360
#     4  10  22  39  59  87 121 156 200 250 296 351
#     4  10  21  35  55  83 114 149 194 244 293 348
#     4  10  20  38  64  90 119 157 197 243 302 358
#     4  11  23  40  64  92 122 157 201 249 297 354
#     4  10  22  39  58  82 114 152 195 241 293 352
#
# _framework density 20.178106
#
# number of rings (size 3 to 8) (size 9 to 14) (size 15 to 20)
#    0.000    2.000    0.000    2.571    2.000    7.429 
#    0.000    1.429    0.000    0.000    0.000    0.000 
#    0.000    0.000    0.000    0.000    0.000    0.000 
#
# Total GULP energy -347287.889344 kJ/mol
# GULP energy per Si atom -12403.138905 kJ/mol
# Density = 2.013218 g / cm^3
# Si number density = 20.178106 Si / 1000 Ang^3
#
#
#
# Elastic Constant Matrix: (Units=GPa)
#
#
# Indices 1 2 3 4 5 6 
#
# 1 73.1171 40.5013 39.7543 0.0000 -17.6874 0.0000
# 2 40.5013 107.6065 55.9172 0.0000 -12.5707 0.0000
# 3 39.7543 55.9172 119.4705 0.0000 -8.2324 0.0000
# 4 0.0000 0.0000 0.0000 40.3927 0.0000 -3.2797
# 5 -17.6874 -12.5707 -8.2324 0.0000 32.8861 0.0000
# 6 0.0000 0.0000 0.0000 -3.2797 0.0000 32.2183
#
#
#
# Elastic Compliance Matrix: (Units=1/GPa)
#
#
# Indices 1 2 3 4 5 6 
#
# 1 0.020433 -0.004615 -0.004074 0.000000 0.008206 0.000000
# 2 -0.004615 0.013687 -0.004763 0.000000 0.001557 0.000000
# 3 -0.004074 -0.004763 0.011884 0.000000 -0.001037 0.000000
# 4 0.000000 0.000000 0.000000 0.024963 0.000000 0.002541
# 5 0.008206 0.001557 -0.001037 0.000000 0.035157 0.000000
# 6 0.000000 0.000000 0.000000 0.002541 0.000000 0.031297
#
#
# Mechanical properties :
#
#
# Convention : Reuss Voigt Hill
#
# Bulk Modulus (GPa) = 52.35601 63.61552 57.98577
# Shear Modulus (GPa) = 29.29249 32.03416 30.66332
#
# Velocity S-wave (km/s) = 3.81425 3.98875 3.90248
# Velocity P-wave (km/s) = 6.73804 7.26698 7.00750
#
# Compressibility (1/GPa) = 0.01910000
#
# Stress axis : x y z
#
# Youngs Moduli (GPa) = 48.94030 73.06036 84.14882
#
# Poissons Ratio (x) = 0.33719 0.34279
# Poissons Ratio (y) = 0.22587 0.40082
# Poissons Ratio (z) = 0.19936 0.34800
#
# Static dielectric constant tensor:
#      x y z
#    x 3.552910 0.000000 0.027220 
#    y 0.000000 3.708820 0.000000 
#    z 0.027220 0.000000 3.692000 
# 
# 
# High freq. dielectric constant tensor:
#      x y z
#    x 1.788390 0.000000 -0.005520 
#    y 0.000000 1.791620 0.000000 
#    z -0.005520 0.000000 1.794060 
# 
# From -- ./inp_files/54527.got.cif
#   From: 2010.06.25/outbox.cif.g09.slc.cpg/sg11_28_cif.got.tgz:54527.got - 2010.06.27 23:14:04.
