data_PCOD8075101
_publ_section_title
;
Structure prediction by ZEFSAII (Michael W. Deem and Ramdas Pophale) SiO2 
 PCOD8075101
Probable space group: P 21/M
;
_chemical_formula_sum "Si O2"
_cell_formula_units_Z 28
_cell_length_a 7.843384
_cell_length_b 9.062157
_cell_length_c 19.818026
_cell_angle_alpha 90.000000
_cell_angle_beta 90.442203
_cell_angle_gamma 90.000000
_cell_volume 1408.583248
_symmetry_space_group_name_H-M "P 21/M"
_symmetry_group_IT_number 11
_symmetry_cell_setting 'monoclinic'
loop_
_space_group_symop_operation_xyz
x,y,z
-x,1/2+y,-z
-x,-y,-z
x,1/2-y,z
loop_
_atom_site_type_symbol
_atom_site_label
_atom_site_fract_x
_atom_site_fract_y
_atom_site_fract_z
Si Si1 0.330131 0.578287 0.657222
Si Si2 0.016102 0.924637 0.571491
Si Si3 0.706728 0.577304 0.666995
Si Si4 0.210064 0.586216 0.942414
Si Si5 0.827224 0.425103 0.796914
Si Si6 0.186895 0.576183 0.796079
Si Si7 0.803999 0.585077 0.929966
O O1 0.293019 0.750000 0.654154
O O2 0.185876 0.508490 0.608095
O O3 0.521590 0.540998 0.633274
O O4 0.309866 0.528523 0.735277
O O5 0.024376 0.750000 0.561193
O O6 0.852259 0.970081 0.615229
O O7 0.000000 0.000000 0.500000
O O8 0.721281 0.750000 0.685866
O O9 0.714635 0.481913 0.734641
O O10 0.273909 0.750000 0.960848
O O11 0.277835 0.538007 0.868182
O O12 0.006442 0.583292 0.937054
O O13 0.277787 0.478287 0.001062
O O14 0.826778 0.250000 0.799922
O O15 0.747141 0.486890 0.866218
O O16 0.016624 0.483490 0.785995
O O17 0.138368 0.750000 0.794645
O O18 0.733412 0.750000 0.919577
#
# Coordination Sequence:
#
# PCOD8075101 Si02
#       7
#     4   4   4   4   4   4   4
#     4   9  18  35  60  85 109 145 188 225 266 324
#     4  10  21  38  60  86 116 146 181 219 264 324
#     4  10  20  37  60  82 109 147 187 225 269 324
#     4   8  14  23  40  68 101 135 176 229 280 324
#     4  11  20  30  49  77 109 143 183 232 281 325
#     4   9  16  31  53  76 105 143 186 228 275 333
#     4   9  16  26  42  66 101 143 186 229 275 330
#
# _framework density 19.878128
#
# number of rings (size 3 to 8) (size 9 to 14) (size 15 to 20)
#    0.000    2.571    1.429    2.571    0.000    4.571 
#    0.000    1.429    0.000    0.857    0.000    0.000 
#    0.000    0.000    0.000    0.000    0.000    0.000 
#
# Total GULP energy -347058.783745 kJ/mol
# GULP energy per Si atom -12394.956562 kJ/mol
# Density = 1.983288 g / cm^3
# Si number density = 19.878128 Si / 1000 Ang^3
#
#
#
# Elastic Constant Matrix: (Units=GPa)
#
#
# Indices 1 2 3 4 5 6 
#
# 1 94.5128 30.6130 58.3410 0.0000 2.4120 0.0000
# 2 30.6130 83.1610 52.6023 0.0000 4.9577 0.0000
# 3 58.3410 52.6023 161.9699 0.0000 4.8918 0.0000
# 4 0.0000 0.0000 0.0000 37.0886 0.0000 4.1315
# 5 2.4120 4.9577 4.8918 0.0000 7.5716 0.0000
# 6 0.0000 0.0000 0.0000 4.1315 0.0000 8.3482
#
#
#
# Elastic Compliance Matrix: (Units=1/GPa)
#
#
# Indices 1 2 3 4 5 6 
#
# 1 0.013998 -0.002466 -0.004238 0.000000 -0.000107 0.000000
# 2 -0.002466 0.015927 -0.004072 0.000000 -0.007012 0.000000
# 3 -0.004238 -0.004072 0.009079 0.000000 -0.001849 0.000000
# 4 0.000000 0.000000 0.000000 0.028536 0.000000 -0.014122
# 5 -0.000107 -0.007012 -0.001849 0.000000 0.137892 0.000000
# 6 0.000000 0.000000 0.000000 -0.014122 0.000000 0.126775
#
#
# Mechanical properties :
#
#
# Convention : Reuss Voigt Hill
#
# Bulk Modulus (GPa) = 57.30359 69.19512 63.24935
# Shear Modulus (GPa) = 13.90525 23.80751 18.85638
#
# Velocity S-wave (km/s) = 2.64772 3.46450 3.08328
# Velocity P-wave (km/s) = 6.18363 7.13365 6.67556
#
# Compressibility (1/GPa) = 0.01745092
#
# Stress axis : x y z
#
# Youngs Moduli (GPa) = 71.43864 62.78820 110.14515
#
# Poissons Ratio (x) = 0.15483 0.46679
# Poissons Ratio (y) = 0.17616 0.44856
# Poissons Ratio (z) = 0.30276 0.25570
#
# Static dielectric constant tensor:
#      x y z
#    x 3.417370 0.000000 -0.033080 
#    y 0.000000 3.417500 0.000000 
#    z -0.033080 0.000000 3.861160 
# 
# 
# High freq. dielectric constant tensor:
#      x y z
#    x 1.750300 0.000000 -0.000390 
#    y 0.000000 1.748680 0.000000 
#    z -0.000390 0.000000 1.783480 
# 
# From -- ./inp_files/63069.got.cif
#   From: 2010.06.25/outbox.cif.g09.slc.cpg/sg11_32_cif.got.tgz:63069.got - 2010.06.27 23:14:04.
