data_PCOD8075081
_publ_section_title
;
Structure prediction by ZEFSAII (Michael W. Deem and Ramdas Pophale) SiO2 
 PCOD8075081
Probable space group: P 21/M
;
_chemical_formula_sum "Si O2"
_cell_formula_units_Z 28
_cell_length_a 9.420375
_cell_length_b 8.667250
_cell_length_c 26.848506
_cell_angle_alpha 90.000000
_cell_angle_beta 138.695886
_cell_angle_gamma 90.000000
_cell_volume 1446.938809
_symmetry_space_group_name_H-M "P 21/M"
_symmetry_group_IT_number 11
_symmetry_cell_setting 'monoclinic'
loop_
_space_group_symop_operation_xyz
x,y,z
-x,1/2+y,-z
-x,-y,-z
x,1/2-y,z
loop_
_atom_site_type_symbol
_atom_site_label
_atom_site_fract_x
_atom_site_fract_y
_atom_site_fract_z
Si Si1 0.341102 0.433807 0.917555
Si Si2 0.873828 0.419154 0.689367
Si Si3 0.624837 0.581534 0.182339
Si Si4 0.939974 0.568793 0.430887
Si Si5 0.731592 0.571413 0.557301
Si Si6 0.123399 0.430057 0.209558
Si Si7 0.551988 0.072330 0.266955
O O1 0.326470 0.250000 0.916777
O O2 0.440711 0.484317 0.889610
O O3 0.105401 0.502004 0.867330
O O4 0.500000 0.500000 0.000000
O O5 0.766690 0.250000 0.649883
O O6 0.834246 0.549593 0.638185
O O7 0.784136 0.484377 0.717436
O O8 0.124419 0.394261 0.758440
O O9 0.519164 0.750000 0.164855
O O10 0.571146 0.470942 0.213948
O O11 0.923200 0.750000 0.432279
O O12 0.136407 0.526161 0.447428
O O13 0.000000 0.500000 0.500000
O O14 0.715632 0.514020 0.347234
O O15 0.500000 0.500000 0.500000
O O16 0.729697 0.750000 0.541568
O O17 0.094724 0.250000 0.213388
O O18 0.304179 0.460255 0.215408
O O19 0.613467 0.250000 0.288722
#
# Coordination Sequence:
#
# PCOD8075081 Si02
#       7
#     4   4   4   4   4   4   4
#     4  10  21  39  64  93 124 157 198 245 300 362
#     4  10  20  37  59  85 114 151 200 248 297 355
#     4   9  19  36  60  87 117 153 195 242 294 355
#     4  12  26  44  63  86 121 162 208 258 313 370
#     4  12  25  41  61  85 116 154 200 254 310 365
#     4  10  22  38  59  89 123 158 200 247 296 356
#     4  11  23  39  61  89 122 160 206 250 302 365
#
# _framework density 19.351199999999999
#
# number of rings (size 3 to 8) (size 9 to 14) (size 15 to 20)
#    0.000    1.429    1.429    5.143    2.000    5.143 
#    0.000    0.714    0.000    0.000    0.000    0.000 
#    0.000    0.000    0.000    0.000    0.000    0.000 
#
# Total GULP energy -347069.730606 kJ/mol
# GULP energy per Si atom -12395.347522 kJ/mol
# Density = 1.930716 g / cm^3
# Si number density = 19.351200 Si / 1000 Ang^3
#
#
#
# Elastic Constant Matrix: (Units=GPa)
#
#
# Indices 1 2 3 4 5 6 
#
# 1 119.2654 57.9054 63.4528 0.0000 -7.8927 0.0000
# 2 57.9054 134.0985 49.6931 0.0000 -3.6393 0.0000
# 3 63.4528 49.6931 117.3440 0.0000 -20.8731 0.0000
# 4 0.0000 0.0000 0.0000 34.2517 0.0000 -2.1138
# 5 -7.8927 -3.6393 -20.8731 0.0000 28.8177 0.0000
# 6 0.0000 0.0000 0.0000 -2.1138 0.0000 32.0386
#
#
#
# Elastic Compliance Matrix: (Units=1/GPa)
#
#
# Indices 1 2 3 4 5 6 
#
# 1 0.013110 -0.003551 -0.005770 0.000000 -0.001037 0.000000
# 2 -0.003551 0.009892 -0.002548 0.000000 -0.001569 0.000000
# 3 -0.005770 -0.002548 0.014214 0.000000 0.008393 0.000000
# 4 0.000000 0.000000 0.000000 0.029315 0.000000 0.001934
# 5 -0.001037 -0.001569 0.008393 0.000000 0.040298 0.000000
# 6 0.000000 0.000000 0.000000 0.001934 0.000000 0.031340
#
#
# Mechanical properties :
#
#
# Convention : Reuss Voigt Hill
#
# Bulk Modulus (GPa) = 74.19274 79.20116 76.69695
# Shear Modulus (GPa) = 30.04818 32.33203 31.19010
#
# Velocity S-wave (km/s) = 3.94481 4.09198 4.01907
# Velocity P-wave (km/s) = 7.69234 7.95882 7.82671
#
# Compressibility (1/GPa) = 0.01347841
#
# Stress axis : x y z
#
# Youngs Moduli (GPa) = 76.27910 101.08914 70.35359
#
# Poissons Ratio (x) = 0.35897 0.40591
# Poissons Ratio (y) = 0.27087 0.17927
# Poissons Ratio (z) = 0.44010 0.25758
#
# Static dielectric constant tensor:
#      x y z
#    x 3.691990 0.000000 -0.236750 
#    y 0.000000 3.885070 0.000000 
#    z -0.236750 0.000000 3.645670 
# 
# 
# High freq. dielectric constant tensor:
#      x y z
#    x 1.756750 0.000000 -0.010110 
#    y 0.000000 1.769560 0.000000 
#    z -0.010110 0.000000 1.744400 
# 
# From -- ./inp_files/70898.got.cif
#   From: 2010.06.25/outbox.cif.g09.slc.cpg/sg11_36_cif.got.tgz:70898.got - 2010.06.27 23:14:04.
