data_PCOD8075392
_publ_section_title
;
Structure prediction by ZEFSAII (Michael W. Deem and Ramdas Pophale) SiO2 
 PCOD8075392
Probable space group: P 21/M
;
_chemical_formula_sum "Si O2"
_cell_formula_units_Z 28
_cell_length_a 5.236189
_cell_length_b 12.606800
_cell_length_c 17.681715
_cell_angle_alpha 90.000000
_cell_angle_beta 82.803595
_cell_angle_gamma 90.000000
_cell_volume 1158.003548
_symmetry_space_group_name_H-M "P 21/M"
_symmetry_group_IT_number 11
_symmetry_cell_setting 'monoclinic'
loop_
_space_group_symop_operation_xyz
x,y,z
-x,1/2+y,-z
-x,-y,-z
x,1/2-y,z
loop_
_atom_site_type_symbol
_atom_site_label
_atom_site_fract_x
_atom_site_fract_y
_atom_site_fract_z
Si Si1 0.862750 0.250000 0.823016
Si Si2 0.381346 0.866898 0.725309
Si Si3 0.742189 0.969984 0.051803
Si Si4 0.962865 0.525478 0.201266
Si Si5 0.736552 0.573253 0.585243
Si Si6 0.323139 0.250000 0.919790
Si Si7 0.265426 0.633841 0.498591
Si Si8 0.614546 0.868915 0.876611
O O1 0.917755 0.138535 0.774909
O O2 0.562201 0.250000 0.852831
O O3 0.041189 0.250000 0.890413
O O4 0.289182 0.750000 0.698592
O O5 0.644717 0.901994 0.673705
O O6 0.425762 0.855924 0.812664
O O7 0.172304 0.962517 0.723146
O O8 0.658036 0.852824 0.025926
O O9 0.763866 0.948269 0.141429
O O10 0.527432 0.062985 0.050635
O O11 0.000000 0.000000 0.000000
O O12 0.148475 0.440296 0.155843
O O13 0.527130 0.622656 0.536174
O O14 0.749157 0.447235 0.570495
O O15 0.019862 0.621396 0.563306
O O16 0.260178 0.750000 0.462014
O O17 0.695779 0.750000 0.900202
#
# Coordination Sequence:
#
# PCOD8075392 Si02
#       8
#     2   4   4   4   4   2   4   4
#     4  10  20  40  64  78 114 154 194 236 288 351
#     4  10  21  37  59  86 119 155 200 245 296 358
#     4  10  22  38  57  83 117 151 196 246 302 359
#     4  10  21  39  58  83 114 155 195 248 296 356
#     4  10  22  37  61  92 119 162 204 240 296 356
#     4  10  20  40  60  86 110 150 194 236 286 363
#     4  10  20  38  61  88 126 158 198 249 294 344
#     4  10  21  37  57  84 117 150 195 249 302 351
#
# _framework density 24.179546999999999
#
# number of rings (size 3 to 8) (size 9 to 14) (size 15 to 20)
#    0.000    2.000    1.429    1.714    3.000    1.143 
#    1.286    0.000    0.000    0.000    0.000    0.000 
#    0.000    0.000    0.000    0.000    0.000    0.000 
#
# Total GULP energy -346948.598007 kJ/mol
# GULP energy per Si atom -12391.021357 kJ/mol
# Density = 2.412451 g / cm^3
# Si number density = 24.179547 Si / 1000 Ang^3
#
#
#
# Elastic Constant Matrix: (Units=GPa)
#
#
# Indices 1 2 3 4 5 6 
#
# 1 67.2720 36.0786 1.4966 0.0000 -27.7301 0.0000
# 2 36.0786 272.1104 57.8596 0.0000 -38.2315 0.0000
# 3 1.4966 57.8596 67.3160 0.0000 -30.2742 0.0000
# 4 0.0000 0.0000 0.0000 24.4622 0.0000 -4.8617
# 5 -27.7301 -38.2315 -30.2742 0.0000 37.1885 0.0000
# 6 0.0000 0.0000 0.0000 -4.8617 0.0000 27.2122
#
#
#
# Elastic Compliance Matrix: (Units=1/GPa)
#
#
# Indices 1 2 3 4 5 6 
#
# 1 0.029253 -0.002813 0.016213 0.000000 0.032119 0.000000
# 2 -0.002813 0.004899 -0.004459 0.000000 -0.000691 0.000000
# 3 0.016213 -0.004459 0.034238 0.000000 0.035377 0.000000
# 4 0.000000 0.000000 0.000000 0.042384 0.000000 0.007572
# 5 0.032119 -0.000691 0.035377 0.000000 0.078929 0.000000
# 6 0.000000 0.000000 0.000000 0.007572 0.000000 0.038101
#
#
# Mechanical properties :
#
#
# Convention : Reuss Voigt Hill
#
# Bulk Modulus (GPa) = 11.59149 66.39644 38.99397
# Shear Modulus (GPa) = 20.94853 38.52350 29.73601
#
# Velocity S-wave (km/s) = 2.94662 3.99585 3.51066
# Velocity P-wave (km/s) = 4.04735 6.98631 5.70918
#
# Compressibility (1/GPa) = 0.08627016
#
# Stress axis : x y z
#
# Youngs Moduli (GPa) = 34.18474 204.12322 29.20739
#
# Poissons Ratio (x) = 0.57424 -0.47353
# Poissons Ratio (y) = 0.09617 0.13024
# Poissons Ratio (z) = -0.55422 0.91023
#
# Static dielectric constant tensor:
#      x y z
#    x 4.262090 0.000000 -0.076260 
#    y 0.000000 5.570390 0.000000 
#    z -0.076260 0.000000 4.064060 
# 
# 
# High freq. dielectric constant tensor:
#      x y z
#    x 1.959400 0.000000 -0.008390 
#    y 0.000000 1.997490 0.000000 
#    z -0.008390 0.000000 1.924280 
# 
# From -- ./inp_files/8642.got.cif
#   From: 2010.06.25/outbox.cif.g09.slc.cpg/sg11_5_cif.got.tgz:8642.got - 2010.06.27 23:14:04.
