data_PCOD8075134
_publ_section_title
;
Structure prediction by ZEFSAII (Michael W. Deem and Ramdas Pophale) SiO2 
 PCOD8075134
Probable space group: P 21/M
;
_chemical_formula_sum "Si O2"
_cell_formula_units_Z 28
_cell_length_a 15.496138
_cell_length_b 9.148963
_cell_length_c 21.123903
_cell_angle_alpha 90.000000
_cell_angle_beta 151.457277
_cell_angle_gamma 90.000000
_cell_volume 1430.962696
_symmetry_space_group_name_H-M "P 21/M"
_symmetry_group_IT_number 11
_symmetry_cell_setting 'monoclinic'
loop_
_space_group_symop_operation_xyz
x,y,z
-x,1/2+y,-z
-x,-y,-z
x,1/2-y,z
loop_
_atom_site_type_symbol
_atom_site_label
_atom_site_fract_x
_atom_site_fract_y
_atom_site_fract_z
Si Si1 0.596694 0.917051 0.480315
Si Si2 0.054235 0.077897 0.599601
Si Si3 0.229899 0.920813 0.304924
Si Si4 0.267444 0.414989 0.566285
Si Si5 0.921146 0.923578 0.011619
Si Si6 0.443810 0.421797 0.899261
Si Si7 0.406592 0.918340 0.136568
O O1 0.619556 0.750000 0.514742
O O2 0.400887 0.976890 0.374330
O O3 0.603592 0.940981 0.410192
O O4 0.759677 0.002649 0.619976
O O5 0.055101 0.250000 0.588985
O O6 0.244581 0.024518 0.750550
O O7 0.000000 0.000000 0.500000
O O8 0.896862 0.028775 0.546268
O O9 0.235715 0.750000 0.319812
O O10 0.049861 0.967053 0.152738
O O11 0.189278 0.250000 0.516444
O O12 0.388909 0.441087 0.706735
O O13 0.914276 0.750000 0.995254
O O14 0.725540 0.980486 0.907289
O O15 0.000000 0.000000 0.000000
O O16 0.442862 0.250000 0.911828
O O17 0.584195 0.459272 0.932355
O O18 0.500000 0.500000 0.000000
O O19 0.346889 0.750000 0.107631
#
# Coordination Sequence:
#
# PCOD8075134 Si02
#       7
#     4   4   4   4   4   4   4
#     4   9  18  33  56  81 107 146 188 231 286 344
#     4  11  22  39  62  88 117 152 195 244 297 353
#     4   9  19  36  54  75 111 150 185 233 286 337
#     4  10  20  37  60  86 117 151 193 243 296 351
#     4  11  23  38  58  85 116 154 196 240 293 352
#     4  10  23  42  63  88 122 163 203 250 309 364
#     4  10  21  40  61  83 118 158 196 245 300 355
#
# _framework density 19.567246999999998
#
# number of rings (size 3 to 8) (size 9 to 14) (size 15 to 20)
#    0.000    2.000    1.429    1.714    0.000    7.429 
#    0.000    8.571    0.000    0.000    0.000    0.000 
#    0.000    0.000    0.000    0.000    0.000    0.000 
#
# Total GULP energy -347148.767148 kJ/mol
# GULP energy per Si atom -12398.170255 kJ/mol
# Density = 1.952271 g / cm^3
# Si number density = 19.567247 Si / 1000 Ang^3
#
#
#
# Elastic Constant Matrix: (Units=GPa)
#
#
# Indices 1 2 3 4 5 6 
#
# 1 99.1635 39.2392 40.7196 0.0000 -6.3818 0.0000
# 2 39.2392 64.7906 47.2253 0.0000 -2.4302 0.0000
# 3 40.7196 47.2253 103.0476 0.0000 -5.3305 0.0000
# 4 0.0000 0.0000 0.0000 35.3776 0.0000 -1.0793
# 5 -6.3818 -2.4302 -5.3305 0.0000 33.2379 0.0000
# 6 0.0000 0.0000 0.0000 -1.0793 0.0000 36.5794
#
#
#
# Elastic Compliance Matrix: (Units=1/GPa)
#
#
# Indices 1 2 3 4 5 6 
#
# 1 0.013755 -0.006560 -0.002336 0.000000 0.001787 0.000000
# 2 -0.006560 0.026305 -0.009507 0.000000 -0.000861 0.000000
# 3 -0.002336 -0.009507 0.015050 0.000000 0.001270 0.000000
# 4 0.000000 0.000000 0.000000 0.028292 0.000000 0.000835
# 5 0.001787 -0.000861 0.001270 0.000000 0.030570 0.000000
# 6 0.000000 0.000000 0.000000 0.000835 0.000000 0.027362
#
#
# Mechanical properties :
#
#
# Convention : Reuss Voigt Hill
#
# Bulk Modulus (GPa) = 54.63923 57.92998 56.28461
# Shear Modulus (GPa) = 27.13807 30.36015 28.74911
#
# Velocity S-wave (km/s) = 3.72817 3.94328 3.83723
# Velocity P-wave (km/s) = 6.82032 7.09947 6.96130
#
# Compressibility (1/GPa) = 0.01830187
#
# Stress axis : x y z
#
# Youngs Moduli (GPa) = 72.70290 38.01540 66.44396
#
# Poissons Ratio (x) = 0.24939 0.15523
# Poissons Ratio (y) = 0.47696 0.63172
# Poissons Ratio (z) = 0.16985 0.36143
#
# Static dielectric constant tensor:
#      x y z
#    x 3.694650 0.000000 0.067320 
#    y 0.000000 3.594870 0.000000 
#    z 0.067320 0.000000 3.738360 
# 
# 
# High freq. dielectric constant tensor:
#      x y z
#    x 1.769510 0.000000 -0.003170 
#    y 0.000000 1.754700 0.000000 
#    z -0.003170 0.000000 1.760610 
# 
# From -- ./inp_files/65463.got.cif
#   From: 2010.06.25/outbox.cif.g09.slc.cpg/sg11_33_cif.got.tgz:65463.got - 2010.06.27 23:14:04.
