data_PCOD8075037
_publ_section_title
;
Structure prediction by ZEFSAII (Michael W. Deem and Ramdas Pophale) SiO2 
 PCOD8075037
Probable space group: P 21/M
;
_chemical_formula_sum "Si O2"
_cell_formula_units_Z 28
_cell_length_a 9.229011
_cell_length_b 8.315422
_cell_length_c 29.142503
_cell_angle_alpha 90.000000
_cell_angle_beta 37.629914
_cell_angle_gamma 90.000000
_cell_volume 1365.506448
_symmetry_space_group_name_H-M "P 21/M"
_symmetry_group_IT_number 11
_symmetry_cell_setting 'monoclinic'
loop_
_space_group_symop_operation_xyz
x,y,z
-x,1/2+y,-z
-x,-y,-z
x,1/2-y,z
loop_
_atom_site_type_symbol
_atom_site_label
_atom_site_fract_x
_atom_site_fract_y
_atom_site_fract_z
Si Si1 0.671634 0.935962 0.996157
Si Si2 0.996514 0.937672 0.269375
Si Si3 0.328840 0.062477 0.730990
Si Si4 0.190931 0.062629 0.864160
Si Si5 0.498279 0.566017 0.868236
Si Si6 0.404981 0.564679 0.571166
Si Si7 0.736141 0.061831 0.563474
O O1 0.730855 0.750000 0.972525
O O2 0.546577 0.953943 0.076690
O O3 0.500000 0.000000 0.000000
O O4 0.909771 0.040046 0.935809
O O5 0.052411 0.750000 0.251103
O O6 0.862354 0.006670 0.257646
O O7 0.829182 0.966615 0.355308
O O8 0.239081 0.032765 0.216478
O O9 0.277032 0.250000 0.747271
O O10 0.291756 0.989015 0.790918
O O11 0.596775 0.028711 0.646264
O O12 0.253756 0.250000 0.853657
O O13 0.308207 0.967152 0.876297
O O14 0.472817 0.750000 0.889908
O O15 0.500000 0.500000 0.500000
O O16 0.335807 0.750000 0.584472
O O17 0.614633 0.541440 0.554683
O O18 0.724376 0.250000 0.553893
O O19 0.000000 0.000000 0.500000
#
# Coordination Sequence:
#
# PCOD8075037 Si02
#       7
#     4   4   4   4   4   4   4
#     4  12  25  43  65  91 120 156 198 245 297 356
#     4  10  20  39  63  88 117 154 198 249 301 356
#     4   8  18  36  60  84 112 149 193 239 292 352
#     4  11  22  40  63  89 120 158 199 246 298 352
#     4  12  25  41  60  89 124 160 200 246 294 349
#     4  11  22  38  59  86 118 157 201 250 301 357
#     4  10  20  37  58  85 118 156 199 247 298 356
#
# _framework density 20.505213999999999
#
# number of rings (size 3 to 8) (size 9 to 14) (size 15 to 20)
#    0.000    1.429    0.000    7.286    0.000    2.286 
#    0.000   12.143    0.000    0.000    0.000    0.000 
#    0.000    0.000    0.000    0.000    0.000    0.000 
#
# Total GULP energy -347306.265586 kJ/mol
# GULP energy per Si atom -12403.795199 kJ/mol
# Density = 2.045854 g / cm^3
# Si number density = 20.505214 Si / 1000 Ang^3
#
#
#
# Elastic Constant Matrix: (Units=GPa)
#
#
# Indices 1 2 3 4 5 6 
#
# 1 110.2195 14.2049 61.5361 0.0000 -1.8346 0.0000
# 2 14.2049 76.4459 9.8401 0.0000 3.2715 0.0000
# 3 61.5361 9.8401 129.7415 0.0000 2.5470 0.0000
# 4 0.0000 0.0000 0.0000 32.6464 0.0000 -2.5134
# 5 -1.8346 3.2715 2.5470 0.0000 44.8535 0.0000
# 6 0.0000 0.0000 0.0000 -2.5134 0.0000 32.4907
#
#
#
# Elastic Compliance Matrix: (Units=1/GPa)
#
#
# Indices 1 2 3 4 5 6 
#
# 1 0.012568 -0.001623 -0.005857 0.000000 0.000965 0.000000
# 2 -0.001623 0.013457 -0.000231 0.000000 -0.001035 0.000000
# 3 -0.005857 -0.000231 0.010519 0.000000 -0.000820 0.000000
# 4 0.000000 0.000000 0.000000 0.030815 0.000000 0.002384
# 5 0.000965 -0.001035 -0.000820 0.000000 0.022456 0.000000
# 6 0.000000 0.000000 0.000000 0.002384 0.000000 0.030962
#
#
# Mechanical properties :
#
#
# Convention : Reuss Voigt Hill
#
# Bulk Modulus (GPa) = 47.34106 54.17434 50.75770
# Shear Modulus (GPa) = 34.90681 37.38651 36.14666
#
# Velocity S-wave (km/s) = 4.13042 4.27461 4.20313
# Velocity P-wave (km/s) = 6.77381 7.13023 6.95431
#
# Compressibility (1/GPa) = 0.02112331
#
# Stress axis : x y z
#
# Youngs Moduli (GPa) = 79.56797 74.31266 95.06536
#
# Poissons Ratio (x) = 0.12059 0.55678
# Poissons Ratio (y) = 0.12912 0.02192
# Poissons Ratio (z) = 0.46601 0.01714
#
# Static dielectric constant tensor:
#      x y z
#    x 3.733080 0.000000 0.119170 
#    y 0.000000 3.614890 0.000000 
#    z 0.119170 0.000000 3.898760 
# 
# 
# High freq. dielectric constant tensor:
#      x y z
#    x 1.798930 0.000000 -0.000510 
#    y 0.000000 1.799180 0.000000 
#    z -0.000510 0.000000 1.816340 
# 
# From -- ./inp_files/70847.got.cif
#   From: 2010.06.25/outbox.cif.g09.slc.cpg/sg11_36_cif.got.tgz:70847.got - 2010.06.27 23:14:04.
