data_PCOD8075287
_publ_section_title
;
Structure prediction by ZEFSAII (Michael W. Deem and Ramdas Pophale) SiO2 
 PCOD8075287
Probable space group: P 21/M
;
_chemical_formula_sum "Si O2"
_cell_formula_units_Z 32
_cell_length_a 16.220210
_cell_length_b 13.452845
_cell_length_c 11.362530
_cell_angle_alpha 90.000000
_cell_angle_beta 37.694297
_cell_angle_gamma 90.000000
_cell_volume 1516.021578
_symmetry_space_group_name_H-M "P 21/M"
_symmetry_group_IT_number 11
_symmetry_cell_setting 'monoclinic'
loop_
_space_group_symop_operation_xyz
x,y,z
-x,1/2+y,-z
-x,-y,-z
x,1/2-y,z
loop_
_atom_site_type_symbol
_atom_site_label
_atom_site_fract_x
_atom_site_fract_y
_atom_site_fract_z
Si Si1 0.499555 0.363553 0.420609
Si Si2 0.275424 0.863778 0.014226
Si Si3 0.341937 0.511532 0.154630
Si Si4 0.195765 0.130407 0.744590
Si Si5 0.832314 0.483603 0.415012
Si Si6 0.347866 0.361624 0.957898
Si Si7 0.615053 0.131997 0.528497
Si Si8 0.871505 0.544251 0.938509
O O1 0.481491 0.250000 0.478593
O O2 0.350850 0.406122 0.571426
O O3 0.580709 0.412884 0.437938
O O4 0.578423 0.375946 0.209980
O O5 0.222634 0.750000 0.066570
O O6 0.299828 0.892364 0.123612
O O7 0.175011 0.934547 0.053243
O O8 0.256401 0.507993 0.368756
O O9 0.500000 0.500000 0.000000
O O10 0.295936 0.417404 0.131192
O O11 0.173370 0.250000 0.778914
O O12 0.142071 0.090048 0.678932
O O13 0.120765 0.066449 0.930600
O O14 0.756997 0.410087 0.410454
O O15 0.978496 0.438797 0.282440
O O16 0.367207 0.250000 0.973844
O O17 0.491232 0.404141 0.750998
O O18 0.233330 0.372646 0.988280
O O19 0.628092 0.250000 0.513899
#
# Coordination Sequence:
#
# PCOD8075287 Si02
#       8
#     4   4   4   4   4   4   4   4
#     4   9  18  35  63  94 117 153 209 262 311 373
#     4  10  23  41  64  93 127 170 218 263 320 382
#     4  11  23  41  63  91 129 170 210 269 314 368
#     4  11  23  40  65  95 131 167 209 266 328 389
#     4  12  26  40  61  96 131 170 215 258 324 386
#     4  10  21  40  66  90 120 168 216 262 319 375
#     4  10  20  37  63  93 122 161 212 266 320 378
#     4  11  24  42  64  94 128 167 208 268 325 384
#
# _framework density 21.107879000000001
#
# number of rings (size 3 to 8) (size 9 to 14) (size 15 to 20)
#    0.000    1.500    2.500    2.250    1.750    6.000 
#    0.000    2.500    0.000    0.000    0.000    0.000 
#    0.000    0.000    0.000    0.000    0.000    0.000 
#
# Total GULP energy -396643.139390 kJ/mol
# GULP energy per Si atom -12395.098106 kJ/mol
# Density = 2.105984 g / cm^3
# Si number density = 21.107879 Si / 1000 Ang^3
#
#
#
# Elastic Constant Matrix: (Units=GPa)
#
#
# Indices 1 2 3 4 5 6 
#
# 1 63.8669 32.7198 37.2721 0.0000 3.9186 0.0000
# 2 32.7198 83.4096 23.4383 0.0000 5.0685 0.0000
# 3 37.2721 23.4383 119.6897 0.0000 -0.0525 0.0000
# 4 0.0000 0.0000 0.0000 16.9855 0.0000 3.5103
# 5 3.9186 5.0685 -0.0525 0.0000 49.6410 0.0000
# 6 0.0000 0.0000 0.0000 3.5103 0.0000 25.0452
#
#
#
# Elastic Compliance Matrix: (Units=1/GPa)
#
#
# Indices 1 2 3 4 5 6 
#
# 1 0.022751 -0.007269 -0.005662 0.000000 -0.001060 0.000000
# 2 -0.007269 0.015094 -0.000693 0.000000 -0.000968 0.000000
# 3 -0.005662 -0.000693 0.010254 0.000000 0.000528 0.000000
# 4 0.000000 0.000000 0.000000 0.060630 0.000000 -0.008498
# 5 -0.001060 -0.000968 0.000528 0.000000 0.020328 0.000000
# 6 0.000000 0.000000 0.000000 -0.008498 0.000000 0.041119
#
#
# Mechanical properties :
#
#
# Convention : Reuss Voigt Hill
#
# Bulk Modulus (GPa) = 47.95772 50.42518 49.19145
# Shear Modulus (GPa) = 24.46509 29.90343 27.18426
#
# Velocity S-wave (km/s) = 3.40818 3.76798 3.59259
# Velocity P-wave (km/s) = 6.18524 6.54763 6.36901
#
# Compressibility (1/GPa) = 0.02085170
#
# Stress axis : x y z
#
# Youngs Moduli (GPa) = 43.95440 66.25135 97.52416
#
# Poissons Ratio (x) = 0.48160 0.55215
# Poissons Ratio (y) = 0.31952 0.06754
# Poissons Ratio (z) = 0.24886 0.04588
#
# Static dielectric constant tensor:
#      x y z
#    x 4.016780 0.000000 0.072790 
#    y 0.000000 3.831550 0.000000 
#    z 0.072790 0.000000 3.745170 
# 
# 
# High freq. dielectric constant tensor:
#      x y z
#    x 1.827600 0.000000 0.002790 
#    y 0.000000 1.831740 0.000000 
#    z 0.002790 0.000000 1.818730 
# 
# From -- ./inp_files/41670.got.cif
#   From: 2010.06.25/outbox.cif.g09.slc.cpg/sg11_21_cif.got.tgz:41670.got - 2010.06.27 23:14:04.
