data_PCOD8075310
_publ_section_title
;
Structure prediction by ZEFSAII (Michael W. Deem and Ramdas Pophale) SiO2 
 PCOD8075310
Probable space group: P 21/M
;
_chemical_formula_sum "Si O2"
_cell_formula_units_Z 24
_cell_length_a 13.110639
_cell_length_b 15.480850
_cell_length_c 8.845768
_cell_angle_alpha 90.000000
_cell_angle_beta 134.072689
_cell_angle_gamma 90.000000
_cell_volume 1289.898543
_symmetry_space_group_name_H-M "P 21/M"
_symmetry_group_IT_number 11
_symmetry_cell_setting 'monoclinic'
loop_
_space_group_symop_operation_xyz
x,y,z
-x,1/2+y,-z
-x,-y,-z
x,1/2-y,z
loop_
_atom_site_type_symbol
_atom_site_label
_atom_site_fract_x
_atom_site_fract_y
_atom_site_fract_z
Si Si1 0.659885 0.594944 0.876310
Si Si2 0.164783 0.750000 0.002207
Si Si3 0.333478 0.592788 0.038516
Si Si4 0.848612 0.750000 0.698259
Si Si5 0.608383 0.154019 0.222732
Si Si6 0.861204 0.750000 0.069027
Si Si7 0.596367 0.847169 0.482697
Si Si8 0.179772 0.750000 0.377065
O O1 0.725979 0.500615 0.974807
O O2 0.523244 0.604897 0.841042
O O3 0.609847 0.600631 0.651697
O O4 0.778743 0.665273 0.042614
O O5 0.232927 0.664176 0.007262
O O6 0.175760 0.750000 0.193124
O O7 0.000555 0.750000 0.775422
O O8 0.494149 0.602445 0.264527
O O9 0.333437 0.599668 0.858006
O O10 0.751876 0.835345 0.561633
O O11 0.866145 0.750000 0.895458
O O12 0.560687 0.250000 0.117175
O O13 0.735559 0.164751 0.477118
O O14 0.023762 0.750000 0.293105
O O15 0.535940 0.750000 0.457892
#
# Coordination Sequence:
#
# PCOD8075310 Si02
#       8
#     4   2   4   2   4   2   4   2
#     4  11  20  36  61  82 109 145 183 225 274 324
#     4  11  18  37  52  82 110 143 184 217 284 316
#     4  12  22  33  57  88 114 137 178 236 273 322
#     4   7  17  31  58  70 110 147 172 223 264 328
#     4  10  20  38  54  77 109 146 182 221 273 319
#     4   9  17  39  56  80 104 145 194 215 264 332
#     4   9  17  36  56  81 109 141 185 221 269 318
#     4   9  20  35  64  70 106 161 178 221 270 328
#
# _framework density 18.606114000000002
#
# number of rings (size 3 to 8) (size 9 to 14) (size 15 to 20)
#    1.000    1.000    3.333    2.000    0.000    0.000 
#    0.000   13.333    0.000    0.000    0.000    0.000 
#    0.000    0.000    0.000    0.000    0.000    0.000 
#
# Total GULP energy -297430.324404 kJ/mol
# GULP energy per Si atom -12392.930183 kJ/mol
# Density = 1.856377 g / cm^3
# Si number density = 18.606114 Si / 1000 Ang^3
#
#
#
# Elastic Constant Matrix: (Units=GPa)
#
#
# Indices 1 2 3 4 5 6 
#
# 1 109.2591 43.3910 58.7362 0.0000 19.3273 0.0000
# 2 43.3910 120.4678 24.9070 0.0000 18.2241 0.0000
# 3 58.7362 24.9070 43.4338 0.0000 12.6732 0.0000
# 4 0.0000 0.0000 0.0000 13.3954 0.0000 -4.0689
# 5 19.3273 18.2241 12.6732 0.0000 26.1569 0.0000
# 6 0.0000 0.0000 0.0000 -4.0689 0.0000 3.6913
#
#
#
# Elastic Compliance Matrix: (Units=1/GPa)
#
#
# Indices 1 2 3 4 5 6 
#
# 1 0.034632 -0.002968 -0.044568 0.000000 -0.001928 0.000000
# 2 -0.002968 0.010171 -0.000456 0.000000 -0.004673 0.000000
# 3 -0.044568 -0.000456 0.086014 0.000000 -0.008425 0.000000
# 4 0.000000 0.000000 0.000000 0.112230 0.000000 0.123709
# 5 -0.001928 -0.004673 -0.008425 0.000000 0.046993 0.000000
# 6 0.000000 0.000000 0.000000 0.123709 0.000000 0.407269
#
#
# Mechanical properties :
#
#
# Convention : Reuss Voigt Hill
#
# Bulk Modulus (GPa) = 28.70900 58.58102 43.64501
# Shear Modulus (GPa) = 6.21193 18.39048 12.30120
#
# Velocity S-wave (km/s) = 1.82918 3.14731 2.57405
# Velocity P-wave (km/s) = 4.46369 6.69034 5.68705
#
# Compressibility (1/GPa) = 0.03483228
#
# Stress axis : x y z
#
# Youngs Moduli (GPa) = 28.87542 98.31857 11.62601
#
# Poissons Ratio (x) = 0.29176 0.51815
# Poissons Ratio (y) = 0.08569 0.00530
# Poissons Ratio (z) = 1.28693 0.04484
#
# Static dielectric constant tensor:
#      x y z
#    x 3.422830 0.000000 0.282790 
#    y 0.000000 3.300650 0.000000 
#    z 0.282790 0.000000 3.507170 
# 
# 
# High freq. dielectric constant tensor:
#      x y z
#    x 1.714200 0.000000 0.003880 
#    y 0.000000 1.707820 0.000000 
#    z 0.003880 0.000000 1.711690 
# 
# From -- ./inp_files/18728.got.cif
#   From: 2010.06.25/outbox.cif.g09.slc.cpg/sg11_10_cif.got.tgz:18728.got - 2010.06.27 23:14:04.
