data_PCOD8075118
_publ_section_title
;
Structure prediction by ZEFSAII (Michael W. Deem and Ramdas Pophale) SiO2 
 PCOD8075118
Probable space group: P 21/M
;
_chemical_formula_sum "Si O2"
_cell_formula_units_Z 24
_cell_length_a 9.824657
_cell_length_b 10.667634
_cell_length_c 11.975795
_cell_angle_alpha 90.000000
_cell_angle_beta 98.683144
_cell_angle_gamma 90.000000
_cell_volume 1240.747409
_symmetry_space_group_name_H-M "P 21/M"
_symmetry_group_IT_number 11
_symmetry_cell_setting 'monoclinic'
loop_
_space_group_symop_operation_xyz
x,y,z
-x,1/2+y,-z
-x,-y,-z
x,1/2-y,z
loop_
_atom_site_type_symbol
_atom_site_label
_atom_site_fract_x
_atom_site_fract_y
_atom_site_fract_z
Si Si1 0.779586 0.982905 0.195809
Si Si2 0.545569 0.034667 0.325044
Si Si3 0.324062 0.608711 0.437800
Si Si4 0.197510 0.250000 0.965685
Si Si5 0.439489 0.250000 0.162456
Si Si6 0.054562 0.610658 0.303423
Si Si7 0.279204 0.750000 0.913405
Si Si8 0.892947 0.250000 0.897207
O O1 0.773152 0.876169 0.100762
O O2 0.917754 0.973514 0.287571
O O3 0.646371 0.958453 0.256145
O O4 0.780901 0.124230 0.149161
O O5 0.641861 0.104571 0.427309
O O6 0.453336 0.130050 0.243224
O O7 0.446275 0.943111 0.378158
O O8 0.305172 0.750000 0.394878
O O9 0.175176 0.544843 0.392402
O O10 0.037667 0.250000 0.983898
O O11 0.290469 0.250000 0.087451
O O12 0.555551 0.250000 0.079654
O O13 0.013732 0.750000 0.343888
O O14 0.110354 0.625978 0.182076
O O15 0.238518 0.750000 0.038312
#
# Coordination Sequence:
#
# PCOD8075118 Si02
#       8
#     4   4   4   2   2   4   2   2
#     4  10  21  39  57  85 116 153 188 240 283 340
#     4  10  22  36  58  83 116 147 189 236 287 339
#     4  10  20  37  60  85 110 150 189 236 290 341
#     4  10  22  38  59  81 116 155 197 232 281 333
#     4  10  22  39  53  83 122 150 181 242 281 337
#     4   8  18  36  57  82 107 144 190 236 280 336
#     4  10  22  34  56  83 118 153 190 230 294 333
#     4   8  18  35  52  83 104 148 184 238 264 341
#
# _framework density 19.343181000000001
#
# number of rings (size 3 to 8) (size 9 to 14) (size 15 to 20)
#    0.500    2.000    1.667    0.000    1.167   10.000 
#    0.000    0.000    0.000    0.000    0.000    0.000 
#    0.000    0.000    0.000    0.000    0.000    0.000 
#
# Total GULP energy -297418.784573 kJ/mol
# GULP energy per Si atom -12392.449357 kJ/mol
# Density = 1.929915 g / cm^3
# Si number density = 19.343181 Si / 1000 Ang^3
#
#
#
# Elastic Constant Matrix: (Units=GPa)
#
#
# Indices 1 2 3 4 5 6 
#
# 1 47.9003 10.0510 33.0270 0.0000 31.2884 0.0000
# 2 10.0510 71.5356 14.9826 0.0000 6.0077 0.0000
# 3 33.0270 14.9826 81.6152 0.0000 21.2604 0.0000
# 4 0.0000 0.0000 0.0000 13.0018 0.0000 9.8041
# 5 31.2884 6.0077 21.2604 0.0000 45.7427 0.0000
# 6 0.0000 0.0000 0.0000 9.8041 0.0000 -1.1592
#
#
#
# Elastic Compliance Matrix: (Units=1/GPa)
#
#
# Indices 1 2 3 4 5 6 
#
# 1 0.046251 -0.001886 -0.011598 0.000000 -0.025998 0.000000
# 2 -0.001886 0.014638 -0.002002 0.000000 0.000298 0.000000
# 3 -0.011598 -0.002002 0.017269 0.000000 0.000169 0.000000
# 4 0.000000 0.000000 0.000000 0.010425 0.000000 0.088173
# 5 -0.025998 0.000298 0.000169 0.000000 0.039526 0.000000
# 6 0.000000 0.000000 0.000000 0.088173 0.000000 -0.116932
#
#
# Mechanical properties :
#
#
# Convention : Reuss Voigt Hill
#
# Bulk Modulus (GPa) = 21.19196 35.24134 28.21665
# Shear Modulus (GPa) = 86.38922 21.04976 53.71949
#
# Velocity S-wave (km/s) = 6.69016 3.30241 5.27561
# Velocity P-wave (km/s) = 8.40579 5.72711 7.19225
#
# Compressibility (1/GPa) = 0.04718770
#
# Stress axis : x y z
#
# Youngs Moduli (GPa) = 21.62130 68.31416 57.90692
#
# Poissons Ratio (x) = 0.12884 0.67158
# Poissons Ratio (y) = 0.04078 0.11591
# Poissons Ratio (z) = 0.25075 0.13674
#
# Static dielectric constant tensor:
#      x y z
#    x 3.560830 0.000000 0.151780 
#    y 0.000000 3.326360 0.000000 
#    z 0.151780 0.000000 3.495370 
# 
# 
# High freq. dielectric constant tensor:
#      x y z
#    x 1.758750 0.000000 0.011360 
#    y 0.000000 1.735670 0.000000 
#    z 0.011360 0.000000 1.744350 
# 
# From -- ./inp_files/31185.got.cif
#   From: 2010.06.25/outbox.cif.g09.slc.cpg/sg11_16_cif.got.tgz:31185.got - 2010.06.27 23:14:04.
