data_PCOD8075979
_publ_section_title
;
Structure prediction by ZEFSAII (Michael W. Deem and Ramdas Pophale) SiO2 
 PCOD8075979
Probable space group: P 21/M
;
_chemical_formula_sum "Si O2"
_cell_formula_units_Z 28
_cell_length_a 22.661082
_cell_length_b 8.945842
_cell_length_c 21.192041
_cell_angle_alpha 90.000000
_cell_angle_beta 19.448585
_cell_angle_gamma 90.000000
_cell_volume 1430.433932
_symmetry_space_group_name_H-M "P 21/M"
_symmetry_group_IT_number 11
_symmetry_cell_setting 'monoclinic'
loop_
_space_group_symop_operation_xyz
x,y,z
-x,1/2+y,-z
-x,-y,-z
x,1/2-y,z
loop_
_atom_site_type_symbol
_atom_site_label
_atom_site_fract_x
_atom_site_fract_y
_atom_site_fract_z
Si Si1 0.008375 0.574302 0.331107
Si Si2 0.988243 0.426172 0.218082
Si Si3 0.711674 0.423999 0.167953
Si Si4 0.319164 0.079543 0.539431
Si Si5 0.699796 0.924648 0.734736
Si Si6 0.700593 0.074846 0.862490
Si Si7 0.189964 0.075119 0.808551
O O1 0.014891 0.750000 0.308377
O O2 0.173876 0.524412 0.207131
O O3 0.022594 0.479012 0.254001
O O4 0.826224 0.530024 0.549638
O O5 0.009865 0.250000 0.191836
O O6 0.791107 0.472017 0.395163
O O7 0.129279 0.502224 0.030261
O O8 0.755226 0.250000 0.133635
O O9 0.527541 0.446333 0.316021
O O10 0.692026 0.500453 0.255961
O O11 0.265168 0.250000 0.578422
O O12 0.283921 0.042356 0.647768
O O13 0.710563 0.750000 0.736719
O O14 0.767279 0.001546 0.730542
O O15 0.500117 0.975759 0.918928
O O16 0.714248 0.250000 0.838330
O O17 0.169981 0.250000 0.842342
O O18 0.000000 0.000000 0.000000
#
# Coordination Sequence:
#
# PCOD8075979 Si02
#       7
#     4   4   4   4   4   4   4
#     4  10  21  37  56  78 111 152 193 233 280 343
#     4  12  26  41  59  85 118 156 198 248 296 346
#     4  11  23  41  64  88 117 155 197 242 294 352
#     4  10  23  42  64  87 116 156 197 239 293 354
#     4   9  18  33  55  83 112 143 182 230 283 337
#     4   9  18  33  55  83 112 144 182 228 283 338
#     4  11  21  36  62  93 122 154 191 239 296 350
#
# _framework density 19.574479
#
# number of rings (size 3 to 8) (size 9 to 14) (size 15 to 20)
#    0.000    1.714    1.429    3.000    0.000    4.000 
#    0.000    2.857    0.000    0.000    0.000    0.000 
#    0.000    0.000    0.000    0.000    0.000    0.000 
#
# Total GULP energy -347308.817525 kJ/mol
# GULP energy per Si atom -12403.886340 kJ/mol
# Density = 1.952993 g / cm^3
# Si number density = 19.574479 Si / 1000 Ang^3
#
#
#
# Elastic Constant Matrix: (Units=GPa)
#
#
# Indices 1 2 3 4 5 6 
#
# 1 106.6761 45.1619 26.7455 0.0000 -4.2481 0.0000
# 2 45.1619 83.7744 19.4277 0.0000 -4.2440 0.0000
# 3 26.7455 19.4277 49.0061 0.0000 -14.7745 0.0000
# 4 0.0000 0.0000 0.0000 22.1235 0.0000 3.3464
# 5 -4.2481 -4.2440 -14.7745 0.0000 26.1121 0.0000
# 6 0.0000 0.0000 0.0000 3.3464 0.0000 38.7162
#
#
#
# Elastic Compliance Matrix: (Units=1/GPa)
#
#
# Indices 1 2 3 4 5 6 
#
# 1 0.013168 -0.005942 -0.005397 0.000000 -0.001877 0.000000
# 2 -0.005942 0.015848 -0.003080 0.000000 -0.000134 0.000000
# 3 -0.005397 -0.003080 0.029124 0.000000 0.015100 0.000000
# 4 0.000000 0.000000 0.000000 0.045800 0.000000 -0.003959
# 5 -0.001877 -0.000134 0.015100 0.000000 0.046513 0.000000
# 6 0.000000 0.000000 0.000000 -0.003959 0.000000 0.026171
#
#
# Mechanical properties :
#
#
# Convention : Reuss Voigt Hill
#
# Bulk Modulus (GPa) = 34.12683 46.90298 40.51490
# Shear Modulus (GPa) = 23.23099 27.26514 25.24807
#
# Velocity S-wave (km/s) = 3.44873 3.73620 3.59534
# Velocity P-wave (km/s) = 5.77326 6.52882 6.16263
#
# Compressibility (1/GPa) = 0.02930246
#
# Stress axis : x y z
#
# Youngs Moduli (GPa) = 75.94026 63.10045 34.33545
#
# Poissons Ratio (x) = 0.37497 0.18530
# Poissons Ratio (y) = 0.45127 0.10574
# Poissons Ratio (z) = 0.40984 0.19433
#
# Static dielectric constant tensor:
#      x y z
#    x 3.623620 0.000000 -0.072320 
#    y 0.000000 3.578630 0.000000 
#    z -0.072320 0.000000 4.044200 
# 
# 
# High freq. dielectric constant tensor:
#      x y z
#    x 1.764180 0.000000 -0.009350 
#    y 0.000000 1.759570 0.000000 
#    z -0.009350 0.000000 1.770430 
# 
# From -- ./inp_files/66674.got.cif
#   From: 2010.06.25/outbox.cif.g09.slc.cpg/sg11_34_cif.got.tgz:66674.got - 2010.06.27 23:14:04.
