data_PCOD8075525
_publ_section_title
;
Structure prediction by ZEFSAII (Michael W. Deem and Ramdas Pophale) SiO2 
 PCOD8075525
Probable space group: P 21/M
;
_chemical_formula_sum "Si O2"
_cell_formula_units_Z 28
_cell_length_a 9.294959
_cell_length_b 8.347626
_cell_length_c 22.635663
_cell_angle_alpha 90.000000
_cell_angle_beta 128.112068
_cell_angle_gamma 90.000000
_cell_volume 1381.881537
_symmetry_space_group_name_H-M "P 21/M"
_symmetry_group_IT_number 11
_symmetry_cell_setting 'monoclinic'
loop_
_space_group_symop_operation_xyz
x,y,z
-x,1/2+y,-z
-x,-y,-z
x,1/2-y,z
loop_
_atom_site_type_symbol
_atom_site_label
_atom_site_fract_x
_atom_site_fract_y
_atom_site_fract_z
Si Si1 0.101022 0.062234 0.790376
Si Si2 0.444494 0.564393 0.369723
Si Si3 0.863325 0.566280 0.629101
Si Si4 0.790930 0.062339 0.797535
Si Si5 0.478239 0.937304 0.928742
Si Si6 0.801991 0.058921 0.931986
Si Si7 0.166142 0.565199 0.504694
O O1 0.070552 0.250000 0.773170
O O2 0.978433 0.999489 0.814447
O O3 0.311726 0.025906 0.854537
O O4 0.034234 0.974388 0.714278
O O5 0.399240 0.750000 0.369530
O O6 0.330276 0.463031 0.388100
O O7 0.381288 0.515615 0.287419
O O8 0.657065 0.533432 0.430604
O O9 0.873682 0.750000 0.611952
O O10 0.876497 0.456613 0.574870
O O11 0.809295 0.250000 0.810217
O O12 0.764067 0.991481 0.856148
O O13 0.438549 0.750000 0.919953
O O14 0.660922 0.974243 0.939538
O O15 0.500000 0.000000 0.000000
O O16 0.784282 0.250000 0.932685
O O17 0.000000 0.000000 0.000000
O O18 0.199810 0.750000 0.527367
O O19 0.000000 0.500000 0.500000
#
# Coordination Sequence:
#
# PCOD8075525 Si02
#       7
#     4   4   4   4   4   4   4
#     4  10  20  39  64  91 120 154 195 246 299 352
#     4  10  20  39  63  88 117 156 200 245 294 353
#     4  11  22  39  62  90 120 157 201 245 291 352
#     4   8  18  36  61  87 115 149 190 236 291 351
#     4  12  25  41  60  87 120 159 203 250 299 355
#     4  11  22  39  61  88 120 158 199 245 296 354
#     4  12  25  41  59  85 119 157 198 249 304 357
#
# _framework density 20.262228
#
# number of rings (size 3 to 8) (size 9 to 14) (size 15 to 20)
#    0.000    1.429    0.000    7.286    0.000    2.286 
#    0.000   12.143    0.000    0.000    0.000    0.000 
#    0.000    0.000    0.000    0.000    0.000    0.000 
#
# Total GULP energy -347302.929193 kJ/mol
# GULP energy per Si atom -12403.676043 kJ/mol
# Density = 2.021611 g / cm^3
# Si number density = 20.262228 Si / 1000 Ang^3
#
#
#
# Elastic Constant Matrix: (Units=GPa)
#
#
# Indices 1 2 3 4 5 6 
#
# 1 115.0744 3.3217 71.6156 0.0000 -0.7620 0.0000
# 2 3.3217 70.3015 7.4750 0.0000 -3.7899 0.0000
# 3 71.6156 7.4750 132.6358 0.0000 -3.0489 0.0000
# 4 0.0000 0.0000 0.0000 32.8792 0.0000 2.0767
# 5 -0.7620 -3.7899 -3.0489 0.0000 42.6849 0.0000
# 6 0.0000 0.0000 0.0000 2.0767 0.0000 31.9430
#
#
#
# Elastic Compliance Matrix: (Units=1/GPa)
#
#
# Indices 1 2 3 4 5 6 
#
# 1 0.013092 0.000120 -0.007082 0.000000 -0.000261 0.000000
# 2 0.000120 0.014374 -0.000847 0.000000 0.001218 0.000000
# 3 -0.007082 -0.000847 0.011425 0.000000 0.000614 0.000000
# 4 0.000000 0.000000 0.000000 0.030540 0.000000 -0.001986
# 5 -0.000261 0.001218 0.000614 0.000000 0.023575 0.000000
# 6 0.000000 0.000000 0.000000 -0.001986 0.000000 0.031435
#
#
# Mechanical properties :
#
#
# Convention : Reuss Voigt Hill
#
# Bulk Modulus (GPa) = 42.96533 53.64849 48.30691
# Shear Modulus (GPa) = 33.82576 37.20805 35.51690
#
# Velocity S-wave (km/s) = 4.09026 4.28989 4.19126
# Velocity P-wave (km/s) = 6.59982 7.14647 6.87858
#
# Compressibility (1/GPa) = 0.02327458
#
# Stress axis : x y z
#
# Youngs Moduli (GPa) = 76.38190 69.56766 87.52702
#
# Poissons Ratio (x) = -0.00837 0.61985
# Poissons Ratio (y) = -0.00919 0.07414
# Poissons Ratio (z) = 0.54092 0.05893
#
# Static dielectric constant tensor:
#      x y z
#    x 3.654790 0.000000 -0.079080 
#    y 0.000000 3.657800 0.000000 
#    z -0.079080 0.000000 3.789370 
# 
# 
# High freq. dielectric constant tensor:
#      x y z
#    x 1.790490 0.000000 -0.001590 
#    y 0.000000 1.792000 0.000000 
#    z -0.001590 0.000000 1.807090 
# 
# From -- ./inp_files/63413.got.cif
#   From: 2010.06.25/outbox.cif.g09.slc.cpg/sg11_32_cif.got.tgz:63413.got - 2010.06.27 23:14:04.
