data_PCOD8075214
_publ_section_title
;
Structure prediction by ZEFSAII (Michael W. Deem and Ramdas Pophale) SiO2 
 PCOD8075214
Probable space group: P 21/M
;
_chemical_formula_sum "Si O2"
_cell_formula_units_Z 24
_cell_length_a 14.869125
_cell_length_b 9.911711
_cell_length_c 21.040237
_cell_angle_alpha 90.000000
_cell_angle_beta 21.712429
_cell_angle_gamma 90.000000
_cell_volume 1147.164528
_symmetry_space_group_name_H-M "P 21/M"
_symmetry_group_IT_number 11
_symmetry_cell_setting 'monoclinic'
loop_
_space_group_symop_operation_xyz
x,y,z
-x,1/2+y,-z
-x,-y,-z
x,1/2-y,z
loop_
_atom_site_type_symbol
_atom_site_label
_atom_site_fract_x
_atom_site_fract_y
_atom_site_fract_z
Si Si1 0.026149 0.402672 0.150116
Si Si2 0.629424 0.605651 0.842566
Si Si3 0.184127 0.906840 0.841669
Si Si4 0.673601 0.898477 0.590022
Si Si5 0.415934 0.592372 0.239165
Si Si6 0.112798 0.534118 0.220711
O O1 0.989958 0.250000 0.195085
O O2 0.979704 0.488522 0.243524
O O3 0.836200 0.443831 0.219824
O O4 0.295682 0.424652 0.944658
O O5 0.698920 0.750000 0.765121
O O6 0.676751 0.479647 0.764471
O O7 0.793078 0.590414 0.798123
O O8 0.348432 0.620713 0.047899
O O9 0.112426 0.750000 0.899300
O O10 0.455180 0.939186 0.686462
O O11 0.000000 0.000000 0.000000
O O12 0.622515 0.750000 0.654146
O O13 0.705941 0.013843 0.621961
O O14 0.916964 0.882619 0.389123
O O15 0.336236 0.750000 0.290995
#
# Coordination Sequence:
#
# PCOD8075214 Si02
#       6
#     4   4   4   4   4   4
#     4   9  18  36  59  85 118 156 197 236 285 350
#     4  10  21  40  63  85 115 158 202 244 295 353
#     4  10  20  37  61  88 119 156 195 238 289 347
#     4  11  23  38  59  90 124 154 193 247 297 343
#     4  10  21  37  61  88 117 157 201 244 292 349
#     4  10  22  37  59  88 121 156 194 242 296 352
#
# _framework density 20.921150000000001
#
# number of rings (size 3 to 8) (size 9 to 14) (size 15 to 20)
#    0.000    2.000    1.667    1.500    0.000    7.333 
#    0.000    0.833    0.000    0.000    0.000    0.000 
#    0.000    0.000    0.000    0.000    0.000    0.000 
#
# Total GULP energy -297498.247173 kJ/mol
# GULP energy per Si atom -12395.760299 kJ/mol
# Density = 2.087353 g / cm^3
# Si number density = 20.921150 Si / 1000 Ang^3
#
#
#
# Elastic Constant Matrix: (Units=GPa)
#
#
# Indices 1 2 3 4 5 6 
#
# 1 134.6878 60.7544 33.8521 0.0000 8.4144 0.0000
# 2 60.7544 131.3388 26.7830 0.0000 11.4653 0.0000
# 3 33.8521 26.7830 62.2244 0.0000 8.5603 0.0000
# 4 0.0000 0.0000 0.0000 8.9104 0.0000 10.6834
# 5 8.4144 11.4653 8.5603 0.0000 26.3541 0.0000
# 6 0.0000 0.0000 0.0000 10.6834 0.0000 12.2590
#
#
#
# Elastic Compliance Matrix: (Units=1/GPa)
#
#
# Indices 1 2 3 4 5 6 
#
# 1 0.010158 -0.003895 -0.003807 0.000000 -0.000312 0.000000
# 2 -0.003895 0.010011 -0.001844 0.000000 -0.002513 0.000000
# 3 -0.003807 -0.001844 0.019531 0.000000 -0.004326 0.000000
# 4 0.000000 0.000000 0.000000 -2.500156 0.000000 2.178831
# 5 -0.000312 -0.002513 -0.004326 0.000000 0.040543 0.000000
# 6 0.000000 0.000000 0.000000 2.178831 0.000000 -1.817230
#
#
# Mechanical properties :
#
#
# Convention : Reuss Voigt Hill
#
# Bulk Modulus (GPa) = 48.52605 63.44778 55.98691
# Shear Modulus (GPa) = -1.18732 23.29545 11.05407
#
# Velocity S-wave (km/s) = -0.75416 3.34052 2.30112
# Velocity P-wave (km/s) = 4.74202 6.72842 5.82059
#
# Compressibility (1/GPa) = 0.02060749
#
# Stress axis : x y z
#
# Youngs Moduli (GPa) = 98.44539 99.88809 51.20119
#
# Poissons Ratio (x) = 0.38910 0.19491
# Poissons Ratio (y) = 0.38348 0.09443
# Poissons Ratio (z) = 0.37475 0.18422
#
# Static dielectric constant tensor:
#      x y z
#    x 3.967430 0.000000 -0.129730 
#    y 0.000000 3.640560 0.000000 
#    z -0.129730 0.000000 3.553960 
# 
# 
# High freq. dielectric constant tensor:
#      x y z
#    x 1.828760 0.000000 -0.004180 
#    y 0.000000 1.815960 0.000000 
#    z -0.004180 0.000000 1.798540 
# 
# From -- ./inp_files/59124.got.cif
#   From: 2010.06.25/outbox.cif.g09.slc.cpg/sg11_30_cif.got.tgz:59124.got - 2010.06.27 23:14:04.
