data_PCOD8075943
_publ_section_title
;
Structure prediction by ZEFSAII (Michael W. Deem and Ramdas Pophale) SiO2 
 PCOD8075943
Probable space group: P 21/M
;
_chemical_formula_sum "Si O2"
_cell_formula_units_Z 32
_cell_length_a 31.101289
_cell_length_b 9.035350
_cell_length_c 12.257964
_cell_angle_alpha 90.000000
_cell_angle_beta 150.990898
_cell_angle_gamma 90.000000
_cell_volume 1670.465003
_symmetry_space_group_name_H-M "P 21/M"
_symmetry_group_IT_number 11
_symmetry_cell_setting 'monoclinic'
loop_
_space_group_symop_operation_xyz
x,y,z
-x,1/2+y,-z
-x,-y,-z
x,1/2-y,z
loop_
_atom_site_type_symbol
_atom_site_label
_atom_site_fract_x
_atom_site_fract_y
_atom_site_fract_z
Si Si1 0.233856 0.923563 0.330507
Si Si2 0.523906 0.075562 0.380561
Si Si3 0.937570 0.087619 0.940476
Si Si4 0.434991 0.577145 0.771288
Si Si5 0.380740 0.918725 0.190648
Si Si6 0.152086 0.425710 0.945743
Si Si7 0.016821 0.417433 0.354881
Si Si8 0.815644 0.421156 0.199950
O O1 0.218610 0.750000 0.267821
O O2 0.164147 0.971582 0.271546
O O3 0.334605 0.954345 0.589473
O O4 0.213778 0.020101 0.180229
O O5 0.517837 0.250000 0.359138
O O6 0.552546 0.014471 0.324614
O O7 0.593471 0.026403 0.629338
O O8 0.427852 0.013087 0.200816
O O9 0.933165 0.250000 0.879859
O O10 0.982013 0.087046 0.156139
O O11 0.000000 0.000000 0.000000
O O12 0.456066 0.750000 0.820610
O O13 0.500000 0.500000 0.000000
O O14 0.412406 0.750000 0.247957
O O15 0.276198 0.934347 0.938269
O O16 0.144062 0.250000 0.930697
O O17 0.197949 0.482945 0.938490
O O18 0.053979 0.496727 0.727864
O O19 0.030725 0.250000 0.430715
O O20 0.108163 0.507685 0.556833
O O21 0.836872 0.250000 0.219375
#
# Coordination Sequence:
#
# PCOD8075943 Si02
#       8
#     4   4   4   4   4   4   4   4
#     4   9  19  38  59  80 108 145 186 227 276 331
#     4   9  18  35  57  79 107 142 180 228 281 330
#     4   9  19  36  58  79 103 140 181 225 273 322
#     4  10  21  38  59  83 114 149 187 236 288 336
#     4   9  19  35  56  80 106 143 185 225 273 333
#     4  11  21  33  54  82 110 142 180 225 271 323
#     4  10  21  37  53  75 109 145 180 222 272 323
#     4  11  21  34  52  78 111 146 181 219 268 326
#
# _framework density 19.156341999999999
#
# number of rings (size 3 to 8) (size 9 to 14) (size 15 to 20)
#    0.000    2.250    0.000    3.750    0.000    6.500 
#    2.250    2.500    0.000    0.000    0.000    0.000 
#    0.000    0.000    0.000    0.000    0.000    0.000 
#
# Total GULP energy -396703.602332 kJ/mol
# GULP energy per Si atom -12396.987573 kJ/mol
# Density = 1.911274 g / cm^3
# Si number density = 19.156342 Si / 1000 Ang^3
#
#
#
# Elastic Constant Matrix: (Units=GPa)
#
#
# Indices 1 2 3 4 5 6 
#
# 1 111.0389 35.2339 44.3380 0.0000 19.0568 0.0000
# 2 35.2339 77.1887 41.4832 0.0000 10.0011 0.0000
# 3 44.3380 41.4832 109.6856 0.0000 24.8187 0.0000
# 4 0.0000 0.0000 0.0000 32.9570 0.0000 0.7584
# 5 19.0568 10.0011 24.8187 0.0000 24.4260 0.0000
# 6 0.0000 0.0000 0.0000 0.7584 0.0000 32.8773
#
#
#
# Elastic Compliance Matrix: (Units=1/GPa)
#
#
# Indices 1 2 3 4 5 6 
#
# 1 0.011988 -0.003543 -0.002231 0.000000 -0.005636 0.000000
# 2 -0.003543 0.017313 -0.005372 0.000000 0.001134 0.000000
# 3 -0.002231 -0.005372 0.014490 0.000000 -0.010783 0.000000
# 4 0.000000 0.000000 0.000000 0.030359 0.000000 -0.000700
# 5 -0.005636 0.001134 -0.010783 0.000000 0.055829 0.000000
# 6 0.000000 0.000000 0.000000 -0.000700 0.000000 0.030432
#
#
# Mechanical properties :
#
#
# Convention : Reuss Voigt Hill
#
# Bulk Modulus (GPa) = 46.51303 60.00260 53.25781
# Shear Modulus (GPa) = 26.33388 29.84261 28.08825
#
# Velocity S-wave (km/s) = 3.71169 3.95124 3.83334
# Velocity P-wave (km/s) = 6.53470 7.22544 6.88873
#
# Compressibility (1/GPa) = 0.02149935
#
# Stress axis : x y z
#
# Youngs Moduli (GPa) = 83.41640 57.76109 69.01130
#
# Poissons Ratio (x) = 0.20465 0.15395
# Poissons Ratio (y) = 0.29555 0.37073
# Poissons Ratio (z) = 0.18608 0.31030
#
# Static dielectric constant tensor:
#      x y z
#    x 2.218730 0.000000 -0.120910 
#    y 0.000000 3.577420 0.000000 
#    z -0.120910 0.000000 3.403640 
# 
# 
# High freq. dielectric constant tensor:
#      x y z
#    x 1.738420 0.000000 0.016450 
#    y 0.000000 1.742310 0.000000 
#    z 0.016450 0.000000 1.741370 
# 
# From -- ./inp_files/45277.got.cif
#   From: 2010.06.25/outbox.cif.g09.slc.cpg/sg11_23_cif.got.tgz:45277.got - 2010.06.27 23:14:04.
