data_PCOD8075740
_publ_section_title
;
Structure prediction by ZEFSAII (Michael W. Deem and Ramdas Pophale) SiO2 
 PCOD8075740
Probable space group: P 21/M
;
_chemical_formula_sum "Si O2"
_cell_formula_units_Z 32
_cell_length_a 12.174223
_cell_length_b 13.374134
_cell_length_c 17.732610
_cell_angle_alpha 90.000000
_cell_angle_beta 31.834984
_cell_angle_gamma 90.000000
_cell_volume 1522.934277
_symmetry_space_group_name_H-M "P 21/M"
_symmetry_group_IT_number 11
_symmetry_cell_setting 'monoclinic'
loop_
_space_group_symop_operation_xyz
x,y,z
-x,1/2+y,-z
-x,-y,-z
x,1/2-y,z
loop_
_atom_site_type_symbol
_atom_site_label
_atom_site_fract_x
_atom_site_fract_y
_atom_site_fract_z
Si Si1 0.010287 0.947613 0.244607
Si Si2 0.313385 0.859856 0.942477
Si Si3 0.332008 0.004867 0.319988
Si Si4 0.432310 0.358353 0.709696
Si Si5 0.419473 0.366067 0.546745
Si Si6 0.964571 0.372095 0.605399
Si Si7 0.124606 0.861098 0.747988
Si Si8 0.982834 0.384623 0.018985
O O1 0.769137 0.918818 0.384839
O O2 0.091441 0.916736 0.279602
O O3 0.144308 0.893008 0.102704
O O4 0.016380 0.066837 0.222887
O O5 0.397035 0.750000 0.916549
O O6 0.206232 0.848296 0.923104
O O7 0.507505 0.936107 0.827717
O O8 0.460444 0.945874 0.307145
O O9 0.212889 0.918677 0.343822
O O10 0.184848 0.086686 0.446260
O O11 0.549178 0.250000 0.648349
O O12 0.430452 0.398601 0.626549
O O13 0.197142 0.335323 0.870022
O O14 0.379530 0.250000 0.559186
O O15 0.638274 0.400562 0.383467
O O16 0.961783 0.250000 0.606284
O O17 0.116341 0.750000 0.716028
O O18 0.043824 0.854518 0.879456
O O19 0.000000 0.500000 0.000000
#
# Coordination Sequence:
#
# PCOD8075740 Si02
#       8
#     4   4   4   4   4   4   4   4
#     4  12  23  41  64  91 131 167 213 261 320 383
#     4  12  24  40  64  95 131 171 214 261 321 385
#     4  11  25  44  67  95 125 165 219 272 319 372
#     4  11  20  37  63  93 131 171 211 257 319 385
#     4  10  21  35  57  91 127 168 208 254 318 382
#     4  11  26  48  70  94 125 168 218 269 323 377
#     4  11  23  37  57  91 132 173 215 258 317 379
#     4  12  21  38  59  95 137 176 209 262 316 383
#
# _framework density 21.012069
#
# number of rings (size 3 to 8) (size 9 to 14) (size 15 to 20)
#    0.000    0.750    3.750    4.125    1.750    0.500 
#    0.000    3.750    0.000    0.000    0.000    0.000 
#    0.000    0.000    0.000    0.000    0.000    0.000 
#
# Total GULP energy -396668.914716 kJ/mol
# GULP energy per Si atom -12395.903585 kJ/mol
# Density = 2.096424 g / cm^3
# Si number density = 21.012069 Si / 1000 Ang^3
#
#
#
# Elastic Constant Matrix: (Units=GPa)
#
#
# Indices 1 2 3 4 5 6 
#
# 1 60.7547 7.6817 36.0753 0.0000 9.8115 0.0000
# 2 7.6817 147.5006 14.9811 0.0000 -1.9644 0.0000
# 3 36.0753 14.9811 67.6815 0.0000 -6.3526 0.0000
# 4 0.0000 0.0000 0.0000 24.9361 0.0000 4.6987
# 5 9.8115 -1.9644 -6.3526 0.0000 27.8618 0.0000
# 6 0.0000 0.0000 0.0000 4.6987 0.0000 -53.8488
#
#
#
# Elastic Compliance Matrix: (Units=1/GPa)
#
#
# Indices 1 2 3 4 5 6 
#
# 1 0.028459 0.000007 -0.016464 0.000000 -0.013775 0.000000
# 2 0.000007 0.006936 -0.001526 0.000000 0.000139 0.000000
# 3 -0.016464 -0.001526 0.024956 0.000000 0.011380 0.000000
# 4 0.000000 0.000000 0.000000 0.039454 0.000000 0.003443
# 5 -0.013775 0.000139 0.011380 0.000000 0.043347 0.000000
# 6 0.000000 0.000000 0.000000 0.003443 0.000000 -0.018270
#
#
# Mechanical properties :
#
#
# Convention : Reuss Voigt Hill
#
# Bulk Modulus (GPa) = 41.00703 43.71256 42.35980
# Shear Modulus (GPa) = 29.58981 14.26975 21.92978
#
# Velocity S-wave (km/s) = 3.75671 2.60882 3.23410
# Velocity P-wave (km/s) = 6.19479 5.47022 5.84375
#
# Compressibility (1/GPa) = 0.02438606
#
# Stress axis : x y z
#
# Youngs Moduli (GPa) = 35.13778 144.17316 40.06987
#
# Poissons Ratio (x) = -0.00095 0.65970
# Poissons Ratio (y) = -0.00023 0.06114
# Poissons Ratio (z) = 0.57850 0.21997
#
# Static dielectric constant tensor:
#      x y z
#    x 3.668160 0.000000 -0.025060 
#    y 0.000000 4.114370 0.000000 
#    z -0.025060 0.000000 3.859910 
# 
# 
# High freq. dielectric constant tensor:
#      x y z
#    x 1.795600 0.000000 0.012820 
#    y 0.000000 1.855830 0.000000 
#    z 0.012820 0.000000 1.830280 
# 
# From -- ./inp_files/59472.got.cif
#   From: 2010.06.25/outbox.cif.g09.slc.cpg/sg11_30_cif.got.tgz:59472.got - 2010.06.27 23:14:04.
