data_PCOD8075850
_publ_section_title
;
Structure prediction by ZEFSAII (Michael W. Deem and Ramdas Pophale) SiO2 
 PCOD8075850
Probable space group: P 21/M
;
_chemical_formula_sum "Si O2"
_cell_formula_units_Z 32
_cell_length_a 25.422834
_cell_length_b 8.870127
_cell_length_c 14.279320
_cell_angle_alpha 90.000000
_cell_angle_beta 30.324317
_cell_angle_gamma 90.000000
_cell_volume 1625.779142
_symmetry_space_group_name_H-M "P 21/M"
_symmetry_group_IT_number 11
_symmetry_cell_setting 'monoclinic'
loop_
_space_group_symop_operation_xyz
x,y,z
-x,1/2+y,-z
-x,-y,-z
x,1/2-y,z
loop_
_atom_site_type_symbol
_atom_site_label
_atom_site_fract_x
_atom_site_fract_y
_atom_site_fract_z
Si Si1 0.559946 0.574566 0.991731
Si Si2 0.678480 0.074774 0.074016
Si Si3 0.829193 0.426440 0.010224
Si Si4 0.256926 0.071747 0.675904
Si Si5 0.759298 0.424385 0.749266
Si Si6 0.476391 0.573550 0.322465
Si Si7 0.040358 0.924462 0.671129
Si Si8 0.095304 0.926648 0.798552
O O1 0.561420 0.750000 0.972147
O O2 0.501389 0.531139 0.177295
O O3 0.500000 0.500000 0.000000
O O4 0.677957 0.517393 0.812317
O O5 0.648549 0.250000 0.120006
O O6 0.572101 0.979509 0.240252
O O7 0.744141 0.029292 0.063677
O O8 0.747693 0.034170 0.876516
O O9 0.824561 0.250000 0.041528
O O10 0.942706 0.469865 0.797432
O O11 0.810826 0.524723 0.130564
O O12 0.255785 0.250000 0.666496
O O13 0.373612 0.013849 0.511186
O O14 0.204405 0.997939 0.665058
O O15 0.735393 0.250000 0.767164
O O16 0.874586 0.466420 0.538057
O O17 0.458342 0.750000 0.365473
O O18 0.006935 0.750000 0.715891
O O19 0.086620 0.960853 0.702144
O O20 0.095897 0.750000 0.819370
O O21 0.000000 0.000000 0.000000
#
# Coordination Sequence:
#
# PCOD8075850 Si02
#       8
#     4   4   4   4   4   4   4   4
#     4  10  21  36  56  84 116 151 193 237 286 342
#     4   9  20  40  63  87 117 153 194 243 296 345
#     4  11  23  39  61  87 117 154 197 245 293 348
#     4  12  25  40  60  87 118 156 198 242 292 350
#     4   9  19  38  60  84 117 153 192 239 289 343
#     4  10  22  40  61  86 117 153 194 242 293 348
#     4  10  22  38  59  87 119 156 195 236 290 348
#     4  11  22  38  59  85 120 157 194 239 290 346
#
# _framework density 19.682870999999999
#
# number of rings (size 3 to 8) (size 9 to 14) (size 15 to 20)
#    0.000    1.750    1.250    2.625    1.750    4.500 
#    0.000    0.000    0.000    0.000    0.000    0.000 
#    0.000    0.000    0.000    0.000    0.000    0.000 
#
# Total GULP energy -396974.241888 kJ/mol
# GULP energy per Si atom -12405.445059 kJ/mol
# Density = 1.963807 g / cm^3
# Si number density = 19.682871 Si / 1000 Ang^3
#
#
#
# Elastic Constant Matrix: (Units=GPa)
#
#
# Indices 1 2 3 4 5 6 
#
# 1 80.3817 34.5982 13.8396 0.0000 -21.9585 0.0000
# 2 34.5982 78.3247 33.1179 0.0000 -11.4683 0.0000
# 3 13.8396 33.1179 94.5960 0.0000 -16.2272 0.0000
# 4 0.0000 0.0000 0.0000 36.7229 0.0000 -7.4882
# 5 -21.9585 -11.4683 -16.2272 0.0000 25.1389 0.0000
# 6 0.0000 0.0000 0.0000 -7.4882 0.0000 29.7976
#
#
#
# Elastic Compliance Matrix: (Units=1/GPa)
#
#
# Indices 1 2 3 4 5 6 
#
# 1 0.019283 -0.007296 0.002307 0.000000 0.015004 0.000000
# 2 -0.007296 0.018091 -0.005559 0.000000 -0.001709 0.000000
# 3 0.002307 -0.005559 0.013596 0.000000 0.008256 0.000000
# 4 0.000000 0.000000 0.000000 0.028702 0.000000 0.007213
# 5 0.015004 -0.001709 0.008256 0.000000 0.057434 0.000000
# 6 0.000000 0.000000 0.000000 0.007213 0.000000 0.035372
#
#
# Mechanical properties :
#
#
# Convention : Reuss Voigt Hill
#
# Bulk Modulus (GPa) = 33.47536 46.26821 39.87178
# Shear Modulus (GPa) = 24.56615 29.78165 27.17390
#
# Velocity S-wave (km/s) = 3.53668 3.89405 3.71965
# Velocity P-wave (km/s) = 5.80704 6.61634 6.22486
#
# Compressibility (1/GPa) = 0.02987272
#
# Stress axis : x y z
#
# Youngs Moduli (GPa) = 51.86016 55.27694 73.55016
#
# Poissons Ratio (x) = 0.40332 -0.16969
# Poissons Ratio (y) = 0.37839 0.40888
# Poissons Ratio (z) = -0.11965 0.30730
#
# Static dielectric constant tensor:
#      x y z
#    x 3.722540 0.000000 -0.062810 
#    y 0.000000 3.881700 0.000000 
#    z -0.062810 0.000000 3.648850 
# 
# 
# High freq. dielectric constant tensor:
#      x y z
#    x 1.768800 0.000000 -0.005480 
#    y 0.000000 1.771720 0.000000 
#    z -0.005480 0.000000 1.771450 
# 
# From -- ./inp_files/55549.got.cif
#   From: 2010.06.25/outbox.cif.g09.slc.cpg/sg11_28_cif.got.tgz:55549.got - 2010.06.27 23:14:04.
