data_PCOD8075038
_publ_section_title
;
Structure prediction by ZEFSAII (Michael W. Deem and Ramdas Pophale) SiO2 
 PCOD8075038
Probable space group: P 21/M
;
_chemical_formula_sum "Si O2"
_cell_formula_units_Z 32
_cell_length_a 9.657149
_cell_length_b 14.153499
_cell_length_c 19.896442
_cell_angle_alpha 90.000000
_cell_angle_beta 144.968558
_cell_angle_gamma 90.000000
_cell_volume 1561.060155
_symmetry_space_group_name_H-M "P 21/M"
_symmetry_group_IT_number 11
_symmetry_cell_setting 'monoclinic'
loop_
_space_group_symop_operation_xyz
x,y,z
-x,1/2+y,-z
-x,-y,-z
x,1/2-y,z
loop_
_atom_site_type_symbol
_atom_site_label
_atom_site_fract_x
_atom_site_fract_y
_atom_site_fract_z
Si Si1 0.286932 0.349597 0.808073
Si Si2 0.457021 0.100642 0.014972
Si Si3 0.925644 0.863445 0.022716
Si Si4 0.077459 0.855167 0.721816
Si Si5 0.752237 0.993471 0.309836
Si Si6 0.316943 0.138684 0.332152
Si Si7 0.864944 0.355118 0.553872
Si Si8 0.729889 0.530287 0.818282
O O1 0.381452 0.250000 0.814146
O O2 0.339460 0.341672 0.907462
O O3 0.398821 0.437873 0.810507
O O4 0.994954 0.355576 0.679256
O O5 0.279873 0.105457 0.007344
O O6 0.711048 0.142945 0.138729
O O7 0.500000 0.000000 0.000000
O O8 0.974660 0.750000 0.043560
O O9 0.836740 0.896285 0.914484
O O10 0.163867 0.924062 0.135414
O O11 0.047151 0.750000 0.682201
O O12 0.832920 0.889227 0.661134
O O13 0.125450 0.915970 0.674967
O O14 0.966979 0.925975 0.425028
O O15 0.561190 0.023332 0.290176
O O16 0.288502 0.250000 0.304790
O O17 0.593565 0.109155 0.454675
O O18 0.210307 0.076913 0.229151
O O19 0.866772 0.250000 0.522190
#
# Coordination Sequence:
#
# PCOD8075038 Si02
#       8
#     4   4   4   4   4   4   4   4
#     4   9  18  33  57  84 111 149 187 229 289 346
#     4  12  19  35  58  85 119 151 189 238 297 355
#     4  11  24  39  56  86 127 160 194 246 298 354
#     4  11  22  35  56  85 116 151 193 243 292 347
#     4  10  20  37  58  86 114 148 193 245 288 348
#     4  10  22  40  61  85 115 155 201 247 291 347
#     4   8  18  38  60  84 115 151 195 245 293 340
#     4  11  23  38  60  87 116 162 198 239 295 361
#
# _framework density 20.498889999999999
#
# number of rings (size 3 to 8) (size 9 to 14) (size 15 to 20)
#    0.750    1.000    2.500    2.250    0.000    3.500 
#    0.000    0.000    0.000    0.750    0.000    0.000 
#    0.000    0.000    0.000    0.000    0.000    0.000 
#
# Total GULP energy -396425.951494 kJ/mol
# GULP energy per Si atom -12388.310984 kJ/mol
# Density = 2.045223 g / cm^3
# Si number density = 20.498890 Si / 1000 Ang^3
#
#
#
# Elastic Constant Matrix: (Units=GPa)
#
#
# Indices 1 2 3 4 5 6 
#
# 1 61.4056 51.8986 14.3151 0.0000 25.1255 0.0000
# 2 51.8986 128.3283 13.6040 0.0000 14.2861 0.0000
# 3 14.3151 13.6040 33.8150 0.0000 22.7835 0.0000
# 4 0.0000 0.0000 0.0000 16.9059 0.0000 5.5703
# 5 25.1255 14.2861 22.7835 0.0000 29.3490 0.0000
# 6 0.0000 0.0000 0.0000 5.5703 0.0000 16.9707
#
#
#
# Elastic Compliance Matrix: (Units=1/GPa)
#
#
# Indices 1 2 3 4 5 6 
#
# 1 0.040513 -0.013555 0.015149 0.000000 -0.039845 0.000000
# 2 -0.013555 0.012801 -0.006357 0.000000 0.010308 0.000000
# 3 0.015149 -0.006357 0.067869 0.000000 -0.062561 0.000000
# 4 0.000000 0.000000 0.000000 0.066324 0.000000 -0.021770
# 5 -0.039845 0.010308 -0.062561 0.000000 0.111732 0.000000
# 6 0.000000 0.000000 0.000000 -0.021770 0.000000 0.066070
#
#
# Mechanical properties :
#
#
# Convention : Reuss Voigt Hill
#
# Bulk Modulus (GPa) = 8.95592 42.57602 25.76597
# Shear Modulus (GPa) = 12.13436 22.22720 17.18078
#
# Velocity S-wave (km/s) = 2.43565 3.29646 2.89819
# Velocity P-wave (km/s) = 3.50547 5.94171 4.87812
#
# Compressibility (1/GPa) = 0.11165798
#
# Stress axis : x y z
#
# Youngs Moduli (GPa) = 24.68336 78.12120 14.73433
#
# Poissons Ratio (x) = 1.05890 -0.22321
# Poissons Ratio (y) = 0.33457 0.09366
# Poissons Ratio (z) = -0.37393 0.49660
#
# Static dielectric constant tensor:
#      x y z
#    x 3.429830 0.000000 0.122990 
#    y 0.000000 3.893900 0.000000 
#    z 0.122990 0.000000 3.717330 
# 
# 
# High freq. dielectric constant tensor:
#      x y z
#    x 1.776200 0.000000 0.010050 
#    y 0.000000 1.818580 0.000000 
#    z 0.010050 0.000000 1.791240 
# 
# From -- ./inp_files/63834.got.cif
#   From: 2010.06.25/outbox.cif.g09.slc.cpg/sg11_32_cif.got.tgz:63834.got - 2010.06.27 23:14:04.
