data_PCOD8075915
_publ_section_title
;
Structure prediction by ZEFSAII (Michael W. Deem and Ramdas Pophale) SiO2 
 PCOD8075915
Probable space group: P 21/M
;
_chemical_formula_sum "Si O2"
_cell_formula_units_Z 32
_cell_length_a 19.565285
_cell_length_b 15.154247
_cell_length_c 13.309485
_cell_angle_alpha 90.000000
_cell_angle_beta 23.167934
_cell_angle_gamma 90.000000
_cell_volume 1552.553040
_symmetry_space_group_name_H-M "P 21/M"
_symmetry_group_IT_number 11
_symmetry_cell_setting 'monoclinic'
loop_
_space_group_symop_operation_xyz
x,y,z
-x,1/2+y,-z
-x,-y,-z
x,1/2-y,z
loop_
_atom_site_type_symbol
_atom_site_label
_atom_site_fract_x
_atom_site_fract_y
_atom_site_fract_z
Si Si1 0.798896 0.422871 0.213279
Si Si2 0.176280 0.424229 0.662771
Si Si3 0.879437 0.518441 0.484559
Si Si4 0.321323 0.648888 0.188976
Si Si5 0.543850 0.652117 0.261248
Si Si6 0.534142 0.151040 0.224221
Si Si7 0.365690 0.148910 0.086212
Si Si8 0.729876 0.013208 0.089036
O O1 0.805325 0.487545 0.298464
O O2 0.656121 0.349352 0.431760
O O3 0.742843 0.477043 0.190602
O O4 0.988568 0.378992 0.938996
O O5 0.192248 0.451856 0.525884
O O6 0.327807 0.356082 0.484678
O O7 0.831186 0.416740 0.571473
O O8 0.797706 0.584186 0.677707
O O9 0.086032 0.527129 0.213716
O O10 0.260603 0.750000 0.288982
O O11 0.363557 0.630716 0.016067
O O12 0.491705 0.627283 0.022953
O O13 0.616987 0.750000 0.182148
O O14 0.550633 0.628221 0.134541
O O15 0.661756 0.585220 0.164040
O O16 0.573375 0.250000 0.208721
O O17 0.593983 0.083602 0.228803
O O18 0.301140 0.250000 0.181956
#
# Coordination Sequence:
#
# PCOD8075915 Si02
#       8
#     4   4   4   4   4   4   4   4
#     4  10  22  42  63  88 121 158 204 260 301 354
#     4  10  21  39  67  91 116 155 208 258 301 355
#     4  11  22  38  66  91 121 166 199 246 313 359
#     4  10  21  36  59  93 126 155 201 254 301 363
#     4  11  23  39  62  88 123 166 204 245 305 368
#     4  11  23  39  62  92 124 160 201 251 309 362
#     4  10  21  37  61  93 123 155 203 257 303 361
#     4  11  25  42  59  90 128 161 205 252 300 364
#
# _framework density 20.611211000000001
#
# number of rings (size 3 to 8) (size 9 to 14) (size 15 to 20)
#    0.000    1.500    2.500    2.250    0.000    4.000 
#    0.000    5.000    0.000    4.500    0.000    0.000 
#    0.000    0.000    0.000    0.000    0.000    0.000 
#
# Total GULP energy -396897.728753 kJ/mol
# GULP energy per Si atom -12403.054024 kJ/mol
# Density = 2.056430 g / cm^3
# Si number density = 20.611211 Si / 1000 Ang^3
#
#
#
# Elastic Constant Matrix: (Units=GPa)
#
#
# Indices 1 2 3 4 5 6 
#
# 1 62.4737 27.4762 36.1584 0.0000 -15.1968 0.0000
# 2 27.4762 99.8538 54.2863 0.0000 -6.8926 0.0000
# 3 36.1584 54.2863 117.5961 0.0000 -1.0280 0.0000
# 4 0.0000 0.0000 0.0000 21.9735 0.0000 3.1399
# 5 -15.1968 -6.8926 -1.0280 0.0000 25.8647 0.0000
# 6 0.0000 0.0000 0.0000 3.1399 0.0000 12.2367
#
#
#
# Elastic Compliance Matrix: (Units=1/GPa)
#
#
# Indices 1 2 3 4 5 6 
#
# 1 0.023750 -0.002301 -0.006126 0.000000 0.013098 0.000000
# 2 -0.002301 0.013884 -0.005683 0.000000 0.002122 0.000000
# 3 -0.006126 -0.005683 0.012971 0.000000 -0.004598 0.000000
# 4 0.000000 0.000000 0.000000 0.047241 0.000000 -0.012122
# 5 0.013098 0.002122 -0.004598 0.000000 0.046741 0.000000
# 6 0.000000 0.000000 0.000000 -0.012122 0.000000 0.084831
#
#
# Mechanical properties :
#
#
# Convention : Reuss Voigt Hill
#
# Bulk Modulus (GPa) = 44.67321 57.30726 50.99024
# Shear Modulus (GPa) = 18.86073 22.81519 20.83796
#
# Velocity S-wave (km/s) = 3.02830 3.33067 3.18307
# Velocity P-wave (km/s) = 5.82655 6.53111 6.18887
#
# Compressibility (1/GPa) = 0.02238478
#
# Stress axis : x y z
#
# Youngs Moduli (GPa) = 42.10472 72.02536 77.09610
#
# Poissons Ratio (x) = 0.16570 0.47231
# Poissons Ratio (y) = 0.09686 0.43817
# Poissons Ratio (z) = 0.25794 0.40935
#
# Static dielectric constant tensor:
#      x y z
#    x 3.702890 0.000000 0.030830 
#    y 0.000000 3.607590 0.000000 
#    z 0.030830 0.000000 3.952640 
# 
# 
# High freq. dielectric constant tensor:
#      x y z
#    x 1.808360 0.000000 0.008310 
#    y 0.000000 1.797380 0.000000 
#    z 0.008310 0.000000 1.815370 
# 
# From -- ./inp_files/41657.got.cif
#   From: 2010.06.25/outbox.cif.g09.slc.cpg/sg11_21_cif.got.tgz:41657.got - 2010.06.27 23:14:04.
