data_PCOD8075984
_publ_section_title
;
Structure prediction by ZEFSAII (Michael W. Deem and Ramdas Pophale) SiO2 
 PCOD8075984
Probable space group: P 21/M
;
_chemical_formula_sum "Si O2"
_cell_formula_units_Z 32
_cell_length_a 13.026947
_cell_length_b 14.799501
_cell_length_c 18.173159
_cell_angle_alpha 90.000000
_cell_angle_beta 27.577648
_cell_angle_gamma 90.000000
_cell_volume 1622.013610
_symmetry_space_group_name_H-M "P 21/M"
_symmetry_group_IT_number 11
_symmetry_cell_setting 'monoclinic'
loop_
_space_group_symop_operation_xyz
x,y,z
-x,1/2+y,-z
-x,-y,-z
x,1/2-y,z
loop_
_atom_site_type_symbol
_atom_site_label
_atom_site_fract_x
_atom_site_fract_y
_atom_site_fract_z
Si Si1 0.323039 0.643398 0.944903
Si Si2 0.603278 0.994067 0.514113
Si Si3 0.751121 0.494072 0.131478
Si Si4 0.980711 0.856599 0.287219
Si Si5 0.192422 0.143027 0.325681
Si Si6 0.155047 0.850657 0.566642
Si Si7 0.510052 0.649347 0.211637
Si Si8 0.138041 0.856978 0.343847
O O1 0.327537 0.750000 0.928188
O O2 0.281420 0.597915 0.892861
O O3 0.555395 0.608729 0.831524
O O4 0.129326 0.615180 0.123576
O O5 0.409711 0.993933 0.696773
O O6 0.741358 0.902086 0.432914
O O7 0.500000 0.000000 0.500000
O O8 0.767171 0.079775 0.420287
O O9 0.704806 0.579764 0.107716
O O10 0.000000 0.500000 0.000000
O O11 0.939619 0.750000 0.316126
O O12 0.105288 0.891270 0.281623
O O13 0.181685 0.250000 0.337437
O O14 0.076820 0.114283 0.321998
O O15 0.058820 0.101563 0.480375
O O16 0.128625 0.750000 0.618233
O O17 0.332403 0.846229 0.389191
O O18 0.611960 0.750000 0.134876
O O19 0.380321 0.614287 0.220845
O O20 0.124298 0.750000 0.356574
#
# Coordination Sequence:
#
# PCOD8075984 Si02
#       8
#     4   4   4   4   4   4   4   4
#     4  10  21  37  56  79 110 146 180 219 270 322
#     4  11  23  38  56  79 108 143 186 230 270 319
#     4  11  23  38  56  79 108 143 186 230 270 319
#     4  10  21  37  56  79 110 146 180 219 270 322
#     4   8  14  29  55  83 107 133 171 217 265 323
#     4   8  16  33  57  82 107 138 175 216 267 327
#     4   8  16  33  57  82 107 138 175 216 267 327
#     4   8  14  29  55  83 107 133 171 217 265 323
#
# _framework density 19.728563999999999
#
# number of rings (size 3 to 8) (size 9 to 14) (size 15 to 20)
#    0.000    2.750    0.000    3.000    0.000    3.500 
#    0.000   10.000    0.000    5.250    0.000    0.000 
#    0.000    0.000    0.000    0.000    0.000    0.000 
#
# Total GULP energy -396700.225809 kJ/mol
# GULP energy per Si atom -12396.882057 kJ/mol
# Density = 1.968366 g / cm^3
# Si number density = 19.728564 Si / 1000 Ang^3
#
#
#
# Elastic Constant Matrix: (Units=GPa)
#
#
# Indices 1 2 3 4 5 6 
#
# 1 166.4634 56.1288 58.9266 0.0000 -18.8693 0.0000
# 2 56.1288 72.7314 41.1465 0.0000 -7.5865 0.0000
# 3 58.9266 41.1465 93.9005 0.0000 -17.8587 0.0000
# 4 0.0000 0.0000 0.0000 22.5093 0.0000 -4.1150
# 5 -18.8693 -7.5865 -17.8587 0.0000 35.6389 0.0000
# 6 0.0000 0.0000 0.0000 -4.1150 0.0000 30.6320
#
#
#
# Elastic Compliance Matrix: (Units=1/GPa)
#
#
# Indices 1 2 3 4 5 6 
#
# 1 0.009025 -0.005010 -0.003053 0.000000 0.002182 0.000000
# 2 -0.005010 0.021063 -0.006342 0.000000 -0.001347 0.000000
# 3 -0.003053 -0.006342 0.016337 0.000000 0.005220 0.000000
# 4 0.000000 0.000000 0.000000 0.045545 0.000000 0.006118
# 5 0.002182 -0.001347 0.005220 0.000000 0.031543 0.000000
# 6 0.000000 0.000000 0.000000 0.006118 0.000000 0.033468
#
#
# Mechanical properties :
#
#
# Convention : Reuss Voigt Hill
#
# Bulk Modulus (GPa) = 56.76917 71.72213 64.24565
# Shear Modulus (GPa) = 26.08770 29.54894 27.81832
#
# Velocity S-wave (km/s) = 3.64033 3.87431 3.75914
# Velocity P-wave (km/s) = 6.81960 7.51313 7.17475
#
# Compressibility (1/GPa) = 0.01761520
#
# Stress axis : x y z
#
# Youngs Moduli (GPa) = 110.80795 47.47751 61.20962
#
# Poissons Ratio (x) = 0.23785 0.18688
# Poissons Ratio (y) = 0.55511 0.38818
# Poissons Ratio (z) = 0.33832 0.30109
#
# Static dielectric constant tensor:
#      x y z
#    x 3.791700 0.000000 -0.121900 
#    y 0.000000 3.659310 0.000000 
#    z -0.121900 0.000000 3.549630 
# 
# 
# High freq. dielectric constant tensor:
#      x y z
#    x 1.769190 0.000000 -0.011720 
#    y 0.000000 1.766210 0.000000 
#    z -0.011720 0.000000 1.745980 
# 
# From -- ./inp_files/59458.got.cif
#   From: 2010.06.25/outbox.cif.g09.slc.cpg/sg11_30_cif.got.tgz:59458.got - 2010.06.27 23:14:04.
