data_PCOD8075292
_publ_section_title
;
Structure prediction by ZEFSAII (Michael W. Deem and Ramdas Pophale) SiO2 
 PCOD8075292
Probable space group: P 21/M
;
_chemical_formula_sum "Si O2"
_cell_formula_units_Z 28
_cell_length_a 14.757162
_cell_length_b 8.809357
_cell_length_c 12.107424
_cell_angle_alpha 90.000000
_cell_angle_beta 59.041745
_cell_angle_gamma 90.000000
_cell_volume 1349.753214
_symmetry_space_group_name_H-M "P 21/M"
_symmetry_group_IT_number 11
_symmetry_cell_setting 'monoclinic'
loop_
_space_group_symop_operation_xyz
x,y,z
-x,1/2+y,-z
-x,-y,-z
x,1/2-y,z
loop_
_atom_site_type_symbol
_atom_site_label
_atom_site_fract_x
_atom_site_fract_y
_atom_site_fract_z
Si Si1 0.941110 0.414603 0.750326
Si Si2 0.309088 0.425278 0.342251
Si Si3 0.496531 0.926931 0.622760
Si Si4 0.894470 0.081909 0.030896
Si Si5 0.911666 0.426379 0.476101
Si Si6 0.685784 0.570106 0.118343
Si Si7 0.290474 0.926415 0.135151
O O1 0.986228 0.250000 0.684588
O O2 0.832939 0.450971 0.750455
O O3 0.032970 0.540575 0.678101
O O4 0.897996 0.403008 0.898902
O O5 0.292146 0.250000 0.325021
O O6 0.390884 0.450056 0.389885
O O7 0.200714 0.495358 0.453754
O O8 0.352130 0.504506 0.202206
O O9 0.466705 0.750000 0.631778
O O10 0.500000 0.000000 0.500000
O O11 0.412752 0.011909 0.751155
O O12 0.886691 0.250000 0.089846
O O13 0.789415 0.985477 0.121499
O O14 0.000000 0.000000 0.000000
O O15 0.897570 0.250000 0.507541
O O16 0.000000 0.500000 0.500000
O O17 0.687275 0.750000 0.113754
O O18 0.678714 0.510288 0.997233
O O19 0.318735 0.750000 0.102262
#
# Coordination Sequence:
#
# PCOD8075292 Si02
#       7
#     4   4   4   4   4   4   4
#     4   9  19  35  55  83 121 162 201 249 305 364
#     4  11  24  41  64  93 126 166 214 265 319 384
#     4  11  26  48  70  93 124 165 216 269 321 379
#     4  10  21  38  61  90 125 162 208 260 312 372
#     4  12  23  35  57  88 126 166 204 250 307 373
#     4  11  23  41  67  94 126 168 210 259 320 378
#     4  10  20  37  63  94 128 162 203 256 314 376
#
# _framework density 20.744534999999999
#
# number of rings (size 3 to 8) (size 9 to 14) (size 15 to 20)
#    0.000    1.429    1.429    5.143    0.000    6.857 
#    0.000    1.429    0.000    0.000    0.000    0.000 
#    0.000    0.000    0.000    0.000    0.000    0.000 
#
# Total GULP energy -347083.455369 kJ/mol
# GULP energy per Si atom -12395.837692 kJ/mol
# Density = 2.069732 g / cm^3
# Si number density = 20.744535 Si / 1000 Ang^3
#
#
#
# Elastic Constant Matrix: (Units=GPa)
#
#
# Indices 1 2 3 4 5 6 
#
# 1 93.1362 69.1185 40.2658 0.0000 -4.4370 0.0000
# 2 69.1185 187.0553 62.1111 0.0000 -6.2695 0.0000
# 3 40.2658 62.1111 93.4615 0.0000 -13.3657 0.0000
# 4 0.0000 0.0000 0.0000 39.1658 0.0000 -1.4514
# 5 -4.4370 -6.2695 -13.3657 0.0000 28.7292 0.0000
# 6 0.0000 0.0000 0.0000 -1.4514 0.0000 33.8542
#
#
#
# Elastic Compliance Matrix: (Units=1/GPa)
#
#
# Indices 1 2 3 4 5 6 
#
# 1 0.015756 -0.004572 -0.003797 0.000000 -0.000331 0.000000
# 2 -0.004572 0.008199 -0.003561 0.000000 -0.000574 0.000000
# 3 -0.003797 -0.003561 0.015541 0.000000 0.005867 0.000000
# 4 0.000000 0.000000 0.000000 0.025573 0.000000 0.001096
# 5 -0.000331 -0.000574 0.005867 0.000000 0.037361 0.000000
# 6 0.000000 0.000000 0.000000 0.001096 0.000000 0.029585
#
#
# Mechanical properties :
#
#
# Convention : Reuss Voigt Hill
#
# Bulk Modulus (GPa) = 63.95660 79.62711 71.79185
# Shear Modulus (GPa) = 31.03937 33.82702 32.43319
#
# Velocity S-wave (km/s) = 3.87236 4.04251 3.95835
# Velocity P-wave (km/s) = 7.13380 7.76255 7.45480
#
# Compressibility (1/GPa) = 0.01563560
#
# Stress axis : x y z
#
# Youngs Moduli (GPa) = 63.46826 121.97219 64.34766
#
# Poissons Ratio (x) = 0.55770 0.24432
# Poissons Ratio (y) = 0.29020 0.22912
# Poissons Ratio (z) = 0.24098 0.43430
#
# Static dielectric constant tensor:
#      x y z
#    x 5.017450 0.000000 -0.135950 
#    y 0.000000 4.175180 0.000000 
#    z -0.135950 0.000000 4.050570 
# 
# 
# High freq. dielectric constant tensor:
#      x y z
#    x 1.806350 0.000000 -0.000560 
#    y 0.000000 1.825430 0.000000 
#    z -0.000560 0.000000 1.817680 
# 
# From -- ./inp_files/37921.got.cif
#   From: 2010.06.25/outbox.cif.g09.slc.cpg/sg11_19_cif.got.tgz:37921.got - 2010.06.27 23:14:04.
