data_PCOD8075642
_publ_section_title
;
Structure prediction by ZEFSAII (Michael W. Deem and Ramdas Pophale) SiO2 
 PCOD8075642
Probable space group: P 21/M
;
_chemical_formula_sum "Si O2"
_cell_formula_units_Z 26
_cell_length_a 8.887260
_cell_length_b 18.902450
_cell_length_c 11.819163
_cell_angle_alpha 90.000000
_cell_angle_beta 37.940509
_cell_angle_gamma 90.000000
_cell_volume 1220.778571
_symmetry_space_group_name_H-M "P 21/M"
_symmetry_group_IT_number 11
_symmetry_cell_setting 'monoclinic'
loop_
_space_group_symop_operation_xyz
x,y,z
-x,1/2+y,-z
-x,-y,-z
x,1/2-y,z
loop_
_atom_site_type_symbol
_atom_site_label
_atom_site_fract_x
_atom_site_fract_y
_atom_site_fract_z
Si Si1 0.010454 0.750000 0.704473
Si Si2 0.916846 0.516757 0.423389
Si Si3 0.642171 0.467411 0.210213
Si Si4 0.684564 0.877282 0.255591
Si Si5 0.191132 0.606571 0.674781
Si Si6 0.451342 0.750000 0.012641
Si Si7 0.837608 0.115349 0.892913
Si Si8 0.544222 0.250000 0.728099
O O1 0.048852 0.680984 0.759626
O O2 0.198535 0.750000 0.489191
O O3 0.738994 0.750000 0.815086
O O4 0.638751 0.543280 0.588510
O O5 0.943443 0.446566 0.331667
O O6 0.000000 0.500000 0.500000
O O7 0.085731 0.578152 0.270317
O O8 0.721294 0.549062 0.168522
O O9 0.813499 0.424044 0.195774
O O10 0.687258 0.440845 0.056927
O O11 0.471509 0.883083 0.474016
O O12 0.618188 0.818414 0.202993
O O13 0.926334 0.856184 0.180366
O O14 0.337671 0.680750 0.024821
O O15 0.390234 0.750000 0.180468
#
# Coordination Sequence:
#
# PCOD8075642 Si02
#       8
#     2   4   4   4   4   2   4   2
#     4  10  26  45  66  97 136 185 225 275 349 403
#     4  11  25  43  69 103 141 175 224 283 341 408
#     4  11  23  42  72 105 132 175 235 282 330 402
#     4  10  20  45  70 102 126 178 236 278 335 394
#     4  10  21  45  73  97 133 179 231 284 328 401
#     4  12  31  44  61 104 143 178 226 269 349 428
#     4  12  26  43  68 101 139 181 219 282 341 399
#     4  10  25  45  73  87 139 187 221 284 342 403
#
# _framework density 21.297885000000001
#
# number of rings (size 3 to 8) (size 9 to 14) (size 15 to 20)
#    0.000    1.231    3.077    1.846   10.769    1.231 
#    0.000    0.000    0.000    0.000    0.000    0.000 
#    0.000    0.000    0.000    0.000    0.000    0.000 
#
# Total GULP energy -322547.339408 kJ/mol
# GULP energy per Si atom -12405.666900 kJ/mol
# Density = 2.124941 g / cm^3
# Si number density = 21.297885 Si / 1000 Ang^3
#
#
#
# Elastic Constant Matrix: (Units=GPa)
#
#
# Indices 1 2 3 4 5 6 
#
# 1 140.0241 86.6452 49.5051 0.0000 3.3806 0.0000
# 2 86.6452 159.0797 56.3708 0.0000 -9.9599 0.0000
# 3 49.5051 56.3708 83.2849 0.0000 1.9023 0.0000
# 4 0.0000 0.0000 0.0000 20.9181 0.0000 -0.6357
# 5 3.3806 -9.9599 1.9023 0.0000 39.7300 0.0000
# 6 0.0000 0.0000 0.0000 -0.6357 0.0000 37.6197
#
#
#
# Elastic Compliance Matrix: (Units=1/GPa)
#
#
# Indices 1 2 3 4 5 6 
#
# 1 0.011640 -0.005317 -0.003271 0.000000 -0.002167 0.000000
# 2 -0.005317 0.010922 -0.004310 0.000000 0.003397 0.000000
# 3 -0.003271 -0.004310 0.016905 0.000000 -0.001611 0.000000
# 4 0.000000 0.000000 0.000000 0.047830 0.000000 0.000808
# 5 -0.002167 0.003397 -0.001611 0.000000 0.026283 0.000000
# 6 0.000000 0.000000 0.000000 0.000808 0.000000 0.026595
#
#
# Mechanical properties :
#
#
# Convention : Reuss Voigt Hill
#
# Bulk Modulus (GPa) = 73.13976 85.27009 79.20493
# Shear Modulus (GPa) = 29.32073 32.31139 30.81606
#
# Velocity S-wave (km/s) = 3.71441 3.89924 3.80795
# Velocity P-wave (km/s) = 7.26717 7.77148 7.52355
#
# Compressibility (1/GPa) = 0.01367245
#
# Stress axis : x y z
#
# Youngs Moduli (GPa) = 85.90880 91.56055 59.15372
#
# Poissons Ratio (x) = 0.48679 0.19350
# Poissons Ratio (y) = 0.45674 0.25493
# Poissons Ratio (z) = 0.28101 0.39460
#
# Static dielectric constant tensor:
#      x y z
#    x 3.828460 0.000000 -0.100080 
#    y 0.000000 4.017730 0.000000 
#    z -0.100080 0.000000 3.844220 
# 
# 
# High freq. dielectric constant tensor:
#      x y z
#    x 1.833250 0.000000 -0.004770 
#    y 0.000000 1.840250 0.000000 
#    z -0.004770 0.000000 1.847080 
# 
# From -- ./inp_files/32788.got.cif
#   From: 2010.06.25/outbox.cif.g09.slc.cpg/sg11_17_cif.got.tgz:32788.got - 2010.06.27 23:14:04.
