data_PCOD8075611
_publ_section_title
;
Structure prediction by ZEFSAII (Michael W. Deem and Ramdas Pophale) SiO2 
 PCOD8075611
Probable space group: P 21/M
;
_chemical_formula_sum "Si O2"
_cell_formula_units_Z 18
_cell_length_a 6.665746
_cell_length_b 18.595087
_cell_length_c 9.223711
_cell_angle_alpha 90.000000
_cell_angle_beta 49.244747
_cell_angle_gamma 90.000000
_cell_volume 866.040583
_symmetry_space_group_name_H-M "P 21/M"
_symmetry_group_IT_number 11
_symmetry_cell_setting 'monoclinic'
loop_
_space_group_symop_operation_xyz
x,y,z
-x,1/2+y,-z
-x,-y,-z
x,1/2-y,z
loop_
_atom_site_type_symbol
_atom_site_label
_atom_site_fract_x
_atom_site_fract_y
_atom_site_fract_z
Si Si1 0.154248 0.750000 0.859222
Si Si2 0.825915 0.869248 0.929058
Si Si3 0.845678 0.750000 0.279490
Si Si4 0.896632 0.475088 0.395543
Si Si5 0.354755 0.100917 0.666913
Si Si6 0.562955 0.250000 0.994050
O O1 0.104410 0.823285 0.792644
O O2 0.414969 0.750000 0.838173
O O3 0.885224 0.750000 0.087042
O O4 0.865971 0.936130 0.802607
O O5 0.768179 0.900107 0.114938
O O6 0.581397 0.822294 0.985823
O O7 0.677192 0.678802 0.398249
O O8 0.139356 0.750000 0.214936
O O9 0.808913 0.544352 0.348471
O O10 0.660595 0.418836 0.530318
O O11 0.000000 0.500000 0.500000
#
# Coordination Sequence:
#
# PCOD8075611 Si02
#       6
#     2   4   2   4   4   2
#     4   7  17  35  60  92 119 152 209 246 307 362
#     4  10  20  40  67  89 125 166 202 262 308 364
#     4   8  18  40  65  90 116 161 207 255 312 362
#     4  11  26  41  59  98 127 165 216 246 314 379
#     4  10  23  44  63  88 130 163 206 262 308 375
#     4   9  19  35  67 102 115 155 226 249 307 380
#
# _framework density 20.784244000000001
#
# number of rings (size 3 to 8) (size 9 to 14) (size 15 to 20)
#    0.667    1.778    0.000    1.333    3.111    6.222 
#    0.000    2.222    0.000    0.000    0.000    0.000 
#    0.000    0.000    0.000    0.000    0.000    0.000 
#
# Total GULP energy -223083.681907 kJ/mol
# GULP energy per Si atom -12393.537884 kJ/mol
# Density = 2.073694 g / cm^3
# Si number density = 20.784244 Si / 1000 Ang^3
#
#
#
# Elastic Constant Matrix: (Units=GPa)
#
#
# Indices 1 2 3 4 5 6 
#
# 1 159.1516 70.4632 47.6045 0.0000 4.8048 0.0000
# 2 70.4632 139.2555 57.7060 0.0000 -5.9109 0.0000
# 3 47.6045 57.7060 75.7848 0.0000 7.8956 0.0000
# 4 0.0000 0.0000 0.0000 16.8440 0.0000 -3.4287
# 5 4.8048 -5.9109 7.8956 0.0000 30.1792 0.0000
# 6 0.0000 0.0000 0.0000 -3.4287 0.0000 17.6219
#
#
#
# Elastic Compliance Matrix: (Units=1/GPa)
#
#
# Indices 1 2 3 4 5 6 
#
# 1 0.008594 -0.003244 -0.002796 0.000000 -0.001272 0.000000
# 2 -0.003244 0.012278 -0.007829 0.000000 0.004969 0.000000
# 3 -0.002796 -0.007829 0.021615 0.000000 -0.006743 0.000000
# 4 0.000000 0.000000 0.000000 0.061817 0.000000 0.012028
# 5 -0.001272 0.004969 -0.006743 0.000000 0.036075 0.000000
# 6 0.000000 0.000000 0.000000 0.012028 0.000000 0.059088
#
#
# Mechanical properties :
#
#
# Convention : Reuss Voigt Hill
#
# Bulk Modulus (GPa) = 67.79718 80.63769 74.21744
# Shear Modulus (GPa) = 21.54052 26.15689 23.84870
#
# Velocity S-wave (km/s) = 3.22279 3.55138 3.39107
# Velocity P-wave (km/s) = 6.82194 7.46312 7.14972
#
# Compressibility (1/GPa) = 0.01474987
#
# Stress axis : x y z
#
# Youngs Moduli (GPa) = 116.35594 81.44884 46.26414
#
# Poissons Ratio (x) = 0.26424 0.12934
# Poissons Ratio (y) = 0.37748 0.36218
# Poissons Ratio (z) = 0.32530 0.63763
#
# Static dielectric constant tensor:
#      x y z
#    x 3.669230 0.000000 0.059410 
#    y 0.000000 3.933580 0.000000 
#    z 0.059410 0.000000 3.473030 
# 
# 
# High freq. dielectric constant tensor:
#      x y z
#    x 1.815170 0.000000 0.004690 
#    y 0.000000 1.827870 0.000000 
#    z 0.004690 0.000000 1.791970 
# 
# From -- ./inp_files/10044.got.cif
#   From: 2010.06.25/outbox.cif.g09.slc.cpg/sg11_6_cif.got.tgz:10044.got - 2010.06.27 23:14:04.
