data_PCOD8075177
_publ_section_title
;
Structure prediction by ZEFSAII (Michael W. Deem and Ramdas Pophale) SiO2 
 PCOD8075177
Probable space group: P 21/M
;
_chemical_formula_sum "Si O2"
_cell_formula_units_Z 28
_cell_length_a 9.284930
_cell_length_b 13.221654
_cell_length_c 15.045437
_cell_angle_alpha 90.000000
_cell_angle_beta 50.487711
_cell_angle_gamma 90.000000
_cell_volume 1424.946244
_symmetry_space_group_name_H-M "P 21/M"
_symmetry_group_IT_number 11
_symmetry_cell_setting 'monoclinic'
loop_
_space_group_symop_operation_xyz
x,y,z
-x,1/2+y,-z
-x,-y,-z
x,1/2-y,z
loop_
_atom_site_type_symbol
_atom_site_label
_atom_site_fract_x
_atom_site_fract_y
_atom_site_fract_z
Si Si1 0.239056 0.134784 0.598548
Si Si2 0.538561 0.867067 0.313467
Si Si3 0.821254 0.021361 0.128843
Si Si4 0.780384 0.517522 0.572678
Si Si5 0.680026 0.362889 0.031024
Si Si6 0.731803 0.635601 0.765382
Si Si7 0.945286 0.489949 0.805468
O O1 0.223564 0.250000 0.573449
O O2 0.404202 0.120396 0.605645
O O3 0.276934 0.066645 0.498105
O O4 0.041124 0.104482 0.719212
O O5 0.537604 0.750000 0.285148
O O6 0.685862 0.923947 0.191135
O O7 0.330945 0.911367 0.379463
O O8 0.901168 0.049120 0.194773
O O9 0.714844 0.112869 0.122051
O O10 0.000000 0.000000 0.000000
O O11 0.703058 0.591177 0.678824
O O12 0.000000 0.500000 0.500000
O O13 0.755632 0.250000 0.981434
O O14 0.458785 0.368107 0.103329
O O15 0.775048 0.444765 0.929661
O O16 0.805656 0.750000 0.728335
O O17 0.883376 0.570538 0.757660
#
# Coordination Sequence:
#
# PCOD8075177 Si02
#       7
#     4   4   4   4   4   4   4
#     4  10  21  39  63  90 120 158 202 251 306 360
#     4  10  22  41  64  91 122 161 210 257 304 364
#     4   9  19  36  63  90 121 151 193 251 303 360
#     4  12  23  41  62  87 124 165 206 258 304 359
#     4  10  20  37  61  85 115 156 198 245 304 364
#     4  11  23  39  58  84 123 161 199 249 307 366
#     4  10  20  38  60  88 119 155 198 250 300 364
#
# _framework density 19.649864999999998
#
# number of rings (size 3 to 8) (size 9 to 14) (size 15 to 20)
#    0.000    1.714    2.857    1.714    0.000    5.143 
#    0.000    2.143    0.000    0.000    0.000    0.000 
#    0.000    0.000    0.000    0.000    0.000    0.000 
#
# Total GULP energy -347109.818440 kJ/mol
# GULP energy per Si atom -12396.779230 kJ/mol
# Density = 1.960514 g / cm^3
# Si number density = 19.649865 Si / 1000 Ang^3
#
#
#
# Elastic Constant Matrix: (Units=GPa)
#
#
# Indices 1 2 3 4 5 6 
#
# 1 88.3184 44.0182 27.3784 0.0000 -10.4080 0.0000
# 2 44.0182 102.4653 31.2584 0.0000 -3.0462 0.0000
# 3 27.3784 31.2584 79.6595 0.0000 -1.4546 0.0000
# 4 0.0000 0.0000 0.0000 26.6990 0.0000 1.7116
# 5 -10.4080 -3.0462 -1.4546 0.0000 31.2023 0.0000
# 6 0.0000 0.0000 0.0000 1.7116 0.0000 28.5629
#
#
#
# Elastic Compliance Matrix: (Units=1/GPa)
#
#
# Indices 1 2 3 4 5 6 
#
# 1 0.015617 -0.005637 -0.003073 0.000000 0.004516 0.000000
# 2 -0.005637 0.013146 -0.003235 0.000000 -0.000748 0.000000
# 3 -0.003073 -0.003235 0.014867 0.000000 -0.000648 0.000000
# 4 0.000000 0.000000 0.000000 0.037599 0.000000 -0.002253
# 5 0.004516 -0.000748 -0.000648 0.000000 0.033452 0.000000
# 6 0.000000 0.000000 0.000000 -0.002253 0.000000 0.035145
#
#
# Mechanical properties :
#
#
# Convention : Reuss Voigt Hill
#
# Bulk Modulus (GPa) = 50.65804 52.86147 51.75975
# Shear Modulus (GPa) = 27.73224 28.47873 28.10548
#
# Velocity S-wave (km/s) = 3.76083 3.81111 3.78605
# Velocity P-wave (km/s) = 6.68541 6.80633 6.74614
#
# Compressibility (1/GPa) = 0.01974020
#
# Stress axis : x y z
#
# Youngs Moduli (GPa) = 64.03256 76.07097 67.26313
#
# Poissons Ratio (x) = 0.42883 0.20670
# Poissons Ratio (y) = 0.36097 0.21756
# Poissons Ratio (z) = 0.19677 0.24605
#
# Static dielectric constant tensor:
#      x y z
#    x 3.814110 0.000000 0.094820 
#    y 0.000000 3.551790 0.000000 
#    z 0.094820 0.000000 3.621630 
# 
# 
# High freq. dielectric constant tensor:
#      x y z
#    x 1.771070 0.000000 -0.000970 
#    y 0.000000 1.756470 0.000000 
#    z -0.000970 0.000000 1.768470 
# 
# From -- ./inp_files/47126.got.cif
#   From: 2010.06.25/outbox.cif.g09.slc.cpg/sg11_24_cif.got.tgz:47126.got - 2010.06.27 23:14:04.
