data_PCOD8075441
_publ_section_title
;
Structure prediction by ZEFSAII (Michael W. Deem and Ramdas Pophale) SiO2 
 PCOD8075441
Probable space group: P 21/M
;
_chemical_formula_sum "Si O2"
_cell_formula_units_Z 20
_cell_length_a 13.866055
_cell_length_b 10.294299
_cell_length_c 16.432102
_cell_angle_alpha 90.000000
_cell_angle_beta 154.237187
_cell_angle_gamma 90.000000
_cell_volume 1019.481089
_symmetry_space_group_name_H-M "P 21/M"
_symmetry_group_IT_number 11
_symmetry_cell_setting 'monoclinic'
loop_
_space_group_symop_operation_xyz
x,y,z
-x,1/2+y,-z
-x,-y,-z
x,1/2-y,z
loop_
_atom_site_type_symbol
_atom_site_label
_atom_site_fract_x
_atom_site_fract_y
_atom_site_fract_z
Si Si1 0.594537 0.896436 0.351242
Si Si2 0.744808 0.531463 0.290917
Si Si3 0.329946 0.110611 0.940820
Si Si4 0.107360 0.599635 0.019295
Si Si5 0.005797 0.900093 0.761936
O O1 0.581040 0.750000 0.370754
O O2 0.647336 0.899169 0.296174
O O3 0.354634 0.956217 0.189566
O O4 0.790059 0.961361 0.553323
O O5 0.722725 0.621934 0.195140
O O6 0.000000 0.500000 0.500000
O O7 0.594756 0.404272 0.157845
O O8 0.257902 0.250000 0.924125
O O9 0.211739 0.988403 0.892336
O O10 0.105448 0.750000 0.049582
O O11 0.968914 0.592378 0.830434
O O12 0.000000 0.500000 0.000000
O O13 0.053824 0.750000 0.772163
#
# Coordination Sequence:
#
# PCOD8075441 Si02
#       5
#     4   4   4   4   4
#     4  10  20  38  63  87 117 161 207 242 289 364
#     4  11  22  39  58  87 127 172 201 242 295 362
#     4  11  24  37  58  94 128 160 204 255 298 347
#     4  10  22  41  64  88 116 153 200 252 308 362
#     4  10  21  40  64  88 118 161 203 243 298 367
#
# _framework density 19.617823000000001
#
# number of rings (size 3 to 8) (size 9 to 14) (size 15 to 20)
#    0.000    1.600    4.000    0.600    0.000    6.400 
#    0.000    1.000    0.000    0.000    0.000    0.000 
#    0.000    0.000    0.000    0.000    0.000    0.000 
#
# Total GULP energy -247833.239405 kJ/mol
# GULP energy per Si atom -12391.661970 kJ/mol
# Density = 1.957317 g / cm^3
# Si number density = 19.617823 Si / 1000 Ang^3
#
#
#
# Elastic Constant Matrix: (Units=GPa)
#
#
# Indices 1 2 3 4 5 6 
#
# 1 114.0738 49.3750 45.5021 0.0000 5.5039 0.0000
# 2 49.3750 99.0300 34.6779 0.0000 2.2573 0.0000
# 3 45.5021 34.6779 148.5429 0.0000 -4.0940 0.0000
# 4 0.0000 0.0000 0.0000 9.1236 0.0000 2.2920
# 5 5.5039 2.2573 -4.0940 0.0000 32.2511 0.0000
# 6 0.0000 0.0000 0.0000 2.2920 0.0000 26.2589
#
#
#
# Elastic Compliance Matrix: (Units=1/GPa)
#
#
# Indices 1 2 3 4 5 6 
#
# 1 0.012090 -0.005080 -0.002573 0.000000 -0.002034 0.000000
# 2 -0.005080 0.013171 -0.001525 0.000000 -0.000248 0.000000
# 3 -0.002573 -0.001525 0.007919 0.000000 0.001551 0.000000
# 4 0.000000 0.000000 0.000000 0.112063 0.000000 -0.009781
# 5 -0.002034 -0.000248 0.001551 0.000000 0.031568 0.000000
# 6 0.000000 0.000000 0.000000 -0.009781 0.000000 0.038936
#
#
# Mechanical properties :
#
#
# Convention : Reuss Voigt Hill
#
# Bulk Modulus (GPa) = 67.46944 68.97297 68.22121
# Shear Modulus (GPa) = 20.91646 28.99950 24.95798
#
# Velocity S-wave (km/s) = 3.26881 3.84894 3.57067
# Velocity P-wave (km/s) = 6.97950 7.41533 7.20071
#
# Compressibility (1/GPa) = 0.01482152
#
# Stress axis : x y z
#
# Youngs Moduli (GPa) = 82.71413 75.92589 126.27492
#
# Poissons Ratio (x) = 0.38573 0.32496
# Poissons Ratio (y) = 0.42021 0.19262
# Poissons Ratio (z) = 0.21286 0.11582
#
# Static dielectric constant tensor:
#      x y z
#    x 3.413510 0.000000 -0.037510 
#    y 0.000000 3.337520 0.000000 
#    z -0.037510 0.000000 4.099530 
# 
# 
# High freq. dielectric constant tensor:
#      x y z
#    x 1.748300 0.000000 -0.009370 
#    y 0.000000 1.741480 0.000000 
#    z -0.009370 0.000000 1.786240 
# 
# From -- ./inp_files/39119.got.cif
#   From: 2010.06.25/outbox.cif.g09.slc.cpg/sg11_20_cif.got.tgz:39119.got - 2010.06.27 23:14:04.
