data_PCOD8075734
_publ_section_title
;
Structure prediction by ZEFSAII (Michael W. Deem and Ramdas Pophale) SiO2 
 PCOD8075734
Probable space group: P 21/M
;
_chemical_formula_sum "Si O2"
_cell_formula_units_Z 20
_cell_length_a 5.210120
_cell_length_b 14.355162
_cell_length_c 15.182355
_cell_angle_alpha 90.000000
_cell_angle_beta 66.334857
_cell_angle_gamma 90.000000
_cell_volume 1040.031094
_symmetry_space_group_name_H-M "P 21/M"
_symmetry_group_IT_number 11
_symmetry_cell_setting 'monoclinic'
loop_
_space_group_symop_operation_xyz
x,y,z
-x,1/2+y,-z
-x,-y,-z
x,1/2-y,z
loop_
_atom_site_type_symbol
_atom_site_label
_atom_site_fract_x
_atom_site_fract_y
_atom_site_fract_z
Si Si1 0.111595 0.438660 0.405919
Si Si2 0.677476 0.144627 0.339994
Si Si3 0.195865 0.357268 0.925569
Si Si4 0.460830 0.983034 0.785927
Si Si5 0.449519 0.642322 0.951439
O O1 0.652369 0.632885 0.590232
O O2 0.256312 0.502882 0.309729
O O3 0.000000 0.500000 0.500000
O O4 0.854419 0.381704 0.401231
O O5 0.743868 0.250000 0.303210
O O6 0.750944 0.079061 0.245523
O O7 0.244437 0.250000 0.892695
O O8 0.316872 0.419636 0.829940
O O9 0.356833 0.383178 0.992663
O O10 0.870819 0.380848 0.981240
O O11 0.548689 0.922262 0.858290
O O12 0.485648 0.750000 0.919083
#
# Coordination Sequence:
#
# PCOD8075734 Si02
#       5
#     4   4   4   4   4
#     4  10  23  40  62  86 123 151 192 245 299 356
#     4  10  22  38  63  91 119 152 194 249 296 345
#     4  10  22  37  54  82 123 161 199 239 284 350
#     4  10  23  35  65  84 122 153 200 238 299 344
#     4  10  21  35  55  85 118 155 200 242 287 343
#
# _framework density 19.230191999999999
#
# number of rings (size 3 to 8) (size 9 to 14) (size 15 to 20)
#    1.200    0.800    0.000    3.000    5.600    0.000 
#    0.000    2.000    0.000    0.000    0.000    0.000 
#    0.000    0.000    0.000    0.000    0.000    0.000 
#
# Total GULP energy -247925.060381 kJ/mol
# GULP energy per Si atom -12396.253019 kJ/mol
# Density = 1.918642 g / cm^3
# Si number density = 19.230192 Si / 1000 Ang^3
#
#
#
# Elastic Constant Matrix: (Units=GPa)
#
#
# Indices 1 2 3 4 5 6 
#
# 1 103.1673 27.8407 34.0198 0.0000 18.5603 0.0000
# 2 27.8407 97.1849 74.3223 0.0000 2.3990 0.0000
# 3 34.0198 74.3223 112.3050 0.0000 -11.2455 0.0000
# 4 0.0000 0.0000 0.0000 31.6942 0.0000 4.8955
# 5 18.5603 2.3990 -11.2455 0.0000 25.3768 0.0000
# 6 0.0000 0.0000 0.0000 4.8955 0.0000 20.6239
#
#
#
# Elastic Compliance Matrix: (Units=1/GPa)
#
#
# Indices 1 2 3 4 5 6 
#
# 1 0.013761 0.001122 -0.006205 0.000000 -0.012920 0.000000
# 2 0.001122 0.022816 -0.016468 0.000000 -0.010275 0.000000
# 3 -0.006205 -0.016468 0.023328 0.000000 0.016432 0.000000
# 4 0.000000 0.000000 0.000000 0.032752 0.000000 -0.007774
# 5 -0.012920 -0.010275 0.016432 0.000000 0.057109 0.000000
# 6 0.000000 0.000000 0.000000 -0.007774 0.000000 0.050333
#
#
# Mechanical properties :
#
#
# Convention : Reuss Voigt Hill
#
# Bulk Modulus (GPa) = 59.51455 65.00256 62.25856
# Shear Modulus (GPa) = 20.09642 27.30393 23.70018
#
# Velocity S-wave (km/s) = 3.23622 3.77217 3.51443
# Velocity P-wave (km/s) = 6.70670 7.26967 6.99385
#
# Compressibility (1/GPa) = 0.01680261
#
# Stress axis : x y z
#
# Youngs Moduli (GPa) = 72.67133 43.82911 42.86760
#
# Poissons Ratio (x) = -0.04917 0.26597
# Poissons Ratio (y) = -0.08153 0.70595
# Poissons Ratio (z) = 0.45089 0.72178
#
# Static dielectric constant tensor:
#      x y z
#    x 3.688010 0.000000 0.144320 
#    y 0.000000 3.680310 0.000000 
#    z 0.144320 0.000000 3.286590 
# 
# 
# High freq. dielectric constant tensor:
#      x y z
#    x 1.760960 0.000000 0.009300 
#    y 0.000000 1.740780 0.000000 
#    z 0.009300 0.000000 1.728080 
# 
# From -- ./inp_files/29540.got.cif
#   From: 2010.06.25/outbox.cif.g09.slc.cpg/sg11_15_cif.got.tgz:29540.got - 2010.06.27 23:14:04.
