data_PCOD8075768
_publ_section_title
;
Structure prediction by ZEFSAII (Michael W. Deem and Ramdas Pophale) SiO2 
 PCOD8075768
Probable space group: P 21/M
;
_chemical_formula_sum "Si O2"
_cell_formula_units_Z 20
_cell_length_a 11.841517
_cell_length_b 14.271227
_cell_length_c 6.858393
_cell_angle_alpha 90.000000
_cell_angle_beta 125.394218
_cell_angle_gamma 90.000000
_cell_volume 944.817372
_symmetry_space_group_name_H-M "P 21/M"
_symmetry_group_IT_number 11
_symmetry_cell_setting 'monoclinic'
loop_
_space_group_symop_operation_xyz
x,y,z
-x,1/2+y,-z
-x,-y,-z
x,1/2-y,z
loop_
_atom_site_type_symbol
_atom_site_label
_atom_site_fract_x
_atom_site_fract_y
_atom_site_fract_z
Si Si1 0.249985 0.356331 0.041926
Si Si2 0.750014 0.539659 0.562853
Si Si3 0.044648 0.143699 0.497273
Si Si4 0.250007 0.642941 0.642995
Si Si5 0.455326 0.143698 0.907966
O O1 0.249985 0.250000 0.125452
O O2 0.249984 0.432153 0.212907
O O3 0.113710 0.374189 0.776524
O O4 0.386261 0.374190 0.049084
O O5 0.889024 0.577841 0.599497
O O6 0.750009 0.426645 0.542731
O O7 0.611006 0.577846 0.321473
O O8 0.072825 0.250000 0.459152
O O9 0.881903 0.122491 0.351697
O O10 0.250010 0.750000 0.564013
O O11 0.381931 0.622482 0.912113
O O12 0.427160 0.250000 0.813506
#
# Coordination Sequence:
#
# PCOD8075768 Si02
#       5
#     4   4   4   4   4
#     4   9  18  33  55  79 101 132 176 219 257 306
#     4  11  19  33  59  80 100 138 183 213 251 313
#     4   9  19  36  55  78 108 136 170 217 263 308
#     4  10  21  36  52  75 111 144 169 214 268 305
#     4   9  19  36  55  78 108 136 170 217 263 308
#
# _framework density 21.168113000000002
#
# number of rings (size 3 to 8) (size 9 to 14) (size 15 to 20)
#    0.000    2.400    0.000    4.200    0.000    1.600 
#    0.000    2.000    0.000   16.800    0.000    0.000 
#    0.000    0.000    0.000    0.000    0.000    0.000 
#
# Total GULP energy -248019.218621 kJ/mol
# GULP energy per Si atom -12400.960931 kJ/mol
# Density = 2.111993 g / cm^3
# Si number density = 21.168113 Si / 1000 Ang^3
#
#
#
# Elastic Constant Matrix: (Units=GPa)
#
#
# Indices 1 2 3 4 5 6 
#
# 1 100.2841 27.6266 70.0041 0.0000 36.4449 0.0000
# 2 27.6266 86.2227 24.4076 0.0000 4.1435 0.0000
# 3 70.0041 24.4076 65.8162 0.0000 8.1871 0.0000
# 4 0.0000 0.0000 0.0000 20.3437 0.0000 -2.1688
# 5 36.4449 4.1435 8.1871 0.0000 37.6855 0.0000
# 6 0.0000 0.0000 0.0000 -2.1688 0.0000 18.6702
#
#
#
# Elastic Compliance Matrix: (Units=1/GPa)
#
#
# Indices 1 2 3 4 5 6 
#
# 1 0.206819 -0.002221 -0.199702 0.000000 -0.156381 0.000000
# 2 -0.002221 0.012988 -0.002614 0.000000 0.001288 0.000000
# 3 -0.199702 -0.002614 0.210193 0.000000 0.147752 0.000000
# 4 0.000000 0.000000 0.000000 0.049772 0.000000 0.005782
# 5 -0.156381 0.001288 0.147752 0.000000 0.145529 0.000000
# 6 0.000000 0.000000 0.000000 0.005782 0.000000 0.054233
#
#
# Mechanical properties :
#
#
# Convention : Reuss Voigt Hill
#
# Bulk Modulus (GPa) = 47.79034 55.15552 51.47293
# Shear Modulus (GPa) = 4.56378 24.02553 14.29466
#
# Velocity S-wave (km/s) = 1.46992 3.37261 2.60146
# Velocity P-wave (km/s) = 5.05039 6.42484 5.77862
#
# Compressibility (1/GPa) = 0.02092473
#
# Stress axis : x y z
#
# Youngs Moduli (GPa) = 4.83515 76.99616 4.75753
#
# Poissons Ratio (x) = 0.17100 0.95009
# Poissons Ratio (y) = 0.01074 0.01244
# Poissons Ratio (z) = 0.96559 0.20129
#
# Static dielectric constant tensor:
#      x y z
#    x 3.827740 0.000000 0.385290 
#    y 0.000000 4.035620 0.000000 
#    z 0.385290 0.000000 3.530410 
# 
# 
# High freq. dielectric constant tensor:
#      x y z
#    x 1.824050 0.000000 0.027970 
#    y 0.000000 1.843290 0.000000 
#    z 0.027970 0.000000 1.802470 
# 
# From -- ./inp_files/4699.got.cif
#   From: 2010.06.25/outbox.cif.g09.slc.cpg/sg11_3_cif.got.tgz:4699.got - 2010.06.27 23:14:04.
