data_PCOD8075562
_publ_section_title
;
Structure prediction by ZEFSAII (Michael W. Deem and Ramdas Pophale) SiO2 
 PCOD8075562
Probable space group: P 21/M
;
_chemical_formula_sum "Si O2"
_cell_formula_units_Z 24
_cell_length_a 9.210240
_cell_length_b 14.316262
_cell_length_c 9.198134
_cell_angle_alpha 90.000000
_cell_angle_beta 75.811787
_cell_angle_gamma 90.000000
_cell_volume 1175.834630
_symmetry_space_group_name_H-M "P 21/M"
_symmetry_group_IT_number 11
_symmetry_cell_setting 'monoclinic'
loop_
_space_group_symop_operation_xyz
x,y,z
-x,1/2+y,-z
-x,-y,-z
x,1/2-y,z
loop_
_atom_site_type_symbol
_atom_site_label
_atom_site_fract_x
_atom_site_fract_y
_atom_site_fract_z
Si Si1 0.799154 0.143588 0.626322
Si Si2 0.986684 0.145989 0.295311
Si Si3 0.678434 0.646761 0.793456
Si Si4 0.245138 0.442624 0.929561
Si Si5 0.479353 0.986812 0.334241
Si Si6 0.036221 0.548984 0.159260
O O1 0.773496 0.250000 0.680618
O O2 0.864839 0.135412 0.450208
O O3 0.640540 0.092818 0.672073
O O4 0.921895 0.097426 0.701306
O O5 0.967038 0.250000 0.226482
O O6 0.155848 0.139643 0.317241
O O7 0.968614 0.057414 0.193706
O O8 0.611604 0.750000 0.794899
O O9 0.568928 0.582660 0.728338
O O10 0.684278 0.623050 0.963913
O O11 0.363642 0.459531 0.774445
O O12 0.098182 0.395433 0.888354
O O13 0.186658 0.538061 0.024104
O O14 0.500000 0.000000 0.500000
#
# Coordination Sequence:
#
# PCOD8075562 Si02
#       6
#     4   4   4   4   4   4
#     4  11  23  38  61  94 128 162 206 261 316 372
#     4   9  18  35  62  91 121 160 209 254 307 369
#     4  10  22  41  65  90 123 167 210 258 313 374
#     4  10  22  40  64  93 124 161 210 254 311 381
#     4  12  25  41  63  93 130 167 209 259 320 374
#     4  10  20  39  66  88 123 164 210 257 310 369
#
# _framework density 20.411033
#
# number of rings (size 3 to 8) (size 9 to 14) (size 15 to 20)
#    0.000    1.667    3.333    2.000    2.333    2.000 
#    0.000    3.333    0.000    0.000    0.000    0.000 
#    0.000    0.000    0.000    0.000    0.000    0.000 
#
# Total GULP energy -297405.594821 kJ/mol
# GULP energy per Si atom -12391.899784 kJ/mol
# Density = 2.036458 g / cm^3
# Si number density = 20.411033 Si / 1000 Ang^3
#
#
#
# Elastic Constant Matrix: (Units=GPa)
#
#
# Indices 1 2 3 4 5 6 
#
# 1 86.6900 38.7185 50.3779 0.0000 -1.5224 0.0000
# 2 38.7185 111.8064 45.3376 0.0000 7.9833 0.0000
# 3 50.3779 45.3376 109.7511 0.0000 -6.2322 0.0000
# 4 0.0000 0.0000 0.0000 21.5319 0.0000 -4.0040
# 5 -1.5224 7.9833 -6.2322 0.0000 48.3230 0.0000
# 6 0.0000 0.0000 0.0000 -4.0040 0.0000 5.0224
#
#
#
# Elastic Compliance Matrix: (Units=1/GPa)
#
#
# Indices 1 2 3 4 5 6 
#
# 1 0.016636 -0.003229 -0.006289 0.000000 0.000246 0.000000
# 2 -0.003229 0.011645 -0.003469 0.000000 -0.002473 0.000000
# 3 -0.006289 -0.003469 0.013552 0.000000 0.002123 0.000000
# 4 0.000000 0.000000 0.000000 0.054526 0.000000 0.043470
# 5 0.000246 -0.002473 0.002123 0.000000 0.021384 0.000000
# 6 0.000000 0.000000 0.000000 0.043470 0.000000 0.233766
#
#
# Mechanical properties :
#
#
# Convention : Reuss Voigt Hill
#
# Bulk Modulus (GPa) = 63.04915 64.12395 63.58655
# Shear Modulus (GPa) = 13.06271 26.56304 19.81287
#
# Velocity S-wave (km/s) = 2.53253 3.61141 3.11898
# Velocity P-wave (km/s) = 6.28557 6.99101 6.64766
#
# Compressibility (1/GPa) = 0.01586064
#
# Stress axis : x y z
#
# Youngs Moduli (GPa) = 60.10996 85.87071 73.79147
#
# Poissons Ratio (x) = 0.27725 0.46404
# Poissons Ratio (y) = 0.19408 0.25599
# Poissons Ratio (z) = 0.37801 0.29789
#
# Static dielectric constant tensor:
#      x y z
#    x 3.669460 0.000000 -0.078410 
#    y 0.000000 3.842560 0.000000 
#    z -0.078410 0.000000 3.715170 
# 
# 
# High freq. dielectric constant tensor:
#      x y z
#    x 1.795670 0.000000 -0.004720 
#    y 0.000000 1.784980 0.000000 
#    z -0.004720 0.000000 1.802600 
# 
# From -- ./inp_files/12432.got.cif
#   From: 2010.06.25/outbox.cif.g09.slc.cpg/sg11_7_cif.got.tgz:12432.got - 2010.06.27 23:14:04.
