data_PCOD8075489
_publ_section_title
;
Structure prediction by ZEFSAII (Michael W. Deem and Ramdas Pophale) SiO2 
 PCOD8075489
Probable space group: P 21/M
;
_chemical_formula_sum "Si O2"
_cell_formula_units_Z 24
_cell_length_a 13.183273
_cell_length_b 14.654501
_cell_length_c 8.017632
_cell_angle_alpha 90.000000
_cell_angle_beta 135.385437
_cell_angle_gamma 90.000000
_cell_volume 1087.887776
_symmetry_space_group_name_H-M "P 21/M"
_symmetry_group_IT_number 11
_symmetry_cell_setting 'monoclinic'
loop_
_space_group_symop_operation_xyz
x,y,z
-x,1/2+y,-z
-x,-y,-z
x,1/2-y,z
loop_
_atom_site_type_symbol
_atom_site_label
_atom_site_fract_x
_atom_site_fract_y
_atom_site_fract_z
Si Si1 0.620244 0.064933 0.331300
Si Si2 0.924131 0.085878 0.836226
Si Si3 0.473673 0.750000 0.865213
Si Si4 0.023311 0.750000 0.858633
Si Si5 0.096656 0.430115 0.719739
Si Si6 0.711323 0.250000 0.041585
Si Si7 0.205832 0.250000 0.660538
Si Si8 0.357226 0.552467 0.034970
O O1 0.757560 0.062373 0.610571
O O2 0.513984 0.985127 0.268470
O O3 0.534198 0.160196 0.257332
O O4 0.663454 0.051530 0.189397
O O5 0.937344 0.163951 0.986498
O O6 0.001220 0.113752 0.754575
O O7 0.000000 0.000000 0.000000
O O8 0.328364 0.750000 0.809186
O O9 0.620142 0.750000 0.146390
O O10 0.117507 0.750000 0.796599
O O11 0.857252 0.750000 0.602213
O O12 0.154352 0.343827 0.684590
O O13 0.000000 0.500000 0.500000
O O14 0.229144 0.488177 0.954106
O O15 0.648242 0.154830 0.893609
#
# Coordination Sequence:
#
# PCOD8075489 Si02
#       8
#     4   4   2   2   4   2   2   4
#     4  10  21  39  67  96 134 170 223 282 341 396
#     4  12  26  44  67  99 144 181 218 278 353 413
#     4  10  21  41  70 100 125 172 234 300 326 389
#     4  12  28  45  63  99 141 180 220 279 352 411
#     4  12  23  42  71 104 131 176 235 283 333 407
#     4  10  22  39  63  96 134 175 225 271 340 404
#     4  12  25  43  72 101 132 173 237 294 328 404
#     4  10  20  38  68 102 127 170 234 285 328 387
#
# _framework density 22.061098999999999
#
# number of rings (size 3 to 8) (size 9 to 14) (size 15 to 20)
#    0.000    1.000    3.333    4.000    2.333    0.000 
#    0.000    5.000    0.000    0.000    0.000    0.000 
#    0.000    0.000    0.000    0.000    0.000    0.000 
#
# Total GULP energy -297527.109499 kJ/mol
# GULP energy per Si atom -12396.962896 kJ/mol
# Density = 2.201089 g / cm^3
# Si number density = 22.061099 Si / 1000 Ang^3
#
#
#
# Elastic Constant Matrix: (Units=GPa)
#
#
# Indices 1 2 3 4 5 6 
#
# 1 70.7360 28.7824 36.9717 0.0000 15.7547 0.0000
# 2 28.7824 171.7679 61.9036 0.0000 20.4044 0.0000
# 3 36.9717 61.9036 170.6662 0.0000 32.2825 0.0000
# 4 0.0000 0.0000 0.0000 28.7608 0.0000 5.7220
# 5 15.7547 20.4044 32.2825 0.0000 31.3087 0.0000
# 6 0.0000 0.0000 0.0000 5.7220 0.0000 30.2487
#
#
#
# Elastic Compliance Matrix: (Units=1/GPa)
#
#
# Indices 1 2 3 4 5 6 
#
# 1 0.017054 -0.001439 -0.002145 0.000000 -0.005432 0.000000
# 2 -0.001439 0.006956 -0.001852 0.000000 -0.001900 0.000000
# 3 -0.002145 -0.001852 0.008154 0.000000 -0.006121 0.000000
# 4 0.000000 0.000000 0.000000 0.036129 0.000000 -0.006834
# 5 -0.005432 -0.001900 -0.006121 0.000000 0.042223 0.000000
# 6 0.000000 0.000000 0.000000 -0.006834 0.000000 0.034352
#
#
# Mechanical properties :
#
#
# Convention : Reuss Voigt Hill
#
# Bulk Modulus (GPa) = 46.96830 74.27618 60.62224
# Shear Modulus (GPa) = 30.70564 37.09779 33.90172
#
# Velocity S-wave (km/s) = 3.73479 4.10517 3.92435
# Velocity P-wave (km/s) = 6.31938 7.49743 6.93347
#
# Compressibility (1/GPa) = 0.02129095
#
# Stress axis : x y z
#
# Youngs Moduli (GPa) = 58.63874 143.75922 122.64556
#
# Poissons Ratio (x) = 0.20692 0.26305
# Poissons Ratio (y) = 0.08440 0.22714
# Poissons Ratio (z) = 0.12577 0.26624
#
# Static dielectric constant tensor:
#      x y z
#    x 4.178050 0.000000 0.225620 
#    y 0.000000 4.400170 0.000000 
#    z 0.225620 0.000000 3.786000 
# 
# 
# High freq. dielectric constant tensor:
#      x y z
#    x 1.858720 0.000000 0.025430 
#    y 0.000000 1.894770 0.000000 
#    z 0.025430 0.000000 1.848210 
# 
# From -- ./inp_files/22363.got.cif
#   From: 2010.06.25/outbox.cif.g09.slc.cpg/sg11_12_cif.got.tgz:22363.got - 2010.06.27 23:14:04.
