data_PCOD8075386
_publ_section_title
;
Structure prediction by ZEFSAII (Michael W. Deem and Ramdas Pophale) SiO2 
 PCOD8075386
Probable space group: P 21/M
;
_chemical_formula_sum "Si O2"
_cell_formula_units_Z 24
_cell_length_a 8.604558
_cell_length_b 16.743440
_cell_length_c 9.744109
_cell_angle_alpha 90.000000
_cell_angle_beta 110.699417
_cell_angle_gamma 90.000000
_cell_volume 1313.212076
_symmetry_space_group_name_H-M "P 21/M"
_symmetry_group_IT_number 11
_symmetry_cell_setting 'monoclinic'
loop_
_space_group_symop_operation_xyz
x,y,z
-x,1/2+y,-z
-x,-y,-z
x,1/2-y,z
loop_
_atom_site_type_symbol
_atom_site_label
_atom_site_fract_x
_atom_site_fract_y
_atom_site_fract_z
Si Si1 0.451377 0.437906 0.101714
Si Si2 0.763579 0.343308 0.158004
Si Si3 0.085589 0.066590 0.926352
Si Si4 0.359084 0.513644 0.347600
Si Si5 0.995066 0.970142 0.655101
Si Si6 0.220957 0.841137 0.153636
O O1 0.583348 0.366512 0.160238
O O2 0.448899 0.480943 0.243887
O O3 0.500000 0.500000 0.000000
O O4 0.266664 0.403435 0.024062
O O5 0.796745 0.250000 0.184692
O O6 0.913463 0.385210 0.290324
O O7 0.749740 0.369190 0.993973
O O8 0.975446 0.146371 0.886021
O O9 0.101812 0.031964 0.778126
O O10 0.000000 0.000000 0.000000
O O11 0.500000 0.500000 0.500000
O O12 0.193179 0.467282 0.345285
O O13 0.317885 0.605870 0.297026
O O14 0.000000 0.000000 0.500000
O O15 0.273289 0.750000 0.194757
#
# Coordination Sequence:
#
# PCOD8075386 Si02
#       6
#     4   4   4   4   4   4
#     4  12  19  35  61  86 118 152 202 243 280 358
#     4  11  22  37  60  92 121 152 196 252 302 341
#     4  11  18  37  60  86 112 153 207 235 286 359
#     4  11  22  37  60  90 115 160 206 236 293 358
#     4  11  21  38  59  87 117 160 198 241 292 357
#     4  10  20  38  61  87 120 152 193 252 301 343
#
# _framework density 18.2758
#
# number of rings (size 3 to 8) (size 9 to 14) (size 15 to 20)
#    0.000    1.000    8.333    1.000    0.000    0.667 
#    0.000    9.167    0.000    0.000    0.000    0.000 
#    0.000    0.000    0.000    0.000    0.000    0.000 
#
# Total GULP energy -297365.541710 kJ/mol
# GULP energy per Si atom -12390.230905 kJ/mol
# Density = 1.823420 g / cm^3
# Si number density = 18.275800 Si / 1000 Ang^3
#
#
#
# Elastic Constant Matrix: (Units=GPa)
#
#
# Indices 1 2 3 4 5 6 
#
# 1 117.1156 55.3761 58.1564 0.0000 12.9938 0.0000
# 2 55.3761 84.4839 53.8363 0.0000 9.1664 0.0000
# 3 58.1564 53.8363 136.1329 0.0000 6.1323 0.0000
# 4 0.0000 0.0000 0.0000 25.5405 0.0000 3.1146
# 5 12.9938 9.1664 6.1323 0.0000 42.4416 0.0000
# 6 0.0000 0.0000 0.0000 3.1146 0.0000 26.3427
#
#
#
# Elastic Compliance Matrix: (Units=1/GPa)
#
#
# Indices 1 2 3 4 5 6 
#
# 1 0.013418 -0.006636 -0.003007 0.000000 -0.002240 0.000000
# 2 -0.006636 0.019381 -0.004764 0.000000 -0.001466 0.000000
# 3 -0.003007 -0.004764 0.010495 0.000000 0.000433 0.000000
# 4 0.000000 0.000000 0.000000 0.039726 0.000000 -0.004697
# 5 -0.002240 -0.001466 0.000433 0.000000 0.024502 0.000000
# 6 0.000000 0.000000 0.000000 -0.004697 0.000000 0.038516
#
#
# Mechanical properties :
#
#
# Convention : Reuss Voigt Hill
#
# Bulk Modulus (GPa) = 69.05798 74.71891 71.88844
# Shear Modulus (GPa) = 27.82767 30.22254 29.02511
#
# Velocity S-wave (km/s) = 3.90635 4.07097 3.98951
# Velocity P-wave (km/s) = 7.62986 7.94166 7.78732
#
# Compressibility (1/GPa) = 0.01448059
#
# Stress axis : x y z
#
# Youngs Moduli (GPa) = 74.52717 51.59800 95.28590
#
# Poissons Ratio (x) = 0.34239 0.28653
# Poissons Ratio (y) = 0.49454 0.45390
# Poissons Ratio (z) = 0.22411 0.24579
#
# Static dielectric constant tensor:
#      x y z
#    x 3.588560 0.000000 0.010990 
#    y 0.000000 3.036740 0.000000 
#    z 0.010990 0.000000 3.425340 
# 
# 
# High freq. dielectric constant tensor:
#      x y z
#    x 1.723620 0.000000 -0.001350 
#    y 0.000000 1.680760 0.000000 
#    z -0.001350 0.000000 1.712300 
# 
# From -- ./inp_files/13291.got.cif
#   From: 2010.06.25/outbox.cif.g09.slc.cpg/sg11_7_cif.got.tgz:13291.got - 2010.06.27 23:14:04.
