data_PCOD8075914
_publ_section_title
;
Structure prediction by ZEFSAII (Michael W. Deem and Ramdas Pophale) SiO2 
 PCOD8075914
Probable space group: P 21/M
;
_chemical_formula_sum "Si O2"
_cell_formula_units_Z 28
_cell_length_a 12.024534
_cell_length_b 13.695183
_cell_length_c 8.654031
_cell_angle_alpha 90.000000
_cell_angle_beta 61.634357
_cell_angle_gamma 90.000000
_cell_volume 1254.019968
_symmetry_space_group_name_H-M "P 21/M"
_symmetry_group_IT_number 11
_symmetry_cell_setting 'monoclinic'
loop_
_space_group_symop_operation_xyz
x,y,z
-x,1/2+y,-z
-x,-y,-z
x,1/2-y,z
loop_
_atom_site_type_symbol
_atom_site_label
_atom_site_fract_x
_atom_site_fract_y
_atom_site_fract_z
Si Si1 0.959408 0.858132 0.347660
Si Si2 0.149341 0.136712 0.250800
Si Si3 0.609435 0.979713 0.806471
Si Si4 0.561304 0.363382 0.291635
Si Si5 0.175676 0.639811 0.999319
Si Si6 0.926845 0.053250 0.223297
Si Si7 0.687163 0.138082 0.526214
O O1 0.908727 0.750000 0.332114
O O2 0.938192 0.875871 0.540975
O O3 0.111284 0.864997 0.211581
O O4 0.889763 0.942253 0.295769
O O5 0.175705 0.250000 0.194642
O O6 0.070547 0.083849 0.168330
O O7 0.281502 0.081284 0.180741
O O8 0.659864 0.080186 0.701608
O O9 0.560664 0.918859 0.690479
O O10 0.500000 0.000000 0.000000
O O11 0.529538 0.250000 0.303374
O O12 0.595195 0.394003 0.444758
O O13 0.678103 0.391670 0.098626
O O14 0.168233 0.750000 0.935372
O O15 0.091050 0.567746 0.948438
O O16 0.830900 0.124456 0.376400
O O17 0.664332 0.250000 0.583975
#
# Coordination Sequence:
#
# PCOD8075914 Si02
#       7
#     4   4   4   4   4   4   4
#     4  10  21  36  59  92 124 155 199 245 303 370
#     4  11  24  41  60  88 124 160 197 244 306 372
#     4  12  26  41  61  88 126 167 206 251 307 362
#     4   9  20  41  66  87 119 163 209 253 295 357
#     4   9  19  36  63  96 120 155 201 248 301 358
#     4  11  20  39  64  91 125 159 192 252 311 363
#     4  10  22  42  67  91 115 158 213 258 303 364
#
# _framework density 22.328192000000001
#
# number of rings (size 3 to 8) (size 9 to 14) (size 15 to 20)
#    0.000    1.714    1.429    3.857    2.000    1.143 
#    0.000    0.000    0.000    0.000    0.000    0.000 
#    0.000    0.000    0.000    0.000    0.000    0.000 
#
# Total GULP energy -347178.932234 kJ/mol
# GULP energy per Si atom -12399.247580 kJ/mol
# Density = 2.227737 g / cm^3
# Si number density = 22.328192 Si / 1000 Ang^3
#
#
#
# Elastic Constant Matrix: (Units=GPa)
#
#
# Indices 1 2 3 4 5 6 
#
# 1 123.1244 45.6310 12.9606 0.0000 -2.7031 0.0000
# 2 45.6310 107.8892 18.5118 0.0000 3.4579 0.0000
# 3 12.9606 18.5118 90.8610 0.0000 -8.2051 0.0000
# 4 0.0000 0.0000 0.0000 26.3772 0.0000 -3.2035
# 5 -2.7031 3.4579 -8.2051 0.0000 15.9707 0.0000
# 6 0.0000 0.0000 0.0000 -3.2035 0.0000 30.4873
#
#
#
# Elastic Compliance Matrix: (Units=1/GPa)
#
#
# Indices 1 2 3 4 5 6 
#
# 1 0.009743 -0.004140 -0.000332 0.000000 0.002375 0.000000
# 2 -0.004140 0.011526 -0.002146 0.000000 -0.004299 0.000000
# 3 -0.000332 -0.002146 0.012088 0.000000 0.006619 0.000000
# 4 0.000000 0.000000 0.000000 0.038402 0.000000 0.004035
# 5 0.002375 -0.004299 0.006619 0.000000 0.067348 0.000000
# 6 0.000000 0.000000 0.000000 0.004035 0.000000 0.033224
#
#
# Mechanical properties :
#
#
# Convention : Reuss Voigt Hill
#
# Bulk Modulus (GPa) = 49.69798 52.89795 51.29796
# Shear Modulus (GPa) = 26.00464 30.88514 28.44489
#
# Velocity S-wave (km/s) = 3.41641 3.72322 3.57311
# Velocity P-wave (km/s) = 6.15376 6.49813 6.32829
#
# Compressibility (1/GPa) = 0.02012154
#
# Stress axis : x y z
#
# Youngs Moduli (GPa) = 102.63496 86.76243 82.72638
#
# Poissons Ratio (x) = 0.35920 0.02745
# Poissons Ratio (y) = 0.42491 0.17752
# Poissons Ratio (z) = 0.03406 0.18618
#
# Static dielectric constant tensor:
#      x y z
#    x 3.823810 0.000000 -0.044560 
#    y 0.000000 4.261560 0.000000 
#    z -0.044560 0.000000 3.933590 
# 
# 
# High freq. dielectric constant tensor:
#      x y z
#    x 1.859320 0.000000 -0.002380 
#    y 0.000000 1.896790 0.000000 
#    z -0.002380 0.000000 1.877610 
# 
# From -- ./inp_files/17934.got.cif
#   From: 2010.06.25/outbox.cif.g09.slc.cpg/sg11_9_cif.got.tgz:17934.got - 2010.06.27 23:14:04.
