data_PCOD8075135
_publ_section_title
;
Structure prediction by ZEFSAII (Michael W. Deem and Ramdas Pophale) SiO2 
 PCOD8075135
Probable space group: P 21/M
;
_chemical_formula_sum "Si O2"
_cell_formula_units_Z 32
_cell_length_a 21.408269
_cell_length_b 8.619193
_cell_length_c 27.759124
_cell_angle_alpha 90.000000
_cell_angle_beta 19.058167
_cell_angle_gamma 90.000000
_cell_volume 1672.531043
_symmetry_space_group_name_H-M "P 21/M"
_symmetry_group_IT_number 11
_symmetry_cell_setting 'monoclinic'
loop_
_space_group_symop_operation_xyz
x,y,z
-x,1/2+y,-z
-x,-y,-z
x,1/2-y,z
loop_
_atom_site_type_symbol
_atom_site_label
_atom_site_fract_x
_atom_site_fract_y
_atom_site_fract_z
Si Si1 0.987235 0.568240 0.562107
Si Si2 0.298900 0.072653 0.400275
Si Si3 0.330768 0.067220 0.832557
Si Si4 0.709208 0.066469 0.840589
Si Si5 0.209148 0.931408 0.638386
Si Si6 0.601369 0.067571 0.320252
Si Si7 0.918283 0.066525 0.164140
Si Si8 0.978966 0.572989 0.311058
O O1 0.957722 0.750000 0.580625
O O2 0.803776 0.497320 0.722961
O O3 0.000000 0.500000 0.500000
O O4 0.183434 0.530516 0.446604
O O5 0.290638 0.250000 0.388586
O O6 0.209045 0.056635 0.518858
O O7 0.515866 0.014462 0.244464
O O8 0.347146 0.250000 0.828352
O O9 0.367001 0.028606 0.750889
O O10 0.124191 0.000602 0.998390
O O11 0.703203 0.250000 0.840639
O O12 0.836019 0.015383 0.794134
O O13 0.500000 0.000000 0.000000
O O14 0.261239 0.750000 0.600996
O O15 0.129241 0.990558 0.747599
O O16 0.394097 0.033748 0.492819
O O17 0.046809 0.964126 0.716607
O O18 0.620538 0.250000 0.295413
O O19 0.757677 0.006190 0.244399
O O20 0.923371 0.250000 0.158794
O O21 0.005445 0.750000 0.274835
#
# Coordination Sequence:
#
# PCOD8075135 Si02
#       8
#     4   4   4   4   4   4   4   4
#     4  11  22  39  63  91 122 157 198 242 291 346
#     4  10  20  37  60  86 117 152 192 237 287 343
#     4  11  21  37  59  83 112 148 193 238 286 344
#     4  10  21  39  62  89 122 157 198 242 292 348
#     4  11  21  36  58  83 111 147 193 237 283 343
#     4  11  21  37  59  81 111 148 189 238 289 344
#     4   9  22  39  54  80 116 149 185 238 293 341
#     4   9  19  36  58  83 115 150 188 234 283 337
#
# _framework density 19.132679
#
# number of rings (size 3 to 8) (size 9 to 14) (size 15 to 20)
#    0.000    1.750    1.250    4.500    0.000    2.500 
#    2.250    6.250    0.000    0.000    0.000    0.000 
#    0.000    0.000    0.000    0.000    0.000    0.000 
#
# Total GULP energy -396923.863975 kJ/mol
# GULP energy per Si atom -12403.870749 kJ/mol
# Density = 1.908913 g / cm^3
# Si number density = 19.132679 Si / 1000 Ang^3
#
#
#
# Elastic Constant Matrix: (Units=GPa)
#
#
# Indices 1 2 3 4 5 6 
#
# 1 108.3466 25.3192 65.3110 0.0000 -2.9294 0.0000
# 2 25.3192 68.1235 27.2941 0.0000 -3.5108 0.0000
# 3 65.3110 27.2941 140.6468 0.0000 -9.7542 0.0000
# 4 0.0000 0.0000 0.0000 25.6098 0.0000 -5.8402
# 5 -2.9294 -3.5108 -9.7542 0.0000 28.4494 0.0000
# 6 0.0000 0.0000 0.0000 -5.8402 0.0000 28.1878
#
#
#
# Elastic Compliance Matrix: (Units=1/GPa)
#
#
# Indices 1 2 3 4 5 6 
#
# 1 0.013273 -0.002695 -0.005704 0.000000 -0.000922 0.000000
# 2 -0.002695 0.016488 -0.001871 0.000000 0.001116 0.000000
# 3 -0.005704 -0.001871 0.010310 0.000000 0.002717 0.000000
# 4 0.000000 0.000000 0.000000 0.040984 0.000000 0.008491
# 5 -0.000922 0.001116 0.002717 0.000000 0.036124 0.000000
# 6 0.000000 0.000000 0.000000 0.008491 0.000000 0.037236
#
#
# Mechanical properties :
#
#
# Convention : Reuss Voigt Hill
#
# Bulk Modulus (GPa) = 51.20127 61.44061 56.32094
# Shear Modulus (GPa) = 27.55331 29.72893 28.64112
#
# Velocity S-wave (km/s) = 3.79901 3.94614 3.87327
# Velocity P-wave (km/s) = 6.78694 7.27635 7.03590
#
# Compressibility (1/GPa) = 0.01953077
#
# Stress axis : x y z
#
# Youngs Moduli (GPa) = 75.34002 60.65033 96.98955
#
# Poissons Ratio (x) = 0.16346 0.55327
# Poissons Ratio (y) = 0.20305 0.18144
# Poissons Ratio (z) = 0.42977 0.11346
#
# Static dielectric constant tensor:
#      x y z
#    x 3.643590 0.000000 -0.096730 
#    y 0.000000 3.434970 0.000000 
#    z -0.096730 0.000000 3.620130 
# 
# 
# High freq. dielectric constant tensor:
#      x y z
#    x 1.750940 0.000000 -0.009290 
#    y 0.000000 1.743530 0.000000 
#    z -0.009290 0.000000 1.741430 
# 
# From -- ./inp_files/72082.got.cif
#   From: 2010.06.25/outbox.cif.g09.slc.cpg/sg11_37_cif.got.tgz:72082.got - 2010.06.27 23:14:04.
