data_PCOD8075678
_publ_section_title
;
Structure prediction by ZEFSAII (Michael W. Deem and Ramdas Pophale) SiO2 
 PCOD8075678
Probable space group: P 21/M
;
_chemical_formula_sum "Si O2"
_cell_formula_units_Z 28
_cell_length_a 20.692856
_cell_length_b 9.375933
_cell_length_c 26.328455
_cell_angle_alpha 90.000000
_cell_angle_beta 161.797520
_cell_angle_gamma 90.000000
_cell_volume 1595.651395
_symmetry_space_group_name_H-M "P 21/M"
_symmetry_group_IT_number 11
_symmetry_cell_setting 'monoclinic'
loop_
_space_group_symop_operation_xyz
x,y,z
-x,1/2+y,-z
-x,-y,-z
x,1/2-y,z
loop_
_atom_site_type_symbol
_atom_site_label
_atom_site_fract_x
_atom_site_fract_y
_atom_site_fract_z
Si Si1 0.142797 0.917450 0.145231
Si Si2 0.061146 0.412248 0.344124
Si Si3 0.465065 0.410702 0.895673
Si Si4 0.076960 0.585725 0.211120
Si Si5 0.246518 0.084970 0.950951
Si Si6 0.608381 0.586444 0.485638
Si Si7 0.797691 0.407618 0.234102
O O1 0.126818 0.750000 0.122018
O O2 0.066584 0.956416 0.144657
O O3 0.376767 0.974164 0.312358
O O4 0.000000 0.000000 0.000000
O O5 0.982384 0.250000 0.271730
O O6 0.297691 0.428607 0.501657
O O7 0.933950 0.534085 0.220986
O O8 0.024879 0.435475 0.377979
O O9 0.411992 0.250000 0.840209
O O10 0.254301 0.481362 0.760127
O O11 0.545477 0.494420 0.905491
O O12 0.637914 0.420506 0.068067
O O13 0.141115 0.750000 0.266322
O O14 0.252651 0.494508 0.369722
O O15 0.845763 0.559176 0.061434
O O16 0.296450 0.250000 0.977695
O O17 0.605141 0.750000 0.501029
O O18 0.785578 0.250000 0.249170
#
# Coordination Sequence:
#
# PCOD8075678 Si02
#       7
#     4   4   4   4   4   4   4
#     4  10  21  35  49  68  94 121 150 185 225 270
#     4   8  14  24  37  55  79 107 140 177 214 254
#     4   9  15  21  30  47  74 107 141 174 208 250
#     4   9  18  31  47  68  92 118 151 189 226 267
#     4   9  15  23  36  54  78 108 141 177 215 255
#     4   9  17  30  49  70  91 117 151 189 226 266
#     4   8  13  20  30  46  72 106 139 169 206 252
#
# _framework density 17.547692000000001
#
# number of rings (size 3 to 8) (size 9 to 14) (size 15 to 20)
#    0.000    3.143    0.000    2.143    0.000    5.143 
#    0.000    0.000    0.000    0.000    0.000    0.000 
#    0.000    1.143    0.000    2.286    0.000   10.286 
#
# Total GULP energy -346892.060637 kJ/mol
# GULP energy per Si atom -12389.002166 kJ/mol
# Density = 1.750775 g / cm^3
# Si number density = 17.547692 Si / 1000 Ang^3
#
#
#
# Elastic Constant Matrix: (Units=GPa)
#
#
# Indices 1 2 3 4 5 6 
#
# 1 145.5841 68.5619 61.2014 0.0000 39.0704 0.0000
# 2 68.5619 95.9397 35.0647 0.0000 13.9486 0.0000
# 3 61.2014 35.0647 41.9222 0.0000 5.8382 0.0000
# 4 0.0000 0.0000 0.0000 18.0925 0.0000 4.0230
# 5 39.0704 13.9486 5.8382 0.0000 21.5270 0.0000
# 6 0.0000 0.0000 0.0000 4.0230 0.0000 25.3413
#
#
#
# Elastic Compliance Matrix: (Units=1/GPa)
#
#
# Indices 1 2 3 4 5 6 
#
# 1 0.091468 -0.005845 -0.110215 0.000000 -0.132333 0.000000
# 2 -0.005845 0.016337 -0.005337 0.000000 0.001469 0.000000
# 3 -0.110215 -0.005337 0.167194 0.000000 0.158150 0.000000
# 4 0.000000 0.000000 0.000000 0.057294 0.000000 -0.009096
# 5 -0.132333 0.001469 0.158150 0.000000 0.242788 0.000000
# 6 0.000000 0.000000 0.000000 -0.009096 0.000000 0.040905
#
#
# Mechanical properties :
#
#
# Convention : Reuss Voigt Hill
#
# Bulk Modulus (GPa) = 31.04997 68.12243 49.58620
# Shear Modulus (GPa) = 5.75033 20.90004 13.32518
#
# Velocity S-wave (km/s) = 1.81221 3.45489 2.75866
# Velocity P-wave (km/s) = 4.70232 7.40409 6.20211
#
# Compressibility (1/GPa) = 0.03220615
#
# Stress axis : x y z
#
# Youngs Moduli (GPa) = 10.93274 61.21140 5.98108
#
# Poissons Ratio (x) = 0.35775 0.65921
# Poissons Ratio (y) = 0.06390 0.03192
# Poissons Ratio (z) = 1.20495 0.32667
#
# Static dielectric constant tensor:
#      x y z
#    x 3.693690 0.000000 0.621380 
#    y 0.000000 3.336180 0.000000 
#    z 0.621380 0.000000 2.793210 
# 
# 
# High freq. dielectric constant tensor:
#      x y z
#    x 1.687820 0.000000 0.051710 
#    y 0.000000 1.684440 0.000000 
#    z 0.051710 0.000000 1.609340 
# 
# From -- ./inp_files/66893.got.cif
#   From: 2010.06.25/outbox.cif.g09.slc.cpg/sg11_34_cif.got.tgz:66893.got - 2010.06.27 23:14:04.
