data_PCOD8075840
_publ_section_title
;
Structure prediction by ZEFSAII (Michael W. Deem and Ramdas Pophale) SiO2 
 PCOD8075840
Probable space group: P 21/M
;
_chemical_formula_sum "Si O2"
_cell_formula_units_Z 28
_cell_length_a 28.734958
_cell_length_b 8.983101
_cell_length_c 8.925712
_cell_angle_alpha 90.000000
_cell_angle_beta 141.040522
_cell_angle_gamma 90.000000
_cell_volume 1448.678277
_symmetry_space_group_name_H-M "P 21/M"
_symmetry_group_IT_number 11
_symmetry_cell_setting 'monoclinic'
loop_
_space_group_symop_operation_xyz
x,y,z
-x,1/2+y,-z
-x,-y,-z
x,1/2-y,z
loop_
_atom_site_type_symbol
_atom_site_label
_atom_site_fract_x
_atom_site_fract_y
_atom_site_fract_z
Si Si1 0.213176 0.076137 0.441728
Si Si2 0.355612 0.426123 0.977740
Si Si3 0.933735 0.574164 0.745220
Si Si4 0.786640 0.077351 0.874715
Si Si5 0.065408 0.575146 0.573004
Si Si6 0.499842 0.574740 0.839417
Si Si7 0.644822 0.425920 0.702113
O O1 0.220697 0.250000 0.433901
O O2 0.285114 0.015016 0.708261
O O3 0.141698 0.035265 0.359185
O O4 0.205724 0.003226 0.262680
O O5 0.353151 0.250000 0.992625
O O6 0.428651 0.478691 0.073355
O O7 0.354958 0.498861 0.137302
O O8 0.947308 0.750000 0.765328
O O9 0.928630 0.502207 0.570929
O O10 0.000000 0.500000 0.000000
O O11 0.777008 0.250000 0.816139
O O12 0.715689 0.016688 0.786995
O O13 0.858714 0.043592 0.151918
O O14 0.049540 0.750000 0.513966
O O15 0.000000 0.500000 0.500000
O O16 0.500242 0.750000 0.864937
O O17 0.427862 0.522232 0.568611
O O18 0.500000 0.500000 0.000000
O O19 0.647049 0.250000 0.731221
#
# Coordination Sequence:
#
# PCOD8075840 Si02
#       7
#     4   4   4   4   4   4   4
#     4  10  22  38  57  82 112 145 184 227 274 327
#     4  10  21  37  56  82 112 144 183 226 271 324
#     4  11  23  39  59  84 113 147 186 230 278 331
#     4  10  22  38  57  82 112 145 184 227 274 327
#     4  11  23  39  59  84 113 147 186 230 278 331
#     4  10  21  36  56  82 112 144 183 226 270 322
#     4  10  21  37  56  82 112 144 183 226 271 324
#
# _framework density 19.327964000000001
#
# number of rings (size 3 to 8) (size 9 to 14) (size 15 to 20)
#    0.000    1.714    0.000    3.857    0.000    6.857 
#    0.000    0.000    0.000    0.000    0.000    0.000 
#    0.000    0.000    0.000    0.000    0.000    0.000 
#
# Total GULP energy -347339.175233 kJ/mol
# GULP energy per Si atom -12404.970544 kJ/mol
# Density = 1.928397 g / cm^3
# Si number density = 19.327964 Si / 1000 Ang^3
#
#
#
# Elastic Constant Matrix: (Units=GPa)
#
#
# Indices 1 2 3 4 5 6 
#
# 1 198.9795 83.6937 119.2859 0.0000 -9.6218 0.0000
# 2 83.6937 48.2219 40.6068 0.0000 4.5745 0.0000
# 3 119.2859 40.6068 98.9579 0.0000 19.8350 0.0000
# 4 0.0000 0.0000 0.0000 32.8286 0.0000 -9.0531
# 5 -9.6218 4.5745 19.8350 0.0000 42.4450 0.0000
# 6 0.0000 0.0000 0.0000 -9.0531 0.0000 37.9750
#
#
#
# Elastic Compliance Matrix: (Units=1/GPa)
#
#
# Indices 1 2 3 4 5 6 
#
# 1 -0.164190 0.166343 0.155256 0.000000 -0.127700 0.000000
# 2 0.166343 -0.136503 -0.171027 0.000000 0.132342 0.000000
# 3 0.155256 -0.171027 -0.129768 0.000000 0.114269 0.000000
# 4 0.000000 0.000000 0.000000 0.032605 0.000000 0.007773
# 5 -0.127700 0.132342 0.114269 0.000000 -0.073050 0.000000
# 6 0.000000 0.000000 0.000000 0.007773 0.000000 0.028186
#
#
# Mechanical properties :
#
#
# Convention : Reuss Voigt Hill
#
# Bulk Modulus (GPa) = -7.73302 92.59244 42.42971
# Shear Modulus (GPa) = -6.35347 29.48791 11.56722
#
# Velocity S-wave (km/s) = -1.81503 3.91021 2.44902
# Velocity P-wave (km/s) = 2.89863 8.27020 5.47696
#
# Compressibility (1/GPa) = -0.12931556
#
# Stress axis : x y z
#
# Youngs Moduli (GPa) = -6.09050 -7.32586 -7.70605
#
# Poissons Ratio (x) = 1.21861 1.19641
# Poissons Ratio (y) = 1.01311 -1.31794
# Poissons Ratio (z) = 0.94559 -1.25292
#
# Static dielectric constant tensor:
#      x y z
#    x 3.678830 0.000000 0.174890 
#    y 0.000000 3.506460 0.000000 
#    z 0.174890 0.000000 3.755990 
# 
# 
# High freq. dielectric constant tensor:
#      x y z
#    x 1.773060 0.000000 0.002890 
#    y 0.000000 1.747900 0.000000 
#    z 0.002890 0.000000 1.774310 
# 
# From -- ./inp_files/28455.got.cif
#   From: 2010.06.25/outbox.cif.g09.slc.cpg/sg11_15_cif.got.tgz:28455.got - 2010.06.27 23:14:04.
