data_PCOD8075989
_publ_section_title
;
Structure prediction by ZEFSAII (Michael W. Deem and Ramdas Pophale) SiO2 
 PCOD8075989
Probable space group: P 21/M
;
_chemical_formula_sum "Si O2"
_cell_formula_units_Z 28
_cell_length_a 14.598953
_cell_length_b 8.879653
_cell_length_c 20.451883
_cell_angle_alpha 90.000000
_cell_angle_beta 147.591733
_cell_angle_gamma 90.000000
_cell_volume 1420.934821
_symmetry_space_group_name_H-M "P 21/M"
_symmetry_group_IT_number 11
_symmetry_cell_setting 'monoclinic'
loop_
_space_group_symop_operation_xyz
x,y,z
-x,1/2+y,-z
-x,-y,-z
x,1/2-y,z
loop_
_atom_site_type_symbol
_atom_site_label
_atom_site_fract_x
_atom_site_fract_y
_atom_site_fract_z
Si Si1 0.345687 0.072641 0.756520
Si Si2 0.904507 0.571950 0.285705
Si Si3 0.284802 0.927251 0.063028
Si Si4 0.334735 0.072641 0.368686
Si Si5 0.016287 0.428704 0.809131
Si Si6 0.396430 0.423781 0.257363
Si Si7 0.228940 0.574025 0.558766
O O1 0.336656 0.250000 0.742100
O O2 0.266550 0.020883 0.778524
O O3 0.541959 0.018374 0.869344
O O4 0.229856 0.002901 0.629977
O O5 0.921651 0.750000 0.296653
O O6 0.894874 0.516640 0.205036
O O7 0.072828 0.505549 0.422750
O O8 0.255954 0.750000 0.040041
O O9 0.293140 0.973536 0.143951
O O10 0.125621 0.010517 0.935112
O O11 0.336989 0.250000 0.383191
O O12 0.328375 0.036657 0.287872
O O13 0.500000 0.000000 0.500000
O O14 0.171376 0.998282 0.303496
O O15 0.001517 0.250000 0.804814
O O16 0.364242 0.250000 0.219759
O O17 0.597545 0.461893 0.375962
O O18 0.205136 0.750000 0.556369
#
# Coordination Sequence:
#
# PCOD8075989 Si02
#       7
#     4   4   4   4   4   4   4
#     4   9  18  33  53  78 109 143 180 224 274 326
#     4   9  18  33  53  77 108 147 184 222 273 328
#     4  10  21  37  56  81 111 142 183 234 280 323
#     4  11  23  40  62  88 116 144 178 221 271 326
#     4  11  23  39  58  79 108 148 189 228 272 325
#     4   9  19  36  58  81 108 146 184 220 268 329
#     4   9  16  30  53  80 108 137 176 221 267 326
#
# _framework density 19.705337
#
# number of rings (size 3 to 8) (size 9 to 14) (size 15 to 20)
#    0.000    2.286    0.000    2.571    0.000    5.143 
#    0.000    5.714    0.000    0.000    0.000    0.000 
#    0.000    0.000    0.000    0.000    0.000    0.000 
#
# Total GULP energy -347234.755285 kJ/mol
# GULP energy per Si atom -12401.241260 kJ/mol
# Density = 1.966049 g / cm^3
# Si number density = 19.705337 Si / 1000 Ang^3
#
#
#
# Elastic Constant Matrix: (Units=GPa)
#
#
# Indices 1 2 3 4 5 6 
#
# 1 106.1469 38.6984 27.9792 0.0000 -8.3441 0.0000
# 2 38.6984 63.4856 38.4458 0.0000 -4.7068 0.0000
# 3 27.9792 38.4458 107.3258 0.0000 -4.2743 0.0000
# 4 0.0000 0.0000 0.0000 31.0568 0.0000 -1.3940
# 5 -8.3441 -4.7068 -4.2743 0.0000 21.5849 0.0000
# 6 0.0000 0.0000 0.0000 -1.3940 0.0000 27.1130
#
#
#
# Elastic Compliance Matrix: (Units=1/GPa)
#
#
# Indices 1 2 3 4 5 6 
#
# 1 0.012355 -0.006926 -0.000615 0.000000 0.003144 0.000000
# 2 -0.006926 0.024190 -0.006810 0.000000 0.001249 0.000000
# 3 -0.000615 -0.006810 0.011943 0.000000 0.000642 0.000000
# 4 0.000000 0.000000 0.000000 0.032274 0.000000 0.001659
# 5 0.003144 0.001249 0.000642 0.000000 0.047944 0.000000
# 6 0.000000 0.000000 0.000000 0.001659 0.000000 0.036968
#
#
# Mechanical properties :
#
#
# Convention : Reuss Voigt Hill
#
# Bulk Modulus (GPa) = 50.53904 54.13390 52.33647
# Shear Modulus (GPa) = 24.87943 27.40662 26.14303
#
# Velocity S-wave (km/s) = 3.55713 3.73342 3.64634
# Velocity P-wave (km/s) = 6.52487 6.79087 6.65920
#
# Compressibility (1/GPa) = 0.01978668
#
# Stress axis : x y z
#
# Youngs Moduli (GPa) = 80.93841 41.33958 83.73327
#
# Poissons Ratio (x) = 0.28631 0.05147
# Poissons Ratio (y) = 0.56056 0.57022
# Poissons Ratio (z) = 0.04976 0.28152
#
# Static dielectric constant tensor:
#      x y z
#    x 3.663190 0.000000 -0.066010 
#    y 0.000000 3.426750 0.000000 
#    z -0.066010 0.000000 3.524100 
# 
# 
# High freq. dielectric constant tensor:
#      x y z
#    x 1.776920 0.000000 0.001170 
#    y 0.000000 1.753370 0.000000 
#    z 0.001170 0.000000 1.766620 
# 
# From -- ./inp_files/37801.got.cif
#   From: 2010.06.25/outbox.cif.g09.slc.cpg/sg11_19_cif.got.tgz:37801.got - 2010.06.27 23:14:04.
