data_PCOD8075457
_publ_section_title
;
Structure prediction by ZEFSAII (Michael W. Deem and Ramdas Pophale) SiO2 
 PCOD8075457
Probable space group: P 21/M
;
_chemical_formula_sum "Si O2"
_cell_formula_units_Z 32
_cell_length_a 26.347969
_cell_length_b 8.563677
_cell_length_c 20.737527
_cell_angle_alpha 90.000000
_cell_angle_beta 160.312518
_cell_angle_gamma 90.000000
_cell_volume 1576.347406
_symmetry_space_group_name_H-M "P 21/M"
_symmetry_group_IT_number 11
_symmetry_cell_setting 'monoclinic'
loop_
_space_group_symop_operation_xyz
x,y,z
-x,1/2+y,-z
-x,-y,-z
x,1/2-y,z
loop_
_atom_site_type_symbol
_atom_site_label
_atom_site_fract_x
_atom_site_fract_y
_atom_site_fract_z
Si Si1 0.698218 0.568759 0.913533
Si Si2 0.387785 0.568677 0.058627
Si Si3 0.725638 0.933423 0.463083
Si Si4 0.381902 0.569987 0.310134
Si Si5 0.828963 0.923125 0.852873
Si Si6 0.006905 0.434773 0.309925
Si Si7 0.816264 0.424556 0.708221
Si Si8 0.078163 0.433686 0.656180
O O1 0.689280 0.750000 0.921797
O O2 0.623091 0.464279 0.878639
O O3 0.604528 0.532619 0.737838
O O4 0.871591 0.518872 0.110095
O O5 0.358389 0.750000 0.009483
O O6 0.556274 0.518285 0.238104
O O7 0.256814 0.471738 0.865969
O O8 0.733651 0.750000 0.484528
O O9 0.838251 0.985172 0.540331
O O10 0.769809 0.011054 0.583319
O O11 0.500000 0.500000 0.500000
O O12 0.407704 0.750000 0.324622
O O13 0.220687 0.544490 0.151282
O O14 0.764611 0.750000 0.790264
O O15 0.757872 0.971689 0.698253
O O16 0.006520 0.921600 0.069172
O O17 0.983309 0.250000 0.278867
O O18 0.004368 0.489099 0.381119
O O19 0.749532 0.250000 0.634037
O O20 0.055703 0.250000 0.633605
O O21 0.000000 0.500000 0.500000
#
# Coordination Sequence:
#
# PCOD8075457 Si02
#       8
#     4   4   4   4   4   4   4   4
#     4  11  22  38  58  83 114 153 198 246 295 355
#     4  10  21  39  61  89 122 158 197 241 291 347
#     4  10  22  37  58  86 120 155 193 241 295 347
#     4  12  25  39  55  76 105 144 190 246 303 356
#     4  10  21  38  55  76 106 142 190 244 298 357
#     4  10  20  38  63  92 121 156 197 240 287 344
#     4  10  21  35  56  80 108 148 191 238 292 350
#     4  11  22  40  66  95 124 159 197 237 283 344
#
# _framework density 20.300094000000001
#
# number of rings (size 3 to 8) (size 9 to 14) (size 15 to 20)
#    0.000    1.500    0.000    7.125    1.750    5.500 
#    0.000    0.625    0.000    0.000    0.000    0.000 
#    0.000    0.000    0.000    0.000    0.000    0.000 
#
# Total GULP energy -396754.219138 kJ/mol
# GULP energy per Si atom -12398.569348 kJ/mol
# Density = 2.025389 g / cm^3
# Si number density = 20.300094 Si / 1000 Ang^3
#
#
#
# Elastic Constant Matrix: (Units=GPa)
#
#
# Indices 1 2 3 4 5 6 
#
# 1 47.0831 4.3685 47.1387 0.0000 -11.0017 0.0000
# 2 4.3685 73.1114 24.8619 0.0000 -2.8138 0.0000
# 3 47.1387 24.8619 100.6658 0.0000 -8.2736 0.0000
# 4 0.0000 0.0000 0.0000 29.9200 0.0000 -4.5213
# 5 -11.0017 -2.8138 -8.2736 0.0000 40.6740 0.0000
# 6 0.0000 0.0000 0.0000 -4.5213 0.0000 29.5256
#
#
#
# Elastic Compliance Matrix: (Units=1/GPa)
#
#
# Indices 1 2 3 4 5 6 
#
# 1 0.043632 0.004829 -0.020977 0.000000 0.007869 0.000000
# 2 0.004829 0.015470 -0.005987 0.000000 0.001159 0.000000
# 3 -0.020977 -0.005987 0.021088 0.000000 -0.001799 0.000000
# 4 0.000000 0.000000 0.000000 0.034214 0.000000 0.005239
# 5 0.007869 0.001159 -0.001799 0.000000 0.026428 0.000000
# 6 0.000000 0.000000 0.000000 0.005239 0.000000 0.034671
#
#
# Mechanical properties :
#
#
# Convention : Reuss Voigt Hill
#
# Bulk Modulus (GPa) = 27.84027 41.51095 34.67561
# Shear Modulus (GPa) = 21.57538 29.65665 25.61602
#
# Velocity S-wave (km/s) = 3.26363 3.82633 3.55613
# Velocity P-wave (km/s) = 5.28638 6.32567 5.82924
#
# Compressibility (1/GPa) = 0.03591920
#
# Stress axis : x y z
#
# Youngs Moduli (GPa) = 22.91911 64.64283 47.42113
#
# Poissons Ratio (x) = -0.31217 0.99477
# Poissons Ratio (y) = -0.11068 0.28390
# Poissons Ratio (z) = 0.48078 0.38700
#
# Static dielectric constant tensor:
#      x y z
#    x 3.192780 0.000000 0.019560 
#    y 0.000000 4.234940 0.000000 
#    z 0.019560 0.000000 3.785060 
# 
# 
# High freq. dielectric constant tensor:
#      x y z
#    x 1.785190 0.000000 0.007770 
#    y 0.000000 1.804490 0.000000 
#    z 0.007770 0.000000 1.793140 
# 
# From -- ./inp_files/67184.got.cif
#   From: 2010.06.25/outbox.cif.g09.slc.cpg/sg11_34_cif.got.tgz:67184.got - 2010.06.27 23:14:04.
