data_PCOD8075360
_publ_section_title
;
Structure prediction by ZEFSAII (Michael W. Deem and Ramdas Pophale) SiO2 
 PCOD8075360
Probable space group: P 21/M
;
_chemical_formula_sum "Si O2"
_cell_formula_units_Z 28
_cell_length_a 9.390191
_cell_length_b 8.562047
_cell_length_c 29.437573
_cell_angle_alpha 90.000000
_cell_angle_beta 142.660385
_cell_angle_gamma 90.000000
_cell_volume 1435.529867
_symmetry_space_group_name_H-M "P 21/M"
_symmetry_group_IT_number 11
_symmetry_cell_setting 'monoclinic'
loop_
_space_group_symop_operation_xyz
x,y,z
-x,1/2+y,-z
-x,-y,-z
x,1/2-y,z
loop_
_atom_site_type_symbol
_atom_site_label
_atom_site_fract_x
_atom_site_fract_y
_atom_site_fract_z
Si Si1 0.834592 0.433509 0.366204
Si Si2 0.739654 0.563861 0.929514
Si Si3 0.420714 0.566244 0.932171
Si Si4 0.660952 0.066612 0.502102
Si Si5 0.476603 0.565519 0.630122
Si Si6 0.889791 0.934952 0.797167
Si Si7 0.577885 0.065988 0.794309
O O1 0.883819 0.250000 0.377243
O O2 0.726364 0.488830 0.386763
O O3 0.655725 0.477623 0.281008
O O4 0.073346 0.525087 0.419167
O O5 0.741431 0.750000 0.925090
O O6 0.591927 0.507178 0.935846
O O7 0.618501 0.485903 0.855821
O O8 0.000000 0.500000 0.000000
O O9 0.431659 0.750000 0.938419
O O10 0.154736 0.511830 0.853988
O O11 0.500000 0.500000 0.000000
O O12 0.630254 0.250000 0.492721
O O13 0.577105 0.991492 0.432731
O O14 0.500000 0.000000 0.500000
O O15 0.473576 0.750000 0.625661
O O16 0.729594 0.510926 0.713758
O O17 0.866409 0.750000 0.799148
O O18 0.801805 0.018254 0.820689
O O19 0.539459 0.250000 0.781674
#
# Coordination Sequence:
#
# PCOD8075360 Si02
#       7
#     4   4   4   4   4   4   4
#     4  10  20  38  61  83 108 146 189 232 280 334
#     4  11  23  39  58  84 115 152 191 231 277 331
#     4  10  22  37  57  82 111 146 188 231 276 327
#     4  11  22  36  54  82 116 150 187 233 283 336
#     4   8  17  34  58  82 107 141 185 230 278 334
#     4   9  18  37  60  82 107 142 184 230 280 333
#     4  11  22  37  58  87 116 145 182 229 279 335
#
# _framework density 19.504994
#
# number of rings (size 3 to 8) (size 9 to 14) (size 15 to 20)
#    0.000    2.000    0.000    4.714    0.000    5.143 
#    0.000    9.286    0.000    0.000    0.000    0.000 
#    0.000    0.000    0.000    0.000    0.000    0.000 
#
# Total GULP energy -347242.003186 kJ/mol
# GULP energy per Si atom -12401.500114 kJ/mol
# Density = 1.946060 g / cm^3
# Si number density = 19.504994 Si / 1000 Ang^3
#
#
#
# Elastic Constant Matrix: (Units=GPa)
#
#
# Indices 1 2 3 4 5 6 
#
# 1 157.8034 23.8772 92.7258 0.0000 5.2265 0.0000
# 2 23.8772 43.4789 16.1843 0.0000 -0.5285 0.0000
# 3 92.7258 16.1843 130.5258 0.0000 -0.7562 0.0000
# 4 0.0000 0.0000 0.0000 31.1793 0.0000 1.5334
# 5 5.2265 -0.5285 -0.7562 0.0000 39.7863 0.0000
# 6 0.0000 0.0000 0.0000 1.5334 0.0000 29.3060
#
#
#
# Elastic Compliance Matrix: (Units=1/GPa)
#
#
# Indices 1 2 3 4 5 6 
#
# 1 0.011447 -0.003435 -0.007716 0.000000 -0.001696 0.000000
# 2 -0.003435 0.025146 -0.000673 0.000000 0.000772 0.000000
# 3 -0.007716 -0.000673 0.013233 0.000000 0.001256 0.000000
# 4 0.000000 0.000000 0.000000 0.032155 0.000000 -0.001682
# 5 -0.001696 0.000772 0.001256 0.000000 0.025391 0.000000
# 6 0.000000 0.000000 0.000000 -0.001682 0.000000 0.034211
#
#
# Mechanical properties :
#
#
# Convention : Reuss Voigt Hill
#
# Bulk Modulus (GPa) = 38.19952 66.37586 52.28769
# Shear Modulus (GPa) = 28.74276 33.32237 31.03256
#
# Velocity S-wave (km/s) = 3.84293 4.13777 3.99307
# Velocity P-wave (km/s) = 6.27039 7.54534 6.93722
#
# Compressibility (1/GPa) = 0.02617834
#
# Stress axis : x y z
#
# Youngs Moduli (GPa) = 87.36203 39.76779 75.56687
#
# Poissons Ratio (x) = 0.13659 0.58305
# Poissons Ratio (y) = 0.30006 0.05089
# Poissons Ratio (z) = 0.67405 0.02678
#
# Static dielectric constant tensor:
#      x y z
#    x 3.737480 0.000000 -0.069360 
#    y 0.000000 3.481530 0.000000 
#    z -0.069360 0.000000 3.847380 
# 
# 
# High freq. dielectric constant tensor:
#      x y z
#    x 1.761440 0.000000 0.001040 
#    y 0.000000 1.749190 0.000000 
#    z 0.001040 0.000000 1.775790 
# 
# From -- ./inp_files/28388.got.cif
#   From: 2010.06.25/outbox.cif.g09.slc.cpg/sg11_15_cif.got.tgz:28388.got - 2010.06.27 23:14:04.
