data_PCOD8075842
_publ_section_title
;
Structure prediction by ZEFSAII (Michael W. Deem and Ramdas Pophale) SiO2 
 PCOD8075842
Probable space group: P 21/M
;
_chemical_formula_sum "Si O2"
_cell_formula_units_Z 28
_cell_length_a 14.312224
_cell_length_b 8.750294
_cell_length_c 14.265745
_cell_angle_alpha 90.000000
_cell_angle_beta 59.571237
_cell_angle_gamma 90.000000
_cell_volume 1540.501864
_symmetry_space_group_name_H-M "P 21/M"
_symmetry_group_IT_number 11
_symmetry_cell_setting 'monoclinic'
loop_
_space_group_symop_operation_xyz
x,y,z
-x,1/2+y,-z
-x,-y,-z
x,1/2-y,z
loop_
_atom_site_type_symbol
_atom_site_label
_atom_site_fract_x
_atom_site_fract_y
_atom_site_fract_z
Si Si1 0.756159 0.930394 0.299726
Si Si2 0.401817 0.570304 0.490164
Si Si3 0.391089 0.069880 0.096872
Si Si4 0.433830 0.078119 0.279534
Si Si5 0.199677 0.071270 0.063116
Si Si6 0.679787 0.422342 0.160079
Si Si7 0.990290 0.929474 0.108126
O O1 0.739458 0.750000 0.304619
O O2 0.879343 0.978554 0.215759
O O3 0.713349 0.996355 0.420268
O O4 0.677214 0.012601 0.265958
O O5 0.500000 0.500000 0.500000
O O6 0.401311 0.750000 0.507599
O O7 0.411157 0.538128 0.374795
O O8 0.401136 0.250000 0.077409
O O9 0.371666 0.027987 0.216197
O O10 0.284684 0.007632 0.096663
O O11 0.500000 0.000000 0.000000
O O12 0.401430 0.250000 0.327656
O O13 0.558446 0.075142 0.183749
O O14 0.179740 0.250000 0.084231
O O15 0.084505 0.986880 0.130252
O O16 0.245268 0.035770 0.936970
O O17 0.727326 0.250000 0.132337
O O18 0.997140 0.750000 0.092165
O O19 0.000000 0.000000 0.000000
#
# Coordination Sequence:
#
# PCOD8075842 Si02
#       7
#     4   4   4   4   4   4   4
#     4  11  23  38  56  80 112 148 187 231 279 332
#     4  12  24  37  57  83 112 148 185 228 279 334
#     4  10  21  36  56  82 113 150 188 229 279 330
#     4  10  21  37  55  80 114 150 187 228 275 328
#     4  11  22  35  54  82 117 152 188 230 278 333
#     4  11  20  31  54  82 114 152 187 225 272 329
#     4  11  23  37  57  82 112 149 188 231 282 335
#
# _framework density 18.175895000000001
#
# number of rings (size 3 to 8) (size 9 to 14) (size 15 to 20)
#    0.000    1.143    4.286    3.000    0.000    3.429 
#    0.000    0.000    0.000    0.857    0.000    0.000 
#    0.000    0.000    0.000    0.000    0.000    0.000 
#
# Total GULP energy -347220.801888 kJ/mol
# GULP energy per Si atom -12400.742925 kJ/mol
# Density = 1.813453 g / cm^3
# Si number density = 18.175895 Si / 1000 Ang^3
#
#
#
# Elastic Constant Matrix: (Units=GPa)
#
#
# Indices 1 2 3 4 5 6 
#
# 1 112.7237 41.5837 48.7875 0.0000 -1.0251 0.0000
# 2 41.5837 84.4259 37.5374 0.0000 -7.3119 0.0000
# 3 48.7875 37.5374 95.6796 0.0000 -7.6481 0.0000
# 4 0.0000 0.0000 0.0000 30.4891 0.0000 -1.8285
# 5 -1.0251 -7.3119 -7.6481 0.0000 27.1700 0.0000
# 6 0.0000 0.0000 0.0000 -1.8285 0.0000 26.5740
#
#
#
# Elastic Compliance Matrix: (Units=1/GPa)
#
#
# Indices 1 2 3 4 5 6 
#
# 1 0.012511 -0.004154 -0.004912 0.000000 -0.002029 0.000000
# 2 -0.004154 0.015872 -0.003867 0.000000 0.003026 0.000000
# 3 -0.004912 -0.003867 0.014706 0.000000 0.002914 0.000000
# 4 0.000000 0.000000 0.000000 0.032934 0.000000 0.002266
# 5 -0.002029 0.003026 0.002914 0.000000 0.038363 0.000000
# 6 0.000000 0.000000 0.000000 0.002266 0.000000 0.037787
#
#
# Mechanical properties :
#
#
# Convention : Reuss Voigt Hill
#
# Bulk Modulus (GPa) = 58.05980 60.96070 59.51025
# Shear Modulus (GPa) = 27.20629 27.84133 27.52381
#
# Velocity S-wave (km/s) = 3.87309 3.91803 3.89563
# Velocity P-wave (km/s) = 7.21206 7.35392 7.28333
#
# Compressibility (1/GPa) = 0.01722362
#
# Stress axis : x y z
#
# Youngs Moduli (GPa) = 79.92887 63.00321 67.99877
#
# Poissons Ratio (x) = 0.26172 0.33400
# Poissons Ratio (y) = 0.33203 0.26295
# Poissons Ratio (z) = 0.39260 0.24363
#
# Static dielectric constant tensor:
#      x y z
#    x 3.534060 0.000000 -0.022930 
#    y 0.000000 3.370940 0.000000 
#    z -0.022930 0.000000 3.288470 
# 
# 
# High freq. dielectric constant tensor:
#      x y z
#    x 1.695110 0.000000 -0.001490 
#    y 0.000000 1.712740 0.000000 
#    z -0.001490 0.000000 1.692380 
# 
# From -- ./inp_files/51090.got.cif
#   From: 2010.06.25/outbox.cif.g09.slc.cpg/sg11_26_cif.got.tgz:51090.got - 2010.06.27 23:14:04.
