data_PCOD8075482
_publ_section_title
;
Structure prediction by ZEFSAII (Michael W. Deem and Ramdas Pophale) SiO2 
 PCOD8075482
Probable space group: P 21/M
;
_chemical_formula_sum "Si O2"
_cell_formula_units_Z 28
_cell_length_a 20.694068
_cell_length_b 15.064622
_cell_length_c 8.855425
_cell_angle_alpha 90.000000
_cell_angle_beta 148.853405
_cell_angle_gamma 90.000000
_cell_volume 1427.896770
_symmetry_space_group_name_H-M "P 21/M"
_symmetry_group_IT_number 11
_symmetry_cell_setting 'monoclinic'
loop_
_space_group_symop_operation_xyz
x,y,z
-x,1/2+y,-z
-x,-y,-z
x,1/2-y,z
loop_
_atom_site_type_symbol
_atom_site_label
_atom_site_fract_x
_atom_site_fract_y
_atom_site_fract_z
Si Si1 0.312014 0.848435 0.468164
Si Si2 0.456110 0.071257 0.205194
Si Si3 0.856410 0.070464 0.107190
Si Si4 0.187989 0.151565 0.220112
Si Si5 0.043887 0.928743 0.380748
Si Si6 0.750003 0.499999 0.427299
Si Si7 0.356416 0.429531 0.318467
O O1 0.300157 0.750000 0.515674
O O2 0.446007 0.855341 0.654948
O O3 0.312425 0.924865 0.594173
O O4 0.198189 0.858585 0.120676
O O5 0.395288 0.112829 0.235772
O O6 0.523015 0.976994 0.368882
O O7 0.351150 0.052076 0.872251
O O8 0.895276 0.112826 0.345360
O O9 0.976984 0.023006 0.276828
O O10 0.750000 0.999995 0.931585
O O11 0.199842 0.250000 0.315045
O O12 0.301817 0.141421 0.327934
O O13 0.187577 0.075132 0.344466
O O14 0.053999 0.144660 0.870921
O O15 0.148836 0.947924 0.467610
#
# Coordination Sequence:
#
# PCOD8075482 Si02
#       7
#     4   4   4   4   4   4   4
#     4  11  24  39  59  91 125 157 199 249 299 357
#     4  10  20  38  66  85 114 160 201 245 295 353
#     4   9  18  39  64  88 109 152 204 246 294 347
#     4  11  24  39  59  91 125 157 199 249 299 357
#     4  10  20  38  66  85 114 160 201 245 295 353
#     4  12  22  40  62  90 122 164 192 244 306 364
#     4   9  18  39  64  88 109 152 204 246 294 347
#
# _framework density 19.609262000000001
#
# number of rings (size 3 to 8) (size 9 to 14) (size 15 to 20)
#    0.000    1.714    5.714    0.857    0.000    2.286 
#    0.000    0.000    0.000    0.000    0.000    0.000 
#    0.000    0.000    0.000    0.000    0.000    0.000 
#
# Total GULP energy -347135.357858 kJ/mol
# GULP energy per Si atom -12397.691352 kJ/mol
# Density = 1.956463 g / cm^3
# Si number density = 19.609262 Si / 1000 Ang^3
#
#
#
# Elastic Constant Matrix: (Units=GPa)
#
#
# Indices 1 2 3 4 5 6 
#
# 1 80.8068 5.1452 16.8307 0.0000 -2.8413 0.0000
# 2 5.1452 76.0237 -3.6623 0.0000 -7.9462 0.0000
# 3 16.8307 -3.6623 70.2621 0.0000 -6.6533 0.0000
# 4 0.0000 0.0000 0.0000 8.4501 0.0000 1.6753
# 5 -2.8413 -7.9462 -6.6533 0.0000 26.9631 0.0000
# 6 0.0000 0.0000 0.0000 1.6753 0.0000 6.5940
#
#
#
# Elastic Compliance Matrix: (Units=1/GPa)
#
#
# Indices 1 2 3 4 5 6 
#
# 1 0.013109 -0.001008 -0.003164 0.000000 0.000304 0.000000
# 2 -0.001008 0.013735 0.001362 0.000000 0.004278 0.000000
# 3 -0.003164 0.001362 0.015428 0.000000 0.003875 0.000000
# 4 0.000000 0.000000 0.000000 0.124620 0.000000 -0.031663
# 5 0.000304 0.004278 0.003875 0.000000 0.039337 0.000000
# 6 0.000000 0.000000 0.000000 -0.031663 0.000000 0.159698
#
#
# Mechanical properties :
#
#
# Convention : Reuss Voigt Hill
#
# Bulk Modulus (GPa) = 27.28273 29.30220 28.29247
# Shear Modulus (GPa) = 13.02886 22.32002 17.67444
#
# Velocity S-wave (km/s) = 2.58044 3.37744 3.00547
# Velocity P-wave (km/s) = 4.77720 5.49408 5.14813
#
# Compressibility (1/GPa) = 0.03665322
#
# Stress axis : x y z
#
# Youngs Moduli (GPa) = 76.28318 72.80799 64.81602
#
# Poissons Ratio (x) = 0.07338 0.20507
# Poissons Ratio (y) = 0.07689 -0.08831
# Poissons Ratio (z) = 0.24136 -0.09919
#
# Static dielectric constant tensor:
#      x y z
#    x 3.764380 0.000000 0.073210 
#    y 0.000000 3.098380 0.000000 
#    z 0.073210 0.000000 3.845370 
# 
# 
# High freq. dielectric constant tensor:
#      x y z
#    x 1.773840 0.000000 0.002110 
#    y 0.000000 1.722770 0.000000 
#    z 0.002110 0.000000 1.776170 
# 
# From -- ./inp_files/22130.got.cif
#   From: 2010.06.25/outbox.cif.g09.slc.cpg/sg11_12_cif.got.tgz:22130.got - 2010.06.27 23:14:04.
