data_PCOD8075020
_publ_section_title
;
Structure prediction by ZEFSAII (Michael W. Deem and Ramdas Pophale) SiO2 
 PCOD8075020
Probable space group: P 21/M
;
_chemical_formula_sum "Si O2"
_cell_formula_units_Z 28
_cell_length_a 16.226246
_cell_length_b 8.865203
_cell_length_c 12.124851
_cell_angle_alpha 90.000000
_cell_angle_beta 122.909402
_cell_angle_gamma 90.000000
_cell_volume 1464.265209
_symmetry_space_group_name_H-M "P 21/M"
_symmetry_group_IT_number 11
_symmetry_cell_setting 'monoclinic'
loop_
_space_group_symop_operation_xyz
x,y,z
-x,1/2+y,-z
-x,-y,-z
x,1/2-y,z
loop_
_atom_site_type_symbol
_atom_site_label
_atom_site_fract_x
_atom_site_fract_y
_atom_site_fract_z
Si Si1 0.291223 0.428324 0.468526
Si Si2 0.067645 0.576052 0.694293
Si Si3 0.499025 0.575937 0.664926
Si Si4 0.305144 0.927926 0.259504
Si Si5 0.129629 0.924385 0.495065
Si Si6 0.243790 0.925488 0.974583
Si Si7 0.433159 0.078783 0.039758
O O1 0.303691 0.250000 0.478097
O O2 0.394390 0.508163 0.561818
O O3 0.250866 0.486380 0.320562
O O4 0.217060 0.475702 0.510641
O O5 0.033869 0.750000 0.673752
O O6 0.125335 0.544055 0.622568
O O7 0.137468 0.534836 0.847858
O O8 0.972691 0.471330 0.635962
O O9 0.504613 0.750000 0.631230
O O10 0.581783 0.481521 0.660957
O O11 0.514470 0.559337 0.805741
O O12 0.301318 0.750000 0.276530
O O13 0.248734 0.975432 0.106240
O O14 0.150182 0.750000 0.483791
O O15 0.267306 0.750000 0.980524
O O16 0.324980 0.009081 0.961345
O O17 0.421189 0.250000 0.995364
O O18 0.500000 0.000000 0.000000
#
# Coordination Sequence:
#
# PCOD8075020 Si02
#       7
#     4   4   4   4   4   4   4
#     4  12  24  37  56  81 112 147 189 233 276 326
#     4   9  19  38  61  84 112 143 178 224 280 333
#     4  10  21  37  55  78 111 150 188 227 276 325
#     4  10  20  37  58  82 112 146 187 229 275 331
#     4  10  21  37  58  85 114 143 181 227 276 331
#     4   9  19  36  59  82 108 145 183 224 277 331
#     4  10  21  34  51  78 113 147 184 227 268 323
#
# _framework density 19.122216999999999
#
# number of rings (size 3 to 8) (size 9 to 14) (size 15 to 20)
#    0.000    2.000    0.000    3.429    2.000    3.429 
#    0.000    0.714    0.000    0.000    0.000    0.000 
#    0.000    0.000    0.000    0.000    0.000    0.000 
#
# Total GULP energy -347297.001575 kJ/mol
# GULP energy per Si atom -12403.464342 kJ/mol
# Density = 1.907869 g / cm^3
# Si number density = 19.122217 Si / 1000 Ang^3
#
#
#
# Elastic Constant Matrix: (Units=GPa)
#
#
# Indices 1 2 3 4 5 6 
#
# 1 50.6286 11.6212 25.5266 0.0000 -7.1032 0.0000
# 2 11.6212 61.0175 20.5413 0.0000 -4.7485 0.0000
# 3 25.5266 20.5413 78.9110 0.0000 13.9891 0.0000
# 4 0.0000 0.0000 0.0000 28.7593 0.0000 0.1665
# 5 -7.1032 -4.7485 13.9891 0.0000 17.6139 0.0000
# 6 0.0000 0.0000 0.0000 0.1665 0.0000 38.6581
#
#
#
# Elastic Compliance Matrix: (Units=1/GPa)
#
#
# Indices 1 2 3 4 5 6 
#
# 1 0.029946 0.000863 -0.014075 0.000000 0.023488 0.000000
# 2 0.000863 0.019625 -0.007434 0.000000 0.011543 0.000000
# 3 -0.014075 -0.007434 0.023885 0.000000 -0.026650 0.000000
# 4 0.000000 0.000000 0.000000 0.034772 0.000000 -0.000150
# 5 0.023488 0.011543 -0.026650 0.000000 0.090523 0.000000
# 6 0.000000 0.000000 0.000000 -0.000150 0.000000 0.025868
#
#
# Mechanical properties :
#
#
# Convention : Reuss Voigt Hill
#
# Bulk Modulus (GPa) = 31.09152 33.99282 32.54217
# Shear Modulus (GPa) = 18.07439 25.86412 21.96926
#
# Velocity S-wave (km/s) = 3.07775 3.68172 3.39320
# Velocity P-wave (km/s) = 5.37817 5.99071 5.69269
#
# Compressibility (1/GPa) = 0.03216311
#
# Stress axis : x y z
#
# Youngs Moduli (GPa) = 33.39380 50.95452 41.86662
#
# Poissons Ratio (x) = -0.04397 0.58929
# Poissons Ratio (y) = -0.02882 0.31124
# Poissons Ratio (z) = 0.47003 0.37880
#
# Static dielectric constant tensor:
#      x y z
#    x 3.444600 0.000000 -0.124610 
#    y 0.000000 3.489330 0.000000 
#    z -0.124610 0.000000 3.700570 
# 
# 
# High freq. dielectric constant tensor:
#      x y z
#    x 1.732230 0.000000 -0.008000 
#    y 0.000000 1.753680 0.000000 
#    z -0.008000 0.000000 1.749210 
# 
# From -- ./inp_files/37648.got.cif
#   From: 2010.06.25/outbox.cif.g09.slc.cpg/sg11_19_cif.got.tgz:37648.got - 2010.06.27 23:14:04.
