data_PCOD8075097
_publ_section_title
;
Structure prediction by ZEFSAII (Michael W. Deem and Ramdas Pophale) SiO2 
 PCOD8075097
Probable space group: P 21/M
;
_chemical_formula_sum "Si O2"
_cell_formula_units_Z 24
_cell_length_a 9.139786
_cell_length_b 18.184312
_cell_length_c 11.751423
_cell_angle_alpha 90.000000
_cell_angle_beta 38.060907
_cell_angle_gamma 90.000000
_cell_volume 1204.080712
_symmetry_space_group_name_H-M "P 21/M"
_symmetry_group_IT_number 11
_symmetry_cell_setting 'monoclinic'
loop_
_space_group_symop_operation_xyz
x,y,z
-x,1/2+y,-z
-x,-y,-z
x,1/2-y,z
loop_
_atom_site_type_symbol
_atom_site_label
_atom_site_fract_x
_atom_site_fract_y
_atom_site_fract_z
Si Si1 0.080962 0.073908 0.175175
Si Si2 0.673028 0.057288 0.257793
Si Si3 0.449969 0.665714 0.108206
Si Si4 0.655040 0.605238 0.351618
Si Si5 0.175406 0.589871 0.080114
Si Si6 0.244938 0.668040 0.471699
O O1 0.926627 0.081274 0.154920
O O2 0.935794 0.107380 0.369899
O O3 0.128484 0.987992 0.171655
O O4 0.322818 0.116144 0.007224
O O5 0.458865 0.098157 0.452821
O O6 0.639184 0.970488 0.291579
O O7 0.667728 0.077987 0.128899
O O8 0.532093 0.750000 0.048111
O O9 0.322491 0.643131 0.070346
O O10 0.267116 0.654452 0.323601
O O11 0.505109 0.663736 0.370913
O O12 0.927054 0.629751 0.201083
O O13 0.145516 0.750000 0.556333
#
# Coordination Sequence:
#
# PCOD8075097 Si02
#       6
#     4   4   4   4   4   4
#     4  10  20  37  60  80 104 142 187 225 261 317
#     4   9  18  34  58  85 107 133 175 226 273 317
#     4  11  24  38  52  77 114 149 180 219 270 324
#     4   9  18  34  56  81 108 136 174 224 271 318
#     4  11  21  34  57  86 111 138 176 225 277 320
#     4  10  21  37  56  77 106 147 187 221 264 320
#
# _framework density 19.932219
#
# number of rings (size 3 to 8) (size 9 to 14) (size 15 to 20)
#    0.000    2.000    0.000    6.000    0.000    2.667 
#    0.000    4.167    0.000    0.000    0.000    0.000 
#    0.000    0.000    0.000    0.000    0.000    0.000 
#
# Total GULP energy -297655.670238 kJ/mol
# GULP energy per Si atom -12402.319593 kJ/mol
# Density = 1.988685 g / cm^3
# Si number density = 19.932219 Si / 1000 Ang^3
#
#
#
# Elastic Constant Matrix: (Units=GPa)
#
#
# Indices 1 2 3 4 5 6 
#
# 1 55.2608 18.1829 29.2841 0.0000 20.6582 0.0000
# 2 18.1829 28.8983 14.7052 0.0000 8.2814 0.0000
# 3 29.2841 14.7052 82.0173 0.0000 16.0764 0.0000
# 4 0.0000 0.0000 0.0000 21.8006 0.0000 0.1524
# 5 20.6582 8.2814 16.0764 0.0000 28.0247 0.0000
# 6 0.0000 0.0000 0.0000 0.1524 0.0000 20.1579
#
#
#
# Elastic Compliance Matrix: (Units=1/GPa)
#
#
# Indices 1 2 3 4 5 6 
#
# 1 0.031141 -0.012032 -0.005812 0.000000 -0.016065 0.000000
# 2 -0.012032 0.044506 -0.003204 0.000000 -0.002444 0.000000
# 3 -0.005812 -0.003204 0.015567 0.000000 -0.003699 0.000000
# 4 0.000000 0.000000 0.000000 0.045873 0.000000 -0.000347
# 5 -0.016065 -0.002444 -0.003699 0.000000 0.050369 0.000000
# 6 0.000000 0.000000 0.000000 -0.000347 0.000000 0.049611
#
#
# Mechanical properties :
#
#
# Convention : Reuss Voigt Hill
#
# Bulk Modulus (GPa) = 20.36010 32.28010 26.32010
# Shear Modulus (GPa) = 16.91829 20.93025 18.92427
#
# Velocity S-wave (km/s) = 2.91656 3.24400 3.08463
# Velocity P-wave (km/s) = 4.64528 5.50104 5.09117
#
# Compressibility (1/GPa) = 0.04911567
#
# Stress axis : x y z
#
# Youngs Moduli (GPa) = 32.11192 22.46891 64.23671
#
# Poissons Ratio (x) = 0.27035 0.37338
# Poissons Ratio (y) = 0.38638 0.20585
# Poissons Ratio (z) = 0.18665 0.07200
#
# Static dielectric constant tensor:
#      x y z
#    x 3.467880 0.000000 -0.026770 
#    y 0.000000 3.486170 0.000000 
#    z -0.026770 0.000000 3.716690 
# 
# 
# High freq. dielectric constant tensor:
#      x y z
#    x 1.764380 0.000000 0.002980 
#    y 0.000000 1.761500 0.000000 
#    z 0.002980 0.000000 1.789130 
# 
# From -- ./inp_files/19055.got.cif
#   From: 2010.06.25/outbox.cif.g09.slc.cpg/sg11_10_cif.got.tgz:19055.got - 2010.06.27 23:14:04.
