data_PCOD8075638
_publ_section_title
;
Structure prediction by ZEFSAII (Michael W. Deem and Ramdas Pophale) SiO2 
 PCOD8075638
Probable space group: P 21/M
;
_chemical_formula_sum "Si O2"
_cell_formula_units_Z 32
_cell_length_a 6.905322
_cell_length_b 17.356556
_cell_length_c 13.583684
_cell_angle_alpha 90.000000
_cell_angle_beta 84.005598
_cell_angle_gamma 90.000000
_cell_volume 1619.137999
_symmetry_space_group_name_H-M "P 21/M"
_symmetry_group_IT_number 11
_symmetry_cell_setting 'monoclinic'
loop_
_space_group_symop_operation_xyz
x,y,z
-x,1/2+y,-z
-x,-y,-z
x,1/2-y,z
loop_
_atom_site_type_symbol
_atom_site_label
_atom_site_fract_x
_atom_site_fract_y
_atom_site_fract_z
Si Si1 0.225361 0.160109 0.116509
Si Si2 0.603062 0.954659 0.222070
Si Si3 0.372923 0.092893 0.306624
Si Si4 0.467535 0.588003 0.030681
Si Si5 0.283960 0.160056 0.619778
Si Si6 0.972929 0.912988 0.527832
Si Si7 0.626369 0.337277 0.454067
Si Si8 0.878709 0.057874 0.073084
O O1 0.182157 0.250000 0.129046
O O2 0.349680 0.128990 0.200865
O O3 0.019461 0.116822 0.121444
O O4 0.358214 0.143107 0.014434
O O5 0.470999 0.908072 0.149331
O O6 0.715325 0.892169 0.282636
O O7 0.457912 0.006373 0.295400
O O8 0.761073 0.009513 0.160940
O O9 0.167118 0.093744 0.371532
O O10 0.523256 0.146514 0.356284
O O11 0.500000 0.500000 0.000000
O O12 0.261016 0.609353 0.991334
O O13 0.263211 0.250000 0.649059
O O14 0.102502 0.136523 0.560786
O O15 0.483186 0.142899 0.551505
O O16 0.183588 0.887472 0.549605
O O17 0.000000 0.000000 0.500000
O O18 0.693596 0.250000 0.453807
O O19 0.000000 0.000000 0.000000
#
# Coordination Sequence:
#
# PCOD8075638 Si02
#       8
#     4   4   4   4   4   4   4   4
#     4  12  25  40  63  97 127 158 207 265 318 371
#     4  11  21  41  68  89 125 168 212 254 313 378
#     4  11  23  40  61  93 125 161 209 258 305 376
#     4  10  20  43  65  86 123 167 202 255 316 374
#     4  10  23  42  62  91 128 162 207 269 316 365
#     4  11  23  39  64  91 120 163 214 255 308 377
#     4  10  22  42  61  85 127 166 199 255 323 368
#     4  11  21  42  66  90 125 167 208 255 311 373
#
# _framework density 19.763604000000001
#
# number of rings (size 3 to 8) (size 9 to 14) (size 15 to 20)
#    0.000    1.250    5.000    2.250    3.500    4.500 
#    2.250    0.000    0.000    0.000    0.000    0.000 
#    0.000    0.000    0.000    0.000    0.000    0.000 
#
# Total GULP energy -396849.337445 kJ/mol
# GULP energy per Si atom -12401.541795 kJ/mol
# Density = 1.971862 g / cm^3
# Si number density = 19.763604 Si / 1000 Ang^3
#
#
#
# Elastic Constant Matrix: (Units=GPa)
#
#
# Indices 1 2 3 4 5 6 
#
# 1 108.9269 34.0945 10.5806 0.0000 5.1547 0.0000
# 2 34.0945 97.3880 20.3666 0.0000 3.9350 0.0000
# 3 10.5806 20.3666 62.2595 0.0000 3.8217 0.0000
# 4 0.0000 0.0000 0.0000 27.6165 0.0000 -0.7486
# 5 5.1547 3.9350 3.8217 0.0000 14.4139 0.0000
# 6 0.0000 0.0000 0.0000 -0.7486 0.0000 30.9215
#
#
#
# Elastic Compliance Matrix: (Units=1/GPa)
#
#
# Indices 1 2 3 4 5 6 
#
# 1 0.010431 -0.003443 -0.000483 0.000000 -0.002662 0.000000
# 2 -0.003443 0.012221 -0.003338 0.000000 -0.001220 0.000000
# 3 -0.000483 -0.003338 0.017453 0.000000 -0.003544 0.000000
# 4 0.000000 0.000000 0.000000 0.036234 0.000000 0.000877
# 5 -0.002662 -0.001220 -0.003544 0.000000 0.071602 0.000000
# 6 0.000000 0.000000 0.000000 0.000877 0.000000 0.032361
#
#
# Mechanical properties :
#
#
# Convention : Reuss Voigt Hill
#
# Bulk Modulus (GPa) = 39.09678 44.29528 41.69603
# Shear Modulus (GPa) = 24.58736 28.15922 26.37329
#
# Velocity S-wave (km/s) = 3.53097 3.77875 3.65696
# Velocity P-wave (km/s) = 6.03728 6.44203 6.24294
#
# Compressibility (1/GPa) = 0.02557756
#
# Stress axis : x y z
#
# Youngs Moduli (GPa) = 95.86701 81.82665 57.29595
#
# Poissons Ratio (x) = 0.28175 0.02767
# Poissons Ratio (y) = 0.33009 0.19124
# Poissons Ratio (z) = 0.04629 0.27311
#
# Static dielectric constant tensor:
#      x y z
#    x 3.970730 0.000000 0.180870 
#    y 0.000000 3.508880 0.000000 
#    z 0.180870 0.000000 3.798570 
# 
# 
# High freq. dielectric constant tensor:
#      x y z
#    x 1.779690 0.000000 0.011340 
#    y 0.000000 1.762010 0.000000 
#    z 0.011340 0.000000 1.774940 
# 
# From -- ./inp_files/46055.got.cif
#   From: 2010.06.25/outbox.cif.g09.slc.cpg/sg11_24_cif.got.tgz:46055.got - 2010.06.27 23:14:04.
