data_PCOD8075024
_publ_section_title
;
Structure prediction by ZEFSAII (Michael W. Deem and Ramdas Pophale) SiO2 
 PCOD8075024
Probable space group: P 21/M
;
_chemical_formula_sum "Si O2"
_cell_formula_units_Z 24
_cell_length_a 13.696829
_cell_length_b 8.649899
_cell_length_c 15.516046
_cell_angle_alpha 90.000000
_cell_angle_beta 40.853326
_cell_angle_gamma 90.000000
_cell_volume 1202.465952
_symmetry_space_group_name_H-M "P 21/M"
_symmetry_group_IT_number 11
_symmetry_cell_setting 'monoclinic'
loop_
_space_group_symop_operation_xyz
x,y,z
-x,1/2+y,-z
-x,-y,-z
x,1/2-y,z
loop_
_atom_site_type_symbol
_atom_site_label
_atom_site_fract_x
_atom_site_fract_y
_atom_site_fract_z
Si Si1 0.063480 0.566405 0.045144
Si Si2 0.919265 0.932451 0.636070
Si Si3 0.599131 0.433180 0.179293
Si Si4 0.581600 0.933682 0.863528
Si Si5 0.101624 0.933276 0.681122
Si Si6 0.572308 0.566162 0.537242
O O1 0.057171 0.750000 0.046645
O O2 0.963805 0.505574 0.189093
O O3 0.232501 0.504885 0.943268
O O4 0.000000 0.500000 0.000000
O O5 0.922238 0.750000 0.626277
O O6 0.750663 0.995469 0.750524
O O7 0.000790 0.987855 0.668418
O O8 0.000000 0.000000 0.500000
O O9 0.597784 0.250000 0.177632
O O10 0.500105 0.498895 0.167050
O O11 0.530564 0.490609 0.315118
O O12 0.576436 0.750000 0.870395
O O13 0.500000 0.000000 0.000000
O O14 0.106345 0.750000 0.687966
O O15 0.265599 0.996984 0.555493
O O16 0.500000 0.500000 0.500000
O O17 0.582295 0.750000 0.524866
#
# Coordination Sequence:
#
# PCOD8075024 Si02
#       6
#     4   4   4   4   4   4
#     4  11  22  38  60  86 114 151 193 240 296 353
#     4  10  22  38  59  85 116 152 194 242 292 345
#     4   9  20  37  58  82 112 146 186 233 286 345
#     4  10  20  37  58  83 112 146 186 232 283 339
#     4  11  23  39  57  85 121 155 193 239 286 348
#     4  11  22  39  62  87 115 152 192 238 292 346
#
# _framework density 19.958985999999999
#
# number of rings (size 3 to 8) (size 9 to 14) (size 15 to 20)
#    0.000    1.667    0.000    4.500    0.000    4.667 
#    0.000    5.000    0.000    0.000    0.000    0.000 
#    0.000    0.000    0.000    0.000    0.000    0.000 
#
# Total GULP energy -297699.304223 kJ/mol
# GULP energy per Si atom -12404.137676 kJ/mol
# Density = 1.991356 g / cm^3
# Si number density = 19.958986 Si / 1000 Ang^3
#
#
#
# Elastic Constant Matrix: (Units=GPa)
#
#
# Indices 1 2 3 4 5 6 
#
# 1 129.3115 29.1885 28.9868 0.0000 2.2732 0.0000
# 2 29.1885 48.3431 19.5465 0.0000 0.2392 0.0000
# 3 28.9868 19.5465 115.3309 0.0000 1.8995 0.0000
# 4 0.0000 0.0000 0.0000 32.9275 0.0000 2.1041
# 5 2.2732 0.2392 1.8995 0.0000 48.9985 0.0000
# 6 0.0000 0.0000 0.0000 2.1041 0.0000 29.9845
#
#
#
# Elastic Compliance Matrix: (Units=1/GPa)
#
#
# Indices 1 2 3 4 5 6 
#
# 1 0.009185 -0.004952 -0.001464 0.000000 -0.000345 0.000000
# 2 -0.004952 0.024878 -0.002975 0.000000 0.000224 0.000000
# 3 -0.001464 -0.002975 0.009548 0.000000 -0.000288 0.000000
# 4 0.000000 0.000000 0.000000 0.030507 0.000000 -0.002141
# 5 -0.000345 0.000224 -0.000288 0.000000 0.020435 0.000000
# 6 0.000000 0.000000 0.000000 -0.002141 0.000000 0.033501
#
#
# Mechanical properties :
#
#
# Convention : Reuss Voigt Hill
#
# Bulk Modulus (GPa) = 40.27732 49.82546 45.05139
# Shear Modulus (GPa) = 32.23500 36.73302 34.48401
#
# Velocity S-wave (km/s) = 4.02314 4.29467 4.16112
# Velocity P-wave (km/s) = 6.46566 7.04346 6.76074
#
# Compressibility (1/GPa) = 0.02482787
#
# Stress axis : x y z
#
# Youngs Moduli (GPa) = 108.86986 40.19696 104.73904
#
# Poissons Ratio (x) = 0.19907 0.15329
# Poissons Ratio (y) = 0.53917 0.31163
# Poissons Ratio (z) = 0.15934 0.11960
#
# Static dielectric constant tensor:
#      x y z
#    x 3.879600 0.000000 -0.066970 
#    y 0.000000 3.515700 0.000000 
#    z -0.066970 0.000000 3.807440 
# 
# 
# High freq. dielectric constant tensor:
#      x y z
#    x 1.801970 0.000000 -0.001040 
#    y 0.000000 1.764590 0.000000 
#    z -0.001040 0.000000 1.798880 
# 
# From -- ./inp_files/51509.got.cif
#   From: 2010.06.25/outbox.cif.g09.slc.cpg/sg11_26_cif.got.tgz:51509.got - 2010.06.27 23:14:04.
