data_PCOD8075364
_publ_section_title
;
Structure prediction by ZEFSAII (Michael W. Deem and Ramdas Pophale) SiO2 
 PCOD8075364
Probable space group: P 21/M
;
_chemical_formula_sum "Si O2"
_cell_formula_units_Z 28
_cell_length_a 9.876484
_cell_length_b 15.773718
_cell_length_c 16.070345
_cell_angle_alpha 90.000000
_cell_angle_beta 145.177348
_cell_angle_gamma 90.000000
_cell_volume 1429.640270
_symmetry_space_group_name_H-M "P 21/M"
_symmetry_group_IT_number 11
_symmetry_cell_setting 'monoclinic'
loop_
_space_group_symop_operation_xyz
x,y,z
-x,1/2+y,-z
-x,-y,-z
x,1/2-y,z
loop_
_atom_site_type_symbol
_atom_site_label
_atom_site_fract_x
_atom_site_fract_y
_atom_site_fract_z
Si Si1 0.281548 0.976530 0.831274
Si Si2 0.550108 0.023005 0.268328
Si Si3 0.357930 0.843598 0.220204
Si Si4 0.988255 0.159921 0.205172
Si Si5 0.461673 0.122889 0.511429
Si Si6 0.133014 0.348306 0.099932
Si Si7 0.209417 0.954002 0.442995
O O1 0.175563 0.892210 0.816386
O O2 0.361205 0.955425 0.778485
O O3 0.071589 0.046957 0.720584
O O4 0.500000 0.000000 0.000000
O O5 0.488068 0.922496 0.240878
O O6 0.331920 0.085041 0.175361
O O7 0.753613 0.045959 0.438468
O O8 0.428843 0.750000 0.217717
O O9 0.414278 0.839705 0.345477
O O10 0.075588 0.855692 0.072465
O O11 0.857747 0.250000 0.127325
O O12 0.245266 0.180737 0.373523
O O13 0.024503 0.118000 0.132777
O O14 0.659322 0.123539 0.537165
O O15 0.341889 0.033135 0.469589
O O16 0.225080 0.250000 0.152823
#
# Coordination Sequence:
#
# PCOD8075364 Si02
#       7
#     4   4   4   4   4   4   4
#     4  11  24  36  57  88 119 161 199 234 299 363
#     4  11  21  38  60  83 120 161 195 244 299 351
#     4  10  21  34  57  88 117 150 198 248 297 353
#     4  10  20  38  61  84 114 152 197 246 295 355
#     4   9  17  33  60  85 111 143 194 246 295 333
#     4  10  21  36  58  89 118 153 199 248 297 347
#     4   9  19  35  56  85 115 149 192 244 284 356
#
# _framework density 19.585346000000001
#
# number of rings (size 3 to 8) (size 9 to 14) (size 15 to 20)
#    0.000    2.000    1.429    2.143    4.000    0.571 
#    0.000    0.000    0.000    5.143    0.000    0.000 
#    0.000    0.000    0.000    0.000    0.000    0.000 
#
# Total GULP energy -346917.566740 kJ/mol
# GULP energy per Si atom -12389.913098 kJ/mol
# Density = 1.954077 g / cm^3
# Si number density = 19.585346 Si / 1000 Ang^3
#
#
#
# Elastic Constant Matrix: (Units=GPa)
#
#
# Indices 1 2 3 4 5 6 
#
# 1 141.3763 53.0038 50.5065 0.0000 -6.3773 0.0000
# 2 53.0038 86.9418 27.5587 0.0000 7.7177 0.0000
# 3 50.5065 27.5587 157.9465 0.0000 1.0002 0.0000
# 4 0.0000 0.0000 0.0000 68.2244 0.0000 -41.9896
# 5 -6.3773 7.7177 1.0002 0.0000 24.9143 0.0000
# 6 0.0000 0.0000 0.0000 -41.9896 0.0000 41.9840
#
#
#
# Elastic Compliance Matrix: (Units=1/GPa)
#
#
# Indices 1 2 3 4 5 6 
#
# 1 0.010344 -0.005988 -0.002292 0.000000 0.004595 0.000000
# 2 -0.005988 0.015990 -0.000834 0.000000 -0.006452 0.000000
# 3 -0.002292 -0.000834 0.007214 0.000000 -0.000618 0.000000
# 4 0.000000 0.000000 0.000000 0.038125 0.000000 0.038131
# 5 0.004595 -0.006452 -0.000618 0.000000 0.043337 0.000000
# 6 0.000000 0.000000 0.000000 0.038131 0.000000 0.061954
#
#
# Mechanical properties :
#
#
# Convention : Reuss Voigt Hill
#
# Bulk Modulus (GPa) = 65.27747 72.04474 68.66111
# Shear Modulus (GPa) = 24.96263 44.03757 34.50010
#
# Velocity S-wave (km/s) = 3.57397 4.74698 4.20161
# Velocity P-wave (km/s) = 7.10163 8.17985 7.65973
#
# Compressibility (1/GPa) = 0.01531922
#
# Stress axis : x y z
#
# Youngs Moduli (GPa) = 96.67150 62.54082 138.62500
#
# Poissons Ratio (x) = 0.37447 0.31775
# Poissons Ratio (y) = 0.57884 0.11566
# Poissons Ratio (z) = 0.22159 0.05218
#
# Static dielectric constant tensor:
#      x y z
#    x 3.513900 0.000000 -0.065410 
#    y 0.000000 3.823270 0.000000 
#    z -0.065410 0.000000 3.869970 
# 
# 
# High freq. dielectric constant tensor:
#      x y z
#    x 1.745410 0.000000 -0.014150 
#    y 0.000000 1.753650 0.000000 
#    z -0.014150 0.000000 1.780640 
# 
# From -- ./inp_files/22688.got.cif
#   From: 2010.06.25/outbox.cif.g09.slc.cpg/sg11_12_cif.got.tgz:22688.got - 2010.06.27 23:14:04.
