data_PCOD8075744
_publ_section_title
;
Structure prediction by ZEFSAII (Michael W. Deem and Ramdas Pophale) SiO2 
 PCOD8075744
Probable space group: P 21/M
;
_chemical_formula_sum "Si O2"
_cell_formula_units_Z 32
_cell_length_a 14.930739
_cell_length_b 17.758971
_cell_length_c 11.210008
_cell_angle_alpha 90.000000
_cell_angle_beta 31.469545
_cell_angle_gamma 90.000000
_cell_volume 1551.719424
_symmetry_space_group_name_H-M "P 21/M"
_symmetry_group_IT_number 11
_symmetry_cell_setting 'monoclinic'
loop_
_space_group_symop_operation_xyz
x,y,z
-x,1/2+y,-z
-x,-y,-z
x,1/2-y,z
loop_
_atom_site_type_symbol
_atom_site_label
_atom_site_fract_x
_atom_site_fract_y
_atom_site_fract_z
Si Si1 0.646204 0.436849 0.339691
Si Si2 0.423968 0.334844 0.730388
Si Si3 0.102886 0.334537 0.938079
Si Si4 0.113376 0.112959 0.655796
Si Si5 0.146968 0.949717 0.680800
Si Si6 0.509098 0.897986 0.870608
Si Si7 0.760413 0.163852 0.994589
Si Si8 0.489753 0.571867 0.161800
O O1 0.500000 0.500000 0.500000
O O2 0.599144 0.365011 0.474402
O O3 0.798826 0.474040 0.244335
O O4 0.700884 0.402389 0.152125
O O5 0.445259 0.250000 0.750998
O O6 0.378612 0.386152 0.897304
O O7 0.294572 0.343050 0.767742
O O8 0.034409 0.250000 0.031953
O O9 0.995410 0.386308 0.149001
O O10 0.094488 0.353922 0.809090
O O11 0.305514 0.129087 0.389534
O O12 0.073969 0.024119 0.700520
O O13 0.965538 0.151321 0.740847
O O14 0.296985 0.916735 0.427172
O O15 0.354975 0.847308 0.992495
O O16 0.465430 0.983931 0.887999
O O17 0.510933 0.888641 0.010336
O O18 0.730899 0.250000 0.073056
#
# Coordination Sequence:
#
# PCOD8075744 Si02
#       8
#     4   4   4   4   4   4   4   4
#     4  11  21  36  61  89 122 161 207 255 305 370
#     4  10  21  35  58  88 118 159 201 249 312 362
#     4  11  22  36  56  89 128 160 198 251 314 377
#     4  11  23  39  63  94 127 163 206 256 314 376
#     4  10  21  36  61  89 120 160 201 259 313 362
#     4  10  23  45  66  90 122 162 216 264 304 372
#     4  12  25  39  62  94 129 171 206 251 320 381
#     4   9  21  44  66  88 115 161 215 258 313 360
#
# _framework density 20.622285000000002
#
# number of rings (size 3 to 8) (size 9 to 14) (size 15 to 20)
#    0.000    1.500    1.250    4.875    3.500    4.500 
#    2.250    1.875    0.000    0.000    0.000    0.000 
#    0.000    0.000    0.000    0.000    0.000    0.000 
#
# Total GULP energy -396621.524036 kJ/mol
# GULP energy per Si atom -12394.422626 kJ/mol
# Density = 2.057535 g / cm^3
# Si number density = 20.622285 Si / 1000 Ang^3
#
#
#
# Elastic Constant Matrix: (Units=GPa)
#
#
# Indices 1 2 3 4 5 6 
#
# 1 77.8542 24.3551 41.0328 0.0000 -7.4055 0.0000
# 2 24.3551 82.0452 34.0979 0.0000 -12.1413 0.0000
# 3 41.0328 34.0979 61.5649 0.0000 -3.2704 0.0000
# 4 0.0000 0.0000 0.0000 23.2208 0.0000 -4.7208
# 5 -7.4055 -12.1413 -3.2704 0.0000 30.7771 0.0000
# 6 0.0000 0.0000 0.0000 -4.7208 0.0000 30.8948
#
#
#
# Elastic Compliance Matrix: (Units=1/GPa)
#
#
# Indices 1 2 3 4 5 6 
#
# 1 0.020156 0.000046 -0.013275 0.000000 0.003457 0.000000
# 2 0.000046 0.016758 -0.009011 0.000000 0.005664 0.000000
# 3 -0.013275 -0.009011 0.029892 0.000000 -0.003573 0.000000
# 4 0.000000 0.000000 0.000000 0.044446 0.000000 0.006791
# 5 0.003457 0.005664 -0.003573 0.000000 0.035178 0.000000
# 6 0.000000 0.000000 0.000000 0.006791 0.000000 0.033406
#
#
# Mechanical properties :
#
#
# Convention : Reuss Voigt Hill
#
# Bulk Modulus (GPa) = 44.79421 46.71510 45.75466
# Shear Modulus (GPa) = 21.57418 25.11045 23.34231
#
# Velocity S-wave (km/s) = 3.23795 3.49325 3.36802
# Velocity P-wave (km/s) = 5.97892 6.24278 6.11227
#
# Compressibility (1/GPa) = 0.02232431
#
# Stress axis : x y z
#
# Youngs Moduli (GPa) = 49.61340 59.67274 33.45374
#
# Poissons Ratio (x) = -0.00272 0.44411
# Poissons Ratio (y) = -0.00226 0.30145
# Poissons Ratio (z) = 0.65864 0.53771
#
# Static dielectric constant tensor:
#      x y z
#    x 3.786530 0.000000 -0.103860 
#    y 0.000000 3.889240 0.000000 
#    z -0.103860 0.000000 3.698810 
# 
# 
# High freq. dielectric constant tensor:
#      x y z
#    x 1.799660 0.000000 -0.011920 
#    y 0.000000 1.815000 0.000000 
#    z -0.011920 0.000000 1.791650 
# 
# From -- ./inp_files/39968.got.cif
#   From: 2010.06.25/outbox.cif.g09.slc.cpg/sg11_20_cif.got.tgz:39968.got - 2010.06.27 23:14:04.
