data_PCOD8075355
_publ_section_title
;
Structure prediction by ZEFSAII (Michael W. Deem and Ramdas Pophale) SiO2 
 PCOD8075355
Probable space group: P 21/M
;
_chemical_formula_sum "Si O2"
_cell_formula_units_Z 28
_cell_length_a 8.964668
_cell_length_b 21.971461
_cell_length_c 13.953616
_cell_angle_alpha 90.000000
_cell_angle_beta 150.303011
_cell_angle_gamma 90.000000
_cell_volume 1361.593062
_symmetry_space_group_name_H-M "P 21/M"
_symmetry_group_IT_number 11
_symmetry_cell_setting 'monoclinic'
loop_
_space_group_symop_operation_xyz
x,y,z
-x,1/2+y,-z
-x,-y,-z
x,1/2-y,z
loop_
_atom_site_type_symbol
_atom_site_label
_atom_site_fract_x
_atom_site_fract_y
_atom_site_fract_z
Si Si1 0.540705 0.592073 0.163110
Si Si2 0.438092 0.177267 0.648250
Si Si3 0.206580 0.816258 0.647555
Si Si4 0.236548 0.021906 0.056494
Si Si5 0.836088 0.114077 0.713078
Si Si6 0.775244 0.077823 0.475195
Si Si7 0.362608 0.182837 0.942830
O O1 0.451995 0.639276 0.198106
O O2 0.312552 0.535499 0.031274
O O3 0.487172 0.631231 0.038129
O O4 0.875756 0.562149 0.353420
O O5 0.524017 0.250000 0.699861
O O6 0.576106 0.142910 0.633166
O O7 0.079165 0.166886 0.444751
O O8 0.149675 0.750000 0.573300
O O9 0.260389 0.853750 0.581973
O O10 0.499280 0.820675 0.875095
O O11 0.543414 0.037207 0.285418
O O12 0.087753 0.075334 0.911296
O O13 0.000000 0.000000 0.000000
O O14 0.700410 0.074478 0.548019
O O15 0.009395 0.169835 0.759300
O O16 0.406297 0.250000 0.921586
#
# Coordination Sequence:
#
# PCOD8075355 Si02
#       7
#     4   4   4   4   4   4   4
#     4  10  22  40  63  89 123 164 202 255 308 361
#     4  10  20  38  60  88 123 160 200 250 312 368
#     4   9  19  38  63  90 124 157 200 254 302 365
#     4  12  24  43  61  90 129 160 212 253 301 363
#     4  11  23  40  64  93 120 167 199 255 310 360
#     4  10  23  41  63  90 121 162 207 248 309 359
#     4  10  20  38  65  95 121 156 207 254 306 367
#
# _framework density 20.564146999999998
#
# number of rings (size 3 to 8) (size 9 to 14) (size 15 to 20)
#    0.000    1.714    2.857    1.286    0.000    8.000 
#    5.143    0.000    0.000    0.000    0.000    0.000 
#    0.000    0.000    0.000    0.000    0.000    0.000 
#
# Total GULP energy -346898.326514 kJ/mol
# GULP energy per Si atom -12389.225947 kJ/mol
# Density = 2.051734 g / cm^3
# Si number density = 20.564147 Si / 1000 Ang^3
#
#
#
# Elastic Constant Matrix: (Units=GPa)
#
#
# Indices 1 2 3 4 5 6 
#
# 1 101.3347 35.1896 9.7398 0.0000 -2.1414 0.0000
# 2 35.1896 94.2671 28.6261 0.0000 6.4412 0.0000
# 3 9.7398 28.6261 52.9334 0.0000 -10.1533 0.0000
# 4 0.0000 0.0000 0.0000 28.2619 0.0000 2.8513
# 5 -2.1414 6.4412 -10.1533 0.0000 24.6516 0.0000
# 6 0.0000 0.0000 0.0000 2.8513 0.0000 35.5988
#
#
#
# Elastic Compliance Matrix: (Units=1/GPa)
#
#
# Indices 1 2 3 4 5 6 
#
# 1 0.011485 -0.004762 0.000968 0.000000 0.002641 0.000000
# 2 -0.004762 0.015764 -0.009249 0.000000 -0.008342 0.000000
# 3 0.000968 -0.009249 0.026271 0.000000 0.013321 0.000000
# 4 0.000000 0.000000 0.000000 0.035672 0.000000 -0.002857
# 5 0.002641 -0.008342 0.013321 0.000000 0.048461 0.000000
# 6 0.000000 0.000000 0.000000 -0.002857 0.000000 0.028320
#
#
# Mechanical properties :
#
#
# Convention : Reuss Voigt Hill
#
# Bulk Modulus (GPa) = 36.45051 43.96070 40.20560
# Shear Modulus (GPa) = 24.85068 29.36778 27.10923
#
# Velocity S-wave (km/s) = 3.48004 3.78313 3.63475
# Velocity P-wave (km/s) = 5.82335 6.36447 6.09991
#
# Compressibility (1/GPa) = 0.02743446
#
# Stress axis : x y z
#
# Youngs Moduli (GPa) = 87.07352 63.43392 38.06538
#
# Poissons Ratio (x) = 0.30205 -0.03686
# Poissons Ratio (y) = 0.41462 0.35208
# Poissons Ratio (z) = -0.08433 0.58672
#
# Static dielectric constant tensor:
#      x y z
#    x 3.746460 0.000000 0.000900 
#    y 0.000000 4.180690 0.000000 
#    z 0.000900 0.000000 3.999540 
# 
# 
# High freq. dielectric constant tensor:
#      x y z
#    x 1.804320 0.000000 -0.002270 
#    y 0.000000 1.811680 0.000000 
#    z -0.002270 0.000000 1.793780 
# 
# From -- ./inp_files/23167.got.cif
#   From: 2010.06.25/outbox.cif.g09.slc.cpg/sg11_12_cif.got.tgz:23167.got - 2010.06.27 23:14:04.
