data_PCOD8075514
_publ_section_title
;
Structure prediction by ZEFSAII (Michael W. Deem and Ramdas Pophale) SiO2 
 PCOD8075514
Probable space group: P 21/M
;
_chemical_formula_sum "Si O2"
_cell_formula_units_Z 28
_cell_length_a 10.907317
_cell_length_b 9.081434
_cell_length_c 14.566215
_cell_angle_alpha 90.000000
_cell_angle_beta 112.840967
_cell_angle_gamma 90.000000
_cell_volume 1329.703693
_symmetry_space_group_name_H-M "P 21/M"
_symmetry_group_IT_number 11
_symmetry_cell_setting 'monoclinic'
loop_
_space_group_symop_operation_xyz
x,y,z
-x,1/2+y,-z
-x,-y,-z
x,1/2-y,z
loop_
_atom_site_type_symbol
_atom_site_label
_atom_site_fract_x
_atom_site_fract_y
_atom_site_fract_z
Si Si1 0.211087 0.916313 0.554505
Si Si2 0.356339 0.425221 0.943261
Si Si3 0.467487 0.080314 0.583428
Si Si4 0.821037 0.083098 0.242957
Si Si5 0.275321 0.916006 0.240414
Si Si6 0.855716 0.923122 0.960297
Si Si7 0.068147 0.584736 0.333617
O O1 0.260840 0.750000 0.546992
O O2 0.160493 0.927977 0.642858
O O3 0.096455 0.959171 0.447934
O O4 0.327568 0.032506 0.581727
O O5 0.376563 0.250000 0.945935
O O6 0.301316 0.486021 0.830265
O O7 0.500000 0.500000 0.000000
O O8 0.243678 0.471086 0.985692
O O9 0.466073 0.250000 0.558347
O O10 0.571804 0.045925 0.695108
O O11 0.500000 0.000000 0.500000
O O12 0.801975 0.250000 0.203106
O O13 0.962068 0.018552 0.250219
O O14 0.257695 0.750000 0.195424
O O15 0.204821 0.929603 0.318321
O O16 0.220269 0.035269 0.154322
O O17 0.881668 0.750000 0.972228
O O18 0.000000 0.000000 0.000000
O O19 0.010313 0.750000 0.311978
#
# Coordination Sequence:
#
# PCOD8075514 Si02
#       7
#     4   4   4   4   4   4   4
#     4  10  22  40  60  87 127 166 205 254 304 362
#     4  11  26  47  68  93 127 169 215 267 327 385
#     4  11  22  38  60  89 124 164 207 252 307 368
#     4  11  24  40  63  93 124 161 207 258 310 367
#     4  10  22  39  62  91 124 163 204 251 310 368
#     4  11  25  44  68  97 127 164 212 267 325 382
#     4  10  20  39  62  88 127 167 202 247 304 368
#
# _framework density 21.057323
#
# number of rings (size 3 to 8) (size 9 to 14) (size 15 to 20)
#    0.000    1.429    1.429    3.000    2.000    9.143 
#    0.000    0.000    0.000    0.000    0.000    0.000 
#    0.000    0.000    0.000    0.000    0.000    0.000 
#
# Total GULP energy -347166.734225 kJ/mol
# GULP energy per Si atom -12398.811937 kJ/mol
# Density = 2.100940 g / cm^3
# Si number density = 21.057323 Si / 1000 Ang^3
#
#
#
# Elastic Constant Matrix: (Units=GPa)
#
#
# Indices 1 2 3 4 5 6 
#
# 1 93.5328 53.2436 32.5879 0.0000 21.0279 0.0000
# 2 53.2436 101.9694 55.3210 0.0000 19.5591 0.0000
# 3 32.5879 55.3210 105.5793 0.0000 16.6912 0.0000
# 4 0.0000 0.0000 0.0000 39.7624 0.0000 5.0519
# 5 21.0279 19.5591 16.6912 0.0000 36.4934 0.0000
# 6 0.0000 0.0000 0.0000 5.0519 0.0000 37.2969
#
#
#
# Elastic Compliance Matrix: (Units=1/GPa)
#
#
# Indices 1 2 3 4 5 6 
#
# 1 0.016098 -0.007200 -0.000366 0.000000 -0.005249 0.000000
# 2 -0.007200 0.017603 -0.006646 0.000000 -0.002246 0.000000
# 3 -0.000366 -0.006646 0.013442 0.000000 -0.002375 0.000000
# 4 0.000000 0.000000 0.000000 0.025590 0.000000 -0.003466
# 5 -0.005249 -0.002246 -0.002375 0.000000 0.032717 0.000000
# 6 0.000000 0.000000 0.000000 -0.003466 0.000000 0.027281
#
#
# Mechanical properties :
#
#
# Convention : Reuss Voigt Hill
#
# Bulk Modulus (GPa) = 53.42281 64.82073 59.12177
# Shear Modulus (GPa) = 29.86943 33.37246 31.62095
#
# Velocity S-wave (km/s) = 3.77036 3.98532 3.87933
# Velocity P-wave (km/s) = 6.66179 7.21297 6.94285
#
# Compressibility (1/GPa) = 0.01871860
#
# Stress axis : x y z
#
# Youngs Moduli (GPa) = 62.12052 56.80915 74.39104
#
# Poissons Ratio (x) = 0.40902 0.02724
# Poissons Ratio (y) = 0.44726 0.49441
# Poissons Ratio (z) = 0.02275 0.37756
#
# Static dielectric constant tensor:
#      x y z
#    x 3.222020 0.000000 -0.164950 
#    y 0.000000 3.562380 0.000000 
#    z -0.164950 0.000000 3.793910 
# 
# 
# High freq. dielectric constant tensor:
#      x y z
#    x 1.825710 0.000000 0.007830 
#    y 0.000000 1.827700 0.000000 
#    z 0.007830 0.000000 1.834660 
# 
# From -- ./inp_files/37903.got.cif
#   From: 2010.06.25/outbox.cif.g09.slc.cpg/sg11_19_cif.got.tgz:37903.got - 2010.06.27 23:14:04.
