data_PCOD8075444
_publ_section_title
;
Structure prediction by ZEFSAII (Michael W. Deem and Ramdas Pophale) SiO2 
 PCOD8075444
Probable space group: P 21/M
;
_chemical_formula_sum "Si O2"
_cell_formula_units_Z 28
_cell_length_a 27.983878
_cell_length_b 8.499695
_cell_length_c 9.888307
_cell_angle_alpha 90.000000
_cell_angle_beta 142.488594
_cell_angle_gamma 90.000000
_cell_volume 1432.164678
_symmetry_space_group_name_H-M "P 21/M"
_symmetry_group_IT_number 11
_symmetry_cell_setting 'monoclinic'
loop_
_space_group_symop_operation_xyz
x,y,z
-x,1/2+y,-z
-x,-y,-z
x,1/2-y,z
loop_
_atom_site_type_symbol
_atom_site_label
_atom_site_fract_x
_atom_site_fract_y
_atom_site_fract_z
Si Si1 0.452006 0.932437 0.770338
Si Si2 0.538433 0.067685 0.718719
Si Si3 0.868891 0.066324 0.044896
Si Si4 0.998031 0.565448 0.146821
Si Si5 0.872724 0.435270 0.358822
Si Si6 0.698294 0.430796 0.952968
Si Si7 0.297924 0.068560 0.320610
O O1 0.433955 0.750000 0.749023
O O2 0.506999 0.958647 0.765654
O O3 0.369404 0.022775 0.578243
O O4 0.500000 0.000000 0.000000
O O5 0.515148 0.250000 0.689434
O O6 0.500000 0.000000 0.500000
O O7 0.633059 0.048695 0.922542
O O8 0.886811 0.250000 0.070317
O O9 0.890272 0.004166 0.244845
O O10 0.916989 0.973584 0.039383
O O11 0.777484 0.035504 0.811219
O O12 0.008669 0.750000 0.158392
O O13 0.067975 0.491125 0.397184
O O14 0.000000 0.500000 0.000000
O O15 0.883871 0.250000 0.383256
O O16 0.783743 0.481837 0.201350
O O17 0.701741 0.250000 0.909918
O O18 0.674658 0.536125 0.771492
O O19 0.276430 0.250000 0.291534
#
# Coordination Sequence:
#
# PCOD8075444 Si02
#       7
#     4   4   4   4   4   4   4
#     4  12  25  42  60  83 119 161 204 248 297 351
#     4  11  21  35  60  89 120 156 198 244 296 352
#     4  10  20  38  63  88 113 148 193 240 293 351
#     4  11  22  38  58  84 120 156 192 238 291 352
#     4   8  17  35  60  86 113 148 193 239 286 342
#     4   9  18  35  59  87 116 150 194 243 294 348
#     4  11  21  36  60  89 119 150 193 243 296 353
#
# _framework density 19.550826000000001
#
# number of rings (size 3 to 8) (size 9 to 14) (size 15 to 20)
#    0.000    1.714    1.429    5.143    0.000    0.571 
#    2.571    6.429    0.000    0.000    0.000    0.000 
#    0.000    0.000    0.000    0.000    0.000    0.000 
#
# Total GULP energy -347192.420733 kJ/mol
# GULP energy per Si atom -12399.729312 kJ/mol
# Density = 1.950633 g / cm^3
# Si number density = 19.550826 Si / 1000 Ang^3
#
#
#
# Elastic Constant Matrix: (Units=GPa)
#
#
# Indices 1 2 3 4 5 6 
#
# 1 103.2559 11.2228 61.6406 0.0000 -2.0088 0.0000
# 2 11.2228 65.6669 19.8273 0.0000 -2.6726 0.0000
# 3 61.6406 19.8273 140.6768 0.0000 -3.8666 0.0000
# 4 0.0000 0.0000 0.0000 27.2252 0.0000 -0.6693
# 5 -2.0088 -2.6726 -3.8666 0.0000 28.8124 0.0000
# 6 0.0000 0.0000 0.0000 -0.6693 0.0000 32.4520
#
#
#
# Elastic Compliance Matrix: (Units=1/GPa)
#
#
# Indices 1 2 3 4 5 6 
#
# 1 0.013133 -0.000526 -0.005678 0.000000 0.000105 0.000000
# 2 -0.000526 0.015966 -0.001987 0.000000 0.001178 0.000000
# 3 -0.005678 -0.001987 0.009897 0.000000 0.000748 0.000000
# 4 0.000000 0.000000 0.000000 0.036749 0.000000 0.000758
# 5 0.000105 0.001178 0.000748 0.000000 0.034924 0.000000
# 6 0.000000 0.000000 0.000000 0.000758 0.000000 0.030830
#
#
# Mechanical properties :
#
#
# Convention : Reuss Voigt Hill
#
# Bulk Modulus (GPa) = 44.21975 54.99789 49.60882
# Shear Modulus (GPa) = 30.22598 32.15851 31.19225
#
# Velocity S-wave (km/s) = 3.93621 4.06010 3.99863
# Velocity P-wave (km/s) = 6.58220 7.08315 6.83726
#
# Compressibility (1/GPa) = 0.02261433
#
# Stress axis : x y z
#
# Youngs Moduli (GPa) = 76.14270 62.63192 101.04138
#
# Poissons Ratio (x) = 0.03294 0.57367
# Poissons Ratio (y) = 0.04005 0.20082
# Poissons Ratio (z) = 0.43231 0.12448
#
# Static dielectric constant tensor:
#      x y z
#    x 3.463910 0.000000 0.272500 
#    y 0.000000 3.541930 0.000000 
#    z 0.272500 0.000000 3.875730 
# 
# 
# High freq. dielectric constant tensor:
#      x y z
#    x 1.757230 0.000000 0.018250 
#    y 0.000000 1.756330 0.000000 
#    z 0.018250 0.000000 1.761470 
# 
# From -- ./inp_files/28636.got.cif
#   From: 2010.06.25/outbox.cif.g09.slc.cpg/sg11_15_cif.got.tgz:28636.got - 2010.06.27 23:14:04.
