data_PCOD8075370
_publ_section_title
;
Structure prediction by ZEFSAII (Michael W. Deem and Ramdas Pophale) SiO2 
 PCOD8075370
Probable space group: P 21/M
;
_chemical_formula_sum "Si O2"
_cell_formula_units_Z 24
_cell_length_a 9.338062
_cell_length_b 8.389107
_cell_length_c 31.312096
_cell_angle_alpha 90.000000
_cell_angle_beta 28.791285
_cell_angle_gamma 90.000000
_cell_volume 1181.379636
_symmetry_space_group_name_H-M "P 21/M"
_symmetry_group_IT_number 11
_symmetry_cell_setting 'monoclinic'
loop_
_space_group_symop_operation_xyz
x,y,z
-x,1/2+y,-z
-x,-y,-z
x,1/2-y,z
loop_
_atom_site_type_symbol
_atom_site_label
_atom_site_fract_x
_atom_site_fract_y
_atom_site_fract_z
Si Si1 0.565773 0.438463 0.858404
Si Si2 0.346918 0.061734 0.825335
Si Si3 0.806891 0.564211 0.337982
Si Si4 0.292858 0.439132 0.016953
Si Si5 0.180308 0.064845 0.492735
Si Si6 0.050309 0.065574 0.359526
O O1 0.556930 0.250000 0.862934
O O2 0.378637 0.497051 0.866183
O O3 0.908123 0.493600 0.764063
O O4 0.419922 0.510641 0.939211
O O5 0.383760 0.250000 0.811932
O O6 0.602691 0.981410 0.730035
O O7 0.032973 0.007024 0.889027
O O8 0.739589 0.750000 0.348655
O O9 0.530242 0.462174 0.393401
O O10 0.872208 0.536322 0.370957
O O11 0.283914 0.250000 0.018476
O O12 0.500000 0.500000 0.000000
O O13 0.111384 0.250000 0.517378
O O14 0.000000 0.000000 0.500000
O O15 0.087295 0.966928 0.558564
O O16 0.012820 0.250000 0.357839
#
# Coordination Sequence:
#
# PCOD8075370 Si02
#       6
#     4   4   4   4   4   4
#     4   8  18  36  60  84 111 146 189 235 284 336
#     4  10  20  38  61  86 112 146 190 241 293 344
#     4  10  20  39  63  88 115 150 194 243 292 344
#     4  11  22  37  55  82 117 155 193 235 286 346
#     4  12  25  41  59  85 119 157 195 238 288 345
#     4  11  22  39  62  89 116 150 193 240 290 347
#
# _framework density 20.315232000000002
#
# number of rings (size 3 to 8) (size 9 to 14) (size 15 to 20)
#    0.000    1.667    0.000    6.500    0.000    1.333 
#    0.000   14.167    0.000    0.000    0.000    0.000 
#    0.000    0.000    0.000    0.000    0.000    0.000 
#
# Total GULP energy -297700.049944 kJ/mol
# GULP energy per Si atom -12404.168748 kJ/mol
# Density = 2.026899 g / cm^3
# Si number density = 20.315232 Si / 1000 Ang^3
#
#
#
# Elastic Constant Matrix: (Units=GPa)
#
#
# Indices 1 2 3 4 5 6 
#
# 1 80.5099 7.1108 33.1921 0.0000 -28.1453 0.0000
# 2 7.1108 72.4827 14.0429 0.0000 -1.8420 0.0000
# 3 33.1921 14.0429 83.1820 0.0001 -25.3781 0.0000
# 4 0.0000 0.0000 0.0001 31.1121 0.0000 -5.9980
# 5 -28.1453 -1.8420 -25.3781 0.0000 32.8405 0.0000
# 6 0.0000 0.0000 0.0000 -5.9980 0.0000 32.9595
#
#
#
# Elastic Compliance Matrix: (Units=1/GPa)
#
#
# Indices 1 2 3 4 5 6 
#
# 1 0.018458 -0.000861 -0.003151 0.000000 0.013336 0.000000
# 2 -0.000861 0.014352 -0.002694 0.000000 -0.002015 0.000000
# 3 -0.003151 -0.002694 0.016833 0.000000 0.010156 0.000000
# 4 0.000000 0.000000 0.000000 0.033310 0.000000 0.006062
# 5 0.013336 -0.002015 0.010156 0.000000 0.049614 0.000000
# 6 0.000000 0.000000 0.000000 0.006062 0.000000 0.031443
#
#
# Mechanical properties :
#
#
# Convention : Reuss Voigt Hill
#
# Bulk Modulus (GPa) = 27.60218 38.31847 32.96033
# Shear Modulus (GPa) = 26.38525 31.50435 28.94480
#
# Velocity S-wave (km/s) = 3.60778 3.94226 3.77872
# Velocity P-wave (km/s) = 5.56518 6.29482 5.94121
#
# Compressibility (1/GPa) = 0.03622902
#
# Stress axis : x y z
#
# Youngs Moduli (GPa) = 54.17682 69.67855 59.40875
#
# Poissons Ratio (x) = 0.06002 0.18722
# Poissons Ratio (y) = 0.04667 0.16004
# Poissons Ratio (z) = 0.17073 0.18771
#
# Static dielectric constant tensor:
#      x y z
#    x 3.629020 0.000000 -0.010150 
#    y 0.000000 3.588070 0.000000 
#    z -0.010150 0.000000 3.952180 
# 
# 
# High freq. dielectric constant tensor:
#      x y z
#    x 1.786990 0.000000 -0.008030 
#    y 0.000000 1.790940 0.000000 
#    z -0.008030 0.000000 1.806220 
# 
# From -- ./inp_files/61839.got.cif
#   From: 2010.06.25/outbox.cif.g09.slc.cpg/sg11_31_cif.got.tgz:61839.got - 2010.06.27 23:14:04.
