data_PCOD8075958
_publ_section_title
;
Structure prediction by ZEFSAII (Michael W. Deem and Ramdas Pophale) SiO2 
 PCOD8075958
Probable space group: P 21/M
;
_chemical_formula_sum "Si O2"
_cell_formula_units_Z 32
_cell_length_a 27.640513
_cell_length_b 8.829278
_cell_length_c 15.622281
_cell_angle_alpha 90.000000
_cell_angle_beta 152.057791
_cell_angle_gamma 90.000000
_cell_volume 1786.488292
_symmetry_space_group_name_H-M "P 21/M"
_symmetry_group_IT_number 11
_symmetry_cell_setting 'monoclinic'
loop_
_space_group_symop_operation_xyz
x,y,z
-x,1/2+y,-z
-x,-y,-z
x,1/2-y,z
loop_
_atom_site_type_symbol
_atom_site_label
_atom_site_fract_x
_atom_site_fract_y
_atom_site_fract_z
Si Si1 0.423435 0.571869 0.198526
Si Si2 0.347271 0.427427 0.430916
Si Si3 0.116340 0.574200 0.793918
Si Si4 0.775147 0.430274 0.205776
Si Si5 0.091289 0.429796 0.448470
Si Si6 0.146686 0.926354 0.182266
Si Si7 0.677847 0.073254 0.788293
Si Si8 0.041393 0.926660 0.195410
O O1 0.408709 0.750000 0.183813
O O2 0.539927 0.527143 0.355227
O O3 0.394136 0.510571 0.247271
O O4 0.342086 0.515946 0.999482
O O5 0.326149 0.250000 0.408042
O O6 0.263689 0.518814 0.354765
O O7 0.346095 0.470323 0.330009
O O8 0.098190 0.750000 0.752276
O O9 0.150996 0.509106 0.755791
O O10 0.009637 0.501608 0.660886
O O11 0.203213 0.545610 0.000915
O O12 0.781977 0.250000 0.227326
O O13 0.807660 0.511092 0.344248
O O14 0.090663 0.250000 0.444364
O O15 0.095202 0.490637 0.358413
O O16 0.139034 0.750000 0.149168
O O17 0.112423 0.963640 0.224851
O O18 0.073944 0.011604 0.000619
O O19 0.658294 0.250000 0.736276
O O20 0.033872 0.750000 0.202757
#
# Coordination Sequence:
#
# PCOD8075958 Si02
#       8
#     4   4   4   4   4   4   4   4
#     4   8  17  32  49  69  97 135 175 213 248 285
#     4  11  20  30  48  75 102 130 168 208 249 297
#     4   8  16  29  46  68  97 133 166 197 236 286
#     4   9  17  33  51  66  93 135 176 207 239 281
#     4  11  20  30  48  76 105 130 161 202 248 294
#     4  10  21  37  55  76 102 129 158 197 246 296
#     4   9  16  30  49  69  98 136 172 204 245 292
#     4  10  21  37  56  77 100 128 161 196 240 297
#
# _framework density 17.912236
#
# number of rings (size 3 to 8) (size 9 to 14) (size 15 to 20)
#    0.000    2.500    0.000    4.500    0.000    2.500 
#    0.000    5.625    0.000    0.750    0.000    0.000 
#    0.000    0.000    0.000    0.000    0.000    0.000 
#
# Total GULP energy -396753.036101 kJ/mol
# GULP energy per Si atom -12398.532378 kJ/mol
# Density = 1.787147 g / cm^3
# Si number density = 17.912236 Si / 1000 Ang^3
#
#
#
# Elastic Constant Matrix: (Units=GPa)
#
#
# Indices 1 2 3 4 5 6 
#
# 1 78.4186 33.0816 65.0362 0.0000 1.3801 0.0000
# 2 33.0816 51.5143 38.6675 0.0000 -4.4701 0.0000
# 3 65.0362 38.6675 122.0418 0.0000 -3.5363 0.0000
# 4 0.0000 0.0000 0.0000 24.9445 0.0000 -2.5064
# 5 1.3801 -4.4701 -3.5363 0.0000 31.0597 0.0000
# 6 0.0000 0.0000 0.0000 -2.5064 0.0000 26.4982
#
#
#
# Elastic Compliance Matrix: (Units=1/GPa)
#
#
# Indices 1 2 3 4 5 6 
#
# 1 0.025520 -0.008416 -0.011037 0.000000 -0.003602 0.000000
# 2 -0.008416 0.028482 -0.004424 0.000000 0.003969 0.000000
# 3 -0.011037 -0.004424 0.015524 0.000000 0.001621 0.000000
# 4 0.000000 0.000000 0.000000 0.040474 0.000000 0.003828
# 5 -0.003602 0.003969 0.001621 0.000000 0.033112 0.000000
# 6 0.000000 0.000000 0.000000 0.003828 0.000000 0.038100
#
#
# Mechanical properties :
#
#
# Convention : Reuss Voigt Hill
#
# Bulk Modulus (GPa) = 45.93271 58.39392 52.16332
# Shear Modulus (GPa) = 21.16633 24.17979 22.67306
#
# Velocity S-wave (km/s) = 3.44127 3.67809 3.56165
# Velocity P-wave (km/s) = 6.44117 7.12100 6.78960
#
# Compressibility (1/GPa) = 0.02177098
#
# Stress axis : x y z
#
# Youngs Moduli (GPa) = 39.18560 35.10977 64.41457
#
# Poissons Ratio (x) = 0.29548 0.71096
# Poissons Ratio (y) = 0.32979 0.28499
# Poissons Ratio (z) = 0.43250 0.15534
#
# Static dielectric constant tensor:
#      x y z
#    x 3.273840 0.000000 0.144320 
#    y 0.000000 3.087620 0.000000 
#    z 0.144320 0.000000 3.496940 
# 
# 
# High freq. dielectric constant tensor:
#      x y z
#    x 1.675020 0.000000 0.001890 
#    y 0.000000 1.677360 0.000000 
#    z 0.001890 0.000000 1.695670 
# 
# From -- ./inp_files/56154.got.cif
#   From: 2010.06.25/outbox.cif.g09.slc.cpg/sg11_29_cif.got.tgz:56154.got - 2010.06.27 23:14:04.
