data_PCOD8075501
_publ_section_title
;
Structure prediction by ZEFSAII (Michael W. Deem and Ramdas Pophale) SiO2 
 PCOD8075501
Probable space group: P 21/M
;
_chemical_formula_sum "Si O2"
_cell_formula_units_Z 32
_cell_length_a 8.671297
_cell_length_b 13.037075
_cell_length_c 26.947076
_cell_angle_alpha 90.000000
_cell_angle_beta 31.977730
_cell_angle_gamma 90.000000
_cell_volume 1613.300696
_symmetry_space_group_name_H-M "P 21/M"
_symmetry_group_IT_number 11
_symmetry_cell_setting 'monoclinic'
loop_
_space_group_symop_operation_xyz
x,y,z
-x,1/2+y,-z
-x,-y,-z
x,1/2-y,z
loop_
_atom_site_type_symbol
_atom_site_label
_atom_site_fract_x
_atom_site_fract_y
_atom_site_fract_z
Si Si1 0.824012 0.536478 0.423018
Si Si2 0.534691 0.868192 0.870998
Si Si3 0.222471 0.961556 0.045716
Si Si4 0.325828 0.048650 0.342488
Si Si5 0.253855 0.368653 0.754978
Si Si6 0.402703 0.134154 0.425149
Si Si7 0.936990 0.514664 0.285739
Si Si8 0.219793 0.865550 0.854228
O O1 0.500000 0.500000 0.500000
O O2 0.810295 0.625543 0.468660
O O3 0.976291 0.568113 0.329298
O O4 0.029059 0.448435 0.391376
O O5 0.644859 0.750000 0.844731
O O6 0.393127 0.889737 0.856752
O O7 0.304910 0.889844 0.977026
O O8 0.787511 0.951566 0.808886
O O9 0.010374 0.891663 0.136094
O O10 0.060582 0.062978 0.071097
O O11 0.500000 0.000000 0.000000
O O12 0.244619 0.092889 0.418737
O O13 0.569017 0.119719 0.250558
O O14 0.458785 0.933787 0.309711
O O15 0.341557 0.250000 0.733450
O O16 0.143150 0.395467 0.730066
O O17 0.498095 0.250000 0.391323
O O18 0.686982 0.069141 0.358294
O O19 0.101263 0.750000 0.885867
#
# Coordination Sequence:
#
# PCOD8075501 Si02
#       8
#     4   4   4   4   4   4   4   4
#     4  10  21  38  60  84 117 153 191 244 302 350
#     4  11  21  37  61  88 121 159 199 241 296 355
#     4  11  22  39  59  88 124 156 194 252 296 340
#     4  10  20  39  61  84 122 155 197 247 296 352
#     4  10  22  39  59  83 116 161 206 243 296 355
#     4  10  21  36  58  89 118 151 194 240 298 358
#     4  10  20  39  60  86 119 157 194 250 296 348
#     4  10  22  38  62  90 120 160 201 240 293 357
#
# _framework density 19.835114000000001
#
# number of rings (size 3 to 8) (size 9 to 14) (size 15 to 20)
#    0.000    1.750    2.500    1.875    0.000    2.000 
#    0.000    0.625    0.000    1.500    0.000    0.000 
#    0.000    0.000    0.000    0.000    0.000    0.000 
#
# Total GULP energy -396711.078040 kJ/mol
# GULP energy per Si atom -12397.221189 kJ/mol
# Density = 1.978997 g / cm^3
# Si number density = 19.835114 Si / 1000 Ang^3
#
#
#
# Elastic Constant Matrix: (Units=GPa)
#
#
# Indices 1 2 3 4 5 6 
#
# 1 105.8259 28.2483 36.7417 0.0000 14.9457 0.0000
# 2 28.2483 93.0150 22.2956 0.0000 6.9580 0.0000
# 3 36.7417 22.2956 77.1392 0.0000 16.2566 0.0000
# 4 0.0000 0.0000 0.0000 19.6226 0.0000 2.1558
# 5 14.9457 6.9580 16.2566 0.0000 41.5035 0.0000
# 6 0.0000 0.0000 0.0000 2.1558 0.0000 19.8345
#
#
#
# Elastic Compliance Matrix: (Units=1/GPa)
#
#
# Indices 1 2 3 4 5 6 
#
# 1 0.011970 -0.002382 -0.004566 0.000000 -0.002123 0.000000
# 2 -0.002382 0.012043 -0.002291 0.000000 -0.000264 0.000000
# 3 -0.004566 -0.002291 0.016756 0.000000 -0.004535 0.000000
# 4 0.000000 0.000000 0.000000 0.051578 0.000000 -0.005606
# 5 -0.002123 -0.000264 -0.004535 0.000000 0.026679 0.000000
# 6 0.000000 0.000000 0.000000 -0.005606 0.000000 0.051026
#
#
# Mechanical properties :
#
#
# Convention : Reuss Voigt Hill
#
# Bulk Modulus (GPa) = 44.85754 50.06126 47.45940
# Shear Modulus (GPa) = 25.51535 28.77175 27.14355
#
# Velocity S-wave (km/s) = 3.59049 3.81274 3.70328
# Velocity P-wave (km/s) = 6.31294 6.68402 6.50113
#
# Compressibility (1/GPa) = 0.02229280
#
# Stress axis : x y z
#
# Youngs Moduli (GPa) = 83.54006 83.03429 59.68019
#
# Poissons Ratio (x) = 0.19780 0.27248
# Poissons Ratio (y) = 0.19901 0.13670
# Poissons Ratio (z) = 0.38141 0.19020
#
# Static dielectric constant tensor:
#      x y z
#    x 3.907780 0.000000 0.289780 
#    y 0.000000 3.404140 0.000000 
#    z 0.289780 0.000000 3.866260 
# 
# 
# High freq. dielectric constant tensor:
#      x y z
#    x 1.791210 0.000000 0.013510 
#    y 0.000000 1.752870 0.000000 
#    z 0.013510 0.000000 1.778660 
# 
# From -- ./inp_files/72842.got.cif
#   From: 2010.06.25/outbox.cif.g09.slc.cpg/sg11_37_cif.got.tgz:72842.got - 2010.06.27 23:14:04.
