data_PCOD8075725
_publ_section_title
;
Structure prediction by ZEFSAII (Michael W. Deem and Ramdas Pophale) SiO2 
 PCOD8075725
Probable space group: P 21/M
;
_chemical_formula_sum "Si O2"
_cell_formula_units_Z 32
_cell_length_a 5.197471
_cell_length_b 28.299019
_cell_length_c 10.604585
_cell_angle_alpha 90.000000
_cell_angle_beta 88.722460
_cell_angle_gamma 90.000000
_cell_volume 1559.369966
_symmetry_space_group_name_H-M "P 21/M"
_symmetry_group_IT_number 11
_symmetry_cell_setting 'monoclinic'
loop_
_space_group_symop_operation_xyz
x,y,z
-x,1/2+y,-z
-x,-y,-z
x,1/2-y,z
loop_
_atom_site_type_symbol
_atom_site_label
_atom_site_fract_x
_atom_site_fract_y
_atom_site_fract_z
Si Si1 0.414881 0.195153 0.952422
Si Si2 0.351298 0.490267 0.130442
Si Si3 0.652359 0.923419 0.494570
Si Si4 0.909992 0.587229 0.744231
Si Si5 0.961556 0.077599 0.856933
Si Si6 0.469982 0.381463 0.750367
Si Si7 0.711022 0.487921 0.353555
Si Si8 0.905713 0.348077 0.062611
O O1 0.447038 0.250000 0.924522
O O2 0.635145 0.178637 0.048614
O O3 0.137257 0.185809 0.016799
O O4 0.442368 0.169784 0.816124
O O5 0.294033 0.433613 0.149189
O O6 0.090720 0.521974 0.127402
O O7 0.501595 0.506327 0.254870
O O8 0.500000 0.500000 0.000000
O O9 0.788112 0.898540 0.611579
O O10 0.585709 0.880645 0.399132
O O11 0.399034 0.951269 0.542152
O O12 0.821697 0.964641 0.421883
O O13 0.073654 0.540043 0.723508
O O14 0.053911 0.634245 0.793139
O O15 0.761318 0.100422 0.760184
O O16 0.259401 0.083966 0.817203
O O17 0.902208 0.102761 0.989164
#
# Coordination Sequence:
#
# PCOD8075725 Si02
#       8
#     4   4   4   4   4   4   4   4
#     4  10  22  43  69  95 115 144 188 254 329 387
#     4  11  23  32  53  79 124 165 212 254 286 334
#     4  10  21  35  55  81 121 171 214 246 281 341
#     4  11  24  35  54  84 124 170 210 247 289 350
#     4  10  21  36  54  84 118 158 201 241 300 331
#     4  10  21  37  62  87 114 152 197 252 298 359
#     4  10  21  36  52  80 120 175 219 242 285 332
#     4  10  23  38  64  90 124 151 191 250 307 376
#
# _framework density 20.521108999999999
#
# number of rings (size 3 to 8) (size 9 to 14) (size 15 to 20)
#    0.000    1.750    1.250    2.250   10.500    1.000 
#    0.000    0.000    0.000    1.500    0.000    0.000 
#    0.000    0.000    0.000    0.000    0.000    0.000 
#
# Total GULP energy -396566.184546 kJ/mol
# GULP energy per Si atom -12392.693267 kJ/mol
# Density = 2.047440 g / cm^3
# Si number density = 20.521109 Si / 1000 Ang^3
#
#
#
# Elastic Constant Matrix: (Units=GPa)
#
#
# Indices 1 2 3 4 5 6 
#
# 1 64.8112 15.7713 21.0582 0.0000 14.3890 0.0000
# 2 15.7713 82.7058 55.3796 0.0000 17.1713 0.0000
# 3 21.0582 55.3796 116.4852 0.0000 17.8650 0.0000
# 4 0.0000 0.0000 0.0000 16.8909 0.0000 4.4511
# 5 14.3890 17.1713 17.8650 0.0000 26.1001 0.0000
# 6 0.0000 0.0000 0.0000 4.4511 0.0000 24.0467
#
#
#
# Elastic Compliance Matrix: (Units=1/GPa)
#
#
# Indices 1 2 3 4 5 6 
#
# 1 0.017978 -0.000546 -0.001704 0.000000 -0.008385 0.000000
# 2 -0.000546 0.018830 -0.007821 0.000000 -0.006734 0.000000
# 3 -0.001704 -0.007821 0.013047 0.000000 -0.002846 0.000000
# 4 0.000000 0.000000 0.000000 0.062239 0.000000 -0.011521
# 5 -0.008385 -0.006734 -0.002846 0.000000 0.049315 0.000000
# 6 0.000000 0.000000 0.000000 -0.011521 0.000000 0.043718
#
#
# Mechanical properties :
#
#
# Convention : Reuss Voigt Hill
#
# Bulk Modulus (GPa) = 33.65528 49.82450 41.73989
# Shear Modulus (GPa) = 21.26081 24.86043 23.06062
#
# Velocity S-wave (km/s) = 3.22226 3.48437 3.35588
# Velocity P-wave (km/s) = 5.50271 6.36554 5.94979
#
# Compressibility (1/GPa) = 0.02971302
#
# Stress axis : x y z
#
# Youngs Moduli (GPa) = 55.62435 53.10668 76.64310
#
# Poissons Ratio (x) = 0.02900 0.13063
# Poissons Ratio (y) = 0.03037 0.59940
# Poissons Ratio (z) = 0.09481 0.41533
#
# Static dielectric constant tensor:
#      x y z
#    x 3.988040 0.000000 0.135780 
#    y 0.000000 3.403530 0.000000 
#    z 0.135780 0.000000 3.934480 
# 
# 
# High freq. dielectric constant tensor:
#      x y z
#    x 1.812940 0.000000 0.007630 
#    y 0.000000 1.750730 0.000000 
#    z 0.007630 0.000000 1.806580 
# 
# From -- ./inp_files/10857.got.cif
#   From: 2010.06.25/outbox.cif.g09.slc.cpg/sg11_6_cif.got.tgz:10857.got - 2010.06.27 23:14:04.
