data_PCOD8075028
_publ_section_title
;
Structure prediction by ZEFSAII (Michael W. Deem and Ramdas Pophale) SiO2 
 PCOD8075028
Probable space group: P 21/M
;
_chemical_formula_sum "Si O2"
_cell_formula_units_Z 32
_cell_length_a 12.674485
_cell_length_b 8.874236
_cell_length_c 31.087671
_cell_angle_alpha 90.000000
_cell_angle_beta 27.579612
_cell_angle_gamma 90.000000
_cell_volume 1618.871337
_symmetry_space_group_name_H-M "P 21/M"
_symmetry_group_IT_number 11
_symmetry_cell_setting 'monoclinic'
loop_
_space_group_symop_operation_xyz
x,y,z
-x,1/2+y,-z
-x,-y,-z
x,1/2-y,z
loop_
_atom_site_type_symbol
_atom_site_label
_atom_site_fract_x
_atom_site_fract_y
_atom_site_fract_z
Si Si1 0.096499 0.924327 0.209550
Si Si2 0.448514 0.924278 0.923161
Si Si3 0.174795 0.083910 0.407217
Si Si4 0.670398 0.428962 0.207072
Si Si5 0.579121 0.927888 0.152725
Si Si6 0.256141 0.074590 0.590198
Si Si7 0.104992 0.419303 0.335576
Si Si8 0.956942 0.424345 0.868870
O O1 0.170925 0.750000 0.182938
O O2 0.864725 0.950833 0.319977
O O3 0.050576 0.979850 0.177631
O O4 0.298467 0.017521 0.158415
O O5 0.463563 0.750000 0.905408
O O6 0.328714 0.010497 0.926323
O O7 0.292727 0.951141 0.021203
O O8 0.203201 0.250000 0.416364
O O9 0.427287 0.009959 0.313000
O O10 0.060414 0.088077 0.402099
O O11 0.000000 0.000000 0.500000
O O12 0.661021 0.250000 0.204187
O O13 0.715761 0.500474 0.143539
O O14 0.862974 0.474726 0.170863
O O15 0.608547 0.750000 0.144087
O O16 0.315413 0.973745 0.248546
O O17 0.276276 0.250000 0.572061
O O18 0.500000 0.000000 0.500000
O O19 0.117983 0.991963 0.603214
O O20 0.149377 0.250000 0.301572
O O21 0.031165 0.250000 0.845429
#
# Coordination Sequence:
#
# PCOD8075028 Si02
#       8
#     4   4   4   4   4   4   4   4
#     4  10  22  41  62  86 120 158 204 251 296 355
#     4  11  22  37  62  91 119 155 200 247 301 359
#     4   9  20  36  57  85 114 149 193 240 292 352
#     4  10  22  40  59  85 120 156 199 249 299 354
#     4  11  21  36  61  88 116 154 196 242 296 354
#     4  11  23  38  59  88 119 156 199 246 299 353
#     4  10  20  37  58  83 116 150 191 244 295 350
#     4  10  23  41  60  87 122 160 199 246 302 360
#
# _framework density 19.766859
#
# number of rings (size 3 to 8) (size 9 to 14) (size 15 to 20)
#    0.000    1.750    1.250    3.750    0.000    6.500 
#    0.000    3.750    0.000    0.000    0.000    0.000 
#    0.000    0.000    0.000    0.000    0.000    0.000 
#
# Total GULP energy -396840.785537 kJ/mol
# GULP energy per Si atom -12401.274548 kJ/mol
# Density = 1.972187 g / cm^3
# Si number density = 19.766859 Si / 1000 Ang^3
#
#
#
# Elastic Constant Matrix: (Units=GPa)
#
#
# Indices 1 2 3 4 5 6 
#
# 1 108.5692 46.5327 35.8305 0.0000 3.5226 0.0000
# 2 46.5327 107.3987 34.6859 0.0000 7.8505 0.0000
# 3 35.8305 34.6859 84.3268 0.0000 11.3475 0.0000
# 4 0.0000 0.0000 0.0000 30.8065 0.0000 -1.5688
# 5 3.5226 7.8505 11.3475 0.0000 28.7567 0.0000
# 6 0.0000 0.0000 0.0000 -1.5688 0.0000 36.1000
#
#
#
# Elastic Compliance Matrix: (Units=1/GPa)
#
#
# Indices 1 2 3 4 5 6 
#
# 1 0.012154 -0.004186 -0.003586 0.000000 0.001069 0.000000
# 2 -0.004186 0.012222 -0.003030 0.000000 -0.001628 0.000000
# 3 -0.003586 -0.003030 0.015269 0.000000 -0.004759 0.000000
# 4 0.000000 0.000000 0.000000 0.032533 0.000000 0.001414
# 5 0.001069 -0.001628 -0.004759 0.000000 0.036966 0.000000
# 6 0.000000 0.000000 0.000000 0.001414 0.000000 0.027762
#
#
# Mechanical properties :
#
#
# Convention : Reuss Voigt Hill
#
# Bulk Modulus (GPa) = 55.42782 59.37700 57.40241
# Shear Modulus (GPa) = 30.39097 31.34901 30.86999
#
# Velocity S-wave (km/s) = 3.92531 3.98670 3.95613
# Velocity P-wave (km/s) = 6.97465 7.16210 7.06900
#
# Compressibility (1/GPa) = 0.01804148
#
# Stress axis : x y z
#
# Youngs Moduli (GPa) = 82.28038 81.81873 65.49230
#
# Poissons Ratio (x) = 0.34247 0.23487
# Poissons Ratio (y) = 0.34440 0.19842
# Poissons Ratio (z) = 0.29508 0.24788
#
# Static dielectric constant tensor:
#      x y z
#    x 3.776190 0.000000 0.156220 
#    y 0.000000 3.695960 0.000000 
#    z 0.156220 0.000000 3.572200 
# 
# 
# High freq. dielectric constant tensor:
#      x y z
#    x 1.775700 0.000000 0.007910 
#    y 0.000000 1.775520 0.000000 
#    z 0.007910 0.000000 1.768850 
# 
# From -- ./inp_files/38284.got.cif
#   From: 2010.06.25/outbox.cif.g09.slc.cpg/sg11_20_cif.got.tgz:38284.got - 2010.06.27 23:14:04.
