data_PCOD8075548
_publ_section_title
;
Structure prediction by ZEFSAII (Michael W. Deem and Ramdas Pophale) SiO2 
 PCOD8075548
Probable space group: P 21/M
;
_chemical_formula_sum "Si O2"
_cell_formula_units_Z 32
_cell_length_a 12.415805
_cell_length_b 12.430670
_cell_length_c 12.007032
_cell_angle_alpha 90.000000
_cell_angle_beta 119.645095
_cell_angle_gamma 90.000000
_cell_volume 1610.563256
_symmetry_space_group_name_H-M "P 21/M"
_symmetry_group_IT_number 11
_symmetry_cell_setting 'monoclinic'
loop_
_space_group_symop_operation_xyz
x,y,z
-x,1/2+y,-z
-x,-y,-z
x,1/2-y,z
loop_
_atom_site_type_symbol
_atom_site_label
_atom_site_fract_x
_atom_site_fract_y
_atom_site_fract_z
Si Si1 0.237379 0.872792 0.970144
Si Si2 0.988381 0.511913 0.860411
Si Si3 0.610328 0.873181 0.420135
Si Si4 0.811498 0.499650 0.405155
Si Si5 0.383859 0.873143 0.822354
Si Si6 0.587803 0.510516 0.804922
Si Si7 0.993742 0.620224 0.340835
Si Si8 0.266496 0.370596 0.290093
O O1 0.229867 0.750000 0.001360
O O2 0.297395 0.936569 0.101960
O O3 0.097784 0.910390 0.873521
O O4 0.331021 0.892314 0.917140
O O5 0.001679 0.403761 0.790784
O O6 0.854425 0.556518 0.761049
O O7 0.000000 0.500000 0.000000
O O8 0.578742 0.750000 0.375860
O O9 0.736695 0.904066 0.423166
O O10 0.494847 0.944737 0.324311
O O11 0.635045 0.892711 0.562305
O O12 0.721481 0.405691 0.318184
O O13 0.894178 0.436965 0.537001
O O14 0.875974 0.560482 0.334817
O O15 0.419928 0.750000 0.820302
O O16 0.506457 0.945622 0.866512
O O17 0.653975 0.610781 0.780113
O O18 0.991796 0.750000 0.356963
O O19 0.216089 0.250000 0.265588
#
# Coordination Sequence:
#
# PCOD8075548 Si02
#       8
#     4   4   4   4   4   4   4   4
#     4  11  23  41  63  89 123 164 207 254 316 374
#     4  12  24  45  63  88 127 165 214 266 309 378
#     4  10  21  38  63  92 122 161 204 252 312 370
#     4  10  20  39  64  93 132 158 204 262 314 378
#     4  10  21  38  63  92 122 161 204 252 312 370
#     4  11  22  40  62  88 126 159 210 258 304 369
#     4  11  23  39  63  95 128 168 211 263 322 374
#     4  11  23  41  63  89 123 164 207 254 316 374
#
# _framework density 19.868825999999999
#
# number of rings (size 3 to 8) (size 9 to 14) (size 15 to 20)
#    0.000    1.250    3.750    2.625    0.000    1.000 
#    0.000    0.000    0.000    0.000    0.000    0.000 
#    0.000    0.000    0.000    0.000    0.000    0.000 
#
# Total GULP energy -396640.735297 kJ/mol
# GULP energy per Si atom -12395.022978 kJ/mol
# Density = 1.982360 g / cm^3
# Si number density = 19.868826 Si / 1000 Ang^3
#
#
#
# Elastic Constant Matrix: (Units=GPa)
#
#
# Indices 1 2 3 4 5 6 
#
# 1 83.9446 34.6710 13.8106 0.0000 1.0588 0.0000
# 2 34.6710 91.0381 43.4936 0.0000 -3.5299 0.0000
# 3 13.8106 43.4936 59.9733 0.0000 -16.3791 0.0000
# 4 0.0000 0.0000 0.0000 15.8478 0.0000 -8.8107
# 5 1.0588 -3.5299 -16.3791 0.0000 25.6836 0.0000
# 6 0.0000 0.0000 0.0000 -8.8107 0.0000 25.1905
#
#
#
# Elastic Compliance Matrix: (Units=1/GPa)
#
#
# Indices 1 2 3 4 5 6 
#
# 1 0.014194 -0.005746 0.000633 0.000000 -0.000971 0.000000
# 2 -0.005746 0.020116 -0.015071 0.000000 -0.006609 0.000000
# 3 0.000633 -0.015071 0.032555 0.000000 0.018664 0.000000
# 4 0.000000 0.000000 0.000000 0.078332 0.000000 0.027398
# 5 -0.000971 -0.006609 0.018664 0.000000 0.049969 0.000000
# 6 0.000000 0.000000 0.000000 0.027398 0.000000 0.049280
#
#
# Mechanical properties :
#
#
# Convention : Reuss Voigt Hill
#
# Bulk Modulus (GPa) = 37.73769 46.54517 42.14143
# Shear Modulus (GPa) = 17.02728 22.87643 19.95186
#
# Velocity S-wave (km/s) = 2.93061 3.39687 3.17232
# Velocity P-wave (km/s) = 5.52141 6.23394 5.88846
#
# Compressibility (1/GPa) = 0.02649871
#
# Stress axis : x y z
#
# Youngs Moduli (GPa) = 70.45318 49.71067 30.71728
#
# Poissons Ratio (x) = 0.28562 -0.01945
# Poissons Ratio (y) = 0.40481 0.46293
# Poissons Ratio (z) = -0.04461 0.74917
#
# Static dielectric constant tensor:
#      x y z
#    x 3.695340 0.000000 -0.035070 
#    y 0.000000 3.559140 0.000000 
#    z -0.035070 0.000000 3.623740 
# 
# 
# High freq. dielectric constant tensor:
#      x y z
#    x 1.787830 0.000000 0.000790 
#    y 0.000000 1.774340 0.000000 
#    z 0.000790 0.000000 1.777230 
# 
# From -- ./inp_files/35060.got.cif
#   From: 2010.06.25/outbox.cif.g09.slc.cpg/sg11_18_cif.got.tgz:35060.got - 2010.06.27 23:14:04.
