data_PCOD8075917
_publ_section_title
;
Structure prediction by ZEFSAII (Michael W. Deem and Ramdas Pophale) SiO2 
 PCOD8075917
Probable space group: P 21/M
;
_chemical_formula_sum "Si O2"
_cell_formula_units_Z 32
_cell_length_a 19.150041
_cell_length_b 14.702972
_cell_length_c 8.641731
_cell_angle_alpha 90.000000
_cell_angle_beta 37.333547
_cell_angle_gamma 90.000000
_cell_volume 1475.616432
_symmetry_space_group_name_H-M "P 21/M"
_symmetry_group_IT_number 11
_symmetry_cell_setting 'monoclinic'
loop_
_space_group_symop_operation_xyz
x,y,z
-x,1/2+y,-z
-x,-y,-z
x,1/2-y,z
loop_
_atom_site_type_symbol
_atom_site_label
_atom_site_fract_x
_atom_site_fract_y
_atom_site_fract_z
Si Si1 0.788784 0.649004 0.880048
Si Si2 0.178652 0.500157 0.592551
Si Si3 0.985878 0.936738 0.376741
Si Si4 0.816013 0.143749 0.166752
Si Si5 0.760239 0.646896 0.276730
Si Si6 0.626732 0.982504 0.986552
Si Si7 0.500728 0.646970 0.654458
Si Si8 0.448151 0.647458 0.396774
O O1 0.732696 0.750000 0.959100
O O2 0.904631 0.646422 0.573699
O O3 0.818793 0.632071 0.006543
O O4 0.704377 0.570281 0.973312
O O5 0.075181 0.492226 0.653642
O O6 0.158529 0.595414 0.714809
O O7 0.172585 0.417360 0.723979
O O8 0.304893 0.496672 0.292636
O O9 0.000000 0.000000 0.500000
O O10 0.106917 0.896677 0.107172
O O11 0.840848 0.250000 0.144284
O O12 0.685240 0.122118 0.349835
O O13 0.776465 0.750000 0.306328
O O14 0.625085 0.622755 0.504747
O O15 0.511481 0.920991 0.165078
O O16 0.595348 0.081625 0.105414
O O17 0.463917 0.750000 0.759881
O O18 0.508506 0.634485 0.456388
O O19 0.461725 0.750000 0.309608
#
# Coordination Sequence:
#
# PCOD8075917 Si02
#       8
#     4   4   4   4   4   4   4   4
#     4  10  21  39  66  97 125 162 220 278 323 374
#     4  11  26  42  64  97 129 168 214 270 327 389
#     4  11  25  45  70  93 123 166 222 278 324 385
#     4  11  25  44  66  93 134 178 214 258 324 394
#     4  10  21  39  64  96 133 167 208 270 335 382
#     4  11  22  36  64  94 129 175 214 270 314 375
#     4  10  21  36  59  95 133 173 215 261 319 387
#     4  10  21  37  63  96 131 169 215 262 315 387
#
# _framework density 21.685852000000001
#
# number of rings (size 3 to 8) (size 9 to 14) (size 15 to 20)
#    0.000    1.500    1.250    3.000    5.250    5.500 
#    0.000    5.000    0.000    0.000    0.000    0.000 
#    0.000    0.000    0.000    0.000    0.000    0.000 
#
# Total GULP energy -396864.173421 kJ/mol
# GULP energy per Si atom -12402.005419 kJ/mol
# Density = 2.163649 g / cm^3
# Si number density = 21.685852 Si / 1000 Ang^3
#
#
#
# Elastic Constant Matrix: (Units=GPa)
#
#
# Indices 1 2 3 4 5 6 
#
# 1 101.9172 48.9224 27.7634 0.0000 4.8979 0.0000
# 2 48.9224 131.8686 65.4726 0.0000 4.4446 0.0000
# 3 27.7634 65.4726 144.6518 0.0000 -5.6604 0.0000
# 4 0.0000 0.0000 0.0000 35.0859 0.0000 -0.2391
# 5 4.8979 4.4446 -5.6604 0.0000 31.5451 0.0000
# 6 0.0000 0.0000 0.0000 -0.2391 0.0000 18.7399
#
#
#
# Elastic Compliance Matrix: (Units=1/GPa)
#
#
# Indices 1 2 3 4 5 6 
#
# 1 0.012010 -0.004178 -0.000467 0.000000 -0.001360 0.000000
# 2 -0.004178 0.011387 -0.004421 0.000000 -0.001749 0.000000
# 3 -0.000467 -0.004421 0.009095 0.000000 0.002327 0.000000
# 4 0.000000 0.000000 0.000000 0.028504 0.000000 0.000364
# 5 -0.001360 -0.001749 0.002327 0.000000 0.032576 0.000000
# 6 0.000000 0.000000 0.000000 0.000364 0.000000 0.053367
#
#
# Mechanical properties :
#
#
# Convention : Reuss Voigt Hill
#
# Bulk Modulus (GPa) = 69.63636 73.63939 71.63787
# Shear Modulus (GPa) = 29.43663 32.82613 31.13138
#
# Velocity S-wave (km/s) = 3.68830 3.89487 3.79299
# Velocity P-wave (km/s) = 7.09361 7.36598 7.23108
#
# Compressibility (1/GPa) = 0.01436031
#
# Stress axis : x y z
#
# Youngs Moduli (GPa) = 83.26421 87.81956 109.95303
#
# Poissons Ratio (x) = 0.36689 0.05139
# Poissons Ratio (y) = 0.34785 0.48606
# Poissons Ratio (z) = 0.03892 0.38821
#
# Static dielectric constant tensor:
#      x y z
#    x 3.703300 0.000000 -0.084820 
#    y 0.000000 4.059630 0.000000 
#    z -0.084820 0.000000 4.210700 
# 
# 
# High freq. dielectric constant tensor:
#      x y z
#    x 1.836710 0.000000 -0.005130 
#    y 0.000000 1.859720 0.000000 
#    z -0.005130 0.000000 1.861560 
# 
# From -- ./inp_files/26794.got.cif
#   From: 2010.06.25/outbox.cif.g09.slc.cpg/sg11_14_cif.got.tgz:26794.got - 2010.06.27 23:14:04.
