data_PCOD8075703
_publ_section_title
;
Structure prediction by ZEFSAII (Michael W. Deem and Ramdas Pophale) SiO2 
 PCOD8075703
Probable space group: P 21/M
;
_chemical_formula_sum "Si O2"
_cell_formula_units_Z 32
_cell_length_a 21.054681
_cell_length_b 9.036868
_cell_length_c 26.492730
_cell_angle_alpha 90.000000
_cell_angle_beta 160.241780
_cell_angle_gamma 90.000000
_cell_volume 1704.027092
_symmetry_space_group_name_H-M "P 21/M"
_symmetry_group_IT_number 11
_symmetry_cell_setting 'monoclinic'
loop_
_space_group_symop_operation_xyz
x,y,z
-x,1/2+y,-z
-x,-y,-z
x,1/2-y,z
loop_
_atom_site_type_symbol
_atom_site_label
_atom_site_fract_x
_atom_site_fract_y
_atom_site_fract_z
Si Si1 0.628436 0.579157 0.957147
Si Si2 0.628697 0.581539 0.429941
Si Si3 0.622127 0.077266 0.133418
Si Si4 0.549977 0.418714 0.604094
Si Si5 0.991661 0.926318 0.439541
Si Si6 0.379513 0.575758 0.679806
Si Si7 0.210192 0.918645 0.303463
Si Si8 0.008141 0.076503 0.234228
O O1 0.684965 0.750000 0.995264
O O2 0.473040 0.554891 0.883642
O O3 0.538431 0.519026 0.837690
O O4 0.815037 0.489483 0.110912
O O5 0.652121 0.750000 0.429877
O O6 0.452695 0.562694 0.337137
O O7 0.579839 0.485913 0.344966
O O8 0.821581 0.528282 0.601525
O O9 0.651008 0.250000 0.142603
O O10 0.819540 0.993190 0.279718
O O11 0.500000 0.000000 0.000000
O O12 0.479125 0.250000 0.538794
O O13 0.756315 0.442058 0.732342
O O14 0.409418 0.540380 0.476976
O O15 0.973943 0.750000 0.432067
O O16 0.175449 0.974145 0.546114
O O17 0.000000 0.000000 0.500000
O O18 0.389765 0.750000 0.684654
O O19 0.158644 0.750000 0.277246
O O20 0.046328 0.017664 0.205612
O O21 0.987680 0.250000 0.216006
#
# Coordination Sequence:
#
# PCOD8075703 Si02
#       8
#     4   4   4   4   4   4   4   4
#     4  10  22  41  58  76 108 146 181 222 272 326
#     4   9  19  34  52  80 112 141 176 223 270 315
#     4  11  24  42  61  86 115 145 183 231 281 334
#     4   8  15  28  46  73 109 140 176 223 267 315
#     4  11  22  40  62  85 111 146 187 231 278 330
#     4  10  22  39  57  79 108 143 182 222 268 324
#     4   9  15  26  48  75 104 143 179 216 270 322
#     4  10  21  35  52  80 113 142 180 227 271 322
#
# _framework density 18.779045
#
# number of rings (size 3 to 8) (size 9 to 14) (size 15 to 20)
#    0.000    2.250    1.250    2.250    1.750    5.500 
#    0.000    0.000    0.000    0.750    0.000    0.000 
#    0.000    0.000    0.000    0.000    0.000    0.000 
#
# Total GULP energy -396649.125086 kJ/mol
# GULP energy per Si atom -12395.285159 kJ/mol
# Density = 1.873630 g / cm^3
# Si number density = 18.779045 Si / 1000 Ang^3
#
#
#
# Elastic Constant Matrix: (Units=GPa)
#
#
# Indices 1 2 3 4 5 6 
#
# 1 86.1621 24.2666 9.5449 0.0000 -14.8691 0.0000
# 2 24.2666 59.6865 17.5763 0.0000 -4.1161 0.0000
# 3 9.5449 17.5763 46.7823 0.0000 -15.4612 0.0000
# 4 0.0000 0.0000 0.0000 29.0112 0.0000 0.3047
# 5 -14.8691 -4.1161 -15.4612 0.0000 24.2699 0.0000
# 6 0.0000 0.0000 0.0000 0.3047 0.0000 34.2398
#
#
#
# Elastic Compliance Matrix: (Units=1/GPa)
#
#
# Indices 1 2 3 4 5 6 
#
# 1 0.014675 -0.006020 0.002409 0.000000 0.009504 0.000000
# 2 -0.006020 0.021361 -0.008637 0.000000 -0.005568 0.000000
# 3 0.002409 -0.008637 0.030569 0.000000 0.019485 0.000000
# 4 0.000000 0.000000 0.000000 0.034473 0.000000 -0.000307
# 5 0.009504 -0.005568 0.019485 0.000000 0.058495 0.000000
# 6 0.000000 0.000000 0.000000 -0.000307 0.000000 0.029208
#
#
# Mechanical properties :
#
#
# Convention : Reuss Voigt Hill
#
# Bulk Modulus (GPa) = 23.74882 32.82294 28.28588
# Shear Modulus (GPa) = 21.99597 26.92039 24.45818
#
# Velocity S-wave (km/s) = 3.42614 3.79031 3.61282
# Velocity P-wave (km/s) = 5.32214 6.05572 5.70074
#
# Compressibility (1/GPa) = 0.04210736
#
# Stress axis : x y z
#
# Youngs Moduli (GPa) = 68.14371 46.81346 32.71306
#
# Poissons Ratio (x) = 0.28183 -0.07880
# Poissons Ratio (y) = 0.41024 0.28256
# Poissons Ratio (z) = -0.16414 0.40435
#
# Static dielectric constant tensor:
#      x y z
#    x 3.803500 0.000000 0.278510 
#    y 0.000000 4.124070 0.000000 
#    z 0.278510 0.000000 3.372760 
# 
# 
# High freq. dielectric constant tensor:
#      x y z
#    x 1.742150 0.000000 0.014180 
#    y 0.000000 1.733950 0.000000 
#    z 0.014180 0.000000 1.695750 
# 
# From -- ./inp_files/72124.got.cif
#   From: 2010.06.25/outbox.cif.g09.slc.cpg/sg11_37_cif.got.tgz:72124.got - 2010.06.27 23:14:04.
