data_PCOD8075003
_publ_section_title
;
Structure prediction by ZEFSAII (Michael W. Deem and Ramdas Pophale) SiO2 
 PCOD8075003
Probable space group: P 21/M
;
_chemical_formula_sum "Si O2"
_cell_formula_units_Z 24
_cell_length_a 17.215305
_cell_length_b 14.752006
_cell_length_c 8.246002
_cell_angle_alpha 90.000000
_cell_angle_beta 32.842726
_cell_angle_gamma 90.000000
_cell_volume 1135.734380
_symmetry_space_group_name_H-M "P 21/M"
_symmetry_group_IT_number 11
_symmetry_cell_setting 'monoclinic'
loop_
_space_group_symop_operation_xyz
x,y,z
-x,1/2+y,-z
-x,-y,-z
x,1/2-y,z
loop_
_atom_site_type_symbol
_atom_site_label
_atom_site_fract_x
_atom_site_fract_y
_atom_site_fract_z
Si Si1 0.416991 0.447488 0.788497
Si Si2 0.729175 0.250000 0.223916
Si Si3 0.586757 0.750000 0.325106
Si Si4 0.120816 0.750000 0.352948
Si Si5 0.689821 0.069587 0.485800
Si Si6 0.198919 0.565211 0.345857
Si Si7 0.860540 0.750000 0.037001
Si Si8 0.076228 0.052829 0.009726
O O1 0.500000 0.500000 0.500000
O O2 0.370824 0.343914 0.836559
O O3 0.521154 0.446784 0.761886
O O4 0.272347 0.498560 0.089440
O O5 0.586797 0.250000 0.356132
O O6 0.735510 0.165573 0.332846
O O7 0.868375 0.250000 0.862570
O O8 0.688452 0.750000 0.306337
O O9 0.213178 0.666189 0.255980
O O10 0.955106 0.750000 0.703845
O O11 0.728434 0.060781 0.605383
O O12 0.769792 0.993238 0.234504
O O13 0.029576 0.540136 0.651253
O O14 0.902194 0.660222 0.066310
O O15 0.000000 0.000000 0.000000
#
# Coordination Sequence:
#
# PCOD8075003 Si02
#       8
#     4   2   2   2   4   4   2   4
#     4  11  22  37  58  83 116 152 192 241 286 340
#     4  10  21  37  58  85 116 148 194 243 285 339
#     4  10  22  37  53  81 115 149 185 236 289 336
#     4  10  21  35  56  83 108 145 191 236 288 340
#     4  10  20  37  58  83 113 152 192 236 288 343
#     4  10  20  37  57  81 112 149 191 237 288 345
#     4  10  20  37  57  81 117 152 188 237 292 345
#     4   9  20  36  57  84 113 149 192 236 286 344
#
# _framework density 21.131701
#
# number of rings (size 3 to 8) (size 9 to 14) (size 15 to 20)
#    0.000    2.000    0.000    4.000    0.000    3.333 
#    0.000    7.500    0.000    2.000    0.000    0.000 
#    0.000    0.000    0.000    0.000    0.000    0.000 
#
# Total GULP energy -297362.667020 kJ/mol
# GULP energy per Si atom -12390.111126 kJ/mol
# Density = 2.108360 g / cm^3
# Si number density = 21.131701 Si / 1000 Ang^3
#
#
#
# Elastic Constant Matrix: (Units=GPa)
#
#
# Indices 1 2 3 4 5 6 
#
# 1 46.5691 16.3658 9.3113 0.0000 -1.5844 0.0000
# 2 16.3658 179.8394 62.1058 0.0000 0.6019 0.0000
# 3 9.3113 62.1058 74.6248 0.0000 10.2924 0.0000
# 4 0.0000 0.0000 0.0000 35.8697 0.0000 -0.0014
# 5 -1.5844 0.6019 10.2924 0.0000 29.5130 0.0000
# 6 0.0000 0.0000 0.0000 -0.0014 0.0000 21.8727
#
#
#
# Elastic Compliance Matrix: (Units=1/GPa)
#
#
# Indices 1 2 3 4 5 6 
#
# 1 0.022406 -0.001389 -0.001901 0.000000 0.001894 0.000000
# 2 -0.001389 0.008029 -0.006803 0.000000 0.002134 0.000000
# 3 -0.001901 -0.006803 0.020269 0.000000 -0.007032 0.000000
# 4 0.000000 0.000000 0.000000 0.027879 0.000000 0.000002
# 5 0.001894 0.002134 -0.007032 0.000000 0.036394 0.000000
# 6 0.000000 0.000000 0.000000 0.000002 0.000000 0.045719
#
#
# Mechanical properties :
#
#
# Convention : Reuss Voigt Hill
#
# Bulk Modulus (GPa) = 32.76731 52.95545 42.86138
# Shear Modulus (GPa) = 26.17038 31.66779 28.91909
#
# Velocity S-wave (km/s) = 3.52297 3.87536 3.70336
# Velocity P-wave (km/s) = 5.66465 6.71854 6.21398
#
# Compressibility (1/GPa) = 0.03051822
#
# Stress axis : x y z
#
# Youngs Moduli (GPa) = 44.63072 124.54519 49.33530
#
# Poissons Ratio (x) = 0.17297 0.09379
# Poissons Ratio (y) = 0.06198 0.33564
# Poissons Ratio (z) = 0.08485 0.84732
#
# Static dielectric constant tensor:
#      x y z
#    x 3.597610 0.000000 -0.329690 
#    y 0.000000 4.163700 0.000000 
#    z -0.329690 0.000000 4.212260 
# 
# 
# High freq. dielectric constant tensor:
#      x y z
#    x 1.808510 0.000000 -0.016800 
#    y 0.000000 1.849110 0.000000 
#    z -0.016800 0.000000 1.824710 
# 
# From -- ./inp_files/12517.got.cif
#   From: 2010.06.25/outbox.cif.g09.slc.cpg/sg11_7_cif.got.tgz:12517.got - 2010.06.27 23:14:04.
