data_PCOD8075578
_publ_section_title
;
Structure prediction by ZEFSAII (Michael W. Deem and Ramdas Pophale) SiO2 
 PCOD8075578
Probable space group: P 21/M
;
_chemical_formula_sum "Si O2"
_cell_formula_units_Z 24
_cell_length_a 5.007532
_cell_length_b 14.588084
_cell_length_c 16.458796
_cell_angle_alpha 90.000000
_cell_angle_beta 91.149128
_cell_angle_gamma 90.000000
_cell_volume 1202.078137
_symmetry_space_group_name_H-M "P 21/M"
_symmetry_group_IT_number 11
_symmetry_cell_setting 'monoclinic'
loop_
_space_group_symop_operation_xyz
x,y,z
-x,1/2+y,-z
-x,-y,-z
x,1/2-y,z
loop_
_atom_site_type_symbol
_atom_site_label
_atom_site_fract_x
_atom_site_fract_y
_atom_site_fract_z
Si Si1 0.252326 0.545815 0.542662
Si Si2 0.662762 0.349215 0.965140
Si Si3 0.695900 0.750000 0.373729
Si Si4 0.773397 0.944722 0.292468
Si Si5 0.139982 0.084632 0.044651
Si Si6 0.267800 0.970881 0.186522
Si Si7 0.205246 0.750000 0.484147
O O1 0.500000 0.500000 0.500000
O O2 0.257903 0.518885 0.636681
O O3 0.252176 0.656996 0.536539
O O4 0.000000 0.500000 0.500000
O O5 0.545445 0.250000 0.945418
O O6 0.428059 0.405071 0.006036
O O7 0.921729 0.336362 0.026716
O O8 0.753462 0.391683 0.880535
O O9 0.726570 0.840503 0.319854
O O10 0.399587 0.750000 0.408236
O O11 0.903908 0.750000 0.449256
O O12 0.567863 0.974257 0.221555
O O13 0.071823 0.950480 0.259789
O O14 0.189038 0.066474 0.141100
O O15 0.000000 0.000000 0.000000
#
# Coordination Sequence:
#
# PCOD8075578 Si02
#       7
#     4   4   2   4   4   4   2
#     4  12  23  43  66  94 123 171 217 256 310 379
#     4  11  22  37  63  93 118 157 210 260 302 367
#     4  12  24  38  64  98 126 160 200 264 328 378
#     4  12  24  38  62  95 131 159 203 257 324 379
#     4  10  20  40  61  83 118 166 205 234 297 376
#     4  11  23  39  61  89 127 161 194 252 319 378
#     4  12  22  44  68  90 122 166 224 264 298 380
#
# _framework density 19.965425
#
# number of rings (size 3 to 8) (size 9 to 14) (size 15 to 20)
#    0.000    0.667    3.333    7.500    2.333    0.000 
#    0.000    0.000   11.000    0.000    0.000    0.000 
#    0.000    0.000    0.000    0.000    0.000    0.000 
#
# Total GULP energy -297511.983201 kJ/mol
# GULP energy per Si atom -12396.332633 kJ/mol
# Density = 1.991998 g / cm^3
# Si number density = 19.965425 Si / 1000 Ang^3
#
#
#
# Elastic Constant Matrix: (Units=GPa)
#
#
# Indices 1 2 3 4 5 6 
#
# 1 104.7227 29.9693 27.0626 0.0000 -4.6099 0.0000
# 2 29.9693 116.3691 50.3204 0.0000 -2.8521 0.0000
# 3 27.0626 50.3204 100.8999 0.0000 -1.1068 0.0000
# 4 0.0000 0.0000 0.0000 16.2349 0.0000 3.1443
# 5 -4.6099 -2.8521 -1.1068 0.0000 49.1797 0.0000
# 6 0.0000 0.0000 0.0000 3.1443 0.0000 20.5864
#
#
#
# Elastic Compliance Matrix: (Units=1/GPa)
#
#
# Indices 1 2 3 4 5 6 
#
# 1 0.010618 -0.001895 -0.001893 0.000000 0.000843 0.000000
# 2 -0.001895 0.011307 -0.005127 0.000000 0.000363 0.000000
# 3 -0.001893 -0.005127 0.012974 0.000000 -0.000183 0.000000
# 4 0.000000 0.000000 0.000000 0.063473 0.000000 -0.009695
# 5 0.000843 0.000363 -0.000183 0.000000 0.020430 0.000000
# 6 0.000000 0.000000 0.000000 -0.009695 0.000000 0.050057
#
#
# Mechanical properties :
#
#
# Convention : Reuss Voigt Hill
#
# Bulk Modulus (GPa) = 58.58999 59.63293 59.11146
# Shear Modulus (GPa) = 25.99049 31.50948 28.74999
#
# Velocity S-wave (km/s) = 3.61193 3.97697 3.79884
# Velocity P-wave (km/s) = 6.84135 7.14292 6.99376
#
# Compressibility (1/GPa) = 0.01706776
#
# Stress axis : x y z
#
# Youngs Moduli (GPa) = 94.18190 88.43893 77.08011
#
# Poissons Ratio (x) = 0.16759 0.14595
# Poissons Ratio (y) = 0.17848 0.39518
# Poissons Ratio (z) = 0.17833 0.45341
#
# Static dielectric constant tensor:
#      x y z
#    x 4.614780 0.000000 0.598280 
#    y 0.000000 4.256700 0.000000 
#    z 0.598280 0.000000 3.974450 
# 
# 
# High freq. dielectric constant tensor:
#      x y z
#    x 1.806870 0.000000 0.001980 
#    y 0.000000 1.775800 0.000000 
#    z 0.001980 0.000000 1.769590 
# 
# From -- ./inp_files/45748.got.cif
#   From: 2010.06.25/outbox.cif.g09.slc.cpg/sg11_23_cif.got.tgz:45748.got - 2010.06.27 23:14:04.
