data_PCOD8075106
_publ_section_title
;
Structure prediction by ZEFSAII (Michael W. Deem and Ramdas Pophale) SiO2 
 PCOD8075106
Probable space group: P 21/M
;
_chemical_formula_sum "Si O2"
_cell_formula_units_Z 32
_cell_length_a 27.752596
_cell_length_b 8.537922
_cell_length_c 21.704754
_cell_angle_alpha 90.000000
_cell_angle_beta 161.472857
_cell_angle_gamma 90.000000
_cell_volume 1634.186127
_symmetry_space_group_name_H-M "P 21/M"
_symmetry_group_IT_number 11
_symmetry_cell_setting 'monoclinic'
loop_
_space_group_symop_operation_xyz
x,y,z
-x,1/2+y,-z
-x,-y,-z
x,1/2-y,z
loop_
_atom_site_type_symbol
_atom_site_label
_atom_site_fract_x
_atom_site_fract_y
_atom_site_fract_z
Si Si1 0.917991 0.435012 0.991362
Si Si2 0.083700 0.435603 0.422761
Si Si3 0.841662 0.063659 0.033277
Si Si4 0.777859 0.934462 0.703514
Si Si5 0.073079 0.931501 0.648225
Si Si6 0.394836 0.067232 0.050719
Si Si7 0.458947 0.935594 0.258865
Si Si8 0.430239 0.436812 0.851813
O O1 0.917814 0.250000 0.995432
O O2 0.798490 0.488649 0.795252
O O3 0.861999 0.505121 0.988982
O O4 0.088523 0.493477 0.180750
O O5 0.071513 0.250000 0.408579
O O6 0.256446 0.488965 0.634430
O O7 0.988998 0.498266 0.249250
O O8 0.004702 0.509954 0.386880
O O9 0.837410 0.250000 0.026607
O O10 0.685313 0.005182 0.875839
O O11 0.789051 0.750000 0.725244
O O12 0.613312 0.985327 0.480047
O O13 0.039140 0.750000 0.607101
O O14 0.000000 0.000000 0.500000
O O15 0.249282 0.961813 0.864129
O O16 0.354700 0.250000 0.000304
O O17 0.468287 0.022281 0.204852
O O18 0.501056 0.024336 0.122964
O O19 0.450373 0.750000 0.237006
O O20 0.452493 0.250000 0.875271
O O21 0.500000 0.500000 0.000000
#
# Coordination Sequence:
#
# PCOD8075106 Si02
#       8
#     4   4   4   4   4   4   4   4
#     4   9  18  33  56  82 112 148 185 229 281 341
#     4   9  19  35  59  86 111 144 191 240 291 345
#     4   9  17  33  57  84 110 142 188 236 284 344
#     4   9  19  34  55  83 113 147 189 232 281 345
#     4  11  21  38  63  89 116 152 193 242 296 352
#     4  12  25  40  57  85 122 159 199 242 290 352
#     4  10  20  37  60  83 111 150 195 242 290 340
#     4  11  23  40  63  88 117 153 194 246 301 357
#
# _framework density 19.581613999999998
#
# number of rings (size 3 to 8) (size 9 to 14) (size 15 to 20)
#    0.000    2.000    1.250    2.625    1.750    2.000 
#    0.000    2.500    0.000    0.000    0.000    0.000 
#    0.000    0.000    0.000    0.000    0.000    0.000 
#
# Total GULP energy -396726.993983 kJ/mol
# GULP energy per Si atom -12397.718562 kJ/mol
# Density = 1.953704 g / cm^3
# Si number density = 19.581614 Si / 1000 Ang^3
#
#
#
# Elastic Constant Matrix: (Units=GPa)
#
#
# Indices 1 2 3 4 5 6 
#
# 1 186.6257 19.0107 78.9523 0.0000 -13.5853 0.0000
# 2 19.0107 29.1406 11.7966 0.0000 -5.6391 0.0000
# 3 78.9523 11.7966 159.1472 0.0000 -8.6947 0.0000
# 4 0.0000 0.0000 0.0000 -42.0911 0.0000 -8.7726
# 5 -13.5853 -5.6391 -8.6947 0.0000 32.7880 0.0000
# 6 0.0000 0.0000 0.0000 -8.7726 0.0000 26.7099
#
#
#
# Elastic Compliance Matrix: (Units=1/GPa)
#
#
# Indices 1 2 3 4 5 6 
#
# 1 0.007153 -0.003051 -0.003236 0.000000 0.001581 0.000000
# 2 -0.003051 0.037672 -0.001009 0.000000 0.004948 0.000000
# 3 -0.003236 -0.001009 0.007997 0.000000 0.000606 0.000000
# 4 0.000000 0.000000 0.000000 -0.022236 0.000000 -0.007303
# 5 0.001581 0.004948 0.000606 0.000000 0.032166 0.000000
# 6 0.000000 0.000000 0.000000 -0.007303 0.000000 0.035041
#
#
# Mechanical properties :
#
#
# Convention : Reuss Voigt Hill
#
# Bulk Modulus (GPa) = 26.15652 66.04806 46.10229
# Shear Modulus (GPa) = 39.95919 21.15831 30.55875
#
# Velocity S-wave (km/s) = 4.52225 3.29069 3.95471
# Velocity P-wave (km/s) = 6.37608 6.94558 6.66691
#
# Compressibility (1/GPa) = 0.03823139
#
# Stress axis : x y z
#
# Youngs Moduli (GPa) = 139.79691 26.54468 125.04936
#
# Poissons Ratio (x) = 0.08098 0.40468
# Poissons Ratio (y) = 0.42646 0.12614
# Poissons Ratio (z) = 0.45241 0.02678
#
# Static dielectric constant tensor:
#      x y z
#    x 3.948770 0.000000 -0.184460 
#    y 0.000000 3.263300 0.000000 
#    z -0.184460 0.000000 3.838980 
# 
# 
# High freq. dielectric constant tensor:
#      x y z
#    x 1.778440 0.000000 -0.001720 
#    y 0.000000 1.733840 0.000000 
#    z -0.001720 0.000000 1.774040 
# 
# From -- ./inp_files/67267.got.cif
#   From: 2010.06.25/outbox.cif.g09.slc.cpg/sg11_34_cif.got.tgz:67267.got - 2010.06.27 23:14:04.
