data_PCOD8075221
_publ_section_title
;
Structure prediction by ZEFSAII (Michael W. Deem and Ramdas Pophale) SiO2 
 PCOD8075221
Probable space group: P 21/M
;
_chemical_formula_sum "Si O2"
_cell_formula_units_Z 32
_cell_length_a 11.466350
_cell_length_b 20.579101
_cell_length_c 8.835182
_cell_angle_alpha 90.000000
_cell_angle_beta 49.570611
_cell_angle_gamma 90.000000
_cell_volume 1586.971623
_symmetry_space_group_name_H-M "P 21/M"
_symmetry_group_IT_number 11
_symmetry_cell_setting 'monoclinic'
loop_
_space_group_symop_operation_xyz
x,y,z
-x,1/2+y,-z
-x,-y,-z
x,1/2-y,z
loop_
_atom_site_type_symbol
_atom_site_label
_atom_site_fract_x
_atom_site_fract_y
_atom_site_fract_z
Si Si1 0.367200 0.322902 0.452166
Si Si2 0.027124 0.176736 0.667320
Si Si3 0.489808 0.375945 0.053901
Si Si4 0.206277 0.567880 0.158999
Si Si5 0.019988 0.321396 0.321304
Si Si6 0.289649 0.623233 0.381696
Si Si7 0.242128 0.071197 0.047345
Si Si8 0.522671 0.570730 0.414208
O O1 0.404116 0.250000 0.478782
O O2 0.186047 0.336861 0.619614
O O3 0.418149 0.325841 0.232864
O O4 0.458981 0.375333 0.471738
O O5 0.966693 0.250000 0.753632
O O6 0.061217 0.169701 0.461497
O O7 0.901214 0.123728 0.825475
O O8 0.356274 0.419750 0.093434
O O9 0.614427 0.420865 0.038450
O O10 0.583131 0.341046 0.835189
O O11 0.197812 0.571750 0.350576
O O12 0.155245 0.497491 0.143020
O O13 0.069414 0.250000 0.223118
O O14 0.114290 0.373138 0.144300
O O15 0.836769 0.327303 0.447844
O O16 0.368412 0.586511 0.453065
O O17 0.328955 0.072280 0.815866
O O18 0.500000 0.500000 0.500000
#
# Coordination Sequence:
#
# PCOD8075221 Si02
#       8
#     4   4   4   4   4   4   4   4
#     4  11  23  39  60  87 121 160 201 245 300 364
#     4   9  19  37  58  88 122 154 191 249 305 352
#     4   9  19  35  59  89 115 148 197 251 291 352
#     4   9  19  35  61  91 117 147 198 253 298 351
#     4  10  20  37  61  89 118 150 201 255 300 349
#     4   8  21  38  61  89 117 155 194 247 308 346
#     4  11  21  37  63  90 118 156 206 249 299 354
#     4  11  25  41  61  87 127 166 197 250 301 367
#
# _framework density 20.164193000000001
#
# number of rings (size 3 to 8) (size 9 to 14) (size 15 to 20)
#    0.750    1.500    1.250    1.125    1.750    5.000 
#    0.000    6.250    0.000    0.000    0.000    0.000 
#    0.000    0.000    0.000    0.000    0.000    0.000 
#
# Total GULP energy -396539.497062 kJ/mol
# GULP energy per Si atom -12391.859283 kJ/mol
# Density = 2.011830 g / cm^3
# Si number density = 20.164193 Si / 1000 Ang^3
#
#
#
# Elastic Constant Matrix: (Units=GPa)
#
#
# Indices 1 2 3 4 5 6 
#
# 1 75.8505 52.3153 28.1422 0.0000 -6.3334 0.0000
# 2 52.3153 156.7825 57.2865 0.0000 -12.3587 0.0000
# 3 28.1422 57.2865 77.3107 0.0000 -9.0273 0.0000
# 4 0.0000 0.0000 0.0000 24.3102 0.0000 -7.3351
# 5 -6.3334 -12.3587 -9.0273 0.0000 27.3412 0.0000
# 6 0.0000 0.0000 0.0000 -7.3351 0.0000 25.9431
#
#
#
# Elastic Compliance Matrix: (Units=1/GPa)
#
#
# Indices 1 2 3 4 5 6 
#
# 1 0.017586 -0.004789 -0.002735 0.000000 0.001006 0.000000
# 2 -0.004789 0.010145 -0.005583 0.000000 0.001633 0.000000
# 3 -0.002735 -0.005583 0.018409 0.000000 0.002921 0.000000
# 4 0.000000 0.000000 0.000000 0.044972 0.000000 0.012715
# 5 0.001006 0.001633 0.002921 0.000000 0.038510 0.000000
# 6 0.000000 0.000000 0.000000 0.012715 0.000000 0.042141
#
#
# Mechanical properties :
#
#
# Convention : Reuss Voigt Hill
#
# Bulk Modulus (GPa) = 50.19106 65.04797 57.61951
# Shear Modulus (GPa) = 24.43552 26.99888 25.71720
#
# Velocity S-wave (km/s) = 3.48491 3.66314 3.57513
# Velocity P-wave (km/s) = 6.41389 7.08665 6.75865
#
# Compressibility (1/GPa) = 0.01992387
#
# Stress axis : x y z
#
# Youngs Moduli (GPa) = 56.86358 98.56839 54.32185
#
# Poissons Ratio (x) = 0.47208 0.14858
# Poissons Ratio (y) = 0.27234 0.30330
# Poissons Ratio (z) = 0.15553 0.55035
#
# Static dielectric constant tensor:
#      x y z
#    x 3.510540 0.000000 -0.175220 
#    y 0.000000 3.504370 0.000000 
#    z -0.175220 0.000000 3.471760 
# 
# 
# High freq. dielectric constant tensor:
#      x y z
#    x 1.775810 0.000000 -0.017520 
#    y 0.000000 1.775760 0.000000 
#    z -0.017520 0.000000 1.769330 
# 
# From -- ./inp_files/19377.got.cif
#   From: 2010.06.25/outbox.cif.g09.slc.cpg/sg11_10_cif.got.tgz:19377.got - 2010.06.27 23:14:04.
