data_PCOD8075965
_publ_section_title
;
Structure prediction by ZEFSAII (Michael W. Deem and Ramdas Pophale) SiO2 
 PCOD8075965
Probable space group: P 21/M
;
_chemical_formula_sum "Si O2"
_cell_formula_units_Z 24
_cell_length_a 14.041420
_cell_length_b 9.218506
_cell_length_c 10.072681
_cell_angle_alpha 90.000000
_cell_angle_beta 89.788051
_cell_angle_gamma 90.000000
_cell_volume 1303.808119
_symmetry_space_group_name_H-M "P 21/M"
_symmetry_group_IT_number 11
_symmetry_cell_setting 'monoclinic'
loop_
_space_group_symop_operation_xyz
x,y,z
-x,1/2+y,-z
-x,-y,-z
x,1/2-y,z
loop_
_atom_site_type_symbol
_atom_site_label
_atom_site_fract_x
_atom_site_fract_y
_atom_site_fract_z
Si Si1 0.901585 0.080301 0.475748
Si Si2 0.606271 0.581402 0.134817
Si Si3 0.798583 0.915258 0.247594
Si Si4 0.604177 0.082702 0.866327
Si Si5 0.096377 0.082931 0.026876
Si Si6 0.202092 0.917127 0.255552
O O1 0.922550 0.250000 0.461030
O O2 0.829030 0.046368 0.595229
O O3 0.853956 0.024199 0.341754
O O4 0.000000 0.000000 0.500000
O O5 0.612727 0.750000 0.100283
O O6 0.685842 0.543875 0.245569
O O7 0.500675 0.537425 0.188181
O O8 0.630644 0.501473 0.998804
O O9 0.815152 0.750000 0.296463
O O10 0.834598 0.935610 0.098060
O O11 0.603639 0.250000 0.906442
O O12 0.684603 0.050342 0.755400
O O13 0.072819 0.250000 0.055303
O O14 0.144505 0.018002 0.156763
O O15 0.000000 0.000000 0.000000
O O16 0.179274 0.750000 0.220118
#
# Coordination Sequence:
#
# PCOD8075965 Si02
#       6
#     4   4   4   4   4   4
#     4  11  24  40  57  77 107 146 187 226 271 325
#     4   9  17  32  54  82 112 141 175 218 268 321
#     4  10  21  37  55  79 111 143 179 222 269 321
#     4   9  17  31  55  82 110 142 175 217 271 323
#     4  11  22  35  54  80 108 138 178 228 274 322
#     4  10  21  37  55  80 110 141 179 225 273 322
#
# _framework density 18.407616999999998
#
# number of rings (size 3 to 8) (size 9 to 14) (size 15 to 20)
#    0.000    2.000    1.667    2.000    0.000    7.333 
#    0.000    0.833    0.000    0.000    0.000    0.000 
#    0.000    0.000    0.000    0.000    0.000    0.000 
#
# Total GULP energy -297579.337077 kJ/mol
# GULP energy per Si atom -12399.139045 kJ/mol
# Density = 1.836572 g / cm^3
# Si number density = 18.407617 Si / 1000 Ang^3
#
#
#
# Elastic Constant Matrix: (Units=GPa)
#
#
# Indices 1 2 3 4 5 6 
#
# 1 120.0878 41.9196 20.4320 0.0000 3.3028 0.0000
# 2 41.9196 76.5325 30.5297 0.0000 4.4191 0.0000
# 3 20.4320 30.5297 48.7218 0.0000 4.2885 0.0000
# 4 0.0000 0.0000 0.0000 29.7754 0.0000 3.9784
# 5 3.3028 4.4191 4.2885 0.0000 30.5134 0.0000
# 6 0.0000 0.0000 0.0000 3.9784 0.0000 27.7753
#
#
#
# Elastic Compliance Matrix: (Units=1/GPa)
#
#
# Indices 1 2 3 4 5 6 
#
# 1 0.010337 -0.005237 -0.001035 0.000000 -0.000215 0.000000
# 2 -0.005237 0.020104 -0.010323 0.000000 -0.000894 0.000000
# 3 -0.001035 -0.010323 0.027627 0.000000 -0.002276 0.000000
# 4 0.000000 0.000000 0.000000 0.034240 0.000000 -0.004904
# 5 -0.000215 -0.000894 -0.002276 0.000000 0.033245 0.000000
# 6 0.000000 0.000000 0.000000 -0.004904 0.000000 0.036706
#
#
# Mechanical properties :
#
#
# Convention : Reuss Voigt Hill
#
# Bulk Modulus (GPa) = 40.19251 47.90051 44.04651
# Shear Modulus (GPa) = 24.54088 27.77687 26.15887
#
# Velocity S-wave (km/s) = 3.65525 3.88878 3.77382
# Velocity P-wave (km/s) = 6.30052 6.80016 6.55510
#
# Compressibility (1/GPa) = 0.02488026
#
# Stress axis : x y z
#
# Youngs Moduli (GPa) = 96.73731 49.74064 36.19615
#
# Poissons Ratio (x) = 0.26049 0.03745
# Poissons Ratio (y) = 0.50661 0.37364
# Poissons Ratio (z) = 0.10008 0.51346
#
# Static dielectric constant tensor:
#      x y z
#    x 4.092280 0.000000 -0.069820 
#    y 0.000000 3.496260 0.000000 
#    z -0.069820 0.000000 3.195640 
# 
# 
# High freq. dielectric constant tensor:
#      x y z
#    x 1.736490 0.000000 -0.002610 
#    y 0.000000 1.718830 0.000000 
#    z -0.002610 0.000000 1.687140 
# 
# From -- ./inp_files/20546.got.cif
#   From: 2010.06.25/outbox.cif.g09.slc.cpg/sg11_11_cif.got.tgz:20546.got - 2010.06.27 23:14:04.
