data_PCOD8075471
_publ_section_title
;
Structure prediction by ZEFSAII (Michael W. Deem and Ramdas Pophale) SiO2 
 PCOD8075471
Probable space group: P 21/M
;
_chemical_formula_sum "Si O2"
_cell_formula_units_Z 32
_cell_length_a 19.325098
_cell_length_b 13.945579
_cell_length_c 12.486837
_cell_angle_alpha 90.000000
_cell_angle_beta 25.973479
_cell_angle_gamma 90.000000
_cell_volume 1473.805773
_symmetry_space_group_name_H-M "P 21/M"
_symmetry_group_IT_number 11
_symmetry_cell_setting 'monoclinic'
loop_
_space_group_symop_operation_xyz
x,y,z
-x,1/2+y,-z
-x,-y,-z
x,1/2-y,z
loop_
_atom_site_type_symbol
_atom_site_label
_atom_site_fract_x
_atom_site_fract_y
_atom_site_fract_z
Si Si1 0.854622 0.859878 0.943504
Si Si2 0.468308 0.056413 0.651873
Si Si3 0.622944 0.022006 0.006701
Si Si4 0.101119 0.359982 0.882923
Si Si5 0.250770 0.859170 0.610046
Si Si6 0.720382 0.540866 0.552682
Si Si7 0.197134 0.363230 0.349042
Si Si8 0.937568 0.361878 0.538717
O O1 0.903684 0.750000 0.882143
O O2 0.962483 0.906373 0.699678
O O3 0.670738 0.867379 0.171081
O O4 0.887886 0.906797 0.013285
O O5 0.622406 0.113259 0.476333
O O6 0.500000 0.000000 0.500000
O O7 0.412527 0.979162 0.817684
O O8 0.465354 0.062930 0.168342
O O9 0.767921 0.089665 0.776899
O O10 0.660063 0.913530 0.914629
O O11 0.156847 0.250000 0.806432
O O12 0.220512 0.415925 0.641346
O O13 0.920490 0.371130 0.095522
O O14 0.274876 0.750000 0.537511
O O15 0.262636 0.925565 0.486515
O O16 0.819468 0.586301 0.511835
O O17 0.233048 0.250000 0.309747
O O18 0.033151 0.382602 0.515125
O O19 0.910255 0.250000 0.562365
#
# Coordination Sequence:
#
# PCOD8075471 Si02
#       8
#     4   4   4   4   4   4   4   4
#     4  10  20  38  64  92 125 170 220 268 326 394
#     4  11  23  40  65  96 129 169 219 274 340 393
#     4  11  24  42  63  95 131 170 222 270 332 399
#     4  10  22  41  65  96 133 176 221 273 339 396
#     4  10  23  42  65  99 135 173 224 276 328 397
#     4  11  24  42  66  97 134 175 220 276 338 394
#     4  11  24  43  66  94 131 177 223 273 333 397
#     4  10  23  42  66  97 129 174 223 271 329 398
#
# _framework density 21.712495000000001
#
# number of rings (size 3 to 8) (size 9 to 14) (size 15 to 20)
#    0.000    1.500    1.250    3.375    1.750    4.000 
#    0.000    2.500    0.000    0.000    0.000    0.000 
#    0.000    0.000    0.000    0.000    0.000    0.000 
#
# Total GULP energy -396771.744312 kJ/mol
# GULP energy per Si atom -12399.117010 kJ/mol
# Density = 2.166308 g / cm^3
# Si number density = 21.712495 Si / 1000 Ang^3
#
#
#
# Elastic Constant Matrix: (Units=GPa)
#
#
# Indices 1 2 3 4 5 6 
#
# 1 118.0003 61.9535 59.8813 0.0000 10.7306 0.0000
# 2 61.9535 100.9612 62.0389 0.0000 2.4609 0.0000
# 3 59.8813 62.0389 136.4044 0.0000 -8.5529 0.0000
# 4 0.0000 0.0000 0.0000 25.5223 0.0000 -3.5076
# 5 10.7306 2.4609 -8.5529 0.0000 42.7030 0.0000
# 6 0.0000 0.0000 0.0000 -3.5076 0.0000 29.5241
#
#
#
# Elastic Compliance Matrix: (Units=1/GPa)
#
#
# Indices 1 2 3 4 5 6 
#
# 1 0.013891 -0.006296 -0.003474 0.000000 -0.003824 0.000000
# 2 -0.006296 0.016783 -0.004892 0.000000 -0.000365 0.000000
# 3 -0.003474 -0.004892 0.011296 0.000000 0.003417 0.000000
# 4 0.000000 0.000000 0.000000 0.039832 0.000000 0.004732
# 5 -0.003824 -0.000365 0.003417 0.000000 0.025084 0.000000
# 6 0.000000 0.000000 0.000000 0.004732 0.000000 0.034433
#
#
# Mechanical properties :
#
#
# Convention : Reuss Voigt Hill
#
# Bulk Modulus (GPa) = 79.08342 80.34592 79.71467
# Shear Modulus (GPa) = 28.59455 30.98270 29.78862
#
# Velocity S-wave (km/s) = 3.63294 3.78160 3.70801
# Velocity P-wave (km/s) = 7.35525 7.49347 7.42468
#
# Compressibility (1/GPa) = 0.01264488
#
# Stress axis : x y z
#
# Youngs Moduli (GPa) = 71.98971 59.58304 88.52857
#
# Poissons Ratio (x) = 0.37512 0.30758
# Poissons Ratio (y) = 0.45323 0.43311
# Poissons Ratio (z) = 0.25012 0.29150
#
# Static dielectric constant tensor:
#      x y z
#    x 4.062150 0.000000 -0.044060 
#    y 0.000000 3.906430 0.000000 
#    z -0.044060 0.000000 3.977360 
# 
# 
# High freq. dielectric constant tensor:
#      x y z
#    x 1.859750 0.000000 -0.006560 
#    y 0.000000 1.845910 0.000000 
#    z -0.006560 0.000000 1.857920 
# 
# From -- ./inp_files/41662.got.cif
#   From: 2010.06.25/outbox.cif.g09.slc.cpg/sg11_21_cif.got.tgz:41662.got - 2010.06.27 23:14:04.
