data_PCOD8075400
_publ_section_title
;
Structure prediction by ZEFSAII (Michael W. Deem and Ramdas Pophale) SiO2 
 PCOD8075400
Probable space group: P 21/M
;
_chemical_formula_sum "Si O2"
_cell_formula_units_Z 24
_cell_length_a 9.113377
_cell_length_b 17.533212
_cell_length_c 11.559962
_cell_angle_alpha 90.000000
_cell_angle_beta 139.786517
_cell_angle_gamma 90.000000
_cell_volume 1192.575581
_symmetry_space_group_name_H-M "P 21/M"
_symmetry_group_IT_number 11
_symmetry_cell_setting 'monoclinic'
loop_
_space_group_symop_operation_xyz
x,y,z
-x,1/2+y,-z
-x,-y,-z
x,1/2-y,z
loop_
_atom_site_type_symbol
_atom_site_label
_atom_site_fract_x
_atom_site_fract_y
_atom_site_fract_z
Si Si1 0.411387 0.414943 0.935236
Si Si2 0.979613 0.415612 0.535953
Si Si3 0.086275 0.161842 0.143980
Si Si4 0.534078 0.905867 0.778332
Si Si5 0.633406 0.083374 0.837909
Si Si6 0.229378 0.161285 0.484083
O O1 0.550882 0.379959 0.911094
O O2 0.142737 0.409130 0.745544
O O3 0.500000 0.500000 0.000000
O O4 0.455396 0.373003 0.083591
O O5 0.723628 0.399646 0.422487
O O6 0.000000 0.500000 0.500000
O O7 0.051323 0.357245 0.478420
O O8 0.019458 0.250000 0.094250
O O9 0.317800 0.147494 0.214099
O O10 0.118566 0.136626 0.296069
O O11 0.887834 0.111424 0.966918
O O12 0.626932 0.992048 0.832200
O O13 0.463340 0.114279 0.637572
O O14 0.289730 0.250000 0.521717
#
# Coordination Sequence:
#
# PCOD8075400 Si02
#       6
#     4   4   4   4   4   4
#     4   9  18  33  60  88 113 140 184 245 283 331
#     4  11  19  37  61  89 113 147 189 243 290 336
#     4  11  25  40  55  82 123 159 190 234 290 349
#     4  11  22  36  59  90 117 147 192 241 290 339
#     4  10  20  38  62  85 109 151 199 237 280 342
#     4  10  22  39  60  84 115 156 196 235 285 348
#
# _framework density 20.124510000000001
#
# number of rings (size 3 to 8) (size 9 to 14) (size 15 to 20)
#    0.000    1.667    5.000    2.000    2.333    2.667 
#    0.000    4.167    0.000    0.000    0.000    0.000 
#    0.000    0.000    0.000    0.000    0.000    0.000 
#
# Total GULP energy -297606.546974 kJ/mol
# GULP energy per Si atom -12400.272791 kJ/mol
# Density = 2.007871 g / cm^3
# Si number density = 20.124510 Si / 1000 Ang^3
#
#
#
# Elastic Constant Matrix: (Units=GPa)
#
#
# Indices 1 2 3 4 5 6 
#
# 1 67.8069 8.2528 38.2592 0.0000 18.6905 0.0000
# 2 8.2528 31.2537 16.6266 0.0000 -5.8997 0.0000
# 3 38.2592 16.6266 117.8125 0.0000 22.7144 0.0000
# 4 0.0000 0.0000 0.0000 20.3007 0.0000 1.5054
# 5 18.6905 -5.8997 22.7144 0.0000 37.0324 0.0000
# 6 0.0000 0.0000 0.0000 1.5054 0.0000 28.7040
#
#
#
# Elastic Compliance Matrix: (Units=1/GPa)
#
#
# Indices 1 2 3 4 5 6 
#
# 1 0.019963 -0.004549 -0.004263 0.000000 -0.008185 0.000000
# 2 -0.004549 0.038961 -0.006420 0.000000 0.012440 0.000000
# 3 -0.004263 -0.006420 0.011977 0.000000 -0.006218 0.000000
# 4 0.000000 0.000000 0.000000 0.049452 0.000000 -0.002593
# 5 -0.008185 0.012440 -0.006218 0.000000 0.036930 0.000000
# 6 0.000000 0.000000 0.000000 -0.002593 0.000000 0.034974
#
#
# Mechanical properties :
#
#
# Convention : Reuss Voigt Hill
#
# Bulk Modulus (GPa) = 24.72903 38.12782 31.42843
# Shear Modulus (GPa) = 21.16855 27.45636 24.31246
#
# Velocity S-wave (km/s) = 3.24679 3.69768 3.47955
# Velocity P-wave (km/s) = 5.13519 6.10062 5.63861
#
# Compressibility (1/GPa) = 0.04043830
#
# Stress axis : x y z
#
# Youngs Moduli (GPa) = 50.09298 25.66677 83.49223
#
# Poissons Ratio (x) = 0.11675 0.35591
# Poissons Ratio (y) = 0.22786 0.53600
# Poissons Ratio (z) = 0.21353 0.16478
#
# Static dielectric constant tensor:
#      x y z
#    x 3.471750 0.000000 -0.497290 
#    y 0.000000 3.381100 0.000000 
#    z -0.497290 0.000000 3.673580 
# 
# 
# High freq. dielectric constant tensor:
#      x y z
#    x 1.773920 0.000000 0.005280 
#    y 0.000000 1.761340 0.000000 
#    z 0.005280 0.000000 1.802240 
# 
# From -- ./inp_files/19069.got.cif
#   From: 2010.06.25/outbox.cif.g09.slc.cpg/sg11_10_cif.got.tgz:19069.got - 2010.06.27 23:14:04.
