data_PCOD8075789
_publ_section_title
;
Structure prediction by ZEFSAII (Michael W. Deem and Ramdas Pophale) SiO2 
 PCOD8075789
Probable space group: P 21/M
;
_chemical_formula_sum "Si O2"
_cell_formula_units_Z 32
_cell_length_a 21.418473
_cell_length_b 8.981500
_cell_length_c 26.685640
_cell_angle_alpha 90.000000
_cell_angle_beta 19.639618
_cell_angle_gamma 90.000000
_cell_volume 1725.389885
_symmetry_space_group_name_H-M "P 21/M"
_symmetry_group_IT_number 11
_symmetry_cell_setting 'monoclinic'
loop_
_space_group_symop_operation_xyz
x,y,z
-x,1/2+y,-z
-x,-y,-z
x,1/2-y,z
loop_
_atom_site_type_symbol
_atom_site_label
_atom_site_fract_x
_atom_site_fract_y
_atom_site_fract_z
Si Si1 0.080972 0.419600 0.891441
Si Si2 0.047873 0.919531 0.384740
Si Si3 0.892993 0.074190 0.933607
Si Si4 0.144842 0.576860 0.552725
Si Si5 0.502533 0.421294 0.551161
Si Si6 0.243599 0.919905 0.330394
Si Si7 0.509703 0.581513 0.212148
Si Si8 0.170421 0.426844 0.638993
O O1 0.016543 0.250000 0.943023
O O2 0.301120 0.434766 0.727674
O O3 0.999394 0.490763 0.901868
O O4 0.000000 0.500000 0.000000
O O5 0.027988 0.750000 0.381136
O O6 0.239228 0.941622 0.272811
O O7 0.029002 0.026953 0.350973
O O8 0.886440 0.956169 0.546428
O O9 0.898125 0.250000 0.931072
O O10 0.001755 0.018426 0.802027
O O11 0.680573 0.024322 0.094500
O O12 0.125402 0.750000 0.580087
O O13 0.337553 0.540814 0.378654
O O14 0.130282 0.482359 0.613832
O O15 0.500000 0.500000 0.500000
O O16 0.561770 0.250000 0.499327
O O17 0.639209 0.502362 0.485853
O O18 0.175756 0.750000 0.394783
O O19 0.447710 0.940243 0.200698
O O20 0.574212 0.750000 0.173305
O O21 0.192048 0.250000 0.623258
#
# Coordination Sequence:
#
# PCOD8075789 Si02
#       8
#     4   4   4   4   4   4   4   4
#     4  10  23  41  58  82 112 141 177 223 271 318
#     4   9  15  26  48  76 106 142 180 220 270 321
#     4  10  22  40  56  77 110 143 178 224 269 320
#     4  10  21  36  53  81 114 142 179 228 273 320
#     4  11  22  40  62  84 110 141 181 225 268 320
#     4   8  15  28  46  73 109 143 178 223 269 316
#     4   9  19  34  53  79 111 144 178 220 269 321
#     4  11  23  40  59  80 108 144 184 226 272 322
#
# _framework density 18.546531999999999
#
# number of rings (size 3 to 8) (size 9 to 14) (size 15 to 20)
#    0.000    2.250    1.250    2.250    1.750    5.500 
#    0.000    0.000    0.000    0.750    0.000    0.000 
#    0.000    0.000    0.000    0.000    0.000    0.000 
#
# Total GULP energy -396643.997618 kJ/mol
# GULP energy per Si atom -12395.124926 kJ/mol
# Density = 1.850432 g / cm^3
# Si number density = 18.546532 Si / 1000 Ang^3
#
#
#
# Elastic Constant Matrix: (Units=GPa)
#
#
# Indices 1 2 3 4 5 6 
#
# 1 142.4387 42.6187 41.6428 0.0000 5.6687 0.0000
# 2 42.6187 69.6127 28.9721 0.0000 6.0196 0.0000
# 3 41.6428 28.9721 58.3347 0.0000 6.4903 0.0000
# 4 0.0000 0.0000 0.0000 27.1443 0.0000 -1.4587
# 5 5.6687 6.0196 6.4903 0.0000 19.0158 0.0000
# 6 0.0000 0.0000 0.0000 -1.4587 0.0000 35.7043
#
#
#
# Elastic Compliance Matrix: (Units=1/GPa)
#
#
# Indices 1 2 3 4 5 6 
#
# 1 0.009616 -0.003822 -0.004971 0.000000 0.000040 0.000000
# 2 -0.003822 0.019768 -0.006778 0.000000 -0.002805 0.000000
# 3 -0.004971 -0.006778 0.024587 0.000000 -0.004765 0.000000
# 4 0.000000 0.000000 0.000000 0.036921 0.000000 0.001508
# 5 0.000040 -0.002805 -0.004765 0.000000 0.055090 0.000000
# 6 0.000000 0.000000 0.000000 0.001508 0.000000 0.028069
#
#
# Mechanical properties :
#
#
# Convention : Reuss Voigt Hill
#
# Bulk Modulus (GPa) = 43.80013 55.20592 49.50303
# Shear Modulus (GPa) = 23.49600 26.84972 25.17286
#
# Velocity S-wave (km/s) = 3.56317 3.80899 3.68813
# Velocity P-wave (km/s) = 6.37149 7.01251 6.69967
#
# Compressibility (1/GPa) = 0.02283098
#
# Stress axis : x y z
#
# Youngs Moduli (GPa) = 103.99728 50.58596 40.67176
#
# Poissons Ratio (x) = 0.19332 0.20216
# Poissons Ratio (y) = 0.39744 0.27566
# Poissons Ratio (z) = 0.51693 0.34286
#
# Static dielectric constant tensor:
#      x y z
#    x 3.564600 0.000000 -0.054730 
#    y 0.000000 3.419340 0.000000 
#    z -0.054730 0.000000 3.111550 
# 
# 
# High freq. dielectric constant tensor:
#      x y z
#    x 1.739540 0.000000 -0.014770 
#    y 0.000000 1.724630 0.000000 
#    z -0.014770 0.000000 1.681080 
# 
# From -- ./inp_files/72058.got.cif
#   From: 2010.06.25/outbox.cif.g09.slc.cpg/sg11_37_cif.got.tgz:72058.got - 2010.06.27 23:14:04.
