data_PCOD8075141
_publ_section_title
;
Structure prediction by ZEFSAII (Michael W. Deem and Ramdas Pophale) SiO2 
 PCOD8075141
Probable space group: P 21/M
;
_chemical_formula_sum "Si O2"
_cell_formula_units_Z 24
_cell_length_a 14.740005
_cell_length_b 13.298979
_cell_length_c 8.087327
_cell_angle_alpha 90.000000
_cell_angle_beta 46.119104
_cell_angle_gamma 90.000000
_cell_volume 1142.681064
_symmetry_space_group_name_H-M "P 21/M"
_symmetry_group_IT_number 11
_symmetry_cell_setting 'monoclinic'
loop_
_space_group_symop_operation_xyz
x,y,z
-x,1/2+y,-z
-x,-y,-z
x,1/2-y,z
loop_
_atom_site_type_symbol
_atom_site_label
_atom_site_fract_x
_atom_site_fract_y
_atom_site_fract_z
Si Si1 0.600984 0.868039 0.116077
Si Si2 0.892713 0.865897 0.085201
Si Si3 0.205871 0.980463 0.234225
Si Si4 0.994111 0.537253 0.263759
Si Si5 0.392117 0.367756 0.527672
Si Si6 0.454137 0.868994 0.979043
O O1 0.626996 0.750000 0.062313
O O2 0.543947 0.889958 0.372307
O O3 0.734058 0.924708 0.937976
O O4 0.514836 0.910548 0.074222
O O5 0.891614 0.750000 0.032090
O O6 0.974378 0.879320 0.148620
O O7 0.751160 0.908248 0.293031
O O8 0.962980 0.928733 0.856587
O O9 0.139789 0.023822 0.479716
O O10 0.102552 0.924219 0.251015
O O11 0.309297 0.899178 0.155520
O O12 0.386776 0.250000 0.501587
O O13 0.474225 0.415066 0.273790
O O14 0.462975 0.750000 0.969925
#
# Coordination Sequence:
#
# PCOD8075141 Si02
#       6
#     4   4   4   4   4   4
#     4  10  20  37  60  87 115 154 202 243 293 351
#     4  10  20  40  62  83 114 154 199 248 292 339
#     4  11  22  39  58  85 123 154 191 244 294 351
#     4  10  23  38  58  88 117 154 202 237 283 360
#     4   9  18  36  61  85 111 149 201 247 286 345
#     4  10  22  38  57  88 123 153 192 242 299 356
#
# _framework density 21.003236999999999
#
# number of rings (size 3 to 8) (size 9 to 14) (size 15 to 20)
#    0.000    2.000    1.667    1.500    0.000    4.000 
#    6.000    3.333    0.000    0.000    0.000    0.000 
#    0.000    0.000    0.000    0.000    0.000    0.000 
#
# Total GULP energy -297552.736270 kJ/mol
# GULP energy per Si atom -12398.030678 kJ/mol
# Density = 2.095543 g / cm^3
# Si number density = 21.003237 Si / 1000 Ang^3
#
#
#
# Elastic Constant Matrix: (Units=GPa)
#
#
# Indices 1 2 3 4 5 6 
#
# 1 124.9338 18.9489 50.1702 0.0000 11.0485 0.0000
# 2 18.9489 19.5230 19.8118 0.0000 6.2922 0.0000
# 3 50.1702 19.8118 108.6741 0.0000 -0.9621 0.0000
# 4 0.0000 0.0000 0.0000 24.8553 0.0000 -0.7731
# 5 11.0485 6.2922 -0.9621 0.0000 31.3912 0.0000
# 6 0.0000 0.0000 0.0000 -0.7731 0.0000 26.2364
#
#
#
# Elastic Compliance Matrix: (Units=1/GPa)
#
#
# Indices 1 2 3 4 5 6 
#
# 1 0.010664 -0.005438 -0.003956 0.000000 -0.002785 0.000000
# 2 -0.005438 0.071368 -0.010613 0.000000 -0.012717 0.000000
# 3 -0.003956 -0.010613 0.012998 0.000000 0.003918 0.000000
# 4 0.000000 0.000000 0.000000 0.040270 0.000000 0.001187
# 5 -0.002785 -0.012717 0.003918 0.000000 0.035505 0.000000
# 6 0.000000 0.000000 0.000000 0.001187 0.000000 0.038150
#
#
# Mechanical properties :
#
#
# Convention : Reuss Voigt Hill
#
# Bulk Modulus (GPa) = 18.17671 47.88807 33.03239
# Shear Modulus (GPa) = 18.70502 27.44325 23.07414
#
# Velocity S-wave (km/s) = 2.98749 3.61864 3.31811
# Velocity P-wave (km/s) = 4.53577 6.34896 5.51736
#
# Compressibility (1/GPa) = 0.05501546
#
# Stress axis : x y z
#
# Youngs Moduli (GPa) = 93.77260 14.01185 76.93621
#
# Poissons Ratio (x) = 0.07620 0.30439
# Poissons Ratio (y) = 0.50995 0.81651
# Poissons Ratio (z) = 0.37100 0.14870
#
# Static dielectric constant tensor:
#      x y z
#    x 4.019460 0.000000 0.220570 
#    y 0.000000 3.483040 0.000000 
#    z 0.220570 0.000000 3.906720 
# 
# 
# High freq. dielectric constant tensor:
#      x y z
#    x 1.839450 0.000000 0.013580 
#    y 0.000000 1.808550 0.000000 
#    z 0.013580 0.000000 1.819990 
# 
# From -- ./inp_files/22006.got.cif
#   From: 2010.06.25/outbox.cif.g09.slc.cpg/sg11_12_cif.got.tgz:22006.got - 2010.06.27 23:14:04.
