data_PCOD8075404
_publ_section_title
;
Structure prediction by ZEFSAII (Michael W. Deem and Ramdas Pophale) SiO2 
 PCOD8075404
Probable space group: P 21/M
;
_chemical_formula_sum "Si O2"
_cell_formula_units_Z 20
_cell_length_a 18.949676
_cell_length_b 8.446210
_cell_length_c 12.449404
_cell_angle_alpha 90.000000
_cell_angle_beta 150.274399
_cell_angle_gamma 90.000000
_cell_volume 988.006243
_symmetry_space_group_name_H-M "P 21/M"
_symmetry_group_IT_number 11
_symmetry_cell_setting 'monoclinic'
loop_
_space_group_symop_operation_xyz
x,y,z
-x,1/2+y,-z
-x,-y,-z
x,1/2-y,z
loop_
_atom_site_type_symbol
_atom_site_label
_atom_site_fract_x
_atom_site_fract_y
_atom_site_fract_z
Si Si1 0.361013 0.936020 0.872647
Si Si2 0.280806 0.434822 0.382596
Si Si3 0.859948 0.065678 0.595180
Si Si4 0.164092 0.564793 0.013986
Si Si5 0.399908 0.938032 0.160908
O O1 0.377157 0.750000 0.900643
O O2 0.221735 0.985328 0.621438
O O3 0.350138 0.005177 0.979194
O O4 0.500000 0.000000 0.000000
O O5 0.276271 0.250000 0.347475
O O6 0.199898 0.461313 0.386963
O O7 0.199652 0.533028 0.184604
O O8 0.441797 0.500235 0.603522
O O9 0.836282 0.250000 0.590161
O O10 0.024764 0.029927 0.794260
O O11 0.137570 0.750000 0.961142
O O12 0.292246 0.499382 0.109312
O O13 0.402001 0.750000 0.162524
#
# Coordination Sequence:
#
# PCOD8075404 Si02
#       5
#     4   4   4   4   4
#     4  10  20  38  62  87 115 147 190 238 285 342
#     4  11  21  38  63  86 115 153 195 240 286 342
#     4  11  23  38  59  88 119 152 192 238 284 341
#     4  11  23  39  58  84 120 156 192 236 288 343
#     4   9  20  38  61  87 116 151 189 237 292 341
#
# _framework density 20.242788000000001
#
# number of rings (size 3 to 8) (size 9 to 14) (size 15 to 20)
#    0.000    1.600    2.000    3.000    0.000    1.600 
#    0.000    5.000    0.000    0.000    0.000    0.000 
#    0.000    0.000    0.000    0.000    0.000    0.000 
#
# Total GULP energy -248083.580609 kJ/mol
# GULP energy per Si atom -12404.179030 kJ/mol
# Density = 2.019671 g / cm^3
# Si number density = 20.242788 Si / 1000 Ang^3
#
#
#
# Elastic Constant Matrix: (Units=GPa)
#
#
# Indices 1 2 3 4 5 6 
#
# 1 60.3033 16.6867 33.3612 0.0000 5.7548 0.0000
# 2 16.6867 26.7171 20.7853 0.0000 -4.7958 0.0000
# 3 33.3612 20.7853 155.5701 0.0000 -0.1590 0.0000
# 4 0.0000 0.0000 0.0000 21.9506 0.0000 7.3211
# 5 5.7548 -4.7958 -0.1590 0.0000 41.2984 0.0000
# 6 0.0000 0.0000 0.0000 7.3211 0.0000 19.9250
#
#
#
# Elastic Compliance Matrix: (Units=1/GPa)
#
#
# Indices 1 2 3 4 5 6 
#
# 1 0.022112 -0.012195 -0.003117 0.000000 -0.004509 0.000000
# 2 -0.012195 0.049482 -0.003988 0.000000 0.007430 0.000000
# 3 -0.003117 -0.003988 0.007629 0.000000 0.000001 0.000000
# 4 0.000000 0.000000 0.000000 0.051919 0.000000 -0.019077
# 5 -0.004509 0.007430 0.000001 0.000000 0.025705 0.000000
# 6 0.000000 0.000000 0.000000 -0.019077 0.000000 0.057198
#
#
# Mechanical properties :
#
#
# Convention : Reuss Voigt Hill
#
# Bulk Modulus (GPa) = 24.61670 42.69523 33.65597
# Shear Modulus (GPa) = 18.78369 28.08530 23.43449
#
# Velocity S-wave (km/s) = 3.04948 3.72885 3.40615
# Velocity P-wave (km/s) = 4.95845 6.29893 5.66845
#
# Compressibility (1/GPa) = 0.04062282
#
# Stress axis : x y z
#
# Youngs Moduli (GPa) = 45.22408 20.20918 131.07346
#
# Poissons Ratio (x) = 0.24645 0.40857
# Poissons Ratio (y) = 0.55150 0.52279
# Poissons Ratio (z) = 0.14097 0.08060
#
# Static dielectric constant tensor:
#      x y z
#    x 3.819260 0.000000 -0.085370 
#    y 0.000000 3.416030 0.000000 
#    z -0.085370 0.000000 3.957010 
# 
# 
# High freq. dielectric constant tensor:
#      x y z
#    x 1.794470 0.000000 -0.003610 
#    y 0.000000 1.772920 0.000000 
#    z -0.003610 0.000000 1.806620 
# 
# From -- ./inp_files/15915.got.cif
#   From: 2010.06.25/outbox.cif.g09.slc.cpg/sg11_8_cif.got.tgz:15915.got - 2010.06.27 23:14:04.
