data_PCOD8075093
_publ_section_title
;
Structure prediction by ZEFSAII (Michael W. Deem and Ramdas Pophale) SiO2 
 PCOD8075093
Probable space group: P 21/M
;
_chemical_formula_sum "Si O2"
_cell_formula_units_Z 32
_cell_length_a 14.253375
_cell_length_b 18.199169
_cell_length_c 11.482919
_cell_angle_alpha 90.000000
_cell_angle_beta 31.301232
_cell_angle_gamma 90.000000
_cell_volume 1547.527795
_symmetry_space_group_name_H-M "P 21/M"
_symmetry_group_IT_number 11
_symmetry_cell_setting 'monoclinic'
loop_
_space_group_symop_operation_xyz
x,y,z
-x,1/2+y,-z
-x,-y,-z
x,1/2-y,z
loop_
_atom_site_type_symbol
_atom_site_label
_atom_site_fract_x
_atom_site_fract_y
_atom_site_fract_z
Si Si1 0.087131 0.553746 0.505965
Si Si2 0.111209 0.933978 0.959778
Si Si3 0.305246 0.166848 0.288346
Si Si4 0.344082 0.586126 0.053039
Si Si5 0.787420 0.020343 0.373415
Si Si6 0.935652 0.333768 0.785507
Si Si7 0.785657 0.834490 0.875095
Si Si8 0.637490 0.530035 0.154623
O O1 0.289547 0.571649 0.245139
O O2 0.114241 0.521969 0.606185
O O3 0.000000 0.500000 0.500000
O O4 0.977921 0.629180 0.640190
O O5 0.131920 0.863895 0.019429
O O6 0.169899 0.912843 0.764234
O O7 0.897556 0.955437 0.189783
O O8 0.245365 0.999890 0.862077
O O9 0.337969 0.250000 0.299123
O O10 0.322737 0.166920 0.130733
O O11 0.120215 0.132463 0.535831
O O12 0.450779 0.109603 0.182154
O O13 0.219710 0.653354 0.143432
O O14 0.296110 0.513067 0.031069
O O15 0.573128 0.011675 0.604393
O O16 0.973446 0.250000 0.764570
O O17 0.810018 0.750000 0.894649
O O18 0.677686 0.883526 0.085922
#
# Coordination Sequence:
#
# PCOD8075093 Si02
#       8
#     4   4   4   4   4   4   4   4
#     4  12  22  39  62  93 122 159 202 247 308 369
#     4  10  22  41  62  90 119 160 210 256 299 355
#     4  10  21  34  54  89 125 158 197 247 310 362
#     4  11  21  33  63  92 120 154 201 246 301 372
#     4  11  23  39  65  90 121 156 208 258 300 355
#     4  10  20  37  59  86 124 158 196 256 305 351
#     4  11  23  39  58  87 130 164 195 250 309 366
#     4  11  22  39  64  91 119 161 202 251 306 361
#
# _framework density 20.678142000000001
#
# number of rings (size 3 to 8) (size 9 to 14) (size 15 to 20)
#    0.000    1.250    3.750    3.000    1.750    1.500 
#    0.000    1.875    0.000    0.000    0.000    0.000 
#    0.000    0.000    0.000    0.000    0.000    0.000 
#
# Total GULP energy -396433.637163 kJ/mol
# GULP energy per Si atom -12388.551161 kJ/mol
# Density = 2.063108 g / cm^3
# Si number density = 20.678142 Si / 1000 Ang^3
#
#
#
# Elastic Constant Matrix: (Units=GPa)
#
#
# Indices 1 2 3 4 5 6 
#
# 1 89.4726 29.2291 51.7266 0.0000 11.8835 0.0000
# 2 29.2291 85.9118 28.1193 0.0000 -5.2410 0.0000
# 3 51.7266 28.1193 115.8798 0.0000 0.1238 0.0000
# 4 0.0000 0.0000 0.0000 25.4322 0.0000 -0.1437
# 5 11.8835 -5.2410 0.1238 0.0000 39.1181 0.0000
# 6 0.0000 0.0000 0.0000 -0.1437 0.0000 15.3577
#
#
#
# Elastic Compliance Matrix: (Units=1/GPa)
#
#
# Indices 1 2 3 4 5 6 
#
# 1 0.017080 -0.003982 -0.006652 0.000000 -0.005701 0.000000
# 2 -0.003982 0.013687 -0.001547 0.000000 0.003048 0.000000
# 3 -0.006652 -0.001547 0.011973 0.000000 0.001776 0.000000
# 4 0.000000 0.000000 0.000000 0.039322 0.000000 0.000368
# 5 -0.005701 0.003048 0.001776 0.000000 0.027698 0.000000
# 6 0.000000 0.000000 0.000000 0.000368 0.000000 0.065117
#
#
# Mechanical properties :
#
#
# Convention : Reuss Voigt Hill
#
# Bulk Modulus (GPa) = 54.41310 56.60158 55.50734
# Shear Modulus (GPa) = 24.34688 28.12756 26.23722
#
# Velocity S-wave (km/s) = 3.43508 3.69217 3.56594
# Velocity P-wave (km/s) = 6.48880 6.75338 6.62241
#
# Compressibility (1/GPa) = 0.01837793
#
# Stress axis : x y z
#
# Youngs Moduli (GPa) = 58.54714 73.06290 83.52464
#
# Poissons Ratio (x) = 0.29091 0.55561
# Poissons Ratio (y) = 0.23311 0.12923
# Poissons Ratio (z) = 0.38946 0.11304
#
# Static dielectric constant tensor:
#      x y z
#    x 3.849120 0.000000 0.172290 
#    y 0.000000 3.582960 0.000000 
#    z 0.172290 0.000000 4.078830 
# 
# 
# High freq. dielectric constant tensor:
#      x y z
#    x 1.803350 0.000000 -0.001300 
#    y 0.000000 1.782610 0.000000 
#    z -0.001300 0.000000 1.823700 
# 
# From -- ./inp_files/39995.got.cif
#   From: 2010.06.25/outbox.cif.g09.slc.cpg/sg11_20_cif.got.tgz:39995.got - 2010.06.27 23:14:04.
