data_PCOD8075906
_publ_section_title
;
Structure prediction by ZEFSAII (Michael W. Deem and Ramdas Pophale) SiO2 
 PCOD8075906
Probable space group: P 21/M
;
_chemical_formula_sum "Si O2"
_cell_formula_units_Z 24
_cell_length_a 5.050160
_cell_length_b 22.235170
_cell_length_c 10.933783
_cell_angle_alpha 90.000000
_cell_angle_beta 106.578595
_cell_angle_gamma 90.000000
_cell_volume 1176.728022
_symmetry_space_group_name_H-M "P 21/M"
_symmetry_group_IT_number 11
_symmetry_cell_setting 'monoclinic'
loop_
_space_group_symop_operation_xyz
x,y,z
-x,1/2+y,-z
-x,-y,-z
x,1/2-y,z
loop_
_atom_site_type_symbol
_atom_site_label
_atom_site_fract_x
_atom_site_fract_y
_atom_site_fract_z
Si Si1 0.421221 0.180203 0.199112
Si Si2 0.259957 0.979378 0.609417
Si Si3 0.372074 0.179344 0.918304
Si Si4 0.015572 0.873405 0.678792
Si Si5 0.558981 0.903924 0.447107
Si Si6 0.782237 0.320832 0.762203
O O1 0.336616 0.250000 0.196269
O O2 0.729331 0.173237 0.294744
O O3 0.188842 0.141885 0.237880
O O4 0.422027 0.154282 0.060933
O O5 0.152751 0.940978 0.712822
O O6 0.449509 0.933984 0.556993
O O7 0.414741 0.043257 0.654222
O O8 0.000000 0.000000 0.500000
O O9 0.337229 0.250000 0.926152
O O10 0.627590 0.161740 0.867088
O O11 0.092763 0.154505 0.818680
O O12 0.849146 0.872506 0.526689
O O13 0.354612 0.853171 0.371458
O O14 0.766723 0.250000 0.733923
#
# Coordination Sequence:
#
# PCOD8075906 Si02
#       6
#     4   4   4   4   4   4
#     4  11  22  37  59  84 119 157 193 236 290 350
#     4   9  20  38  60  84 114 158 200 228 284 358
#     4   9  20  38  56  80 112 159 199 224 279 353
#     4  11  21  37  58  88 116 150 195 242 286 344
#     4  10  21  38  60  91 115 154 190 239 300 346
#     4  10  21  36  59  86 117 147 187 242 288 345
#
# _framework density 20.395538999999999
#
# number of rings (size 3 to 8) (size 9 to 14) (size 15 to 20)
#    0.000    2.000    1.667    1.500    4.667    4.000 
#    0.000    0.000    0.000    6.000    0.000    0.000 
#    0.000    0.000    0.000    0.000    0.000    0.000 
#
# Total GULP energy -297359.599961 kJ/mol
# GULP energy per Si atom -12389.983332 kJ/mol
# Density = 2.034912 g / cm^3
# Si number density = 20.395539 Si / 1000 Ang^3
#
#
#
# Elastic Constant Matrix: (Units=GPa)
#
#
# Indices 1 2 3 4 5 6 
#
# 1 67.9130 14.0753 -0.0628 0.0000 14.4457 0.0000
# 2 14.0753 57.9181 28.2754 0.0000 1.0807 0.0000
# 3 -0.0628 28.2754 59.9671 0.0000 12.1320 0.0000
# 4 0.0000 0.0000 0.0000 8.7759 0.0000 -1.5513
# 5 14.4457 1.0807 12.1320 0.0000 27.6946 0.0000
# 6 0.0000 0.0000 0.0000 -1.5513 0.0000 32.5741
#
#
#
# Elastic Compliance Matrix: (Units=1/GPa)
#
#
# Indices 1 2 3 4 5 6 
#
# 1 0.018795 -0.007204 0.005863 0.000000 -0.012091 0.000000
# 2 -0.007204 0.025627 -0.013879 0.000000 0.008838 0.000000
# 3 0.005863 -0.013879 0.026043 0.000000 -0.013925 0.000000
# 4 0.000000 0.000000 0.000000 0.114916 0.000000 0.005473
# 5 -0.012091 0.008838 -0.013925 0.000000 0.048170 0.000000
# 6 0.000000 0.000000 0.000000 0.005473 0.000000 0.030960
#
#
# Mechanical properties :
#
#
# Convention : Reuss Voigt Hill
#
# Bulk Modulus (GPa) = 24.98476 30.04157 27.51317
# Shear Modulus (GPa) = 16.21825 23.37627 19.79726
#
# Velocity S-wave (km/s) = 2.82296 3.38915 3.11893
# Velocity P-wave (km/s) = 4.78562 5.48421 5.14678
#
# Compressibility (1/GPa) = 0.04002440
#
# Stress axis : x y z
#
# Youngs Moduli (GPa) = 53.20568 39.02080 38.39746
#
# Poissons Ratio (x) = 0.28111 -0.22511
# Poissons Ratio (y) = 0.38330 0.53293
# Poissons Ratio (z) = -0.31192 0.54158
#
# Static dielectric constant tensor:
#      x y z
#    x 1.395050 0.000000 -1.167610 
#    y 0.000000 4.093510 0.000000 
#    z -1.167610 0.000000 2.800350 
# 
# 
# High freq. dielectric constant tensor:
#      x y z
#    x 1.819160 0.000000 0.017910 
#    y 0.000000 1.781010 0.000000 
#    z 0.017910 0.000000 1.763350 
# 
# From -- ./inp_files/30128.got.cif
#   From: 2010.06.25/outbox.cif.g09.slc.cpg/sg11_16_cif.got.tgz:30128.got - 2010.06.27 23:14:04.
