data_PCOD8075715
_publ_section_title
;
Structure prediction by ZEFSAII (Michael W. Deem and Ramdas Pophale) SiO2 
 PCOD8075715
Probable space group: P 21/M
;
_chemical_formula_sum "Si O2"
_cell_formula_units_Z 32
_cell_length_a 21.024498
_cell_length_b 8.938798
_cell_length_c 26.630505
_cell_angle_alpha 90.000000
_cell_angle_beta 19.302107
_cell_angle_gamma 90.000000
_cell_volume 1654.322358
_symmetry_space_group_name_H-M "P 21/M"
_symmetry_group_IT_number 11
_symmetry_cell_setting 'monoclinic'
loop_
_space_group_symop_operation_xyz
x,y,z
-x,1/2+y,-z
-x,-y,-z
x,1/2-y,z
loop_
_atom_site_type_symbol
_atom_site_label
_atom_site_fract_x
_atom_site_fract_y
_atom_site_fract_z
Si Si1 0.289192 0.415162 0.297736
Si Si2 0.098922 0.076902 0.061735
Si Si3 0.876255 0.573068 0.430430
Si Si4 0.509332 0.075936 0.439347
Si Si5 0.884912 0.571941 0.130856
Si Si6 0.090818 0.422360 0.707752
Si Si7 0.111523 0.584712 0.346519
Si Si8 0.457676 0.577281 0.262849
O O1 0.378336 0.250000 0.226025
O O2 0.271349 0.483458 0.254899
O O3 0.429977 0.511433 0.227702
O O4 0.080164 0.408245 0.477712
O O5 0.041794 0.250000 0.096955
O O6 0.323202 0.052007 0.883742
O O7 0.976802 0.974235 0.115350
O O8 0.048605 0.026292 0.155638
O O9 0.844639 0.750000 0.459273
O O10 0.050345 0.520150 0.337430
O O11 0.932863 0.526151 0.332181
O O12 0.674935 0.499574 0.596536
O O13 0.561991 0.250000 0.406374
O O14 0.311057 0.053079 0.558410
O O15 0.500000 0.000000 0.500000
O O16 0.669834 0.991786 0.287029
O O17 0.882911 0.750000 0.127599
O O18 0.000000 0.500000 0.000000
O O19 0.030169 0.250000 0.760200
O O20 0.200500 0.750000 0.274681
O O21 0.402073 0.750000 0.301591
#
# Coordination Sequence:
#
# PCOD8075715 Si02
#       8
#     4   4   4   4   4   4   4   4
#     4   9  16  27  47  75 106 143 182 222 272 330
#     4  11  24  41  59  83 114 149 190 231 279 340
#     4   9  19  35  55  83 112 143 186 229 276 332
#     4  11  22  39  62  89 116 148 190 233 279 336
#     4  12  26  43  63  87 116 150 188 235 286 336
#     4  10  22  39  60  84 111 149 189 228 279 335
#     4   8  14  26  46  73 108 141 174 224 275 323
#     4  10  21  35  53  81 113 145 184 230 280 330
#
# _framework density 19.343267000000001
#
# number of rings (size 3 to 8) (size 9 to 14) (size 15 to 20)
#    0.000    2.000    1.250    3.375    1.750    6.000 
#    0.000    0.000    0.000    0.750    0.000    0.000 
#    0.000    0.000    0.000    0.000    0.000    0.000 
#
# Total GULP energy -396826.448563 kJ/mol
# GULP energy per Si atom -12400.826518 kJ/mol
# Density = 1.929924 g / cm^3
# Si number density = 19.343267 Si / 1000 Ang^3
#
#
#
# Elastic Constant Matrix: (Units=GPa)
#
#
# Indices 1 2 3 4 5 6 
#
# 1 99.1914 28.1169 6.9510 0.0000 17.7065 0.0000
# 2 28.1169 105.7675 25.2224 0.0000 8.7499 0.0000
# 3 6.9510 25.2224 45.7125 0.0000 18.0740 0.0000
# 4 0.0000 0.0000 0.0000 28.2890 0.0000 1.4650
# 5 17.7065 8.7499 18.0740 0.0000 24.8018 0.0000
# 6 0.0000 0.0000 0.0000 1.4650 0.0000 33.3217
#
#
#
# Elastic Compliance Matrix: (Units=1/GPa)
#
#
# Indices 1 2 3 4 5 6 
#
# 1 0.012743 -0.003516 0.004367 0.000000 -0.011039 0.000000
# 2 -0.003516 0.011867 -0.007516 0.000000 0.003800 0.000000
# 3 0.004367 -0.007516 0.035882 0.000000 -0.026614 0.000000
# 4 0.000000 0.000000 0.000000 0.035430 0.000000 -0.001558
# 5 -0.011039 0.003800 -0.026614 0.000000 0.066255 0.000000
# 6 0.000000 0.000000 0.000000 -0.001558 0.000000 0.030079
#
#
# Mechanical properties :
#
#
# Convention : Reuss Voigt Hill
#
# Bulk Modulus (GPa) = 21.20332 41.25023 31.22678
# Shear Modulus (GPa) = 22.59319 29.97458 26.28388
#
# Velocity S-wave (km/s) = 3.42133 3.94078 3.69021
# Velocity P-wave (km/s) = 5.15681 6.48676 5.85964
#
# Compressibility (1/GPa) = 0.04716242
#
# Stress axis : x y z
#
# Youngs Moduli (GPa) = 78.47683 84.26582 27.86928
#
# Poissons Ratio (x) = 0.29624 -0.12170
# Poissons Ratio (y) = 0.27589 0.20946
# Poissons Ratio (z) = -0.34270 0.63333
#
# Static dielectric constant tensor:
#      x y z
#    x 4.280580 0.000000 -0.331420 
#    y 0.000000 3.607490 0.000000 
#    z -0.331420 0.000000 3.414920 
# 
# 
# High freq. dielectric constant tensor:
#      x y z
#    x 1.762220 0.000000 -0.005410 
#    y 0.000000 1.760010 0.000000 
#    z -0.005410 0.000000 1.723570 
# 
# From -- ./inp_files/72080.got.cif
#   From: 2010.06.25/outbox.cif.g09.slc.cpg/sg11_37_cif.got.tgz:72080.got - 2010.06.27 23:14:04.
