data_PCOD8075401
_publ_section_title
;
Structure prediction by ZEFSAII (Michael W. Deem and Ramdas Pophale) SiO2 
 PCOD8075401
Probable space group: P 21/M
;
_chemical_formula_sum "Si O2"
_cell_formula_units_Z 24
_cell_length_a 9.039691
_cell_length_b 14.903919
_cell_length_c 16.237514
_cell_angle_alpha 90.000000
_cell_angle_beta 35.266539
_cell_angle_gamma 90.000000
_cell_volume 1263.095003
_symmetry_space_group_name_H-M "P 21/M"
_symmetry_group_IT_number 11
_symmetry_cell_setting 'monoclinic'
loop_
_space_group_symop_operation_xyz
x,y,z
-x,1/2+y,-z
-x,-y,-z
x,1/2-y,z
loop_
_atom_site_type_symbol
_atom_site_label
_atom_site_fract_x
_atom_site_fract_y
_atom_site_fract_z
Si Si1 0.204357 0.986439 0.644607
Si Si2 0.856413 0.526160 0.648427
Si Si3 0.614650 0.144552 0.149352
Si Si4 0.114814 0.850855 0.138914
Si Si5 0.050252 0.643667 0.849113
Si Si6 0.494069 0.925003 0.075840
O O1 0.072947 0.959795 0.618558
O O2 0.175885 0.898113 0.711823
O O3 0.500000 0.000000 0.500000
O O4 0.094146 0.077162 0.735992
O O5 0.680655 0.613141 0.711528
O O6 0.656678 0.452708 0.773032
O O7 0.000000 0.500000 0.500000
O O8 0.600702 0.250000 0.152715
O O9 0.781714 0.110590 0.150166
O O10 0.761616 0.109718 0.001218
O O11 0.997868 0.750000 0.180496
O O12 0.340026 0.842755 0.104578
O O13 0.049113 0.750000 0.841375
O O14 0.764811 0.606212 0.986391
O O15 0.500000 0.000000 0.000000
#
# Coordination Sequence:
#
# PCOD8075401 Si02
#       6
#     4   4   4   4   4   4
#     4  11  23  39  58  86 121 160 203 244 299 363
#     4  11  22  38  58  86 119 158 194 245 304 354
#     4  10  21  37  59  89 118 153 201 248 298 352
#     4  10  20  38  62  85 115 154 199 249 297 355
#     4  11  22  37  61  89 119 157 202 251 294 353
#     4  11  19  39  61  89 113 152 204 238 298 356
#
# _framework density 19.000947
#
# number of rings (size 3 to 8) (size 9 to 14) (size 15 to 20)
#    0.000    1.333    5.000    1.500    0.000    6.667 
#    0.000    5.833    0.000    0.000    0.000    0.000 
#    0.000    0.000    0.000    0.000    0.000    0.000 
#
# Total GULP energy -297459.785651 kJ/mol
# GULP energy per Si atom -12394.157735 kJ/mol
# Density = 1.895770 g / cm^3
# Si number density = 19.000947 Si / 1000 Ang^3
#
#
#
# Elastic Constant Matrix: (Units=GPa)
#
#
# Indices 1 2 3 4 5 6 
#
# 1 159.7387 44.4923 85.4076 0.0000 -12.1547 0.0000
# 2 44.4923 64.3507 44.0827 0.0000 0.2863 0.0000
# 3 85.4076 44.0827 159.5087 0.0000 1.3864 0.0000
# 4 0.0000 0.0000 0.0000 24.4510 0.0000 -0.5371
# 5 -12.1547 0.2863 1.3864 0.0000 43.3511 0.0000
# 6 0.0000 0.0000 0.0000 -0.5371 0.0000 32.0584
#
#
#
# Elastic Compliance Matrix: (Units=1/GPa)
#
#
# Indices 1 2 3 4 5 6 
#
# 1 0.009820 -0.003927 -0.004198 0.000000 0.002914 0.000000
# 2 -0.003927 0.020739 -0.003619 0.000000 -0.001122 0.000000
# 3 -0.004198 -0.003619 0.009530 0.000000 -0.001458 0.000000
# 4 0.000000 0.000000 0.000000 0.040913 0.000000 0.000685
# 5 0.002914 -0.001122 -0.001458 0.000000 0.023938 0.000000
# 6 0.000000 0.000000 0.000000 0.000685 0.000000 0.031205
#
#
# Mechanical properties :
#
#
# Convention : Reuss Voigt Hill
#
# Bulk Modulus (GPa) = 60.23771 81.28481 70.76126
# Shear Modulus (GPa) = 30.27215 33.94647 32.10931
#
# Velocity S-wave (km/s) = 3.99581 4.23137 4.11527
# Velocity P-wave (km/s) = 7.28423 8.16975 7.73966
#
# Compressibility (1/GPa) = 0.01660090
#
# Stress axis : x y z
#
# Youngs Moduli (GPa) = 101.82900 48.21789 104.93038
#
# Poissons Ratio (x) = 0.18934 0.44053
# Poissons Ratio (y) = 0.39986 0.37977
# Poissons Ratio (z) = 0.42751 0.17451
#
# Static dielectric constant tensor:
#      x y z
#    x 3.930630 0.000000 0.022490 
#    y 0.000000 3.324110 0.000000 
#    z 0.022490 0.000000 3.548140 
# 
# 
# High freq. dielectric constant tensor:
#      x y z
#    x 1.754250 0.000000 -0.000030 
#    y 0.000000 1.735630 0.000000 
#    z -0.000030 0.000000 1.736290 
# 
# From -- ./inp_files/21997.got.cif
#   From: 2010.06.25/outbox.cif.g09.slc.cpg/sg11_11_cif.got.tgz:21997.got - 2010.06.27 23:14:04.
