data_PCOD8075246
_publ_section_title
;
Structure prediction by ZEFSAII (Michael W. Deem and Ramdas Pophale) SiO2 
 PCOD8075246
Probable space group: P 21/M
;
_chemical_formula_sum "Si O2"
_cell_formula_units_Z 28
_cell_length_a 16.029863
_cell_length_b 19.380722
_cell_length_c 8.996557
_cell_angle_alpha 90.000000
_cell_angle_beta 31.349509
_cell_angle_gamma 90.000000
_cell_volume 1454.099887
_symmetry_space_group_name_H-M "P 21/M"
_symmetry_group_IT_number 11
_symmetry_cell_setting 'monoclinic'
loop_
_space_group_symop_operation_xyz
x,y,z
-x,1/2+y,-z
-x,-y,-z
x,1/2-y,z
loop_
_atom_site_type_symbol
_atom_site_label
_atom_site_fract_x
_atom_site_fract_y
_atom_site_fract_z
Si Si1 0.886306 0.565612 0.179634
Si Si2 0.859102 0.171985 0.146502
Si Si3 0.765774 0.918420 0.693003
Si Si4 0.284060 0.571981 0.152417
Si Si5 0.063485 0.831539 0.304533
Si Si6 0.427988 0.470902 0.457904
Si Si7 0.592209 0.101107 0.714536
O O1 0.795951 0.569762 0.473925
O O2 0.747993 0.565573 0.260345
O O3 0.000000 0.500000 0.000000
O O4 0.003246 0.630178 0.975995
O O5 0.910480 0.250000 0.089866
O O6 0.682124 0.159974 0.483067
O O7 0.854743 0.152494 0.978814
O O8 0.885584 0.862554 0.578979
O O9 0.776760 0.992215 0.762012
O O10 0.593753 0.882175 0.978095
O O11 0.156636 0.626823 0.288662
O O12 0.318902 0.592963 0.266074
O O13 0.442567 0.580699 0.809948
O O14 0.060751 0.750000 0.344878
O O15 0.500000 0.500000 0.500000
O O16 0.388838 0.530557 0.401636
#
# Coordination Sequence:
#
# PCOD8075246 Si02
#       7
#     4   4   4   4   4   4   4
#     4  11  19  37  62  90 120 154 200 246 293 353
#     4  10  22  39  61  84 118 159 199 241 299 361
#     4  10  20  37  62  88 120 153 197 249 296 350
#     4  11  20  37  61  89 122 150 198 251 296 352
#     4  10  23  40  58  85 118 159 200 241 297 363
#     4  11  21  35  59  93 119 150 197 245 298 349
#     4  11  20  39  59  89 118 154 195 248 301 351
#
# _framework density 19.255897999999998
#
# number of rings (size 3 to 8) (size 9 to 14) (size 15 to 20)
#    0.000    1.429    4.286    2.143    2.000    1.143 
#    5.143    0.714    0.000    0.857    0.000    0.000 
#    0.000    0.000    0.000    0.000    0.000    0.000 
#
# Total GULP energy -347124.647909 kJ/mol
# GULP energy per Si atom -12397.308854 kJ/mol
# Density = 1.921207 g / cm^3
# Si number density = 19.255898 Si / 1000 Ang^3
#
#
#
# Elastic Constant Matrix: (Units=GPa)
#
#
# Indices 1 2 3 4 5 6 
#
# 1 139.0333 56.9967 57.1560 0.0000 -23.1042 0.0000
# 2 56.9967 98.3324 50.9973 0.0000 -14.0217 0.0000
# 3 57.1560 50.9973 135.4564 0.0000 -13.6793 0.0000
# 4 0.0000 0.0000 0.0000 26.1692 0.0000 0.7821
# 5 -23.1042 -14.0217 -13.6793 0.0000 25.2556 0.0000
# 6 0.0000 0.0000 0.0000 0.7821 0.0000 24.5872
#
#
#
# Elastic Compliance Matrix: (Units=1/GPa)
#
#
# Indices 1 2 3 4 5 6 
#
# 1 0.010963 -0.004198 -0.002399 0.000000 0.006399 0.000000
# 2 -0.004198 0.014794 -0.003551 0.000000 0.002450 0.000000
# 3 -0.002399 -0.003551 0.009850 0.000000 0.001169 0.000000
# 4 0.000000 0.000000 0.000000 0.038249 0.000000 -0.001217
# 5 0.006399 0.002450 0.001169 0.000000 0.047442 0.000000
# 6 0.000000 0.000000 0.000000 -0.001217 0.000000 0.040710
#
#
# Mechanical properties :
#
#
# Convention : Reuss Voigt Hill
#
# Bulk Modulus (GPa) = 65.31459 78.12469 71.71964
# Shear Modulus (GPa) = 26.67978 29.04720 27.86349
#
# Velocity S-wave (km/s) = 3.72632 3.88813 3.80809
# Velocity P-wave (km/s) = 7.24616 7.79850 7.52740
#
# Compressibility (1/GPa) = 0.01531052
#
# Stress axis : x y z
#
# Youngs Moduli (GPa) = 91.21482 67.59632 101.52574
#
# Poissons Ratio (x) = 0.28376 0.24359
# Poissons Ratio (y) = 0.38290 0.36051
# Poissons Ratio (z) = 0.21885 0.24003
#
# Static dielectric constant tensor:
#      x y z
#    x 4.044110 0.000000 1.115430 
#    y 0.000000 3.423990 0.000000 
#    z 1.115430 0.000000 7.021020 
# 
# 
# High freq. dielectric constant tensor:
#      x y z
#    x 1.745440 0.000000 -0.005830 
#    y 0.000000 1.727160 0.000000 
#    z -0.005830 0.000000 1.765780 
# 
# From -- ./inp_files/23172.got.cif
#   From: 2010.06.25/outbox.cif.g09.slc.cpg/sg11_12_cif.got.tgz:23172.got - 2010.06.27 23:14:04.
