data_PCOD8075537
_publ_section_title
;
Structure prediction by ZEFSAII (Michael W. Deem and Ramdas Pophale) SiO2 
 PCOD8075537
Probable space group: P 21/M
;
_chemical_formula_sum "Si O2"
_cell_formula_units_Z 24
_cell_length_a 15.748518
_cell_length_b 8.664694
_cell_length_c 9.674263
_cell_angle_alpha 90.000000
_cell_angle_beta 77.156489
_cell_angle_gamma 90.000000
_cell_volume 1287.083984
_symmetry_space_group_name_H-M "P 21/M"
_symmetry_group_IT_number 11
_symmetry_cell_setting 'monoclinic'
loop_
_space_group_symop_operation_xyz
x,y,z
-x,1/2+y,-z
-x,-y,-z
x,1/2-y,z
loop_
_atom_site_type_symbol
_atom_site_label
_atom_site_fract_x
_atom_site_fract_y
_atom_site_fract_z
Si Si1 0.782026 0.567202 0.864841
Si Si2 0.594811 0.931886 0.451692
Si Si3 0.034479 0.930769 0.129793
Si Si4 0.277524 0.431937 0.823320
Si Si5 0.861269 0.570967 0.342668
Si Si6 0.738861 0.430802 0.593661
O O1 0.775337 0.750000 0.845968
O O2 0.882234 0.522516 0.848119
O O3 0.739471 0.480826 0.752053
O O4 0.727372 0.506343 0.018175
O O5 0.588884 0.750000 0.464587
O O6 0.634490 0.983382 0.288152
O O7 0.500000 0.000000 0.500000
O O8 0.656787 0.989361 0.551250
O O9 0.054827 0.750000 0.102688
O O10 0.962541 0.956210 0.275576
O O11 0.000000 0.000000 0.000000
O O12 0.270600 0.250000 0.833149
O O13 0.194047 0.492802 0.767895
O O14 0.839781 0.750000 0.376436
O O15 0.830492 0.479407 0.490063
O O16 0.726306 0.250000 0.587470
#
# Coordination Sequence:
#
# PCOD8075537 Si02
#       6
#     4   4   4   4   4   4
#     4  11  21  37  57  81 113 153 189 232 286 331
#     4  10  20  39  64  89 113 142 180 226 276 339
#     4  11  21  34  54  82 114 149 194 240 278 326
#     4   8  16  33  57  81 108 143 184 226 274 328
#     4   9  18  36  56  77 108 151 194 234 277 329
#     4  11  23  38  56  84 115 147 186 233 284 336
#
# _framework density 18.646802999999998
#
# number of rings (size 3 to 8) (size 9 to 14) (size 15 to 20)
#    0.000    2.000    1.667    4.000    0.000    2.000 
#    0.000    3.333    0.000    0.000    0.000    0.000 
#    0.000    0.000    0.000    0.000    0.000    0.000 
#
# Total GULP energy -297562.425280 kJ/mol
# GULP energy per Si atom -12398.434387 kJ/mol
# Density = 1.860436 g / cm^3
# Si number density = 18.646803 Si / 1000 Ang^3
#
#
#
# Elastic Constant Matrix: (Units=GPa)
#
#
# Indices 1 2 3 4 5 6 
#
# 1 103.6532 32.5262 60.6393 0.0000 -14.1985 0.0000
# 2 32.5262 62.6631 30.3720 0.0000 -6.5303 0.0000
# 3 60.6393 30.3720 146.6901 0.0000 -4.7849 0.0000
# 4 0.0000 0.0000 0.0000 26.0677 0.0000 1.1717
# 5 -14.1985 -6.5303 -4.7849 0.0000 26.8854 0.0000
# 6 0.0000 0.0000 0.0000 1.1717 0.0000 33.1173
#
#
#
# Elastic Compliance Matrix: (Units=1/GPa)
#
#
# Indices 1 2 3 4 5 6 
#
# 1 0.014816 -0.004678 -0.004967 0.000000 0.005804 0.000000
# 2 -0.004678 0.019584 -0.002058 0.000000 0.001920 0.000000
# 3 -0.004967 -0.002058 0.009248 0.000000 -0.001477 0.000000
# 4 0.000000 0.000000 0.000000 0.038423 0.000000 -0.001359
# 5 0.005804 0.001920 -0.001477 0.000000 0.040464 0.000000
# 6 0.000000 0.000000 0.000000 -0.001359 0.000000 0.030244
#
#
# Mechanical properties :
#
#
# Convention : Reuss Voigt Hill
#
# Bulk Modulus (GPa) = 49.40231 62.23128 55.81680
# Shear Modulus (GPa) = 27.33221 29.84532 28.58876
#
# Velocity S-wave (km/s) = 3.83271 4.00504 3.91982
# Velocity P-wave (km/s) = 6.79246 7.40495 7.10531
#
# Compressibility (1/GPa) = 0.02024197
#
# Stress axis : x y z
#
# Youngs Moduli (GPa) = 67.49242 51.06082 108.12774
#
# Poissons Ratio (x) = 0.23888 0.53706
# Poissons Ratio (y) = 0.31576 0.22256
# Poissons Ratio (z) = 0.33523 0.10510
#
# Static dielectric constant tensor:
#      x y z
#    x 3.558950 0.000000 -0.105260 
#    y 0.000000 3.380510 0.000000 
#    z -0.105260 0.000000 3.766190 
# 
# 
# High freq. dielectric constant tensor:
#      x y z
#    x 1.706900 0.000000 -0.009710 
#    y 0.000000 1.720380 0.000000 
#    z -0.009710 0.000000 1.732500 
# 
# From -- ./inp_files/20382.got.cif
#   From: 2010.06.25/outbox.cif.g09.slc.cpg/sg11_11_cif.got.tgz:20382.got - 2010.06.27 23:14:04.
