data_PCOD8075150
_publ_section_title
;
Structure prediction by ZEFSAII (Michael W. Deem and Ramdas Pophale) SiO2 
 PCOD8075150
Probable space group: P 21/M
;
_chemical_formula_sum "Si O2"
_cell_formula_units_Z 24
_cell_length_a 14.526592
_cell_length_b 17.346572
_cell_length_c 7.844558
_cell_angle_alpha 90.000000
_cell_angle_beta 140.430590
_cell_angle_gamma 90.000000
_cell_volume 1259.197497
_symmetry_space_group_name_H-M "P 21/M"
_symmetry_group_IT_number 11
_symmetry_cell_setting 'monoclinic'
loop_
_space_group_symop_operation_xyz
x,y,z
-x,1/2+y,-z
-x,-y,-z
x,1/2-y,z
loop_
_atom_site_type_symbol
_atom_site_label
_atom_site_fract_x
_atom_site_fract_y
_atom_site_fract_z
Si Si1 0.654810 0.469914 0.170714
Si Si2 0.360081 0.838970 0.612563
Si Si3 0.894244 0.583929 0.172181
Si Si4 0.039027 0.837239 0.067419
Si Si5 0.412526 0.050969 0.246464
Si Si6 0.929204 0.563848 0.602570
O O1 0.665631 0.379927 0.239727
O O2 0.782703 0.518048 0.443948
O O3 0.500000 0.500000 0.000000
O O4 0.663685 0.486587 0.983341
O O5 0.405800 0.750000 0.706928
O O6 0.212159 0.844727 0.294130
O O7 0.485677 0.884917 0.693845
O O8 0.914380 0.609339 0.400197
O O9 0.993410 0.633743 0.189352
O O10 0.937630 0.494586 0.219301
O O11 0.726691 0.594520 0.873056
O O12 0.988700 0.750000 0.982681
O O13 0.958138 0.879176 0.798855
O O14 0.500000 0.000000 0.500000
#
# Coordination Sequence:
#
# PCOD8075150 Si02
#       6
#     4   4   4   4   4   4
#     4   9  19  35  59  86 107 151 196 229 290 343
#     4  10  21  39  57  83 122 153 188 241 298 348
#     4  10  21  36  62  87 113 151 199 247 284 342
#     4  11  23  37  60  88 119 159 192 238 302 349
#     4  10  21  36  61  86 116 150 196 243 286 350
#     4  10  20  37  60  88 117 152 198 246 288 343
#
# _framework density 19.059757999999999
#
# number of rings (size 3 to 8) (size 9 to 14) (size 15 to 20)
#    0.000    2.000    1.667    1.500    4.667    1.333 
#    0.000    7.500    0.000    0.000    0.000    0.000 
#    0.000    0.000    0.000    0.000    0.000    0.000 
#
# Total GULP energy -297389.135382 kJ/mol
# GULP energy per Si atom -12391.213974 kJ/mol
# Density = 1.901638 g / cm^3
# Si number density = 19.059758 Si / 1000 Ang^3
#
#
#
# Elastic Constant Matrix: (Units=GPa)
#
#
# Indices 1 2 3 4 5 6 
#
# 1 90.4203 45.0894 43.6731 0.0000 12.6620 0.0000
# 2 45.0894 127.7161 62.1163 0.0000 -9.3959 0.0000
# 3 43.6731 62.1163 107.6130 0.0000 10.2550 0.0000
# 4 0.0000 0.0000 0.0000 20.2608 0.0000 5.9641
# 5 12.6620 -9.3959 10.2550 0.0000 36.8687 0.0000
# 6 0.0000 0.0000 0.0000 5.9641 0.0000 21.5444
#
#
#
# Elastic Compliance Matrix: (Units=1/GPa)
#
#
# Indices 1 2 3 4 5 6 
#
# 1 0.015575 -0.004291 -0.003318 0.000000 -0.005520 0.000000
# 2 -0.004291 0.012902 -0.006327 0.000000 0.006522 0.000000
# 3 -0.003318 -0.006327 0.014727 0.000000 -0.004569 0.000000
# 4 0.000000 0.000000 0.000000 0.053735 0.000000 -0.014875
# 5 -0.005520 0.006522 -0.004569 0.000000 0.031952 0.000000
# 6 0.000000 0.000000 0.000000 -0.014875 0.000000 0.050534
#
#
# Mechanical properties :
#
#
# Convention : Reuss Voigt Hill
#
# Bulk Modulus (GPa) = 65.22726 69.72301 67.47513
# Shear Modulus (GPa) = 23.53972 27.39280 25.46626
#
# Velocity S-wave (km/s) = 3.51814 3.79516 3.65927
# Velocity P-wave (km/s) = 7.12740 7.47429 7.30291
#
# Compressibility (1/GPa) = 0.01533101
#
# Stress axis : x y z
#
# Youngs Moduli (GPa) = 64.20672 77.50809 67.90339
#
# Poissons Ratio (x) = 0.33258 0.22530
# Poissons Ratio (y) = 0.27550 0.42965
# Poissons Ratio (z) = 0.21304 0.49042
#
# Static dielectric constant tensor:
#      x y z
#    x 7.481330 0.000000 -0.046110 
#    y 0.000000 2.840340 0.000000 
#    z -0.046110 0.000000 3.784270 
# 
# 
# High freq. dielectric constant tensor:
#      x y z
#    x 1.746900 0.000000 0.018160 
#    y 0.000000 1.715960 0.000000 
#    z 0.018160 0.000000 1.753030 
# 
# From -- ./inp_files/25154.got.cif
#   From: 2010.06.25/outbox.cif.g09.slc.cpg/sg11_13_cif.got.tgz:25154.got - 2010.06.27 23:14:04.
