data_PCOD8075710
_publ_section_title
;
Structure prediction by ZEFSAII (Michael W. Deem and Ramdas Pophale) SiO2 
 PCOD8075710
Probable space group: P 21/M
;
_chemical_formula_sum "Si O2"
_cell_formula_units_Z 24
_cell_length_a 5.112686
_cell_length_b 12.891162
_cell_length_c 20.836844
_cell_angle_alpha 90.000000
_cell_angle_beta 110.933355
_cell_angle_gamma 90.000000
_cell_volume 1282.680348
_symmetry_space_group_name_H-M "P 21/M"
_symmetry_group_IT_number 11
_symmetry_cell_setting 'monoclinic'
loop_
_space_group_symop_operation_xyz
x,y,z
-x,1/2+y,-z
-x,-y,-z
x,1/2-y,z
loop_
_atom_site_type_symbol
_atom_site_label
_atom_site_fract_x
_atom_site_fract_y
_atom_site_fract_z
Si Si1 0.363781 0.969303 0.588224
Si Si2 0.776201 0.870441 0.529096
Si Si3 0.166104 0.870396 0.137248
Si Si4 0.663831 0.531671 0.745208
Si Si5 0.579359 0.968748 0.077963
Si Si6 0.250165 0.629773 0.804278
O O1 0.548982 0.887624 0.564719
O O2 0.513700 0.001530 0.666821
O O3 0.069836 0.916062 0.579053
O O4 0.321364 0.074837 0.544937
O O5 0.805681 0.750000 0.516496
O O6 0.227385 0.750000 0.151834
O O7 0.314897 0.912362 0.086431
O O8 0.836655 0.889045 0.100892
O O9 0.290809 0.926960 0.210573
O O10 0.475930 0.612536 0.768328
O O11 0.954205 0.587068 0.753554
O O12 0.660123 0.073269 0.122508
O O13 0.500000 0.000000 0.000000
O O14 0.227838 0.750000 0.818829
#
# Coordination Sequence:
#
# PCOD8075710 Si02
#       6
#     4   4   4   4   4   4
#     4  10  21  36  54  78 106 138 175 216 262 312
#     4  10  21  36  54  78 106 136 175 218 260 312
#     4  10  21  37  57  81 108 140 179 219 261 312
#     4  10  21  36  54  78 108 138 175 218 260 312
#     4  10  21  38  56  80 110 140 177 220 262 312
#     4  10  21  35  53  79 108 138 175 217 261 312
#
# _framework density 18.710819999999998
#
# number of rings (size 3 to 8) (size 9 to 14) (size 15 to 20)
#    0.000    2.000    0.000    3.000    0.000    6.000 
#    0.000    0.000    0.000   12.000    0.000    0.000 
#    0.000    0.000    0.000    0.000    0.000    0.000 
#
# Total GULP energy -297735.429089 kJ/mol
# GULP energy per Si atom -12405.642879 kJ/mol
# Density = 1.866823 g / cm^3
# Si number density = 18.710820 Si / 1000 Ang^3
#
#
#
# Elastic Constant Matrix: (Units=GPa)
#
#
# Indices 1 2 3 4 5 6 
#
# 1 62.3281 2.2178 16.1245 0.0000 2.0324 0.0000
# 2 2.2178 114.5426 37.5725 0.0000 -4.5359 0.0000
# 3 16.1245 37.5725 130.0556 0.0000 4.0300 0.0000
# 4 0.0000 0.0000 0.0000 7.8627 0.0000 0.2953
# 5 2.0324 -4.5359 4.0300 0.0000 18.9424 0.0000
# 6 0.0000 0.0000 0.0000 0.2953 0.0000 17.6361
#
#
#
# Elastic Compliance Matrix: (Units=1/GPa)
#
#
# Indices 1 2 3 4 5 6 
#
# 1 0.016621 0.000322 -0.002115 0.000000 -0.001256 0.000000
# 2 0.000322 0.009814 -0.002966 0.000000 0.002947 0.000000
# 3 -0.002115 -0.002966 0.008882 0.000000 -0.002373 0.000000
# 4 0.000000 0.000000 0.000000 0.127263 0.000000 -0.002131
# 5 -0.001256 0.002947 -0.002373 0.000000 0.054137 0.000000
# 6 0.000000 0.000000 0.000000 -0.002131 0.000000 0.056737
#
#
# Mechanical properties :
#
#
# Convention : Reuss Voigt Hill
#
# Bulk Modulus (GPa) = 38.76246 46.52843 42.64545
# Shear Modulus (GPa) = 17.14845 25.62234 21.38540
#
# Velocity S-wave (km/s) = 3.03066 3.70454 3.38441
# Velocity P-wave (km/s) = 5.74527 6.57413 6.17363
#
# Compressibility (1/GPa) = 0.02579816
#
# Stress axis : x y z
#
# Youngs Moduli (GPa) = 60.16584 101.89653 112.59059
#
# Poissons Ratio (x) = -0.03282 0.23811
# Poissons Ratio (y) = -0.01938 0.33399
# Poissons Ratio (z) = 0.12724 0.30227
#
# Static dielectric constant tensor:
#      x y z
#    x 3.782730 0.000000 0.060000 
#    y 0.000000 3.281340 0.000000 
#    z 0.060000 0.000000 3.349200 
# 
# 
# High freq. dielectric constant tensor:
#      x y z
#    x 1.750220 0.000000 0.002570 
#    y 0.000000 1.720620 0.000000 
#    z 0.002570 0.000000 1.725120 
# 
# From -- ./inp_files/7691.got.cif
#   From: 2010.06.25/outbox.cif.g09.slc.cpg/sg11_4_cif.got.tgz:7691.got - 2010.06.27 23:14:04.
