data_PCOD8075428
_publ_section_title
;
Structure prediction by ZEFSAII (Michael W. Deem and Ramdas Pophale) SiO2 
 PCOD8075428
Probable space group: P 21/M
;
_chemical_formula_sum "Si O2"
_cell_formula_units_Z 20
_cell_length_a 24.660935
_cell_length_b 8.786688
_cell_length_c 9.512858
_cell_angle_alpha 90.000000
_cell_angle_beta 151.430169
_cell_angle_gamma 90.000000
_cell_volume 985.784789
_symmetry_space_group_name_H-M "P 21/M"
_symmetry_group_IT_number 11
_symmetry_cell_setting 'monoclinic'
loop_
_space_group_symop_operation_xyz
x,y,z
-x,1/2+y,-z
-x,-y,-z
x,1/2-y,z
loop_
_atom_site_type_symbol
_atom_site_label
_atom_site_fract_x
_atom_site_fract_y
_atom_site_fract_z
Si Si1 0.167729 0.570063 0.237300
Si Si2 0.785280 0.070093 0.343031
Si Si3 0.407756 0.922715 0.695487
Si Si4 0.027549 0.431160 0.411682
Si Si5 0.451835 0.075394 0.252969
O O1 0.167242 0.750000 0.221046
O O2 0.157837 0.522487 0.378491
O O3 0.284149 0.501948 0.436949
O O4 0.063679 0.504954 0.909229
O O5 0.788597 0.250000 0.327027
O O6 0.850378 0.988666 0.363474
O O7 0.655768 0.015747 0.050204
O O8 0.401081 0.750000 0.732004
O O9 0.443538 0.936465 0.615817
O O10 0.500000 0.000000 0.000000
O O11 0.027413 0.250000 0.422640
O O12 0.000000 0.500000 0.500000
O O13 0.416709 0.250000 0.199426
O O14 0.500000 0.000000 0.500000
#
# Coordination Sequence:
#
# PCOD8075428 Si02
#       5
#     4   4   4   4   4
#     4   9  20  39  64  89 120 160 202 252 307 363
#     4  11  22  41  66  89 120 162 205 254 310 366
#     4  10  20  38  62  91 122 158 199 248 303 361
#     4  11  24  42  63  91 124 160 206 256 308 366
#     4  11  24  39  61  93 128 164 203 251 305 366
#
# _framework density 20.288404
#
# number of rings (size 3 to 8) (size 9 to 14) (size 15 to 20)
#    0.000    1.600    2.000    2.400    2.800    0.800 
#    0.000    5.000    0.000    0.000    0.000    0.000 
#    0.000    0.000    0.000    0.000    0.000    0.000 
#
# Total GULP energy -248030.705076 kJ/mol
# GULP energy per Si atom -12401.535254 kJ/mol
# Density = 2.024223 g / cm^3
# Si number density = 20.288404 Si / 1000 Ang^3
#
#
#
# Elastic Constant Matrix: (Units=GPa)
#
#
# Indices 1 2 3 4 5 6 
#
# 1 124.5573 43.4792 28.2389 0.0000 0.2472 0.0000
# 2 43.4792 80.0105 27.7480 0.0000 -8.1685 0.0000
# 3 28.2389 27.7480 81.7509 0.0000 -9.7964 0.0000
# 4 0.0000 0.0000 0.0000 32.5153 0.0000 -0.9848
# 5 0.2472 -8.1685 -9.7964 0.0000 41.5822 0.0000
# 6 0.0000 0.0000 0.0000 -0.9848 0.0000 31.6060
#
#
#
# Elastic Compliance Matrix: (Units=1/GPa)
#
#
# Indices 1 2 3 4 5 6 
#
# 1 0.010241 -0.005022 -0.002016 0.000000 -0.001522 0.000000
# 2 -0.005022 0.016746 -0.003655 0.000000 0.002458 0.000000
# 3 -0.002016 -0.003655 0.014494 0.000000 0.002709 0.000000
# 4 0.000000 0.000000 0.000000 0.030784 0.000000 0.000959
# 5 -0.001522 0.002458 0.002709 0.000000 0.025179 0.000000
# 6 0.000000 0.000000 0.000000 0.000959 0.000000 0.031669
#
#
# Mechanical properties :
#
#
# Convention : Reuss Voigt Hill
#
# Bulk Modulus (GPa) = 49.75924 53.91677 51.83800
# Shear Modulus (GPa) = 31.80753 33.59753 32.70253
#
# Velocity S-wave (km/s) = 3.96380 4.07381 4.01918
# Velocity P-wave (km/s) = 6.74746 6.98289 6.86618
#
# Compressibility (1/GPa) = 0.02009677
#
# Stress axis : x y z
#
# Youngs Moduli (GPa) = 97.64343 59.71687 68.99624
#
# Poissons Ratio (x) = 0.29988 0.13907
# Poissons Ratio (y) = 0.49034 0.25215
# Poissons Ratio (z) = 0.19681 0.21824
#
# Static dielectric constant tensor:
#      x y z
#    x 4.073200 0.000000 0.093110 
#    y 0.000000 3.543090 0.000000 
#    z 0.093110 0.000000 5.621880 
# 
# 
# High freq. dielectric constant tensor:
#      x y z
#    x 1.809230 0.000000 0.003560 
#    y 0.000000 1.778940 0.000000 
#    z 0.003560 0.000000 1.798170 
# 
# From -- ./inp_files/15916.got.cif
#   From: 2010.06.25/outbox.cif.g09.slc.cpg/sg11_8_cif.got.tgz:15916.got - 2010.06.27 23:14:04.
