data_PCOD8075931
_publ_section_title
;
Structure prediction by ZEFSAII (Michael W. Deem and Ramdas Pophale) SiO2 
 PCOD8075931
Probable space group: P 21/M
;
_chemical_formula_sum "Si O2"
_cell_formula_units_Z 32
_cell_length_a 15.373379
_cell_length_b 17.342100
_cell_length_c 12.833480
_cell_angle_alpha 90.000000
_cell_angle_beta 152.056043
_cell_angle_gamma 90.000000
_cell_volume 1603.337224
_symmetry_space_group_name_H-M "P 21/M"
_symmetry_group_IT_number 11
_symmetry_cell_setting 'monoclinic'
loop_
_space_group_symop_operation_xyz
x,y,z
-x,1/2+y,-z
-x,-y,-z
x,1/2-y,z
loop_
_atom_site_type_symbol
_atom_site_label
_atom_site_fract_x
_atom_site_fract_y
_atom_site_fract_z
Si Si1 0.640286 0.338651 0.648920
Si Si2 0.024603 0.410976 0.056537
Si Si3 0.466541 0.453437 0.805316
Si Si4 0.777858 0.164001 0.436805
Si Si5 0.657800 0.660792 0.485549
Si Si6 0.207946 0.972589 0.697618
Si Si7 0.882686 0.839532 0.061075
Si Si8 0.506590 0.900016 0.721366
O O1 0.675302 0.250000 0.654480
O O2 0.494459 0.346598 0.586193
O O3 0.570159 0.384099 0.474181
O O4 0.828984 0.377528 0.887572
O O5 0.167181 0.394226 0.301593
O O6 0.104884 0.363292 0.045064
O O7 0.000000 0.500000 0.000000
O O8 0.429231 0.369562 0.715674
O O9 0.310577 0.468018 0.728478
O O10 0.451294 0.513364 0.693626
O O11 0.672790 0.462643 0.070971
O O12 0.808727 0.250000 0.428827
O O13 0.801809 0.111746 0.361926
O O14 0.577755 0.156141 0.279503
O O15 0.924511 0.140657 0.680595
O O16 0.718308 0.750000 0.534892
O O17 0.000000 0.000000 0.500000
O O18 0.828061 0.750000 0.007727
O O19 0.726878 0.888023 0.956398
#
# Coordination Sequence:
#
# PCOD8075931 Si02
#       8
#     4   4   4   4   4   4   4   4
#     4  11  22  38  60  87 127 172 207 248 299 362
#     4  12  25  36  57  88 127 172 214 254 295 364
#     4  10  24  41  63  92 118 154 209 255 308 378
#     4  10  21  36  61  92 118 151 201 252 310 370
#     4  11  25  43  62  89 132 176 212 255 308 374
#     4  10  22  44  66  87 120 155 197 265 322 366
#     4  11  21  35  56  87 125 161 199 250 305 358
#     4  11  20  35  62  88 123 158 198 250 306 360
#
# _framework density 19.958371
#
# number of rings (size 3 to 8) (size 9 to 14) (size 15 to 20)
#    0.000    1.250    2.500    3.750    3.500    2.500 
#    0.000    0.625    0.000    0.000    0.000    0.000 
#    0.000    0.000    0.000    0.000    0.000    0.000 
#
# Total GULP energy -396901.251878 kJ/mol
# GULP energy per Si atom -12403.164121 kJ/mol
# Density = 1.991295 g / cm^3
# Si number density = 19.958371 Si / 1000 Ang^3
#
#
#
# Elastic Constant Matrix: (Units=GPa)
#
#
# Indices 1 2 3 4 5 6 
#
# 1 62.0026 38.3470 33.5324 0.0000 -0.0924 0.0000
# 2 38.3470 90.8570 57.9717 0.0000 -5.3367 0.0000
# 3 33.5324 57.9717 102.2710 0.0000 0.6043 0.0000
# 4 0.0000 0.0000 0.0000 33.1538 0.0000 -3.1387
# 5 -0.0924 -5.3367 0.6043 0.0000 37.3628 0.0000
# 6 0.0000 0.0000 0.0000 -3.1387 0.0000 19.6734
#
#
#
# Elastic Compliance Matrix: (Units=1/GPa)
#
#
# Indices 1 2 3 4 5 6 
#
# 1 0.022477 -0.007591 -0.003061 0.000000 -0.000979 0.000000
# 2 -0.007591 0.020067 -0.008903 0.000000 0.002991 0.000000
# 3 -0.003061 -0.008903 0.015838 0.000000 -0.001535 0.000000
# 4 0.000000 0.000000 0.000000 0.030625 0.000000 0.004886
# 5 -0.000979 0.002991 -0.001535 0.000000 0.027214 0.000000
# 6 0.000000 0.000000 0.000000 0.004886 0.000000 0.051610
#
#
# Mechanical properties :
#
#
# Convention : Reuss Voigt Hill
#
# Bulk Modulus (GPa) = 51.89314 57.20364 54.54839
# Shear Modulus (GPa) = 23.43399 26.38998 24.91198
#
# Velocity S-wave (km/s) = 3.43030 3.64022 3.53682
# Velocity P-wave (km/s) = 6.46114 6.81117 6.63846
#
# Compressibility (1/GPa) = 0.01927037
#
# Stress axis : x y z
#
# Youngs Moduli (GPa) = 44.48931 49.83349 63.14122
#
# Poissons Ratio (x) = 0.37830 0.19328
# Poissons Ratio (y) = 0.33773 0.56217
# Poissons Ratio (z) = 0.13618 0.44369
#
# Static dielectric constant tensor:
#      x y z
#    x 3.556890 0.000000 0.166840 
#    y 0.000000 3.706370 0.000000 
#    z 0.166840 0.000000 3.859120 
# 
# 
# High freq. dielectric constant tensor:
#      x y z
#    x 1.771930 0.000000 0.011500 
#    y 0.000000 1.779760 0.000000 
#    z 0.011500 0.000000 1.786830 
# 
# From -- ./inp_files/40041.got.cif
#   From: 2010.06.25/outbox.cif.g09.slc.cpg/sg11_21_cif.got.tgz:40041.got - 2010.06.27 23:14:04.
