data_PCOD8075212
_publ_section_title
;
Structure prediction by ZEFSAII (Michael W. Deem and Ramdas Pophale) SiO2 
 PCOD8075212
Probable space group: P 21/M
;
_chemical_formula_sum "Si O2"
_cell_formula_units_Z 28
_cell_length_a 27.039167
_cell_length_b 8.386985
_cell_length_c 9.474944
_cell_angle_alpha 90.000000
_cell_angle_beta 138.446790
_cell_angle_gamma 90.000000
_cell_volume 1425.265745
_symmetry_space_group_name_H-M "P 21/M"
_symmetry_group_IT_number 11
_symmetry_cell_setting 'monoclinic'
loop_
_space_group_symop_operation_xyz
x,y,z
-x,1/2+y,-z
-x,-y,-z
x,1/2-y,z
loop_
_atom_site_type_symbol
_atom_site_label
_atom_site_fract_x
_atom_site_fract_y
_atom_site_fract_z
Si Si1 0.564365 0.563522 0.733021
Si Si2 0.433052 0.559880 0.955324
Si Si3 0.737615 0.065913 0.475192
Si Si4 0.817773 0.930769 0.381083
Si Si5 0.918288 0.562001 0.352424
Si Si6 0.711070 0.070386 0.945617
Si Si7 0.212077 0.436247 0.130344
O O1 0.500000 0.500000 0.500000
O O2 0.580864 0.750000 0.742815
O O3 0.627941 0.445450 0.817766
O O4 0.548450 0.531340 0.861885
O O5 0.436349 0.750000 0.980324
O O6 0.348804 0.507756 0.726333
O O7 0.500000 0.500000 0.000000
O O8 0.737126 0.250000 0.512021
O O9 0.788673 0.040663 0.445639
O O10 0.782551 0.974323 0.693093
O O11 0.826440 0.750000 0.455094
O O12 0.892037 0.992350 0.455525
O O13 0.756875 0.936695 0.127635
O O14 0.918712 0.750000 0.350775
O O15 0.000000 0.500000 0.500000
O O16 0.863984 0.501215 0.109318
O O17 0.738788 0.250000 0.036739
O O18 0.719133 0.028665 0.797146
O O19 0.221120 0.250000 0.127887
#
# Coordination Sequence:
#
# PCOD8075212 Si02
#       7
#     4   4   4   4   4   4   4
#     4  12  25  41  61  84 115 154 198 249 304 355
#     4  11  25  43  61  86 121 159 203 251 307 361
#     4  11  23  39  61  89 121 157 203 251 298 358
#     4  10  20  37  61  88 118 156 198 238 292 354
#     4   9  20  38  62  92 122 155 196 242 292 354
#     4  11  21  37  59  85 115 150 197 247 293 350
#     4  10  22  39  60  88 121 158 200 242 295 356
#
# _framework density 19.645458999999999
#
# number of rings (size 3 to 8) (size 9 to 14) (size 15 to 20)
#    0.000    1.429    1.429    5.143    2.000    5.143 
#    0.000    0.714    0.000    0.000    0.000    0.000 
#    0.000    0.000    0.000    0.000    0.000    0.000 
#
# Total GULP energy -346969.494280 kJ/mol
# GULP energy per Si atom -12391.767653 kJ/mol
# Density = 1.960075 g / cm^3
# Si number density = 19.645459 Si / 1000 Ang^3
#
#
#
# Elastic Constant Matrix: (Units=GPa)
#
#
# Indices 1 2 3 4 5 6 
#
# 1 155.1040 28.5987 62.0834 0.0000 7.8708 0.0000
# 2 28.5987 77.3392 25.9787 0.0000 -1.4092 0.0000
# 3 62.0834 25.9787 88.9297 0.0000 -7.8083 0.0000
# 4 0.0000 0.0000 0.0000 29.1650 0.0000 -1.8263
# 5 7.8708 -1.4092 -7.8083 0.0000 29.5672 0.0000
# 6 0.0000 0.0000 0.0000 -1.8263 0.0000 35.7046
#
#
#
# Elastic Compliance Matrix: (Units=1/GPa)
#
#
# Indices 1 2 3 4 5 6 
#
# 1 0.009600 -0.001385 -0.006682 0.000000 -0.004386 0.000000
# 2 -0.001385 0.014542 -0.003264 0.000000 0.000200 0.000000
# 3 -0.006682 -0.003264 0.017410 0.000000 0.006221 0.000000
# 4 0.000000 0.000000 0.000000 0.034398 0.000000 0.001759
# 5 -0.004386 0.000200 0.006221 0.000000 0.036641 0.000000
# 6 0.000000 0.000000 0.000000 0.001759 0.000000 0.028098
#
#
# Mechanical properties :
#
#
# Convention : Reuss Voigt Hill
#
# Bulk Modulus (GPa) = 52.93977 61.63270 57.28623
# Shear Modulus (GPa) = 29.47291 32.53485 31.00388
#
# Velocity S-wave (km/s) = 3.87750 4.07394 3.97693
# Velocity P-wave (km/s) = 6.85950 7.31914 7.09305
#
# Compressibility (1/GPa) = 0.01888939
#
# Stress axis : x y z
#
# Youngs Moduli (GPa) = 104.16608 68.76553 57.43974
#
# Poissons Ratio (x) = 0.09525 0.38384
# Poissons Ratio (y) = 0.14429 0.18746
# Poissons Ratio (z) = 0.69608 0.22442
#
# Static dielectric constant tensor:
#      x y z
#    x 3.504960 0.000000 -0.386720 
#    y 0.000000 3.565170 0.000000 
#    z -0.386720 0.000000 3.154400 
# 
# 
# High freq. dielectric constant tensor:
#      x y z
#    x 1.778280 0.000000 -0.006850 
#    y 0.000000 1.772950 0.000000 
#    z -0.006850 0.000000 1.747700 
# 
# From -- ./inp_files/28638.got.cif
#   From: 2010.06.25/outbox.cif.g09.slc.cpg/sg11_15_cif.got.tgz:28638.got - 2010.06.27 23:14:04.
