data_PCOD8075052
_publ_section_title
;
Structure prediction by ZEFSAII (Michael W. Deem and Ramdas Pophale) SiO2 
 PCOD8075052
Probable space group: P 21/M
;
_chemical_formula_sum "Si O2"
_cell_formula_units_Z 28
_cell_length_a 7.672662
_cell_length_b 13.328769
_cell_length_c 18.065918
_cell_angle_alpha 90.000000
_cell_angle_beta 139.846377
_cell_angle_gamma 90.000000
_cell_volume 1191.372572
_symmetry_space_group_name_H-M "P 21/M"
_symmetry_group_IT_number 11
_symmetry_cell_setting 'monoclinic'
loop_
_space_group_symop_operation_xyz
x,y,z
-x,1/2+y,-z
-x,-y,-z
x,1/2-y,z
loop_
_atom_site_type_symbol
_atom_site_label
_atom_site_fract_x
_atom_site_fract_y
_atom_site_fract_z
Si Si1 0.455227 0.867860 0.626030
Si Si2 0.529047 0.129995 0.973106
Si Si3 0.899084 0.867282 0.887060
Si Si4 0.934921 0.635203 0.286342
Si Si5 0.533109 0.864314 0.484038
Si Si6 0.071547 0.544206 0.618340
Si Si7 0.476266 0.631009 0.863362
O O1 0.376381 0.750000 0.603548
O O2 0.733610 0.889575 0.758607
O O3 0.501575 0.905480 0.557745
O O4 0.210940 0.931771 0.584635
O O5 0.533359 0.250000 0.980425
O O6 0.273390 0.093804 0.842349
O O7 0.517218 0.083098 0.052164
O O8 0.800315 0.088117 0.022046
O O9 0.922607 0.750000 0.907636
O O10 0.737240 0.913057 0.904423
O O11 0.874341 0.750000 0.288416
O O12 0.902381 0.573489 0.352281
O O13 0.237229 0.624066 0.350333
O O14 0.629338 0.750000 0.516993
O O15 0.755729 0.926426 0.511592
O O16 0.206501 0.605845 0.729848
O O17 0.489437 0.750000 0.873947
#
# Coordination Sequence:
#
# PCOD8075052 Si02
#       7
#     4   4   4   4   4   4   4
#     4   9  18  33  57  89 112 129 170 231 285 330
#     4   9  17  33  52  71 107 149 176 213 269 320
#     4   8  14  27  49  76 103 130 164 211 268 319
#     4  10  23  39  53  75 111 154 193 222 258 324
#     4  10  20  37  59  82 110 141 177 227 282 330
#     4  11  20  35  59  83 110 142 181 231 280 321
#     4   9  17  30  53  84 107 130 175 228 274 320
#
# _framework density 23.502303000000001
#
# number of rings (size 3 to 8) (size 9 to 14) (size 15 to 20)
#    0.000    2.571    0.000    3.429    0.000    3.429 
#    0.000    5.714    0.000    9.429    0.000    0.000 
#    0.000    0.000    0.000    0.000    0.000    0.000 
#
# Total GULP energy -347183.416795 kJ/mol
# GULP energy per Si atom -12399.407743 kJ/mol
# Density = 2.344881 g / cm^3
# Si number density = 23.502303 Si / 1000 Ang^3
#
#
#
# Elastic Constant Matrix: (Units=GPa)
#
#
# Indices 1 2 3 4 5 6 
#
# 1 120.9832 17.1824 57.8103 0.0000 23.5471 0.0000
# 2 17.1824 36.2256 13.0809 0.0000 13.3571 0.0000
# 3 57.8103 13.0809 108.1671 0.0000 38.0994 0.0000
# 4 0.0000 0.0000 0.0000 21.4340 0.0000 0.5213
# 5 23.5471 13.3571 38.0994 0.0000 31.2208 0.0000
# 6 0.0000 0.0000 0.0000 0.5213 0.0000 19.3017
#
#
#
# Elastic Compliance Matrix: (Units=1/GPa)
#
#
# Indices 1 2 3 4 5 6 
#
# 1 0.011486 -0.003265 -0.005585 0.000000 -0.000450 0.000000
# 2 -0.003265 0.033885 0.003308 0.000000 -0.016071 0.000000
# 3 -0.005585 0.003308 0.019020 0.000000 -0.020413 0.000000
# 4 0.000000 0.000000 0.000000 0.046686 0.000000 -0.001261
# 5 -0.000450 -0.016071 -0.020413 0.000000 0.064156 0.000000
# 6 0.000000 0.000000 0.000000 -0.001261 0.000000 0.051843
#
#
# Mechanical properties :
#
#
# Convention : Reuss Voigt Hill
#
# Bulk Modulus (GPa) = 18.75977 49.05813 33.90895
# Shear Modulus (GPa) = 19.53670 26.21144 22.87407
#
# Velocity S-wave (km/s) = 2.88630 3.34319 3.12311
# Velocity P-wave (km/s) = 4.37116 5.98512 5.24064
#
# Compressibility (1/GPa) = 0.05330555
#
# Stress axis : x y z
#
# Youngs Moduli (GPa) = 87.06435 29.51186 52.57586
#
# Poissons Ratio (x) = 0.09636 0.29365
# Poissons Ratio (y) = 0.28428 -0.17392
# Poissons Ratio (z) = 0.48628 -0.09762
#
# Static dielectric constant tensor:
#      x y z
#    x 4.344020 0.000000 0.132150 
#    y 0.000000 4.141960 0.000000 
#    z 0.132150 0.000000 4.378690 
# 
# 
# High freq. dielectric constant tensor:
#      x y z
#    x 1.917170 0.000000 0.007860 
#    y 0.000000 1.936210 0.000000 
#    z 0.007860 0.000000 1.934800 
# 
# From -- ./inp_files/47671.got.cif
#   From: 2010.06.25/outbox.cif.g09.slc.cpg/sg11_24_cif.got.tgz:47671.got - 2010.06.27 23:14:04.
