data_PCOD8075534
_publ_section_title
;
Structure prediction by ZEFSAII (Michael W. Deem and Ramdas Pophale) SiO2 
 PCOD8075534
Probable space group: P 21/M
;
_chemical_formula_sum "Si O2"
_cell_formula_units_Z 28
_cell_length_a 12.404881
_cell_length_b 12.705306
_cell_length_c 9.604571
_cell_angle_alpha 90.000000
_cell_angle_beta 119.557818
_cell_angle_gamma 90.000000
_cell_volume 1316.752754
_symmetry_space_group_name_H-M "P 21/M"
_symmetry_group_IT_number 11
_symmetry_cell_setting 'monoclinic'
loop_
_space_group_symop_operation_xyz
x,y,z
-x,1/2+y,-z
-x,-y,-z
x,1/2-y,z
loop_
_atom_site_type_symbol
_atom_site_label
_atom_site_fract_x
_atom_site_fract_y
_atom_site_fract_z
Si Si1 0.698447 0.371205 0.012998
Si Si2 0.945162 0.472263 0.112663
Si Si3 0.993110 0.124839 0.607231
Si Si4 0.631749 0.626758 0.575013
Si Si5 0.480038 0.992935 0.277179
Si Si6 0.125759 0.130725 0.416986
Si Si7 0.283417 0.870235 0.649472
O O1 0.683573 0.250000 0.956950
O O2 0.730305 0.379786 0.194338
O O3 0.808086 0.428423 0.999175
O O4 0.573855 0.436036 0.894521
O O5 0.951081 0.574139 0.217632
O O6 0.023050 0.377989 0.231540
O O7 0.000000 0.500000 0.000000
O O8 0.007066 0.250000 0.624397
O O9 0.847223 0.094032 0.502135
O O10 0.071691 0.079276 0.524886
O O11 0.644561 0.750000 0.610740
O O12 0.622407 0.570338 0.719531
O O13 0.509371 0.599079 0.407883
O O14 0.747435 0.580086 0.560013
O O15 0.603772 0.057366 0.324335
O O16 0.154547 0.250000 0.470430
O O17 0.313667 0.750000 0.626162
#
# Coordination Sequence:
#
# PCOD8075534 Si02
#       7
#     4   4   4   4   4   4   4
#     4  11  24  41  61  89 127 171 213 260 321 380
#     4  12  24  38  61  95 129 165 204 258 324 383
#     4  10  22  41  66  94 123 163 214 262 314 381
#     4  10  22  38  61  90 121 163 213 265 317 372
#     4  11  22  39  60  90 127 168 213 258 316 379
#     4  10  20  39  64  87 118 161 209 261 313 373
#     4  10  21  40  66  94 125 165 213 265 315 376
#
# _framework density 21.264430000000001
#
# number of rings (size 3 to 8) (size 9 to 14) (size 15 to 20)
#    0.000    1.429    1.429    3.857    2.000    2.286 
#    0.000    4.286    0.000    0.000    0.000    0.000 
#    0.000    0.000    0.000    0.000    0.000    0.000 
#
# Total GULP energy -347146.233311 kJ/mol
# GULP energy per Si atom -12398.079761 kJ/mol
# Density = 2.121603 g / cm^3
# Si number density = 21.264430 Si / 1000 Ang^3
#
#
#
# Elastic Constant Matrix: (Units=GPa)
#
#
# Indices 1 2 3 4 5 6 
#
# 1 137.3384 62.7196 22.2173 0.0000 -10.6474 0.0000
# 2 62.7196 97.3862 33.2900 0.0000 4.5054 0.0000
# 3 22.2173 33.2900 68.3517 0.0000 -8.1425 0.0000
# 4 0.0000 0.0000 0.0000 29.6919 0.0000 5.7745
# 5 -10.6474 4.5054 -8.1425 0.0000 35.9036 0.0000
# 6 0.0000 0.0000 0.0000 5.7745 0.0000 28.8819
#
#
#
# Elastic Compliance Matrix: (Units=1/GPa)
#
#
# Indices 1 2 3 4 5 6 
#
# 1 0.010911 -0.007425 0.000582 0.000000 0.004300 0.000000
# 2 -0.007425 0.017692 -0.006917 0.000000 -0.005991 0.000000
# 3 0.000582 -0.006917 0.018432 0.000000 0.005221 0.000000
# 4 0.000000 0.000000 0.000000 0.035042 0.000000 -0.007006
# 5 0.004300 -0.005991 0.005221 0.000000 0.031063 0.000000
# 6 0.000000 0.000000 0.000000 -0.007006 0.000000 0.036025
#
#
# Mechanical properties :
#
#
# Convention : Reuss Voigt Hill
#
# Bulk Modulus (GPa) = 51.24288 59.94777 55.59533
# Shear Modulus (GPa) = 27.29411 31.21875 29.25643
#
# Velocity S-wave (km/s) = 3.58656 3.83576 3.71325
# Velocity P-wave (km/s) = 6.42662 6.91883 6.67726
#
# Compressibility (1/GPa) = 0.01951491
#
# Stress axis : x y z
#
# Youngs Moduli (GPa) = 91.64766 56.52302 54.25405
#
# Poissons Ratio (x) = 0.41968 -0.03157
# Poissons Ratio (y) = 0.68049 0.37527
# Poissons Ratio (z) = -0.05332 0.39096
#
# Static dielectric constant tensor:
#      x y z
#    x 4.043160 0.000000 -0.025880 
#    y 0.000000 3.901640 0.000000 
#    z -0.025880 0.000000 3.606450 
# 
# 
# High freq. dielectric constant tensor:
#      x y z
#    x 1.844120 0.000000 -0.000360 
#    y 0.000000 1.852220 0.000000 
#    z -0.000360 0.000000 1.816770 
# 
# From -- ./inp_files/18165.got.cif
#   From: 2010.06.25/outbox.cif.g09.slc.cpg/sg11_10_cif.got.tgz:18165.got - 2010.06.27 23:14:04.
