data_PCOD8075021
_publ_section_title
;
Structure prediction by ZEFSAII (Michael W. Deem and Ramdas Pophale) SiO2 
 PCOD8075021
Probable space group: P 21/M
;
_chemical_formula_sum "Si O2"
_cell_formula_units_Z 32
_cell_length_a 12.269053
_cell_length_b 13.719223
_cell_length_c 17.668687
_cell_angle_alpha 90.000000
_cell_angle_beta 32.739305
_cell_angle_gamma 90.000000
_cell_volume 1608.405496
_symmetry_space_group_name_H-M "P 21/M"
_symmetry_group_IT_number 11
_symmetry_cell_setting 'monoclinic'
loop_
_space_group_symop_operation_xyz
x,y,z
-x,1/2+y,-z
-x,-y,-z
x,1/2-y,z
loop_
_atom_site_type_symbol
_atom_site_label
_atom_site_fract_x
_atom_site_fract_y
_atom_site_fract_z
Si Si1 0.754484 0.360052 0.273626
Si Si2 0.290597 0.860310 0.875449
Si Si3 0.332306 0.458544 0.044214
Si Si4 0.857554 0.641615 0.716215
Si Si5 0.431666 0.365180 0.583435
Si Si6 0.687609 0.138919 0.576720
Si Si7 0.608010 0.998253 0.758224
Si Si8 0.004132 0.040952 0.846204
O O1 0.811796 0.250000 0.264164
O O2 0.684324 0.365408 0.228664
O O3 0.574427 0.402819 0.431592
O O4 0.952020 0.426497 0.165889
O O5 0.280981 0.750000 0.910422
O O6 0.489730 0.908623 0.791541
O O7 0.086638 0.912452 0.024191
O O8 0.233131 0.367832 0.145905
O O9 0.163042 0.541625 0.123243
O O10 0.500000 0.500000 0.000000
O O11 0.453163 0.433263 0.896541
O O12 0.802191 0.750000 0.717329
O O13 0.782152 0.553736 0.706222
O O14 0.095802 0.632233 0.589053
O O15 0.421199 0.250000 0.584511
O O16 0.521897 0.397237 0.612343
O O17 0.207206 0.404927 0.703204
O O18 0.641003 0.250000 0.629440
O O19 0.698418 0.069063 0.642708
#
# Coordination Sequence:
#
# PCOD8075021 Si02
#       8
#     4   4   4   4   4   4   4   4
#     4  10  21  35  53  81 114 145 185 231 277 332
#     4  10  21  36  54  80 111 143 183 232 279 330
#     4   9  21  37  54  79 108 139 181 228 275 327
#     4  10  20  37  60  83 110 148 188 231 282 337
#     4  10  21  37  56  82 114 149 189 233 280 332
#     4  10  21  36  56  83 115 148 187 234 281 331
#     4  10  20  37  58  82 112 147 188 230 280 337
#     4  11  20  35  58  80 108 147 186 227 281 338
#
# _framework density 19.895479999999999
#
# number of rings (size 3 to 8) (size 9 to 14) (size 15 to 20)
#    0.000    2.000    0.000    3.375    0.000    4.000 
#    0.000    5.000    0.000    3.000    0.000    0.000 
#    0.000    0.000    0.000    0.000    0.000    0.000 
#
# Total GULP energy -396626.740227 kJ/mol
# GULP energy per Si atom -12394.585632 kJ/mol
# Density = 1.985020 g / cm^3
# Si number density = 19.895480 Si / 1000 Ang^3
#
#
#
# Elastic Constant Matrix: (Units=GPa)
#
#
# Indices 1 2 3 4 5 6 
#
# 1 92.4366 32.7193 38.8813 0.0000 -4.2854 0.0000
# 2 32.7193 68.4048 46.5896 0.0000 4.3565 0.0000
# 3 38.8813 46.5896 101.6688 0.0000 2.6112 0.0000
# 4 0.0000 0.0000 0.0000 31.8221 0.0000 4.0975
# 5 -4.2854 4.3565 2.6112 0.0000 34.4517 0.0000
# 6 0.0000 0.0000 0.0000 4.0975 0.0000 28.0613
#
#
#
# Elastic Compliance Matrix: (Units=1/GPa)
#
#
# Indices 1 2 3 4 5 6 
#
# 1 0.013949 -0.004590 -0.003297 0.000000 0.002565 0.000000
# 2 -0.004590 0.022894 -0.008664 0.000000 -0.002809 0.000000
# 3 -0.003297 -0.008664 0.015079 0.000000 -0.000457 0.000000
# 4 0.000000 0.000000 0.000000 0.032027 0.000000 -0.004677
# 5 0.002565 -0.002809 -0.000457 0.000000 0.029735 0.000000
# 6 0.000000 0.000000 0.000000 -0.004677 0.000000 0.036319
#
#
# Mechanical properties :
#
#
# Convention : Reuss Voigt Hill
#
# Bulk Modulus (GPa) = 53.13436 55.43230 54.28333
# Shear Modulus (GPa) = 26.40245 28.48836 27.44541
#
# Velocity S-wave (km/s) = 3.64683 3.78815 3.71816
# Velocity P-wave (km/s) = 6.67063 6.85972 6.76583
#
# Compressibility (1/GPa) = 0.01882021
#
# Stress axis : x y z
#
# Youngs Moduli (GPa) = 71.69198 43.67987 66.31905
#
# Poissons Ratio (x) = 0.20048 0.21866
# Poissons Ratio (y) = 0.32904 0.57457
# Poissons Ratio (z) = 0.23637 0.37843
#
# Static dielectric constant tensor:
#      x y z
#    x 3.663210 0.000000 0.155740 
#    y 0.000000 3.690430 0.000000 
#    z 0.155740 0.000000 3.894050 
# 
# 
# High freq. dielectric constant tensor:
#      x y z
#    x 1.775950 0.000000 -0.000360 
#    y 0.000000 1.770780 0.000000 
#    z -0.000360 0.000000 1.784680 
# 
# From -- ./inp_files/41698.got.cif
#   From: 2010.06.25/outbox.cif.g09.slc.cpg/sg11_21_cif.got.tgz:41698.got - 2010.06.27 23:14:04.
