data_PCOD8075755
_publ_section_title
;
Structure prediction by ZEFSAII (Michael W. Deem and Ramdas Pophale) SiO2 
 PCOD8075755
Probable space group: P 21/M
;
_chemical_formula_sum "Si O2"
_cell_formula_units_Z 28
_cell_length_a 16.207473
_cell_length_b 19.671754
_cell_length_c 10.948338
_cell_angle_alpha 90.000000
_cell_angle_beta 23.731049
_cell_angle_gamma 90.000000
_cell_volume 1404.791791
_symmetry_space_group_name_H-M "P 21/M"
_symmetry_group_IT_number 11
_symmetry_cell_setting 'monoclinic'
loop_
_space_group_symop_operation_xyz
x,y,z
-x,1/2+y,-z
-x,-y,-z
x,1/2-y,z
loop_
_atom_site_type_symbol
_atom_site_label
_atom_site_fract_x
_atom_site_fract_y
_atom_site_fract_z
Si Si1 0.055724 0.064944 0.290264
Si Si2 0.683480 0.480789 0.663340
Si Si3 0.346174 0.093784 0.698043
Si Si4 0.932212 0.609905 0.254758
Si Si5 0.550815 0.826473 0.658565
Si Si6 0.853501 0.090937 0.802187
Si Si7 0.285596 0.542030 0.650332
O O1 0.828381 0.069984 0.541426
O O2 0.029165 0.098077 0.459884
O O3 0.165280 0.990280 0.145709
O O4 0.198906 0.111090 0.010918
O O5 0.819377 0.545712 0.460547
O O6 0.622996 0.451095 0.611349
O O7 0.500000 0.500000 0.000000
O O8 0.380831 0.162122 0.574073
O O9 0.565185 0.071394 0.450298
O O10 0.250015 0.037185 0.735177
O O11 0.759029 0.664672 0.455692
O O12 0.073542 0.634060 0.177959
O O13 0.075102 0.585618 0.947397
O O14 0.470261 0.750000 0.786490
O O15 0.369246 0.880084 0.938405
#
# Coordination Sequence:
#
# PCOD8075755 Si02
#       7
#     4   4   4   4   4   4   4
#     4  10  21  35  62  94 126 154 186 262 325 373
#     4  11  21  30  54  92 130 150 187 242 316 376
#     4  11  20  37  59  88 121 160 201 244 318 356
#     4  11  21  38  60  88 120 161 199 244 309 365
#     4  12  25  41  62  85 120 168 216 250 287 369
#     4  10  21  40  59  97 127 153 199 252 317 366
#     4  11  20  35  60  89 126 156 188 261 311 368
#
# _framework density 19.931777
#
# number of rings (size 3 to 8) (size 9 to 14) (size 15 to 20)
#    0.000    1.143    5.714    3.000    6.000    0.571 
#    0.000    0.714    0.000    0.000    0.000    0.000 
#    0.000    0.000    0.000    0.000    0.000    0.000 
#
# Total GULP energy -346974.902797 kJ/mol
# GULP energy per Si atom -12391.960814 kJ/mol
# Density = 1.988641 g / cm^3
# Si number density = 19.931777 Si / 1000 Ang^3
#
#
#
# Elastic Constant Matrix: (Units=GPa)
#
#
# Indices 1 2 3 4 5 6 
#
# 1 100.5725 26.3346 40.8788 0.0000 9.8496 0.0000
# 2 26.3346 46.4781 22.2690 0.0000 -3.2456 0.0000
# 3 40.8788 22.2690 133.6913 0.0000 15.2589 0.0000
# 4 0.0000 0.0000 0.0000 15.8294 0.0000 -2.6315
# 5 9.8496 -3.2456 15.2589 0.0000 43.8996 0.0000
# 6 0.0000 0.0000 0.0000 -2.6315 0.0000 12.6172
#
#
#
# Elastic Compliance Matrix: (Units=1/GPa)
#
#
# Indices 1 2 3 4 5 6 
#
# 1 0.012874 -0.006207 -0.002625 0.000000 -0.002435 0.000000
# 2 -0.006207 0.026817 -0.003076 0.000000 0.004444 0.000000
# 3 -0.002625 -0.003076 0.009115 0.000000 -0.002807 0.000000
# 4 0.000000 0.000000 0.000000 0.065443 0.000000 0.013649
# 5 -0.002435 0.004444 -0.002807 0.000000 0.024630 0.000000
# 6 0.000000 0.000000 0.000000 0.013649 0.000000 0.082103
#
#
# Mechanical properties :
#
#
# Convention : Reuss Voigt Hill
#
# Bulk Modulus (GPa) = 40.01571 51.07852 45.54712
# Shear Modulus (GPa) = 19.75297 27.21985 23.48641
#
# Velocity S-wave (km/s) = 3.15148 3.69948 3.43642
# Velocity P-wave (km/s) = 5.77601 6.62801 6.21662
#
# Compressibility (1/GPa) = 0.02499019
#
# Stress axis : x y z
#
# Youngs Moduli (GPa) = 77.67871 37.29039 109.70657
#
# Poissons Ratio (x) = 0.23145 0.28793
# Poissons Ratio (y) = 0.48213 0.33749
# Poissons Ratio (z) = 0.20387 0.11472
#
# Static dielectric constant tensor:
#      x y z
#    x 4.001370 0.000000 0.180800 
#    y 0.000000 2.931810 0.000000 
#    z 0.180800 0.000000 3.559390 
# 
# 
# High freq. dielectric constant tensor:
#      x y z
#    x 1.800820 0.000000 -0.003520 
#    y 0.000000 1.688430 0.000000 
#    z -0.003520 0.000000 1.795710 
# 
# From -- ./inp_files/41987.got.cif
#   From: 2010.06.25/outbox.cif.g09.slc.cpg/sg11_21_cif.got.tgz:41987.got - 2010.06.27 23:14:04.
