data_PCOD8075439
_publ_section_title
;
Structure prediction by ZEFSAII (Michael W. Deem and Ramdas Pophale) SiO2 
 PCOD8075439
Probable space group: P 21/M
;
_chemical_formula_sum "Si O2"
_cell_formula_units_Z 28
_cell_length_a 22.850331
_cell_length_b 8.922928
_cell_length_c 19.829149
_cell_angle_alpha 90.000000
_cell_angle_beta 159.787724
_cell_angle_gamma 90.000000
_cell_volume 1396.854250
_symmetry_space_group_name_H-M "P 21/M"
_symmetry_group_IT_number 11
_symmetry_cell_setting 'monoclinic'
loop_
_space_group_symop_operation_xyz
x,y,z
-x,1/2+y,-z
-x,-y,-z
x,1/2-y,z
loop_
_atom_site_type_symbol
_atom_site_label
_atom_site_fract_x
_atom_site_fract_y
_atom_site_fract_z
Si Si1 0.456245 0.427841 0.382185
Si Si2 0.729126 0.426508 0.565083
Si Si3 0.176034 0.074563 0.878684
Si Si4 0.401537 0.424504 0.833225
Si Si5 0.482968 0.072754 0.771028
Si Si6 0.024805 0.074223 0.455268
Si Si7 0.100318 0.424937 0.943408
O O1 0.500000 0.500000 0.500000
O O2 0.451640 0.250000 0.384678
O O3 0.605520 0.475721 0.491983
O O4 0.272458 0.495813 0.160879
O O5 0.713528 0.250000 0.532735
O O6 0.683937 0.520589 0.449270
O O7 0.926753 0.468475 0.795281
O O8 0.167610 0.250000 0.853330
O O9 0.112232 0.983645 0.745552
O O10 0.074738 0.031046 0.837047
O O11 0.367047 0.022978 0.099779
O O12 0.422625 0.250000 0.867256
O O13 0.472803 0.474545 0.838257
O O14 0.206693 0.472380 0.623888
O O15 0.500000 0.500000 0.000000
O O16 0.510092 0.250000 0.792227
O O17 0.000276 0.250000 0.437168
O O18 0.000000 0.000000 0.500000
O O19 0.133572 0.250000 0.982967
#
# Coordination Sequence:
#
# PCOD8075439 Si02
#       7
#     4   4   4   4   4   4   4
#     4  10  21  39  60  88 123 158 198 243 294 356
#     4  10  20  38  63  87 116 157 200 242 293 354
#     4  11  21  37  60  86 115 153 196 242 297 354
#     4  10  23  39  55  78 112 150 192 242 296 352
#     4  11  22  37  58  86 118 151 192 245 297 350
#     4  11  23  39  56  81 114 151 195 246 299 354
#     4   9  19  37  61  88 118 154 199 246 292 351
#
# _framework density 20.045038999999999
#
# number of rings (size 3 to 8) (size 9 to 14) (size 15 to 20)
#    0.000    1.714    1.429    3.000    0.000    5.714 
#    0.000    1.429    0.000    0.000    0.000    0.000 
#    0.000    0.000    0.000    0.000    0.000    0.000 
#
# Total GULP energy -347173.394200 kJ/mol
# GULP energy per Si atom -12399.049793 kJ/mol
# Density = 1.999942 g / cm^3
# Si number density = 20.045039 Si / 1000 Ang^3
#
#
#
# Elastic Constant Matrix: (Units=GPa)
#
#
# Indices 1 2 3 4 5 6 
#
# 1 119.1234 33.0068 69.4880 0.0000 1.5755 0.0000
# 2 33.0068 43.8962 29.3030 0.0000 2.3613 0.0000
# 3 69.4880 29.3030 134.6110 0.0000 3.2192 0.0000
# 4 0.0000 0.0000 0.0000 31.3292 0.0000 -7.9735
# 5 1.5755 2.3613 3.2192 0.0000 37.7479 0.0000
# 6 0.0000 0.0000 0.0000 -7.9735 0.0000 29.3689
#
#
#
# Elastic Compliance Matrix: (Units=1/GPa)
#
#
# Indices 1 2 3 4 5 6 
#
# 1 0.013385 -0.006393 -0.005525 0.000000 0.000312 0.000000
# 2 -0.006393 0.029760 -0.003146 0.000000 -0.001326 0.000000
# 3 -0.005525 -0.003146 0.010978 0.000000 -0.000509 0.000000
# 4 0.000000 0.000000 0.000000 0.034288 0.000000 0.009309
# 5 0.000312 -0.001326 -0.000509 0.000000 0.026605 0.000000
# 6 0.000000 0.000000 0.000000 0.009309 0.000000 0.036577
#
#
# Mechanical properties :
#
#
# Convention : Reuss Voigt Hill
#
# Bulk Modulus (GPa) = 41.67790 62.35845 52.01817
# Shear Modulus (GPa) = 26.35460 30.74472 28.54966
#
# Velocity S-wave (km/s) = 3.62991 3.92060 3.77805
# Velocity P-wave (km/s) = 6.19722 7.18829 6.71108
#
# Compressibility (1/GPa) = 0.02399353
#
# Stress axis : x y z
#
# Youngs Moduli (GPa) = 74.71090 33.60239 91.08983
#
# Poissons Ratio (x) = 0.21482 0.50330
# Poissons Ratio (y) = 0.47762 0.28661
# Poissons Ratio (z) = 0.41280 0.10573
#
# Static dielectric constant tensor:
#      x y z
#    x 3.720490 0.000000 0.200320 
#    y 0.000000 3.367540 0.000000 
#    z 0.200320 0.000000 3.906560 
# 
# 
# High freq. dielectric constant tensor:
#      x y z
#    x 1.787070 0.000000 0.006510 
#    y 0.000000 1.765120 0.000000 
#    z 0.006510 0.000000 1.796480 
# 
# From -- ./inp_files/66738.got.cif
#   From: 2010.06.25/outbox.cif.g09.slc.cpg/sg11_34_cif.got.tgz:66738.got - 2010.06.27 23:14:04.
