data_PCOD8075199
_publ_section_title
;
Structure prediction by ZEFSAII (Michael W. Deem and Ramdas Pophale) SiO2 
 PCOD8075199
Probable space group: P 21/M
;
_chemical_formula_sum "Si O2"
_cell_formula_units_Z 28
_cell_length_a 5.000646
_cell_length_b 16.989743
_cell_length_c 16.965462
_cell_angle_alpha 90.000000
_cell_angle_beta 75.501889
_cell_angle_gamma 90.000000
_cell_volume 1395.480929
_symmetry_space_group_name_H-M "P 21/M"
_symmetry_group_IT_number 11
_symmetry_cell_setting 'monoclinic'
loop_
_space_group_symop_operation_xyz
x,y,z
-x,1/2+y,-z
-x,-y,-z
x,1/2-y,z
loop_
_atom_site_type_symbol
_atom_site_label
_atom_site_fract_x
_atom_site_fract_y
_atom_site_fract_z
Si Si1 0.292879 0.954615 0.684093
Si Si2 0.224675 0.662147 0.305226
Si Si3 0.250137 0.447021 0.947590
Si Si4 0.585442 0.905622 0.902655
Si Si5 0.132476 0.508181 0.405555
Si Si6 0.839472 0.159377 0.182178
Si Si7 0.800738 0.892552 0.215077
O O1 0.318313 0.871200 0.727779
O O2 0.563496 0.971599 0.612537
O O3 0.260014 0.018311 0.755351
O O4 0.035841 0.955828 0.644123
O O5 0.147518 0.750000 0.340651
O O6 0.137019 0.600058 0.379415
O O7 0.547914 0.661127 0.262160
O O8 0.073456 0.642059 0.234655
O O9 0.498542 0.503150 0.898291
O O10 0.153352 0.392071 0.882691
O O11 0.372988 0.389975 0.006718
O O12 0.000000 0.500000 0.000000
O O13 0.347125 0.851007 0.882505
O O14 0.878377 0.890795 0.839859
O O15 0.000000 0.500000 0.500000
O O16 0.915639 0.250000 0.186234
#
# Coordination Sequence:
#
# PCOD8075199 Si02
#       7
#     4   4   4   4   4   4   4
#     4  10  20  37  61  87 115 151 199 240 286 354
#     4  10  22  39  58  87 120 156 190 240 307 356
#     4  11  22  37  64  88 113 152 212 265 306 353
#     4  11  23  37  59  85 117 156 207 258 311 355
#     4  10  21  38  64  92 118 151 195 242 290 360
#     4  12  24  41  59  85 124 164 205 256 310 357
#     4  10  21  35  63  82 112 155 202 245 283 357
#
# _framework density 20.064767
#
# number of rings (size 3 to 8) (size 9 to 14) (size 15 to 20)
#    0.000    1.429    2.857    2.143    8.000    0.000 
#    0.000    5.714    0.000    0.000    0.000    0.000 
#    0.000    0.000    0.000    0.000    0.000    0.000 
#
# Total GULP energy -347206.799715 kJ/mol
# GULP energy per Si atom -12400.242847 kJ/mol
# Density = 2.001910 g / cm^3
# Si number density = 20.064767 Si / 1000 Ang^3
#
#
#
# Elastic Constant Matrix: (Units=GPa)
#
#
# Indices 1 2 3 4 5 6 
#
# 1 88.5566 22.6845 14.3637 0.0000 -3.3120 0.0000
# 2 22.6845 87.7711 47.4721 0.0000 -6.3015 0.0000
# 3 14.3637 47.4721 96.4686 0.0000 4.0897 0.0000
# 4 0.0000 0.0000 0.0000 18.0194 0.0000 1.0670
# 5 -3.3120 -6.3015 4.0897 0.0000 24.9617 0.0000
# 6 0.0000 0.0000 0.0000 1.0670 0.0000 20.0751
#
#
#
# Elastic Compliance Matrix: (Units=1/GPa)
#
#
# Indices 1 2 3 4 5 6 
#
# 1 0.012124 -0.002814 -0.000462 0.000000 0.000974 0.000000
# 2 -0.002814 0.016881 -0.008109 0.000000 0.005217 0.000000
# 3 -0.000462 -0.008109 0.014616 0.000000 -0.004503 0.000000
# 4 0.000000 0.000000 0.000000 0.055671 0.000000 -0.002959
# 5 0.000974 0.005217 -0.004503 0.000000 0.042245 0.000000
# 6 0.000000 0.000000 0.000000 -0.002959 0.000000 0.049970
#
#
# Mechanical properties :
#
#
# Convention : Reuss Voigt Hill
#
# Bulk Modulus (GPa) = 47.95774 49.09298 48.52536
# Shear Modulus (GPa) = 22.60101 25.16298 23.88200
#
# Velocity S-wave (km/s) = 3.35983 3.54515 3.45374
# Velocity P-wave (km/s) = 6.24537 6.42478 6.33571
#
# Compressibility (1/GPa) = 0.02085169
#
# Stress axis : x y z
#
# Youngs Moduli (GPa) = 82.47873 59.23785 68.41642
#
# Poissons Ratio (x) = 0.16668 0.03160
# Poissons Ratio (y) = 0.23208 0.55481
# Poissons Ratio (z) = 0.03809 0.48038
#
# Static dielectric constant tensor:
#      x y z
#    x 4.001330 0.000000 0.124770 
#    y 0.000000 3.441210 0.000000 
#    z 0.124770 0.000000 3.460030 
# 
# 
# High freq. dielectric constant tensor:
#      x y z
#    x 1.807720 0.000000 0.007480 
#    y 0.000000 1.750430 0.000000 
#    z 0.007480 0.000000 1.767080 
# 
# From -- ./inp_files/45895.got.cif
#   From: 2010.06.25/outbox.cif.g09.slc.cpg/sg11_23_cif.got.tgz:45895.got - 2010.06.27 23:14:04.
