data_PCOD8075794
_publ_section_title
;
Structure prediction by ZEFSAII (Michael W. Deem and Ramdas Pophale) SiO2 
 PCOD8075794
Probable space group: P 21/M
;
_chemical_formula_sum "Si O2"
_cell_formula_units_Z 32
_cell_length_a 24.063745
_cell_length_b 8.527615
_cell_length_c 17.757426
_cell_angle_alpha 90.000000
_cell_angle_beta 27.790897
_cell_angle_gamma 90.000000
_cell_volume 1698.971220
_symmetry_space_group_name_H-M "P 21/M"
_symmetry_group_IT_number 11
_symmetry_cell_setting 'monoclinic'
loop_
_space_group_symop_operation_xyz
x,y,z
-x,1/2+y,-z
-x,-y,-z
x,1/2-y,z
loop_
_atom_site_type_symbol
_atom_site_label
_atom_site_fract_x
_atom_site_fract_y
_atom_site_fract_z
Si Si1 0.406345 0.432544 0.444103
Si Si2 0.672950 0.931597 0.621709
Si Si3 0.785357 0.432763 0.745092
Si Si4 0.535760 0.567327 0.036961
Si Si5 0.370143 0.434426 0.647760
Si Si6 0.333239 0.064552 0.852366
Si Si7 0.885371 0.932073 0.473486
Si Si8 0.131310 0.066263 0.205131
O O1 0.437680 0.250000 0.412566
O O2 0.322300 0.467348 0.473298
O O3 0.330451 0.485496 0.610377
O O4 0.533325 0.517994 0.283644
O O5 0.641628 0.750000 0.675893
O O6 0.799171 0.975690 0.507187
O O7 0.570893 0.041370 0.777467
O O8 0.798461 0.250000 0.711551
O O9 0.819633 0.528680 0.629997
O O10 0.869900 0.478533 0.713214
O O11 0.651154 0.476881 0.929486
O O12 0.565263 0.750000 0.994822
O O13 0.500000 0.500000 0.000000
O O14 0.500000 0.500000 0.500000
O O15 0.373121 0.250000 0.650381
O O16 0.299388 0.495391 0.807155
O O17 0.324176 0.250000 0.867531
O O18 0.235545 0.995030 0.027039
O O19 0.919023 0.750000 0.432559
O O20 0.004185 0.033528 0.319158
O O21 0.148329 0.250000 0.198727
#
# Coordination Sequence:
#
# PCOD8075794 Si02
#       8
#     4   4   4   4   4   4   4   4
#     4   9  17  30  52  81 108 135 167 209 256 311
#     4  10  21  36  54  77 106 139 177 217 262 314
#     4  12  24  39  58  79 104 135 175 219 268 317
#     4  12  23  36  55  79 107 139 173 212 261 310
#     4   8  14  27  48  75 106 135 165 201 253 310
#     4   9  18  32  51  77 107 138 168 208 258 313
#     4  11  23  39  56  73 100 138 180 223 266 312
#     4  11  23  38  55  76 103 136 179 223 265 312
#
# _framework density 18.834927
#
# number of rings (size 3 to 8) (size 9 to 14) (size 15 to 20)
#    0.000    1.750    1.250    4.125    0.000    4.000 
#    0.000    0.000    0.000    0.750    0.000    0.000 
#    0.000    0.000    0.000    0.000    0.000    0.250 
#
# Total GULP energy -396626.152975 kJ/mol
# GULP energy per Si atom -12394.567280 kJ/mol
# Density = 1.879206 g / cm^3
# Si number density = 18.834927 Si / 1000 Ang^3
#
#
#
# Elastic Constant Matrix: (Units=GPa)
#
#
# Indices 1 2 3 4 5 6 
#
# 1 142.8560 13.3287 53.4718 0.0000 16.3162 0.0000
# 2 13.3287 31.2384 12.8802 0.0000 3.1826 0.0000
# 3 53.4718 12.8802 60.6734 0.0000 1.9589 0.0000
# 4 0.0000 0.0000 0.0000 22.1866 0.0000 -4.1019
# 5 16.3162 3.1826 1.9589 0.0000 32.0807 0.0000
# 6 0.0000 0.0000 0.0000 -4.1019 0.0000 22.8611
#
#
#
# Elastic Compliance Matrix: (Units=1/GPa)
#
#
# Indices 1 2 3 4 5 6 
#
# 1 0.011228 -0.000285 -0.009670 0.000000 -0.005092 0.000000
# 2 -0.000285 0.035387 -0.007167 0.000000 -0.002928 0.000000
# 3 -0.009670 -0.007167 0.026396 0.000000 0.004017 0.000000
# 4 0.000000 0.000000 0.000000 0.046619 0.000000 0.008365
# 5 -0.005092 -0.002928 0.004017 0.000000 0.033806 0.000000
# 6 0.000000 0.000000 0.000000 0.008365 0.000000 0.045243
#
#
# Mechanical properties :
#
#
# Convention : Reuss Voigt Hill
#
# Bulk Modulus (GPa) = 25.79515 43.79211 34.79363
# Shear Modulus (GPa) = 20.33808 25.76482 23.05145
#
# Velocity S-wave (km/s) = 3.28961 3.70256 3.50218
# Velocity P-wave (km/s) = 5.30601 6.44822 5.90480
#
# Compressibility (1/GPa) = 0.03876698
#
# Stress axis : x y z
#
# Youngs Moduli (GPa) = 89.06446 28.25925 37.88470
#
# Poissons Ratio (x) = 0.00804 0.36636
# Poissons Ratio (y) = 0.02535 0.27151
# Poissons Ratio (z) = 0.86128 0.20253
#
# Static dielectric constant tensor:
#      x y z
#    x 3.924720 0.000000 0.419050 
#    y 0.000000 3.420220 0.000000 
#    z 0.419050 0.000000 3.631610 
# 
# 
# High freq. dielectric constant tensor:
#      x y z
#    x 1.738940 0.000000 0.017430 
#    y 0.000000 1.730210 0.000000 
#    z 0.017430 0.000000 1.708450 
# 
# From -- ./inp_files/61755.got.cif
#   From: 2010.06.25/outbox.cif.g09.slc.cpg/sg11_31_cif.got.tgz:61755.got - 2010.06.27 23:14:04.
