data_PCOD8075806
_publ_section_title
;
Structure prediction by ZEFSAII (Michael W. Deem and Ramdas Pophale) SiO2 
 PCOD8075806
Probable space group: P 21/M
;
_chemical_formula_sum "Si O2"
_cell_formula_units_Z 32
_cell_length_a 14.632870
_cell_length_b 9.517580
_cell_length_c 20.472525
_cell_angle_alpha 90.000000
_cell_angle_beta 147.876984
_cell_angle_gamma 90.000000
_cell_volume 1516.092976
_symmetry_space_group_name_H-M "P 21/M"
_symmetry_group_IT_number 11
_symmetry_cell_setting 'monoclinic'
loop_
_space_group_symop_operation_xyz
x,y,z
-x,1/2+y,-z
-x,-y,-z
x,1/2-y,z
loop_
_atom_site_type_symbol
_atom_site_label
_atom_site_fract_x
_atom_site_fract_y
_atom_site_fract_z
Si Si1 0.309435 0.592552 0.090771
Si Si2 0.335648 0.908688 0.881566
Si Si3 0.583130 0.095452 0.211876
Si Si4 0.377664 0.093071 0.470952
Si Si5 0.108844 0.916255 0.512863
Si Si6 0.349020 0.907724 0.261297
Si Si7 0.045781 0.083201 0.342494
Si Si8 0.054896 0.088653 0.095880
O O1 0.376235 0.750000 0.124358
O O2 0.417621 0.504117 0.104780
O O3 0.353384 0.535853 0.190023
O O4 0.105911 0.582370 0.951507
O O5 0.380749 0.750000 0.929645
O O6 0.302031 0.922791 0.783484
O O7 0.149915 0.952148 0.799959
O O8 0.500000 0.000000 0.000000
O O9 0.503914 0.250000 0.166793
O O10 0.695040 0.066582 0.344066
O O11 0.378658 0.250000 0.441609
O O12 0.462223 0.091368 0.594199
O O13 0.180068 0.045059 0.364662
O O14 0.500000 0.000000 0.500000
O O15 0.057553 0.750000 0.479192
O O16 0.092620 0.986923 0.432539
O O17 0.000000 0.000000 0.500000
O O18 0.269919 0.750000 0.213983
O O19 0.223538 0.011879 0.227615
O O20 0.060585 0.250000 0.368953
O O21 0.097361 0.250000 0.103627
O O22 0.000000 0.000000 0.000000
#
# Coordination Sequence:
#
# PCOD8075806 Si02
#       8
#     4   4   4   4   4   4   4   4
#     4   9  18  32  52  81 112 145 188 229 277 347
#     4  10  22  42  62  83 116 156 200 244 288 349
#     4  10  21  36  54  83 120 150 184 235 290 345
#     4  10  22  40  62  85 115 155 198 249 301 352
#     4  11  21  35  59  92 125 155 192 243 302 367
#     4   9  18  34  54  79 111 146 187 235 289 343
#     4  10  21  42  66  88 121 161 199 249 309 360
#     4   9  17  30  49  74 105 143 183 223 271 331
#
# _framework density 21.106884000000001
#
# number of rings (size 3 to 8) (size 9 to 14) (size 15 to 20)
#    0.000    2.250    1.250    2.250    0.000    6.500 
#    2.250    0.000    0.000    0.000    0.000    0.000 
#    0.000    0.000    0.000    0.000    0.000    0.000 
#
# Total GULP energy -396488.262193 kJ/mol
# GULP energy per Si atom -12390.258194 kJ/mol
# Density = 2.105884 g / cm^3
# Si number density = 21.106884 Si / 1000 Ang^3
#
#
#
# Elastic Constant Matrix: (Units=GPa)
#
#
# Indices 1 2 3 4 5 6 
#
# 1 81.1084 48.0498 35.1659 0.0000 35.6939 0.0000
# 2 48.0498 110.3707 48.0374 0.0000 28.9553 0.0000
# 3 35.1659 48.0374 103.3029 0.0000 31.6255 0.0000
# 4 0.0000 0.0000 0.0000 35.0308 0.0000 4.7653
# 5 35.6939 28.9553 31.6255 0.0000 36.2680 0.0000
# 6 0.0000 0.0000 0.0000 4.7653 0.0000 34.5422
#
#
#
# Elastic Compliance Matrix: (Units=1/GPa)
#
#
# Indices 1 2 3 4 5 6 
#
# 1 0.024049 -0.005485 0.000367 0.000000 -0.019609 0.000000
# 2 -0.005485 0.013690 -0.003827 0.000000 -0.002194 0.000000
# 3 0.000367 -0.003827 0.014338 0.000000 -0.009809 0.000000
# 4 0.000000 0.000000 0.000000 0.029092 0.000000 -0.004013
# 5 -0.019609 -0.002194 -0.009809 0.000000 0.057176 0.000000
# 6 0.000000 0.000000 0.000000 -0.004013 0.000000 0.029504
#
#
# Mechanical properties :
#
#
# Convention : Reuss Voigt Hill
#
# Bulk Modulus (GPa) = 29.25115 61.92091 45.58603
# Shear Modulus (GPa) = 25.36353 32.07014 28.71684
#
# Velocity S-wave (km/s) = 3.47027 3.90220 3.69256
# Velocity P-wave (km/s) = 5.47227 7.05006 6.31067
#
# Compressibility (1/GPa) = 0.03418669
#
# Stress axis : x y z
#
# Youngs Moduli (GPa) = 41.58164 73.04855 69.74654
#
# Poissons Ratio (x) = 0.40068 -0.02562
# Poissons Ratio (y) = 0.22808 0.26692
# Poissons Ratio (z) = -0.01527 0.27955
#
# Static dielectric constant tensor:
#      x y z
#    x 3.683820 0.000000 0.261960 
#    y 0.000000 3.939280 0.000000 
#    z 0.261960 0.000000 4.089880 
# 
# 
# High freq. dielectric constant tensor:
#      x y z
#    x 1.808150 0.000000 0.017760 
#    y 0.000000 1.825010 0.000000 
#    z 0.017760 0.000000 1.829610 
# 
# From -- ./inp_files/69121.got.cif
#   From: 2010.06.25/outbox.cif.g09.slc.cpg/sg11_35_cif.got.tgz:69121.got - 2010.06.27 23:14:04.
