data_PCOD8075008
_publ_section_title
;
Structure prediction by ZEFSAII (Michael W. Deem and Ramdas Pophale) SiO2 
 PCOD8075008
Probable space group: P 21/M
;
_chemical_formula_sum "Si O2"
_cell_formula_units_Z 32
_cell_length_a 11.675930
_cell_length_b 11.452751
_cell_length_c 11.781802
_cell_angle_alpha 90.000000
_cell_angle_beta 89.612754
_cell_angle_gamma 90.000000
_cell_volume 1575.444476
_symmetry_space_group_name_H-M "P 21/M"
_symmetry_group_IT_number 11
_symmetry_cell_setting 'monoclinic'
loop_
_space_group_symop_operation_xyz
x,y,z
-x,1/2+y,-z
-x,-y,-z
x,1/2-y,z
loop_
_atom_site_type_symbol
_atom_site_label
_atom_site_fract_x
_atom_site_fract_y
_atom_site_fract_z
Si Si1 0.458740 0.877941 0.900568
Si Si2 0.763689 0.877135 0.253244
Si Si3 0.309358 0.433268 0.993296
Si Si4 0.635111 0.116593 0.523277
Si Si5 0.460355 0.019477 0.674405
Si Si6 0.028311 0.964118 0.689388
Si Si7 0.938151 0.609419 0.928351
Si Si8 0.117773 0.618879 0.459948
O O1 0.415688 0.750000 0.864273
O O2 0.355908 0.933437 0.976971
O O3 0.480262 0.960429 0.794176
O O4 0.580102 0.863050 0.962852
O O5 0.814214 0.750000 0.285809
O O6 0.731182 0.875479 0.122302
O O7 0.649846 0.897427 0.327124
O O8 0.852458 0.979061 0.275254
O O9 0.197509 0.422094 0.074428
O O10 0.659452 0.250000 0.502197
O O11 0.572593 0.094618 0.643874
O O12 0.759648 0.054550 0.522728
O O13 0.554048 0.077918 0.421439
O O14 0.046852 0.883041 0.578498
O O15 0.981045 0.893866 0.798011
O O16 0.941380 0.062425 0.648793
O O17 0.957198 0.750000 0.968099
O O18 0.000000 0.500000 0.000000
O O19 0.134976 0.750000 0.420471
#
# Coordination Sequence:
#
# PCOD8075008 Si02
#       8
#     4   4   4   4   4   4   4   4
#     4  10  21  40  65  90 121 161 206 258 314 385
#     4  11  20  37  60  85 119 162 205 254 316 386
#     4  10  23  41  61  91 127 162 205 255 320 382
#     4  10  20  37  57  83 120 154 197 260 317 372
#     4  10  21  35  58  88 116 154 204 252 313 380
#     4  11  23  40  64  91 122 168 217 262 316 384
#     4  12  26  44  68  99 136 175 220 272 326 390
#     4  10  22  41  63  88 123 163 211 270 323 377
#
# _framework density 20.311727000000001
#
# number of rings (size 3 to 8) (size 9 to 14) (size 15 to 20)
#    0.000    1.500    2.500    2.625    1.750    1.000 
#    0.000    0.625    0.000    0.000    0.000    0.000 
#    0.000    0.000    0.000    0.000    0.000    0.000 
#
# Total GULP energy -396418.010192 kJ/mol
# GULP energy per Si atom -12388.062818 kJ/mol
# Density = 2.026550 g / cm^3
# Si number density = 20.311727 Si / 1000 Ang^3
#
#
#
# Elastic Constant Matrix: (Units=GPa)
#
#
# Indices 1 2 3 4 5 6 
#
# 1 99.8560 13.4865 21.1958 0.0000 -9.7663 0.0000
# 2 13.4865 67.6618 10.8114 0.0000 4.3176 0.0000
# 3 21.1958 10.8114 73.5930 0.0000 -3.3071 0.0000
# 4 0.0000 0.0000 0.0000 20.1611 0.0000 -0.8224
# 5 -9.7663 4.3176 -3.3071 0.0000 37.5354 0.0000
# 6 0.0000 0.0000 0.0000 -0.8224 0.0000 18.8162
#
#
#
# Elastic Compliance Matrix: (Units=1/GPa)
#
#
# Indices 1 2 3 4 5 6 
#
# 1 0.011154 -0.001961 -0.002795 0.000000 0.002881 0.000000
# 2 -0.001961 0.015622 -0.001841 0.000000 -0.002469 0.000000
# 3 -0.002795 -0.001841 0.014699 0.000000 0.000780 0.000000
# 4 0.000000 0.000000 0.000000 0.049689 0.000000 0.002172
# 5 0.002881 -0.002469 0.000780 0.000000 0.027744 0.000000
# 6 0.000000 0.000000 0.000000 0.002172 0.000000 0.053241
#
#
# Mechanical properties :
#
#
# Convention : Reuss Voigt Hill
#
# Bulk Modulus (GPa) = 35.35917 36.89981 36.12949
# Shear Modulus (GPa) = 25.67136 28.34368 27.00752
#
# Velocity S-wave (km/s) = 3.55895 3.73960 3.65039
# Velocity P-wave (km/s) = 5.85954 6.07062 5.96601
#
# Compressibility (1/GPa) = 0.02828120
#
# Stress axis : x y z
#
# Youngs Moduli (GPa) = 89.65126 64.01246 68.03274
#
# Poissons Ratio (x) = 0.12550 0.19016
# Poissons Ratio (y) = 0.17577 0.12527
# Poissons Ratio (z) = 0.25058 0.11787
#
# Static dielectric constant tensor:
#      x y z
#    x 4.032530 0.000000 -0.124550 
#    y 0.000000 3.849420 0.000000 
#    z -0.124550 0.000000 3.652190 
# 
# 
# High freq. dielectric constant tensor:
#      x y z
#    x 1.801560 0.000000 -0.005360 
#    y 0.000000 1.791520 0.000000 
#    z -0.005360 0.000000 1.787600 
# 
# From -- ./inp_files/34798.got.cif
#   From: 2010.06.25/outbox.cif.g09.slc.cpg/sg11_18_cif.got.tgz:34798.got - 2010.06.27 23:14:04.
