data_PCOD8075073
_publ_section_title
;
Structure prediction by ZEFSAII (Michael W. Deem and Ramdas Pophale) SiO2 
 PCOD8075073
Probable space group: P 21/M
;
_chemical_formula_sum "Si O2"
_cell_formula_units_Z 28
_cell_length_a 11.705232
_cell_length_b 9.292421
_cell_length_c 15.377661
_cell_angle_alpha 90.000000
_cell_angle_beta 120.684998
_cell_angle_gamma 90.000000
_cell_volume 1438.435945
_symmetry_space_group_name_H-M "P 21/M"
_symmetry_group_IT_number 11
_symmetry_cell_setting 'monoclinic'
loop_
_space_group_symop_operation_xyz
x,y,z
-x,1/2+y,-z
-x,-y,-z
x,1/2-y,z
loop_
_atom_site_type_symbol
_atom_site_label
_atom_site_fract_x
_atom_site_fract_y
_atom_site_fract_z
Si Si1 0.576071 0.083869 0.602880
Si Si2 0.089646 0.081350 0.464284
Si Si3 0.324579 0.086875 0.975207
Si Si4 0.879866 0.079832 0.700617
Si Si5 0.395442 0.582149 0.842378
Si Si6 0.365627 0.413143 0.660437
Si Si7 0.039475 0.086207 0.931269
O O1 0.562687 0.250000 0.573494
O O2 0.729261 0.037096 0.666627
O O3 0.504597 0.051021 0.666842
O O4 0.500000 0.000000 0.500000
O O5 0.049861 0.250000 0.445033
O O6 0.244411 0.062245 0.547281
O O7 0.067617 0.007824 0.362170
O O8 0.000000 0.000000 0.500000
O O9 0.340960 0.250000 0.947691
O O10 0.197012 0.069015 0.985416
O O11 0.308307 0.985627 0.885427
O O12 0.450474 0.041824 0.082493
O O13 0.895459 0.250000 0.687814
O O14 0.968829 0.029065 0.816531
O O15 0.368126 0.750000 0.830278
O O16 0.346244 0.519414 0.732732
O O17 0.365805 0.250000 0.695601
O O18 0.995803 0.250000 0.928992
O O19 0.000000 0.000000 0.000000
#
# Coordination Sequence:
#
# PCOD8075073 Si02
#       7
#     4   4   4   4   4   4   4
#     4  10  20  37  59  84 114 148 190 235 282 338
#     4  11  24  41  61  87 121 158 197 240 292 353
#     4   9  20  40  59  81 117 153 188 237 296 347
#     4  10  22  40  62  88 118 155 197 243 292 348
#     4  10  21  36  59  88 113 147 194 242 286 339
#     4  10  22  38  58  85 118 154 187 232 293 347
#     4  10  23  41  61  86 117 154 195 238 291 348
#
# _framework density 19.465586999999999
#
# number of rings (size 3 to 8) (size 9 to 14) (size 15 to 20)
#    0.000    2.000    1.429    0.857    4.000    3.429 
#    0.000    0.000    0.000    0.000    0.000    0.000 
#    0.000    0.000    0.000    0.000    0.000    0.000 
#
# Total GULP energy -347287.406962 kJ/mol
# GULP energy per Si atom -12403.121677 kJ/mol
# Density = 1.942128 g / cm^3
# Si number density = 19.465587 Si / 1000 Ang^3
#
#
#
# Elastic Constant Matrix: (Units=GPa)
#
#
# Indices 1 2 3 4 5 6 
#
# 1 94.2723 43.1347 33.1451 0.0000 -13.2814 0.0000
# 2 43.1347 89.1606 54.2752 0.0000 -21.0639 0.0000
# 3 33.1451 54.2752 110.4334 0.0000 -22.3772 0.0000
# 4 0.0000 0.0000 0.0000 37.6598 0.0000 -7.3160
# 5 -13.2814 -21.0639 -22.3772 0.0000 31.0113 0.0000
# 6 0.0000 0.0000 0.0000 -7.3160 0.0000 32.5303
#
#
#
# Elastic Compliance Matrix: (Units=1/GPa)
#
#
# Indices 1 2 3 4 5 6 
#
# 1 0.013776 -0.005718 -0.001073 0.000000 0.001242 0.000000
# 2 -0.005718 0.019421 -0.006620 0.000000 0.005966 0.000000
# 3 -0.001073 -0.006620 0.013618 0.000000 0.004870 0.000000
# 4 0.000000 0.000000 0.000000 0.027767 0.000000 0.006245
# 5 0.001242 0.005966 0.004870 0.000000 0.040345 0.000000
# 6 0.000000 0.000000 0.000000 0.006245 0.000000 0.032145
#
#
# Mechanical properties :
#
#
# Convention : Reuss Voigt Hill
#
# Bulk Modulus (GPa) = 50.01717 61.66404 55.84060
# Shear Modulus (GPa) = 27.69198 31.12771 29.40984
#
# Velocity S-wave (km/s) = 3.77584 4.00323 3.89120
# Velocity P-wave (km/s) = 6.69031 7.28801 6.99555
#
# Compressibility (1/GPa) = 0.01999313
#
# Stress axis : x y z
#
# Youngs Moduli (GPa) = 72.58944 51.48961 73.43431
#
# Poissons Ratio (x) = 0.29444 0.07877
# Poissons Ratio (y) = 0.41509 0.48613
# Poissons Ratio (z) = 0.07786 0.34086
#
# Static dielectric constant tensor:
#      x y z
#    x 3.771790 0.000000 0.125780 
#    y 0.000000 3.568010 0.000000 
#    z 0.125780 0.000000 3.605710 
# 
# 
# High freq. dielectric constant tensor:
#      x y z
#    x 1.766630 0.000000 0.002460 
#    y 0.000000 1.757160 0.000000 
#    z 0.002460 0.000000 1.757150 
# 
# From -- ./inp_files/37470.got.cif
#   From: 2010.06.25/outbox.cif.g09.slc.cpg/sg11_19_cif.got.tgz:37470.got - 2010.06.27 23:14:04.
