data_PCOD8075490
_publ_section_title
;
Structure prediction by ZEFSAII (Michael W. Deem and Ramdas Pophale) SiO2 
 PCOD8075490
Probable space group: P 21/M
;
_chemical_formula_sum "Si O2"
_cell_formula_units_Z 20
_cell_length_a 16.004029
_cell_length_b 10.607363
_cell_length_c 5.202450
_cell_angle_alpha 90.000000
_cell_angle_beta 108.191224
_cell_angle_gamma 90.000000
_cell_volume 839.029768
_symmetry_space_group_name_H-M "P 21/M"
_symmetry_group_IT_number 11
_symmetry_cell_setting 'monoclinic'
loop_
_space_group_symop_operation_xyz
x,y,z
-x,1/2+y,-z
-x,-y,-z
x,1/2-y,z
loop_
_atom_site_type_symbol
_atom_site_label
_atom_site_fract_x
_atom_site_fract_y
_atom_site_fract_z
Si Si1 0.495902 0.612530 0.190275
Si Si2 0.357697 0.529300 0.433108
Si Si3 0.294557 0.750000 0.643743
Si Si4 0.929605 0.608211 0.481437
Si Si5 0.161083 0.022329 0.091236
Si Si6 0.178000 0.750000 0.032061
O O1 0.502678 0.750000 0.063875
O O2 0.405676 0.613113 0.263625
O O3 0.581731 0.592369 0.453912
O O4 0.500000 0.500000 0.000000
O O5 0.349234 0.618186 0.685608
O O6 0.265079 0.480678 0.236299
O O7 0.251556 0.750000 0.319669
O O8 0.222367 0.750000 0.794374
O O9 0.970896 0.750000 0.518217
O O10 0.885168 0.587057 0.713078
O O11 0.000000 0.500000 0.500000
O O12 0.857228 0.600747 0.185072
O O13 0.122056 0.878990 0.012541
#
# Coordination Sequence:
#
# PCOD8075490 Si02
#       6
#     4   4   2   4   4   2
#     4  11  26  42  65 101 146 196 246 309 367 433
#     4  10  24  43  68 100 146 193 252 303 370 427
#     4  10  20  38  70 102 144 181 248 305 358 428
#     4  12  29  51  78 111 153 193 239 303 371 445
#     4  11  25  46  78 110 146 194 251 302 366 442
#     4  10  22  38  74 114 136 181 240 307 356 434
#
# _framework density 23.837053000000001
#
# number of rings (size 3 to 8) (size 9 to 14) (size 15 to 20)
#    0.000    1.200    1.000    3.600   12.600    2.400 
#    0.000    0.000    0.000    0.000    0.000    0.000 
#    0.000    0.000    0.000    0.000    0.000    0.000 
#
# Total GULP energy -247915.920749 kJ/mol
# GULP energy per Si atom -12395.796037 kJ/mol
# Density = 2.378280 g / cm^3
# Si number density = 23.837053 Si / 1000 Ang^3
#
#
#
# Elastic Constant Matrix: (Units=GPa)
#
#
# Indices 1 2 3 4 5 6 
#
# 1 86.4052 53.5503 36.1358 0.0000 -0.5851 0.0000
# 2 53.5503 197.6974 47.2734 0.0000 -7.3256 0.0000
# 3 36.1358 47.2734 99.5501 0.0000 -25.0884 0.0000
# 4 0.0000 0.0000 0.0000 37.3242 0.0000 -5.0812
# 5 -0.5851 -7.3256 -25.0884 0.0000 29.1517 0.0000
# 6 0.0000 0.0000 0.0000 -5.0812 0.0000 30.5672
#
#
#
# Elastic Compliance Matrix: (Units=1/GPa)
#
#
# Indices 1 2 3 4 5 6 
#
# 1 0.015821 -0.003147 -0.005577 0.000000 -0.005273 0.000000
# 2 -0.003147 0.006362 -0.001905 0.000000 -0.000104 0.000000
# 3 -0.005577 -0.001905 0.016378 0.000000 0.013504 0.000000
# 4 0.000000 0.000000 0.000000 0.027413 0.000000 0.004557
# 5 -0.005273 -0.000104 0.013504 0.000000 0.045793 0.000000
# 6 0.000000 0.000000 0.000000 0.004557 0.000000 0.033472
#
#
# Mechanical properties :
#
#
# Convention : Reuss Voigt Hill
#
# Bulk Modulus (GPa) = 57.79757 73.06352 65.43055
# Shear Modulus (GPa) = 29.02507 35.85484 32.43995
#
# Velocity S-wave (km/s) = 3.49326 3.88256 3.69305
# Velocity P-wave (km/s) = 6.36947 7.12859 6.75969
#
# Compressibility (1/GPa) = 0.01730177
#
# Stress axis : x y z
#
# Youngs Moduli (GPa) = 63.20889 157.17358 61.05880
#
# Poissons Ratio (x) = 0.49464 0.34054
# Poissons Ratio (y) = 0.19892 0.11633
# Poissons Ratio (z) = 0.35253 0.29944
#
# Static dielectric constant tensor:
#      x y z
#    x 4.212760 0.000000 0.192620 
#    y 0.000000 5.729010 0.000000 
#    z 0.192620 0.000000 4.597050 
# 
# 
# High freq. dielectric constant tensor:
#      x y z
#    x 1.933580 0.000000 0.005760 
#    y 0.000000 1.952190 0.000000 
#    z 0.005760 0.000000 1.962450 
# 
# From -- ./inp_files/6096.got.cif
#   From: 2010.06.25/outbox.cif.g09.slc.cpg/sg11_4_cif.got.tgz:6096.got - 2010.06.27 23:14:04.
