data_PCOD8075178
_publ_section_title
;
Structure prediction by ZEFSAII (Michael W. Deem and Ramdas Pophale) SiO2 
 PCOD8075178
Probable space group: P 21/M
;
_chemical_formula_sum "Si O2"
_cell_formula_units_Z 32
_cell_length_a 13.011668
_cell_length_b 8.948842
_cell_length_c 30.222961
_cell_angle_alpha 90.000000
_cell_angle_beta 152.388269
_cell_angle_gamma 90.000000
_cell_volume 1631.043158
_symmetry_space_group_name_H-M "P 21/M"
_symmetry_group_IT_number 11
_symmetry_cell_setting 'monoclinic'
loop_
_space_group_symop_operation_xyz
x,y,z
-x,1/2+y,-z
-x,-y,-z
x,1/2-y,z
loop_
_atom_site_type_symbol
_atom_site_label
_atom_site_fract_x
_atom_site_fract_y
_atom_site_fract_z
Si Si1 0.202595 0.072175 0.551674
Si Si2 0.931824 0.927417 0.113552
Si Si3 0.061272 0.921426 0.412194
Si Si4 0.489500 0.926767 0.897476
Si Si5 0.264227 0.422393 0.408977
Si Si6 0.551216 0.920480 0.210926
Si Si7 0.072207 0.921542 0.794393
Si Si8 0.631588 0.072575 0.767716
O O1 0.178687 0.250000 0.543656
O O2 0.430432 0.015407 0.660489
O O3 0.204028 0.013181 0.502131
O O4 0.000000 0.000000 0.500000
O O5 0.936707 0.750000 0.116109
O O6 0.138287 0.991081 0.163875
O O7 0.949046 0.982130 0.169996
O O8 0.706755 0.987594 0.005490
O O9 0.142094 0.750000 0.442663
O O10 0.802044 0.932809 0.324319
O O11 0.098913 0.995052 0.379091
O O12 0.486156 0.750000 0.894112
O O13 0.274334 0.985457 0.841767
O O14 0.493084 0.981825 0.848782
O O15 0.500000 0.500000 0.500000
O O16 0.288568 0.250000 0.432081
O O17 0.157891 0.437495 0.319861
O O18 0.494291 0.750000 0.177112
O O19 0.398686 0.981408 0.193023
O O20 0.119102 0.750000 0.825053
O O21 0.630423 0.250000 0.766835
#
# Coordination Sequence:
#
# PCOD8075178 Si02
#       8
#     4   4   4   4   4   4   4   4
#     4  11  21  36  58  84 117 157 198 242 290 349
#     4  10  22  39  62  86 115 155 196 241 297 359
#     4  11  22  38  59  87 118 155 202 244 290 358
#     4  10  21  39  61  88 116 148 195 248 298 350
#     4  11  24  41  60  87 123 159 193 243 300 352
#     4  10  20  37  61  85 117 157 196 241 291 351
#     4  10  22  40  60  85 120 152 191 247 295 345
#     4   9  20  39  57  84 120 154 192 238 293 350
#
# _framework density 19.619346
#
# number of rings (size 3 to 8) (size 9 to 14) (size 15 to 20)
#    0.000    1.750    2.500    1.500    1.750    3.000 
#    0.000    1.250    0.000    0.000    0.000    0.000 
#    0.000    0.000    0.000    0.000    0.000    0.000 
#
# Total GULP energy -396891.941754 kJ/mol
# GULP energy per Si atom -12402.873180 kJ/mol
# Density = 1.957469 g / cm^3
# Si number density = 19.619346 Si / 1000 Ang^3
#
#
#
# Elastic Constant Matrix: (Units=GPa)
#
#
# Indices 1 2 3 4 5 6 
#
# 1 137.0273 27.7228 55.0118 0.0000 1.2269 0.0000
# 2 27.7228 56.9047 31.6048 0.0000 2.2478 0.0000
# 3 55.0118 31.6048 115.7503 0.0000 9.5735 0.0000
# 4 0.0000 0.0000 0.0000 26.7594 0.0000 -5.7083
# 5 1.2269 2.2478 9.5735 0.0000 31.4603 0.0000
# 6 0.0000 0.0000 0.0000 -5.7083 0.0000 36.1658
#
#
#
# Elastic Compliance Matrix: (Units=1/GPa)
#
#
# Indices 1 2 3 4 5 6 
#
# 1 0.009328 -0.002447 -0.003846 0.000000 0.000982 0.000000
# 2 -0.002447 0.021358 -0.004668 0.000000 -0.000010 0.000000
# 3 -0.003846 -0.004668 0.012004 0.000000 -0.003169 0.000000
# 4 0.000000 0.000000 0.000000 0.038672 0.000000 0.006104
# 5 0.000982 -0.000010 -0.003169 0.000000 0.032713 0.000000
# 6 0.000000 0.000000 0.000000 0.006104 0.000000 0.028614
#
#
# Mechanical properties :
#
#
# Convention : Reuss Voigt Hill
#
# Bulk Modulus (GPa) = 48.15123 59.81790 53.98456
# Shear Modulus (GPa) = 29.14859 31.89998 30.52428
#
# Velocity S-wave (km/s) = 3.85867 4.03668 3.94867
# Velocity P-wave (km/s) = 6.66697 7.23061 6.95450
#
# Compressibility (1/GPa) = 0.02076790
#
# Stress axis : x y z
#
# Youngs Moduli (GPa) = 107.20050 46.82017 83.30538
#
# Poissons Ratio (x) = 0.11457 0.32043
# Poissons Ratio (y) = 0.26232 0.38886
# Poissons Ratio (z) = 0.41234 0.21855
#
# Static dielectric constant tensor:
#      x y z
#    x 3.690160 0.000000 0.100810 
#    y 0.000000 3.434200 0.000000 
#    z 0.100810 0.000000 3.776860 
# 
# 
# High freq. dielectric constant tensor:
#      x y z
#    x 1.775490 0.000000 -0.002380 
#    y 0.000000 1.748920 0.000000 
#    z -0.002380 0.000000 1.769670 
# 
# From -- ./inp_files/73185.got.cif
#   From: 2010.06.25/outbox.cif.g09.slc.cpg/sg11_37_cif.got.tgz:73185.got - 2010.06.27 23:14:04.
