data_PCOD8075633
_publ_section_title
;
Structure prediction by ZEFSAII (Michael W. Deem and Ramdas Pophale) SiO2 
 PCOD8075633
Probable space group: P 21/M
;
_chemical_formula_sum "Si O2"
_cell_formula_units_Z 26
_cell_length_a 8.641430
_cell_length_b 21.570787
_cell_length_c 9.060924
_cell_angle_alpha 90.000000
_cell_angle_beta 134.455045
_cell_angle_gamma 90.000000
_cell_volume 1205.593069
_symmetry_space_group_name_H-M "P 21/M"
_symmetry_group_IT_number 11
_symmetry_cell_setting 'monoclinic'
loop_
_space_group_symop_operation_xyz
x,y,z
-x,1/2+y,-z
-x,-y,-z
x,1/2-y,z
loop_
_atom_site_type_symbol
_atom_site_label
_atom_site_fract_x
_atom_site_fract_y
_atom_site_fract_z
Si Si1 0.825332 0.750000 0.145290
Si Si2 0.907199 0.461787 0.800079
Si Si3 0.675266 0.133368 0.062949
Si Si4 0.343021 0.750000 0.759606
Si Si5 0.445967 0.866541 0.343533
Si Si6 0.795264 0.612292 0.204720
Si Si7 0.276167 0.750000 0.383545
Si Si8 0.114893 0.072506 0.416310
O O1 0.830759 0.686739 0.247157
O O2 0.025019 0.750000 0.159924
O O3 0.601610 0.750000 0.905274
O O4 0.691005 0.426718 0.704954
O O5 0.836719 0.504444 0.614940
O O6 0.086624 0.412409 0.863492
O O7 0.000000 0.500000 0.000000
O O8 0.739942 0.190782 0.207263
O O9 0.878747 0.087959 0.194115
O O10 0.620814 0.157181 0.862708
O O11 0.462005 0.098189 0.983354
O O12 0.229558 0.750000 0.526873
O O13 0.407387 0.810793 0.429764
O O14 0.700730 0.881362 0.521555
O O15 0.887424 0.574936 0.407585
#
# Coordination Sequence:
#
# PCOD8075633 Si02
#       8
#     2   4   4   2   4   4   2   4
#     4  10  20  42  66  96 130 160 214 278 322 382
#     4  12  24  45  66  93 135 176 216 277 326 385
#     4  10  22  43  64  95 128 171 215 264 328 390
#     4  10  23  38  66  98 127 169 215 267 329 399
#     4  11  25  43  65  98 131 172 215 274 332 383
#     4  10  23  43  70  94 127 173 223 267 326 388
#     4  12  23  40  70  98 129 167 217 275 331 383
#     4  11  24  43  65  94 132 174 216 262 327 394
#
# _framework density 21.566147999999998
#
# number of rings (size 3 to 8) (size 9 to 14) (size 15 to 20)
#    0.000    1.231    3.077    2.308    0.000    6.769 
#    2.769    0.000    0.000    0.000    0.000    0.000 
#    0.000    0.000    0.000    0.000    0.000    0.000 
#
# Total GULP energy -322433.868437 kJ/mol
# GULP energy per Si atom -12401.302632 kJ/mol
# Density = 2.151706 g / cm^3
# Si number density = 21.566148 Si / 1000 Ang^3
#
#
#
# Elastic Constant Matrix: (Units=GPa)
#
#
# Indices 1 2 3 4 5 6 
#
# 1 126.4143 40.0000 36.0177 0.0000 11.2945 0.0000
# 2 40.0000 100.9132 36.3596 0.0000 -9.3362 0.0000
# 3 36.0177 36.3596 72.3761 0.0000 3.9608 0.0000
# 4 0.0000 0.0000 0.0000 20.8637 0.0000 -10.2935
# 5 11.2945 -9.3362 3.9608 0.0000 40.4333 0.0000
# 6 0.0000 0.0000 0.0000 -10.2935 0.0000 41.7015
#
#
#
# Elastic Compliance Matrix: (Units=1/GPa)
#
#
# Indices 1 2 3 4 5 6 
#
# 1 0.010126 -0.003126 -0.003292 0.000000 -0.003228 0.000000
# 2 -0.003126 0.013551 -0.005500 0.000000 0.004541 0.000000
# 3 -0.003292 -0.005500 0.018336 0.000000 -0.002147 0.000000
# 4 0.000000 0.000000 0.000000 0.054577 0.000000 0.013472
# 5 -0.003228 0.004541 -0.002147 0.000000 0.026893 0.000000
# 6 0.000000 0.000000 0.000000 0.013472 0.000000 0.027305
#
#
# Mechanical properties :
#
#
# Convention : Reuss Voigt Hill
#
# Bulk Modulus (GPa) = 55.01957 58.27314 56.64635
# Shear Modulus (GPa) = 27.67295 33.08811 30.38053
#
# Velocity S-wave (km/s) = 3.58602 3.92121 3.75736
# Velocity P-wave (km/s) = 6.53555 6.89786 6.71915
#
# Compressibility (1/GPa) = 0.01817535
#
# Stress axis : x y z
#
# Youngs Moduli (GPa) = 98.75491 73.79783 54.53896
#
# Poissons Ratio (x) = 0.23071 0.17954
# Poissons Ratio (y) = 0.30874 0.29997
# Poissons Ratio (z) = 0.32510 0.40590
#
# Static dielectric constant tensor:
#      x y z
#    x 4.148000 0.000000 0.113410 
#    y 0.000000 3.829830 0.000000 
#    z 0.113410 0.000000 3.658480 
# 
# 
# High freq. dielectric constant tensor:
#      x y z
#    x 1.866000 0.000000 0.010780 
#    y 0.000000 1.846430 0.000000 
#    z 0.010780 0.000000 1.833630 
# 
# From -- ./inp_files/14528.got.cif
#   From: 2010.06.25/outbox.cif.g09.slc.cpg/sg11_8_cif.got.tgz:14528.got - 2010.06.27 23:14:04.
