data_PCOD8075276
_publ_section_title
;
Structure prediction by ZEFSAII (Michael W. Deem and Ramdas Pophale) SiO2 
 PCOD8075276
Probable space group: P 21/M
;
_chemical_formula_sum "Si O2"
_cell_formula_units_Z 28
_cell_length_a 23.242209
_cell_length_b 9.058490
_cell_length_c 26.458698
_cell_angle_alpha 90.000000
_cell_angle_beta 14.789228
_cell_angle_gamma 90.000000
_cell_volume 1421.972586
_symmetry_space_group_name_H-M "P 21/M"
_symmetry_group_IT_number 11
_symmetry_cell_setting 'monoclinic'
loop_
_space_group_symop_operation_xyz
x,y,z
-x,1/2+y,-z
-x,-y,-z
x,1/2-y,z
loop_
_atom_site_type_symbol
_atom_site_label
_atom_site_fract_x
_atom_site_fract_y
_atom_site_fract_z
Si Si1 0.800750 0.078165 0.609758
Si Si2 0.116372 0.583926 0.075097
Si Si3 0.433447 0.922958 0.294620
Si Si4 0.686437 0.923153 0.807130
Si Si5 0.440569 0.418448 0.629817
Si Si6 0.331435 0.419327 0.480923
Si Si7 0.202347 0.418434 0.737606
O O1 0.760132 0.250000 0.655790
O O2 0.691576 0.027503 0.650028
O O3 0.066235 0.042048 0.380660
O O4 0.675632 0.986124 0.759589
O O5 0.206891 0.750000 0.006671
O O6 0.899397 0.553183 0.293686
O O7 0.046634 0.560400 0.075173
O O8 0.306234 0.469260 0.929629
O O9 0.417615 0.750000 0.316288
O O10 0.308479 0.000915 0.447005
O O11 0.635136 0.750000 0.849092
O O12 0.500000 0.000000 0.000000
O O13 0.467895 0.250000 0.624099
O O14 0.457497 0.516903 0.665892
O O15 0.209724 0.440699 0.792608
O O16 0.639239 0.459994 0.422494
O O17 0.384555 0.250000 0.425503
O O18 0.284294 0.250000 0.654688
#
# Coordination Sequence:
#
# PCOD8075276 Si02
#       7
#     4   4   4   4   4   4   4
#     4   9  21  40  58  82 117 151 183 222 266 313
#     4   9  19  36  55  77 107 143 183 227 278 332
#     4  11  23  38  57  81 111 147 186 227 269 316
#     4  10  20  37  63  91 118 147 180 220 265 314
#     4   9  15  26  48  75 101 132 176 227 278 332
#     4  10  21  37  55  76 107 145 184 228 278 332
#     4   8  15  28  47  72 102 136 174 222 280 335
#
# _framework density 19.690954999999999
#
# number of rings (size 3 to 8) (size 9 to 14) (size 15 to 20)
#    0.000    2.571    0.000    2.571    0.000    6.286 
#    0.000    5.000    0.000    0.000    0.000    0.000 
#    0.000    0.000    0.000    0.000    0.000    0.000 
#
# Total GULP energy -347060.594912 kJ/mol
# GULP energy per Si atom -12395.021247 kJ/mol
# Density = 1.964614 g / cm^3
# Si number density = 19.690955 Si / 1000 Ang^3
#
#
#
# Elastic Constant Matrix: (Units=GPa)
#
#
# Indices 1 2 3 4 5 6 
#
# 1 222.4526 102.1135 64.9863 0.0000 4.0051 0.0000
# 2 102.1135 116.8812 46.9843 0.0000 10.2926 0.0000
# 3 64.9863 46.9843 85.2149 0.0000 8.0820 0.0000
# 4 0.0000 0.0000 0.0000 29.3451 0.0000 2.0665
# 5 4.0051 10.2926 8.0820 0.0000 30.3411 0.0000
# 6 0.0000 0.0000 0.0000 2.0665 0.0000 35.1150
#
#
#
# Elastic Compliance Matrix: (Units=1/GPa)
#
#
# Indices 1 2 3 4 5 6 
#
# 1 0.008117 -0.006028 -0.003036 0.000000 0.001782 0.000000
# 2 -0.006028 0.015610 -0.003675 0.000000 -0.003521 0.000000
# 3 -0.003036 -0.003675 0.016333 0.000000 -0.002703 0.000000
# 4 0.000000 0.000000 0.000000 0.034219 0.000000 -0.002014
# 5 0.001782 -0.003521 -0.002703 0.000000 0.034638 0.000000
# 6 0.000000 0.000000 0.000000 -0.002014 0.000000 0.028596
#
#
# Mechanical properties :
#
#
# Convention : Reuss Voigt Hill
#
# Bulk Modulus (GPa) = 68.58133 94.74632 81.66382
# Shear Modulus (GPa) = 29.78808 32.99121 31.38964
#
# Velocity S-wave (km/s) = 3.89367 4.09767 3.99697
# Velocity P-wave (km/s) = 7.42419 8.40291 7.92867
#
# Compressibility (1/GPa) = 0.01458123
#
# Stress axis : x y z
#
# Youngs Moduli (GPa) = 123.19403 64.06197 61.22608
#
# Poissons Ratio (x) = 0.38619 0.18586
# Poissons Ratio (y) = 0.74266 0.22504
# Poissons Ratio (z) = 0.37396 0.23546
#
# Static dielectric constant tensor:
#      x y z
#    x 3.840360 0.000000 -0.149020 
#    y 0.000000 3.618360 0.000000 
#    z -0.149020 0.000000 3.259310 
# 
# 
# High freq. dielectric constant tensor:
#      x y z
#    x 1.776240 0.000000 -0.005190 
#    y 0.000000 1.774530 0.000000 
#    z -0.005190 0.000000 1.742370 
# 
# From -- ./inp_files/69754.got.cif
#   From: 2010.06.25/outbox.cif.g09.slc.cpg/sg11_35_cif.got.tgz:69754.got - 2010.06.27 23:14:04.
