data_PCOD8075420
_publ_section_title
;
Structure prediction by ZEFSAII (Michael W. Deem and Ramdas Pophale) SiO2 
 PCOD8075420
Probable space group: P 21/M
;
_chemical_formula_sum "Si O2"
_cell_formula_units_Z 24
_cell_length_a 10.193998
_cell_length_b 8.921495
_cell_length_c 13.902228
_cell_angle_alpha 90.000000
_cell_angle_beta 89.556387
_cell_angle_gamma 90.000000
_cell_volume 1264.309991
_symmetry_space_group_name_H-M "P 21/M"
_symmetry_group_IT_number 11
_symmetry_cell_setting 'monoclinic'
loop_
_space_group_symop_operation_xyz
x,y,z
-x,1/2+y,-z
-x,-y,-z
x,1/2-y,z
loop_
_atom_site_type_symbol
_atom_site_label
_atom_site_fract_x
_atom_site_fract_y
_atom_site_fract_z
Si Si1 0.370289 0.428452 0.457972
Si Si2 0.877667 0.420904 0.452941
Si Si3 0.886008 0.574064 0.060645
Si Si4 0.274780 0.072317 0.252301
Si Si5 0.978249 0.419717 0.241699
Si Si6 0.626003 0.573224 0.952818
O O1 0.500000 0.500000 0.500000
O O2 0.378860 0.250000 0.464186
O O3 0.250911 0.485100 0.522968
O O4 0.349887 0.483326 0.347676
O O5 0.865187 0.250000 0.490469
O O6 0.896600 0.423111 0.339333
O O7 0.000000 0.500000 0.500000
O O8 0.903178 0.750000 0.054791
O O9 0.893887 0.519948 0.169918
O O10 0.748282 0.523280 0.016853
O O11 0.000000 0.500000 0.000000
O O12 0.267903 0.250000 0.253314
O O13 0.350980 0.014819 0.156803
O O14 0.124794 0.012139 0.253847
O O15 0.988990 0.250000 0.201660
O O16 0.606608 0.750000 0.952800
O O17 0.500000 0.500000 0.000000
#
# Coordination Sequence:
#
# PCOD8075420 Si02
#       6
#     4   4   4   4   4   4
#     4  11  23  41  63  89 123 162 204 252 306 366
#     4  11  22  38  62  91 121 158 202 252 306 362
#     4  11  22  37  60  90 120 153 197 251 299 351
#     4   9  18  38  62  82 114 160 198 239 299 359
#     4  10  20  38  62  88 120 159 201 244 298 361
#     4  10  22  40  60  84 118 154 196 242 293 353
#
# _framework density 18.982686999999999
#
# number of rings (size 3 to 8) (size 9 to 14) (size 15 to 20)
#    0.000    1.667    3.333    1.500    0.000    4.000 
#    0.000    6.667    0.000    0.000    0.000    0.000 
#    0.000    0.000    0.000    0.000    0.000    0.000 
#
# Total GULP energy -297634.453001 kJ/mol
# GULP energy per Si atom -12401.435542 kJ/mol
# Density = 1.893948 g / cm^3
# Si number density = 18.982687 Si / 1000 Ang^3
#
#
#
# Elastic Constant Matrix: (Units=GPa)
#
#
# Indices 1 2 3 4 5 6 
#
# 1 171.8010 57.0314 82.2587 0.0000 3.4299 0.0000
# 2 57.0314 66.9545 42.0757 0.0000 6.0561 0.0000
# 3 82.2587 42.0757 138.5935 0.0000 7.7469 0.0000
# 4 0.0000 0.0000 0.0000 33.4981 0.0000 -0.6407
# 5 3.4299 6.0561 7.7469 0.0000 37.8660 0.0000
# 6 0.0000 0.0000 0.0000 -0.6407 0.0000 37.5712
#
#
#
# Elastic Compliance Matrix: (Units=1/GPa)
#
#
# Indices 1 2 3 4 5 6 
#
# 1 0.009643 -0.005765 -0.004022 0.000000 0.000871 0.000000
# 2 -0.005765 0.022029 -0.003134 0.000000 -0.002360 0.000000
# 3 -0.004022 -0.003134 0.010627 0.000000 -0.001309 0.000000
# 4 0.000000 0.000000 0.000000 0.029862 0.000000 0.000509
# 5 0.000871 -0.002360 -0.001309 0.000000 0.026975 0.000000
# 6 0.000000 0.000000 0.000000 0.000509 0.000000 0.026625
#
#
# Mechanical properties :
#
#
# Convention : Reuss Voigt Hill
#
# Bulk Modulus (GPa) = 60.76471 82.23119 71.49795
# Shear Modulus (GPa) = 31.82918 34.85260 33.34089
#
# Velocity S-wave (km/s) = 4.09925 4.28953 4.19547
# Velocity P-wave (km/s) = 7.38141 8.24297 7.82406
#
# Compressibility (1/GPa) = 0.01645692
#
# Stress axis : x y z
#
# Youngs Moduli (GPa) = 103.70603 45.39421 94.10020
#
# Poissons Ratio (x) = 0.26170 0.37844
# Poissons Ratio (y) = 0.59787 0.29494
# Poissons Ratio (z) = 0.41707 0.14228
#
# Static dielectric constant tensor:
#      x y z
#    x 4.047640 0.000000 -0.543300 
#    y 0.000000 1.831760 0.000000 
#    z -0.543300 0.000000 3.019550 
# 
# 
# High freq. dielectric constant tensor:
#      x y z
#    x 1.739800 0.000000 0.002250 
#    y 0.000000 1.726870 0.000000 
#    z 0.002250 0.000000 1.752950 
# 
# From -- ./inp_files/20317.got.cif
#   From: 2010.06.25/outbox.cif.g09.slc.cpg/sg11_11_cif.got.tgz:20317.got - 2010.06.27 23:14:04.
