data_PCOD8075944
_publ_section_title
;
Structure prediction by ZEFSAII (Michael W. Deem and Ramdas Pophale) SiO2 
 PCOD8075944
Probable space group: P 21/M
;
_chemical_formula_sum "Si O2"
_cell_formula_units_Z 32
_cell_length_a 20.956845
_cell_length_b 8.888576
_cell_length_c 25.508827
_cell_angle_alpha 90.000000
_cell_angle_beta 159.373480
_cell_angle_gamma 90.000000
_cell_volume 1673.902859
_symmetry_space_group_name_H-M "P 21/M"
_symmetry_group_IT_number 11
_symmetry_cell_setting 'monoclinic'
loop_
_space_group_symop_operation_xyz
x,y,z
-x,1/2+y,-z
-x,-y,-z
x,1/2-y,z
loop_
_atom_site_type_symbol
_atom_site_label
_atom_site_fract_x
_atom_site_fract_y
_atom_site_fract_z
Si Si1 0.290611 0.572428 0.964278
Si Si2 0.600155 0.572565 0.280497
Si Si3 0.307885 0.429661 0.866578
Si Si4 0.998899 0.930148 0.556416
Si Si5 0.315719 0.084864 0.360723
Si Si6 0.351603 0.571975 0.179734
Si Si7 0.812791 0.584305 0.855413
Si Si8 0.038356 0.572854 0.863380
O O1 0.302355 0.750000 0.959668
O O2 0.261814 0.475020 0.890334
O O3 0.113510 0.536459 0.863348
O O4 0.471946 0.515519 0.134055
O O5 0.581343 0.750000 0.263956
O O6 0.806711 0.520543 0.433583
O O7 0.526928 0.517467 0.280948
O O8 0.313339 0.250000 0.864388
O O9 0.157851 0.497515 0.712577
O O10 0.500000 0.500000 0.000000
O O11 0.021203 0.750000 0.571360
O O12 0.000000 0.000000 0.500000
O O13 0.356357 0.250000 0.414624
O O14 0.244690 0.094096 0.247961
O O15 0.162743 0.005198 0.280395
O O16 0.500000 0.000000 0.500000
O O17 0.353483 0.750000 0.188225
O O18 0.344112 0.497853 0.231252
O O19 0.176541 0.512590 0.013409
O O20 0.840525 0.750000 0.900385
O O21 0.000000 0.500000 0.000000
O O22 0.025696 0.750000 0.862099
#
# Coordination Sequence:
#
# PCOD8075944 Si02
#       8
#     4   4   4   4   4   4   4   4
#     4   9  17  35  63  88 110 144 189 236 283 337
#     4   8  17  34  60  87 113 146 185 227 278 340
#     4  12  25  41  60  86 118 154 195 238 285 336
#     4  11  22  39  62  91 123 154 190 232 282 339
#     4  10  21  37  53  76 109 147 188 233 285 337
#     4   9  16  33  58  83 109 142 186 232 276 332
#     4  11  21  34  55  81 110 142 185 236 284 334
#     4   8  15  32  57  80 108 145 185 229 279 337
#
# _framework density 19.117000000000001
#
# number of rings (size 3 to 8) (size 9 to 14) (size 15 to 20)
#    0.000    2.250    1.250    4.125    0.000    2.000 
#    2.250    5.000    0.000    0.000    0.000    0.000 
#    0.000    0.000    0.000    0.000    0.000    0.000 
#
# Total GULP energy -396584.716934 kJ/mol
# GULP energy per Si atom -12393.272404 kJ/mol
# Density = 1.907349 g / cm^3
# Si number density = 19.117000 Si / 1000 Ang^3
#
#
#
# Elastic Constant Matrix: (Units=GPa)
#
#
# Indices 1 2 3 4 5 6 
#
# 1 129.3046 46.8469 63.7666 0.0000 23.3092 0.0000
# 2 46.8469 87.4557 50.6967 0.0000 9.2554 0.0000
# 3 63.7666 50.6967 140.2198 0.0000 26.6619 0.0000
# 4 0.0000 0.0000 0.0000 26.5594 0.0000 -1.0735
# 5 23.3092 9.2554 26.6619 0.0000 35.7823 0.0000
# 6 0.0000 0.0000 0.0000 -1.0735 0.0000 32.3305
#
#
#
# Elastic Compliance Matrix: (Units=1/GPa)
#
#
# Indices 1 2 3 4 5 6 
#
# 1 0.011370 -0.003937 -0.002951 0.000000 -0.004190 0.000000
# 2 -0.003937 0.015830 -0.004243 0.000000 0.001632 0.000000
# 3 -0.002951 -0.004243 0.010991 0.000000 -0.005170 0.000000
# 4 0.000000 0.000000 0.000000 0.037702 0.000000 0.001252
# 5 -0.004190 0.001632 -0.005170 0.000000 0.034106 0.000000
# 6 0.000000 0.000000 0.000000 0.001252 0.000000 0.030972
#
#
# Mechanical properties :
#
#
# Convention : Reuss Voigt Hill
#
# Bulk Modulus (GPa) = 62.77670 75.51117 69.14393
# Shear Modulus (GPa) = 29.66589 31.97909 30.82249
#
# Velocity S-wave (km/s) = 3.94357 4.09444 4.01971
# Velocity P-wave (km/s) = 7.32428 7.87006 7.60207
#
# Compressibility (1/GPa) = 0.01592948
#
# Stress axis : x y z
#
# Youngs Moduli (GPa) = 87.94713 63.16985 90.98552
#
# Poissons Ratio (x) = 0.24869 0.26848
# Poissons Ratio (y) = 0.34623 0.38609
# Poissons Ratio (z) = 0.25951 0.26806
#
# Static dielectric constant tensor:
#      x y z
#    x 4.023680 0.000000 0.402250 
#    y 0.000000 3.456930 0.000000 
#    z 0.402250 0.000000 3.613810 
# 
# 
# High freq. dielectric constant tensor:
#      x y z
#    x 1.759270 0.000000 0.016610 
#    y 0.000000 1.718080 0.000000 
#    z 0.016610 0.000000 1.736450 
# 
# From -- ./inp_files/72145.got.cif
#   From: 2010.06.25/outbox.cif.g09.slc.cpg/sg11_37_cif.got.tgz:72145.got - 2010.06.27 23:14:04.
