data_PCOD8075990
_publ_section_title
;
Structure prediction by ZEFSAII (Michael W. Deem and Ramdas Pophale) SiO2 
 PCOD8075990
Probable space group: P 21/M
;
_chemical_formula_sum "Si O2"
_cell_formula_units_Z 32
_cell_length_a 27.126206
_cell_length_b 9.312242
_cell_length_c 5.634581
_cell_angle_alpha 90.000000
_cell_angle_beta 106.359100
_cell_angle_gamma 90.000000
_cell_volume 1365.704779
_symmetry_space_group_name_H-M "P 21/M"
_symmetry_group_IT_number 11
_symmetry_cell_setting 'monoclinic'
loop_
_space_group_symop_operation_xyz
x,y,z
-x,1/2+y,-z
-x,-y,-z
x,1/2-y,z
loop_
_atom_site_type_symbol
_atom_site_label
_atom_site_fract_x
_atom_site_fract_y
_atom_site_fract_z
Si Si1 0.538753 0.410010 0.891401
Si Si2 0.161340 0.916705 0.469084
Si Si3 0.301059 0.091413 0.945625
Si Si4 0.643657 0.408710 0.310406
Si Si5 0.217765 0.582924 0.048625
Si Si6 0.974743 0.407239 0.165783
Si Si7 0.597599 0.906691 0.652415
Si Si8 0.077648 0.092290 0.568036
O O1 0.516207 0.250000 0.811278
O O2 0.595194 0.392212 0.073251
O O3 0.500000 0.500000 0.000000
O O4 0.547496 0.501407 0.661928
O O5 0.146494 0.750000 0.447006
O O6 0.189560 0.955071 0.758633
O O7 0.109734 0.013014 0.403734
O O8 0.189517 0.957014 0.258831
O O9 0.278177 0.250000 0.849631
O O10 0.304433 0.977639 0.733119
O O11 0.268526 0.016982 0.112614
O O12 0.360821 0.114908 0.085860
O O13 0.659412 0.250000 0.424912
O O14 0.627902 0.513334 0.493347
O O15 0.232825 0.750000 0.071642
O O16 0.956202 0.250000 0.048736
O O17 0.924442 0.488585 0.202971
O O18 0.018651 0.383400 0.419985
O O19 0.000000 0.500000 0.000000
O O20 0.577939 0.750000 0.539804
O O21 0.101659 0.250000 0.658441
#
# Coordination Sequence:
#
# PCOD8075990 Si02
#       8
#     4   4   4   4   4   4   4   4
#     4  10  21  37  56  81 113 151 193 239 292 353
#     4  10  23  42  63  91 126 167 210 256 313 374
#     4  10  22  39  60  87 118 151 194 247 301 357
#     4  10  21  37  59  85 113 150 194 240 295 356
#     4  10  23  42  63  91 124 165 211 255 312 377
#     4  10  21  37  60  89 121 160 205 254 310 368
#     4  10  21  37  58  85 115 150 191 240 297 355
#     4  10  22  39  59  88 122 160 207 257 310 369
#
# _framework density 23.431125000000002
#
# number of rings (size 3 to 8) (size 9 to 14) (size 15 to 20)
#    0.000    2.000    0.000    2.250    3.500    6.000 
#    0.000    0.000    0.000    0.000    0.000    0.000 
#    0.000    0.000    0.000    0.000    0.000    0.000 
#
# Total GULP energy -396425.414641 kJ/mol
# GULP energy per Si atom -12388.294208 kJ/mol
# Density = 2.337780 g / cm^3
# Si number density = 23.431125 Si / 1000 Ang^3
#
#
#
# Elastic Constant Matrix: (Units=GPa)
#
#
# Indices 1 2 3 4 5 6 
#
# 1 97.7941 64.9101 34.1053 0.0000 -45.4319 0.0000
# 2 64.9101 237.1911 51.6700 0.0000 -59.1342 0.0000
# 3 34.1053 51.6700 93.0239 0.0000 -43.7474 0.0000
# 4 0.0000 0.0000 0.0000 18.8079 0.0000 -16.8481
# 5 -45.4319 -59.1342 -43.7474 0.0000 56.4745 0.0000
# 6 0.0000 0.0000 0.0000 -16.8481 0.0000 34.9499
#
#
#
# Elastic Compliance Matrix: (Units=1/GPa)
#
#
# Indices 1 2 3 4 5 6 
#
# 1 0.016811 -0.001679 0.000476 0.000000 0.012135 0.000000
# 2 -0.001679 0.005892 -0.000615 0.000000 0.004343 0.000000
# 3 0.000476 -0.000615 0.016980 0.000000 0.012892 0.000000
# 4 0.000000 0.000000 0.000000 0.093580 0.000000 0.045112
# 5 0.012135 0.004343 0.012892 0.000000 0.042003 0.000000
# 6 0.000000 0.000000 0.000000 0.045112 0.000000 0.050359
#
#
# Mechanical properties :
#
#
# Convention : Reuss Voigt Hill
#
# Bulk Modulus (GPa) = 27.74136 81.04220 54.39178
# Shear Modulus (GPa) = 20.72296 40.53470 30.62883
#
# Velocity S-wave (km/s) = 2.97715 4.16378 3.61942
# Velocity P-wave (km/s) = 4.86653 7.60122 6.38207
#
# Compressibility (1/GPa) = 0.03604725
#
# Stress axis : x y z
#
# Youngs Moduli (GPa) = 59.48320 169.71937 58.89260
#
# Poissons Ratio (x) = 0.28495 -0.02802
# Poissons Ratio (y) = 0.09987 0.03622
# Poissons Ratio (z) = -0.02830 0.10438
#
# Static dielectric constant tensor:
#      x y z
#    x 4.212670 0.000000 -0.015410 
#    y 0.000000 4.877740 0.000000 
#    z -0.015410 0.000000 4.214760 
# 
# 
# High freq. dielectric constant tensor:
#      x y z
#    x 1.918900 0.000000 -0.020600 
#    y 0.000000 1.947120 0.000000 
#    z -0.020600 0.000000 1.908280 
# 
# From -- ./inp_files/9686.got.cif
#   From: 2010.06.25/outbox.cif.g09.slc.cpg/sg11_5_cif.got.tgz:9686.got - 2010.06.27 23:14:04.
