data_PCOD8075822
_publ_section_title
;
Structure prediction by ZEFSAII (Michael W. Deem and Ramdas Pophale) SiO2 
 PCOD8075822
Probable space group: P 21/M
;
_chemical_formula_sum "Si O2"
_cell_formula_units_Z 32
_cell_length_a 11.856696
_cell_length_b 9.040445
_cell_length_c 31.132623
_cell_angle_alpha 90.000000
_cell_angle_beta 27.117375
_cell_angle_gamma 90.000000
_cell_volume 1521.099664
_symmetry_space_group_name_H-M "P 21/M"
_symmetry_group_IT_number 11
_symmetry_cell_setting 'monoclinic'
loop_
_space_group_symop_operation_xyz
x,y,z
-x,1/2+y,-z
-x,-y,-z
x,1/2-y,z
loop_
_atom_site_type_symbol
_atom_site_label
_atom_site_fract_x
_atom_site_fract_y
_atom_site_fract_z
Si Si1 0.759532 0.076174 0.209086
Si Si2 0.049673 0.074941 0.028778
Si Si3 0.308935 0.424275 0.614381
Si Si4 0.218520 0.083858 0.527824
Si Si5 0.461492 0.417922 0.115811
Si Si6 0.004898 0.422904 0.211912
Si Si7 0.067610 0.081083 0.318005
Si Si8 0.254481 0.416040 0.417545
O O1 0.719911 0.250000 0.222129
O O2 0.489262 0.008364 0.313290
O O3 0.843705 0.021765 0.133351
O O4 0.976428 0.041149 0.170697
O O5 0.043354 0.250000 0.024504
O O6 0.311097 0.029718 0.960721
O O7 0.000000 0.000000 0.000000
O O8 0.354855 0.250000 0.599692
O O9 0.565847 0.507380 0.517217
O O10 0.108473 0.469043 0.647440
O O11 0.203815 0.477436 0.695775
O O12 0.172496 0.250000 0.559504
O O13 0.316020 0.081894 0.446689
O O14 0.963942 0.986158 0.622772
O O15 0.555538 0.250000 0.077209
O O16 0.275645 0.462483 0.139846
O O17 0.337343 0.430621 0.205356
O O18 0.952181 0.250000 0.240090
O O19 0.975870 0.250000 0.347159
O O20 0.212565 0.250000 0.414842
O O21 0.000000 0.500000 0.500000
#
# Coordination Sequence:
#
# PCOD8075822 Si02
#       8
#     4   4   4   4   4   4   4   4
#     4   9  19  40  66  89 116 160 201 240 303 369
#     4  11  24  42  66  90 119 158 205 253 299 359
#     4  11  20  31  51  83 120 155 195 241 289 349
#     4  11  21  35  55  79 112 156 200 246 295 347
#     4   9  20  38  61  89 123 159 196 247 307 362
#     4   9  17  36  63  88 120 160 200 240 302 374
#     4  10  21  36  55  81 117 160 197 237 289 352
#     4  10  22  40  61  84 116 153 197 246 296 355
#
# _framework density 21.037413000000001
#
# number of rings (size 3 to 8) (size 9 to 14) (size 15 to 20)
#    0.000    2.000    1.250    3.375    0.000    5.000 
#    0.000    6.250    0.000    0.000    0.000    0.000 
#    0.000    0.000    0.000    0.000    0.000    0.000 
#
# Total GULP energy -396486.620182 kJ/mol
# GULP energy per Si atom -12390.206881 kJ/mol
# Density = 2.098953 g / cm^3
# Si number density = 21.037413 Si / 1000 Ang^3
#
#
#
# Elastic Constant Matrix: (Units=GPa)
#
#
# Indices 1 2 3 4 5 6 
#
# 1 79.9353 32.4323 60.9841 0.0000 -1.2869 0.0000
# 2 32.4323 89.7604 48.4807 0.0000 -0.0161 0.0000
# 3 60.9841 48.4807 137.7562 0.0000 8.3401 0.0000
# 4 0.0000 0.0000 0.0000 33.4700 0.0000 -2.0059
# 5 -1.2869 -0.0161 8.3401 0.0000 33.9334 0.0000
# 6 0.0000 0.0000 0.0000 -2.0059 0.0000 29.1689
#
#
#
# Elastic Compliance Matrix: (Units=1/GPa)
#
#
# Indices 1 2 3 4 5 6 
#
# 1 0.019737 -0.002869 -0.007890 0.000000 0.002686 0.000000
# 2 -0.002869 0.014222 -0.003785 0.000000 0.000828 0.000000
# 3 -0.007890 -0.003785 0.012285 0.000000 -0.003321 0.000000
# 4 0.000000 0.000000 0.000000 0.030001 0.000000 0.002063
# 5 0.002686 0.000828 -0.003321 0.000000 0.030388 0.000000
# 6 0.000000 0.000000 0.000000 0.002063 0.000000 0.034425
#
#
# Mechanical properties :
#
#
# Convention : Reuss Voigt Hill
#
# Bulk Modulus (GPa) = 58.29191 65.69401 61.99296
# Shear Modulus (GPa) = 28.43061 30.35145 29.39103
#
# Velocity S-wave (km/s) = 3.68017 3.80246 3.74181
# Velocity P-wave (km/s) = 6.76957 7.11149 6.94263
#
# Compressibility (1/GPa) = 0.01715504
#
# Stress axis : x y z
#
# Youngs Moduli (GPa) = 50.66551 70.31348 81.39736
#
# Poissons Ratio (x) = 0.20175 0.64226
# Poissons Ratio (y) = 0.14537 0.30810
# Poissons Ratio (z) = 0.39977 0.26614
#
# Static dielectric constant tensor:
#      x y z
#    x 3.923960 0.000000 0.412840 
#    y 0.000000 3.791810 0.000000 
#    z 0.412840 0.000000 4.238010 
# 
# 
# High freq. dielectric constant tensor:
#      x y z
#    x 1.814080 0.000000 0.012680 
#    y 0.000000 1.807820 0.000000 
#    z 0.012680 0.000000 1.829770 
# 
# From -- ./inp_files/73059.got.cif
#   From: 2010.06.25/outbox.cif.g09.slc.cpg/sg11_37_cif.got.tgz:73059.got - 2010.06.27 23:14:04.
