data_PCOD8075415
_publ_section_title
;
Structure prediction by ZEFSAII (Michael W. Deem and Ramdas Pophale) SiO2 
 PCOD8075415
Probable space group: P 21/M
;
_chemical_formula_sum "Si O2"
_cell_formula_units_Z 32
_cell_length_a 14.410949
_cell_length_b 8.812189
_cell_length_c 12.560702
_cell_angle_alpha 90.000000
_cell_angle_beta 90.474016
_cell_angle_gamma 90.000000
_cell_volume 1595.054159
_symmetry_space_group_name_H-M "P 21/M"
_symmetry_group_IT_number 11
_symmetry_cell_setting 'monoclinic'
loop_
_space_group_symop_operation_xyz
x,y,z
-x,1/2+y,-z
-x,-y,-z
x,1/2-y,z
loop_
_atom_site_type_symbol
_atom_site_label
_atom_site_fract_x
_atom_site_fract_y
_atom_site_fract_z
Si Si1 0.276920 0.929775 0.180866
Si Si2 0.531555 0.928554 0.887918
Si Si3 0.214433 0.075217 0.612941
Si Si4 0.774775 0.080959 0.042579
Si Si5 0.653921 0.073360 0.223454
Si Si6 0.172062 0.074810 0.376988
Si Si7 0.988384 0.929226 0.323940
Si Si8 0.977274 0.420515 0.108374
O O1 0.275353 0.750000 0.198028
O O2 0.380441 0.987195 0.160472
O O3 0.232387 0.001586 0.284670
O O4 0.217270 0.988145 0.076624
O O5 0.550575 0.750000 0.905590
O O6 0.455231 0.953409 0.793562
O O7 0.500000 0.000000 0.000000
O O8 0.214543 0.250000 0.645851
O O9 0.228385 0.052152 0.487099
O O10 0.113543 0.007036 0.646328
O O11 0.303146 0.999611 0.670047
O O12 0.736753 0.250000 0.020595
O O13 0.700719 0.997638 0.118092
O O14 0.866912 0.082823 0.112710
O O15 0.679347 0.250000 0.229819
O O16 0.156476 0.250000 0.350360
O O17 0.070310 0.001420 0.395365
O O18 0.992862 0.750000 0.336763
O O19 0.015441 0.977737 0.204287
O O20 0.018568 0.250000 0.114404
O O21 0.000000 0.500000 0.000000
#
# Coordination Sequence:
#
# PCOD8075415 Si02
#       8
#     4   4   4   4   4   4   4   4
#     4  11  22  40  63  90 124 159 200 250 305 364
#     4  11  22  38  62  93 125 160 200 247 301 363
#     4  10  23  41  62  89 122 156 201 256 300 350
#     4   9  18  34  55  81 115 152 189 239 295 349
#     4  10  20  38  62  88 118 153 196 243 295 354
#     4  11  24  42  61  87 121 159 203 251 302 356
#     4  11  22  38  59  87 119 157 204 251 299 357
#     4  11  21  34  53  80 118 160 199 244 299 358
#
# _framework density 20.062014000000001
#
# number of rings (size 3 to 8) (size 9 to 14) (size 15 to 20)
#    0.000    1.500    2.500    3.000    0.000    3.500 
#    0.000    2.500    0.000    0.000    0.000    0.000 
#    0.000    0.000    0.000    0.000    0.000    0.000 
#
# Total GULP energy -396633.818975 kJ/mol
# GULP energy per Si atom -12394.806843 kJ/mol
# Density = 2.001635 g / cm^3
# Si number density = 20.062014 Si / 1000 Ang^3
#
#
#
# Elastic Constant Matrix: (Units=GPa)
#
#
# Indices 1 2 3 4 5 6 
#
# 1 69.0580 29.5046 29.1476 0.0000 10.5473 0.0000
# 2 29.5046 88.6138 36.6925 0.0000 6.8762 0.0000
# 3 29.1476 36.6925 99.3631 0.0000 11.8713 0.0000
# 4 0.0000 0.0000 0.0000 32.5070 0.0000 1.6522
# 5 10.5473 6.8762 11.8713 0.0000 32.6364 0.0000
# 6 0.0000 0.0000 0.0000 1.6522 0.0000 33.0425
#
#
#
# Elastic Compliance Matrix: (Units=1/GPa)
#
#
# Indices 1 2 3 4 5 6 
#
# 1 0.018350 -0.004455 -0.003284 0.000000 -0.003797 0.000000
# 2 -0.004455 0.014439 -0.004008 0.000000 -0.000145 0.000000
# 3 -0.003284 -0.004008 0.012838 0.000000 -0.002764 0.000000
# 4 0.000000 0.000000 0.000000 0.030841 0.000000 -0.001542
# 5 -0.003797 -0.000145 -0.002764 0.000000 0.032904 0.000000
# 6 0.000000 0.000000 0.000000 -0.001542 0.000000 0.030341
#
#
# Mechanical properties :
#
#
# Convention : Reuss Voigt Hill
#
# Bulk Modulus (GPa) = 45.18229 49.74713 47.46471
# Shear Modulus (GPa) = 29.31101 30.41654 29.86378
#
# Velocity S-wave (km/s) = 3.82648 3.89797 3.86239
# Velocity P-wave (km/s) = 6.48789 6.71635 6.60311
#
# Compressibility (1/GPa) = 0.02213257
#
# Stress axis : x y z
#
# Youngs Moduli (GPa) = 54.49553 69.25640 77.89590
#
# Poissons Ratio (x) = 0.30856 0.25581
# Poissons Ratio (y) = 0.24280 0.31219
# Poissons Ratio (z) = 0.17896 0.27757
#
# Static dielectric constant tensor:
#      x y z
#    x 3.850110 0.000000 0.213280 
#    y 0.000000 3.682150 0.000000 
#    z 0.213280 0.000000 3.711260 
# 
# 
# High freq. dielectric constant tensor:
#      x y z
#    x 1.780550 0.000000 0.008380 
#    y 0.000000 1.775650 0.000000 
#    z 0.008380 0.000000 1.786860 
# 
# From -- ./inp_files/38227.got.cif
#   From: 2010.06.25/outbox.cif.g09.slc.cpg/sg11_20_cif.got.tgz:38227.got - 2010.06.27 23:14:04.
