data_PCOD8075196
_publ_section_title
;
Structure prediction by ZEFSAII (Michael W. Deem and Ramdas Pophale) SiO2 
 PCOD8075196
Probable space group: P 21/M
;
_chemical_formula_sum "Si O2"
_cell_formula_units_Z 32
_cell_length_a 27.781199
_cell_length_b 8.696516
_cell_length_c 11.812597
_cell_angle_alpha 90.000000
_cell_angle_beta 146.434514
_cell_angle_gamma 90.000000
_cell_volume 1577.902564
_symmetry_space_group_name_H-M "P 21/M"
_symmetry_group_IT_number 11
_symmetry_cell_setting 'monoclinic'
loop_
_space_group_symop_operation_xyz
x,y,z
-x,1/2+y,-z
-x,-y,-z
x,1/2-y,z
loop_
_atom_site_type_symbol
_atom_site_label
_atom_site_fract_x
_atom_site_fract_y
_atom_site_fract_z
Si Si1 0.578094 0.567646 0.076931
Si Si2 0.615664 0.067628 0.668719
Si Si3 0.459796 0.929724 0.239446
Si Si4 0.881013 0.432182 0.930781
Si Si5 0.196269 0.924720 0.993427
Si Si6 0.770589 0.932225 0.525123
Si Si7 0.931315 0.425402 0.447897
Si Si8 0.927325 0.931499 0.680616
O O1 0.572832 0.750000 0.076346
O O2 0.672985 0.507218 0.306851
O O3 0.500000 0.500000 0.000000
O O4 0.570572 0.519837 0.931473
O O5 0.604241 0.250000 0.629675
O O6 0.599072 0.025367 0.767776
O O7 0.709532 0.997161 0.822678
O O8 0.556451 0.979317 0.462793
O O9 0.456566 0.750000 0.204840
O O10 0.874192 0.250000 0.902221
O O11 0.868045 0.489742 0.035504
O O12 0.802402 0.511620 0.709520
O O13 0.978449 0.489403 0.086254
O O14 0.212747 0.750000 0.059964
O O15 0.159569 0.936722 0.795623
O O16 0.770525 0.750000 0.519384
O O17 0.844422 0.001469 0.584548
O O18 0.956917 0.250000 0.526199
O O19 0.918814 0.523068 0.534640
O O20 0.000000 0.500000 0.500000
O O21 0.925218 0.750000 0.684402
#
# Coordination Sequence:
#
# PCOD8075196 Si02
#       8
#     4   4   4   4   4   4   4   4
#     4  11  25  44  63  86 118 156 197 247 303 358
#     4   9  19  37  61  87 119 155 192 238 291 349
#     4  10  21  38  61  89 119 151 193 242 294 353
#     4  10  20  37  61  86 119 158 198 239 287 347
#     4   9  19  35  56  85 117 153 192 236 287 343
#     4  10  24  42  61  87 119 152 196 250 299 347
#     4  11  21  36  58  85 120 157 196 237 284 344
#     4  10  21  40  61  86 122 157 192 243 297 350
#
# _framework density 20.280086000000001
#
# number of rings (size 3 to 8) (size 9 to 14) (size 15 to 20)
#    0.000    2.000    1.250    1.500    3.500    2.500 
#    0.000    1.250    0.000    0.000    0.000    0.000 
#    0.000    0.000    0.000    0.000    0.000    0.000 
#
# Total GULP energy -396601.087618 kJ/mol
# GULP energy per Si atom -12393.783988 kJ/mol
# Density = 2.023393 g / cm^3
# Si number density = 20.280086 Si / 1000 Ang^3
#
#
#
# Elastic Constant Matrix: (Units=GPa)
#
#
# Indices 1 2 3 4 5 6 
#
# 1 83.0372 11.0075 63.4891 0.0000 13.8546 0.0000
# 2 11.0075 16.2537 22.6061 0.0000 8.5587 0.0000
# 3 63.4891 22.6061 138.5353 0.0000 14.9239 0.0000
# 4 0.0000 0.0000 0.0000 33.6373 0.0000 -6.2643
# 5 13.8546 8.5587 14.9239 0.0000 43.8703 0.0000
# 6 0.0000 0.0000 0.0000 -6.2643 0.0000 27.9997
#
#
#
# Elastic Compliance Matrix: (Units=1/GPa)
#
#
# Indices 1 2 3 4 5 6 
#
# 1 0.018952 0.000599 -0.008435 0.000000 -0.003233 0.000000
# 2 0.000599 0.085653 -0.012904 0.000000 -0.012510 0.000000
# 3 -0.008435 -0.012904 0.013112 0.000000 0.000721 0.000000
# 4 0.000000 0.000000 0.000000 0.031021 0.000000 0.006940
# 5 -0.003233 -0.012510 0.000721 0.000000 0.026011 0.000000
# 6 0.000000 0.000000 0.000000 0.006940 0.000000 0.037267
#
#
# Mechanical properties :
#
#
# Convention : Reuss Voigt Hill
#
# Bulk Modulus (GPa) = 13.11689 48.00352 30.56021
# Shear Modulus (GPa) = 17.92703 30.48303 24.20503
#
# Velocity S-wave (km/s) = 2.97639 3.88119 3.45851
# Velocity P-wave (km/s) = 4.27712 6.61865 5.57227
#
# Compressibility (1/GPa) = 0.07623756
#
# Stress axis : x y z
#
# Youngs Moduli (GPa) = 52.76479 11.67502 76.26595
#
# Poissons Ratio (x) = -0.00699 0.64330
# Poissons Ratio (y) = -0.03160 0.98411
# Poissons Ratio (z) = 0.44507 0.15065
#
# Static dielectric constant tensor:
#      x y z
#    x 4.011620 0.000000 0.130040 
#    y 0.000000 3.445330 0.000000 
#    z 0.130040 0.000000 3.964680 
# 
# 
# High freq. dielectric constant tensor:
#      x y z
#    x 1.801240 0.000000 0.003520 
#    y 0.000000 1.771180 0.000000 
#    z 0.003520 0.000000 1.804030 
# 
# From -- ./inp_files/45340.got.cif
#   From: 2010.06.25/outbox.cif.g09.slc.cpg/sg11_23_cif.got.tgz:45340.got - 2010.06.27 23:14:04.
