data_PCOD8075815
_publ_section_title
;
Structure prediction by ZEFSAII (Michael W. Deem and Ramdas Pophale) SiO2 
 PCOD8075815
Probable space group: P 21/M
;
_chemical_formula_sum "Si O2"
_cell_formula_units_Z 28
_cell_length_a 26.599298
_cell_length_b 8.807998
_cell_length_c 12.145015
_cell_angle_alpha 90.000000
_cell_angle_beta 148.061431
_cell_angle_gamma 90.000000
_cell_volume 1505.251531
_symmetry_space_group_name_H-M "P 21/M"
_symmetry_group_IT_number 11
_symmetry_cell_setting 'monoclinic'
loop_
_space_group_symop_operation_xyz
x,y,z
-x,1/2+y,-z
-x,-y,-z
x,1/2-y,z
loop_
_atom_site_type_symbol
_atom_site_label
_atom_site_fract_x
_atom_site_fract_y
_atom_site_fract_z
Si Si1 0.042230 0.423837 0.855712
Si Si2 0.343350 0.571715 0.427446
Si Si3 0.798235 0.571088 0.674575
Si Si4 0.519826 0.429138 0.655492
Si Si5 0.156364 0.070944 0.483185
Si Si6 0.715091 0.574046 0.079802
Si Si7 0.792706 0.577192 0.991717
O O1 0.010217 0.250000 0.805090
O O2 0.949444 0.525127 0.681251
O O3 0.108006 0.469553 0.081355
O O4 0.100527 0.456183 0.851505
O O5 0.359080 0.750000 0.464846
O O6 0.292981 0.512512 0.444431
O O7 0.445033 0.491067 0.605576
O O8 0.281394 0.534320 0.204435
O O9 0.778545 0.750000 0.640397
O O10 0.813884 0.506811 0.580837
O O11 0.500000 0.500000 0.500000
O O12 0.510451 0.250000 0.626958
O O13 0.623196 0.472287 0.891332
O O14 0.158562 0.250000 0.484617
O O15 0.230938 0.011267 0.712308
O O16 0.684972 0.750000 0.035886
O O17 0.787777 0.553351 0.113025
O O18 0.764849 0.750000 0.906113
#
# Coordination Sequence:
#
# PCOD8075815 Si02
#       7
#     4   4   4   4   4   4   4
#     4   9  18  32  53  79 108 148 191 232 278 325
#     4  11  21  34  57  87 111 138 183 231 277 326
#     4   9  19  37  57  79 111 148 188 233 279 321
#     4  12  23  37  59  86 113 143 180 222 273 329
#     4  10  21  36  55  80 111 150 190 231 277 326
#     4  10  21  37  56  80 113 149 186 227 276 331
#     4   9  18  34  54  78 112 148 181 226 281 327
#
# _framework density 18.601541999999998
#
# number of rings (size 3 to 8) (size 9 to 14) (size 15 to 20)
#    0.000    2.000    1.429    3.857    0.000    4.000 
#    0.000    0.714    0.000    0.000    0.000    0.000 
#    0.000    0.000    0.000    0.000    0.000    0.000 
#
# Total GULP energy -347259.587019 kJ/mol
# GULP energy per Si atom -12402.128108 kJ/mol
# Density = 1.855920 g / cm^3
# Si number density = 18.601542 Si / 1000 Ang^3
#
#
#
# Elastic Constant Matrix: (Units=GPa)
#
#
# Indices 1 2 3 4 5 6 
#
# 1 118.7630 45.5202 78.6601 0.0000 13.8054 0.0000
# 2 45.5202 82.5683 43.2904 0.0000 7.7576 0.0000
# 3 78.6601 43.2904 113.7917 0.0000 3.1447 0.0000
# 4 0.0000 0.0000 0.0000 27.7605 0.0000 8.7052
# 5 13.8054 7.7576 3.1447 0.0000 25.1148 0.0000
# 6 0.0000 0.0000 0.0000 8.7052 0.0000 27.4109
#
#
#
# Elastic Compliance Matrix: (Units=1/GPa)
#
#
# Indices 1 2 3 4 5 6 
#
# 1 0.017687 -0.003447 -0.010713 0.000000 -0.007316 0.000000
# 2 -0.003447 0.016205 -0.003709 0.000000 -0.002646 0.000000
# 3 -0.010713 -0.003709 0.017471 0.000000 0.004847 0.000000
# 4 0.000000 0.000000 0.000000 0.040007 0.000000 -0.012705
# 5 -0.007316 -0.002646 0.004847 0.000000 0.044049 0.000000
# 6 0.000000 0.000000 0.000000 -0.012705 0.000000 0.040517
#
#
# Mechanical properties :
#
#
# Convention : Reuss Voigt Hill
#
# Bulk Modulus (GPa) = 64.00106 72.22936 68.11521
# Shear Modulus (GPa) = 23.05402 25.90072 24.47737
#
# Velocity S-wave (km/s) = 3.52427 3.73553 3.63144
# Velocity P-wave (km/s) = 7.14435 7.58417 7.36754
#
# Compressibility (1/GPa) = 0.01562474
#
# Stress axis : x y z
#
# Youngs Moduli (GPa) = 56.53757 61.71046 57.23871
#
# Poissons Ratio (x) = 0.21270 0.61321
# Poissons Ratio (y) = 0.19487 0.21230
# Poissons Ratio (z) = 0.60569 0.22889
#
# Static dielectric constant tensor:
#      x y z
#    x 3.753160 0.000000 -0.041300 
#    y 0.000000 3.323420 0.000000 
#    z -0.041300 0.000000 3.306300 
# 
# 
# High freq. dielectric constant tensor:
#      x y z
#    x 1.735110 0.000000 0.008370 
#    y 0.000000 1.715400 0.000000 
#    z 0.008370 0.000000 1.702380 
# 
# From -- ./inp_files/44663.got.cif
#   From: 2010.06.25/outbox.cif.g09.slc.cpg/sg11_23_cif.got.tgz:44663.got - 2010.06.27 23:14:04.
