data_PCOD8075083
_publ_section_title
;
Structure prediction by ZEFSAII (Michael W. Deem and Ramdas Pophale) SiO2 
 PCOD8075083
Probable space group: P 21/M
;
_chemical_formula_sum "Si O2"
_cell_formula_units_Z 24
_cell_length_a 9.321921
_cell_length_b 9.124068
_cell_length_c 14.782538
_cell_angle_alpha 90.000000
_cell_angle_beta 98.994849
_cell_angle_gamma 90.000000
_cell_volume 1241.849723
_symmetry_space_group_name_H-M "P 21/M"
_symmetry_group_IT_number 11
_symmetry_cell_setting 'monoclinic'
loop_
_space_group_symop_operation_xyz
x,y,z
-x,1/2+y,-z
-x,-y,-z
x,1/2-y,z
loop_
_atom_site_type_symbol
_atom_site_label
_atom_site_fract_x
_atom_site_fract_y
_atom_site_fract_z
Si Si1 0.582999 0.586685 0.434627
Si Si2 0.383335 0.422985 0.926033
Si Si3 0.451257 0.579919 0.239237
Si Si4 0.074853 0.923546 0.922094
Si Si5 0.889222 0.585230 0.549905
Si Si6 0.161335 0.079179 0.252164
O O1 0.500000 0.500000 0.500000
O O2 0.522227 0.750000 0.432486
O O3 0.544922 0.521011 0.333095
O O4 0.750898 0.579759 0.472213
O O5 0.368385 0.250000 0.946931
O O6 0.441597 0.452256 0.832054
O O7 0.229625 0.501830 0.922150
O O8 0.500000 0.500000 0.000000
O O9 0.411103 0.750000 0.240556
O O10 0.298700 0.495866 0.217607
O O11 0.092998 0.750000 0.942547
O O12 0.979580 0.951821 0.822819
O O13 0.000000 0.000000 0.000000
O O14 0.945985 0.750000 0.569685
O O15 0.863598 0.516627 0.647926
O O16 0.000000 0.500000 0.500000
O O17 0.198026 0.250000 0.261864
#
# Coordination Sequence:
#
# PCOD8075083 Si02
#       6
#     4   4   4   4   4   4
#     4  10  20  37  59  85 117 154 197 241 289 345
#     4  11  24  42  64  91 122 155 197 246 298 355
#     4  10  22  38  60  89 118 153 197 243 293 350
#     4  11  24  42  64  90 121 157 199 244 299 358
#     4  10  22  38  57  84 119 156 197 242 290 347
#     4  10  22  40  60  86 119 156 196 242 294 349
#
# _framework density 19.326008999999999
#
# number of rings (size 3 to 8) (size 9 to 14) (size 15 to 20)
#    0.000    1.667    1.667    2.000    2.333    6.667 
#    0.000    0.000    0.000    0.000    0.000    0.000 
#    0.000    0.000    0.000    0.000    0.000    0.000 
#
# Total GULP energy -297546.442784 kJ/mol
# GULP energy per Si atom -12397.768449 kJ/mol
# Density = 1.928202 g / cm^3
# Si number density = 19.326009 Si / 1000 Ang^3
#
#
#
# Elastic Constant Matrix: (Units=GPa)
#
#
# Indices 1 2 3 4 5 6 
#
# 1 153.6002 78.8804 73.0764 0.0000 -8.2859 0.0000
# 2 78.8804 93.1430 59.8941 0.0000 -5.2744 0.0000
# 3 73.0764 59.8941 135.0090 0.0000 6.2685 0.0000
# 4 0.0000 0.0000 0.0000 30.2925 0.0000 -3.4061
# 5 -8.2859 -5.2744 6.2685 0.0000 35.6462 0.0000
# 6 0.0000 0.0000 0.0000 -3.4061 0.0000 41.2003
#
#
#
# Elastic Compliance Matrix: (Units=1/GPa)
#
#
# Indices 1 2 3 4 5 6 
#
# 1 0.012414 -0.008399 -0.003095 0.000000 0.002187 0.000000
# 2 -0.008399 0.021130 -0.004922 0.000000 0.002040 0.000000
# 3 -0.003095 -0.004922 0.011426 0.000000 -0.003457 0.000000
# 4 0.000000 0.000000 0.000000 0.033321 0.000000 0.002755
# 5 0.002187 0.002040 -0.003457 0.000000 0.029472 0.000000
# 6 0.000000 0.000000 0.000000 0.002755 0.000000 0.024499
#
#
# Mechanical properties :
#
#
# Convention : Reuss Voigt Hill
#
# Bulk Modulus (GPa) = 82.38866 89.49487 85.94177
# Shear Modulus (GPa) = 29.56105 32.75457 31.15781
#
# Velocity S-wave (km/s) = 3.91525 4.12131 4.01960
# Velocity P-wave (km/s) = 7.94748 8.30996 8.13074
#
# Compressibility (1/GPa) = 0.01213759
#
# Stress axis : x y z
#
# Youngs Moduli (GPa) = 80.55303 47.32586 87.51791
#
# Poissons Ratio (x) = 0.39751 0.27085
# Poissons Ratio (y) = 0.67659 0.43079
# Poissons Ratio (z) = 0.24929 0.23295
#
# Static dielectric constant tensor:
#      x y z
#    x 3.375700 0.000000 0.118530 
#    y 0.000000 3.623000 0.000000 
#    z 0.118530 0.000000 4.209730 
# 
# 
# High freq. dielectric constant tensor:
#      x y z
#    x 1.758850 0.000000 0.002660 
#    y 0.000000 1.751880 0.000000 
#    z 0.002660 0.000000 1.773370 
# 
# From -- ./inp_files/20329.got.cif
#   From: 2010.06.25/outbox.cif.g09.slc.cpg/sg11_11_cif.got.tgz:20329.got - 2010.06.27 23:14:04.
