data_PCOD8075877
_publ_section_title
;
Structure prediction by ZEFSAII (Michael W. Deem and Ramdas Pophale) SiO2 
 PCOD8075877
Probable space group: P 21/M
;
_chemical_formula_sum "Si O2"
_cell_formula_units_Z 28
_cell_length_a 27.086436
_cell_length_b 9.006481
_cell_length_c 9.742351
_cell_angle_alpha 90.000000
_cell_angle_beta 37.811152
_cell_angle_gamma 90.000000
_cell_volume 1457.049641
_symmetry_space_group_name_H-M "P 21/M"
_symmetry_group_IT_number 11
_symmetry_cell_setting 'monoclinic'
loop_
_space_group_symop_operation_xyz
x,y,z
-x,1/2+y,-z
-x,-y,-z
x,1/2-y,z
loop_
_atom_site_type_symbol
_atom_site_label
_atom_site_fract_x
_atom_site_fract_y
_atom_site_fract_z
Si Si1 0.851879 0.920033 0.537017
Si Si2 0.561206 0.073143 0.260963
Si Si3 0.024965 0.921590 0.083314
Si Si4 0.267238 0.575257 0.003250
Si Si5 0.300405 0.578590 0.626636
Si Si6 0.179571 0.074827 0.705696
Si Si7 0.486763 0.923000 0.172525
O O1 0.825871 0.750000 0.608814
O O2 0.826275 0.975784 0.440727
O O3 0.948061 0.939278 0.352894
O O4 0.808619 0.011293 0.750073
O O5 0.550271 0.250000 0.287447
O O6 0.650673 0.023121 0.105333
O O7 0.500000 0.000000 0.500000
O O8 0.546395 0.007793 0.143511
O O9 0.043718 0.750000 0.014336
O O10 0.106778 0.001001 0.955109
O O11 0.000000 0.000000 0.000000
O O12 0.261036 0.750000 0.021574
O O13 0.265492 0.522134 0.848904
O O14 0.278990 0.750000 0.646292
O O15 0.263366 0.481089 0.585202
O O16 0.395763 0.555324 0.422384
O O17 0.172117 0.250000 0.735494
O O18 0.510040 0.750000 0.114128
O O19 0.500000 0.000000 0.000000
#
# Coordination Sequence:
#
# PCOD8075877 Si02
#       7
#     4   4   4   4   4   4   4
#     4   9  20  36  56  86 116 143 185 235 279 331
#     4  11  22  40  62  86 114 154 198 239 289 346
#     4   9  17  33  56  83 115 149 186 231 282 335
#     4  10  22  39  58  82 113 150 192 231 281 342
#     4  10  22  41  58  79 115 153 188 233 287 340
#     4  10  21  36  57  87 116 147 190 235 283 339
#     4  11  24  42  61  86 118 152 194 244 293 347
#
# _framework density 19.216915
#
# number of rings (size 3 to 8) (size 9 to 14) (size 15 to 20)
#    0.000    2.000    1.429    2.571    2.000    6.286 
#    0.000    0.714    0.000    0.000    0.000    0.000 
#    0.000    0.000    0.000    0.000    0.000    0.000 
#
# Total GULP energy -347185.848630 kJ/mol
# GULP energy per Si atom -12399.494594 kJ/mol
# Density = 1.917318 g / cm^3
# Si number density = 19.216915 Si / 1000 Ang^3
#
#
#
# Elastic Constant Matrix: (Units=GPa)
#
#
# Indices 1 2 3 4 5 6 
#
# 1 45.5393 17.2034 5.6219 0.0000 9.5932 0.0000
# 2 17.2034 71.6467 26.9484 0.0000 0.7900 0.0000
# 3 5.6219 26.9484 88.2257 0.0000 10.9425 0.0000
# 4 0.0000 0.0000 0.0000 37.3676 0.0000 -1.2833
# 5 9.5932 0.7900 10.9425 0.0000 28.6043 0.0000
# 6 0.0000 0.0000 0.0000 -1.2833 0.0000 34.5431
#
#
#
# Elastic Compliance Matrix: (Units=1/GPa)
#
#
# Indices 1 2 3 4 5 6 
#
# 1 0.026274 -0.006787 0.001542 0.000000 -0.009214 0.000000
# 2 -0.006787 0.017582 -0.005417 0.000000 0.003863 0.000000
# 3 0.001542 -0.005417 0.013581 0.000000 -0.005563 0.000000
# 4 0.000000 0.000000 0.000000 0.026795 0.000000 0.000995
# 5 -0.009214 0.003863 -0.005563 0.000000 0.040071 0.000000
# 6 0.000000 0.000000 0.000000 0.000995 0.000000 0.028986
#
#
# Mechanical properties :
#
#
# Convention : Reuss Voigt Hill
#
# Bulk Modulus (GPa) = 27.69176 33.88433 30.78804
# Shear Modulus (GPa) = 26.78795 30.47888 28.63341
#
# Velocity S-wave (km/s) = 3.73765 3.98684 3.86425
# Velocity P-wave (km/s) = 5.75049 6.23410 5.99717
#
# Compressibility (1/GPa) = 0.03611183
#
# Stress axis : x y z
#
# Youngs Moduli (GPa) = 38.06103 56.87663 73.63295
#
# Poissons Ratio (x) = 0.38602 -0.11351
# Poissons Ratio (y) = 0.25832 0.39887
# Poissons Ratio (z) = -0.05868 0.30810
#
# Static dielectric constant tensor:
#      x y z
#    x 3.712470 0.000000 -0.262060 
#    y 0.000000 3.337470 0.000000 
#    z -0.262060 0.000000 3.699680 
# 
# 
# High freq. dielectric constant tensor:
#      x y z
#    x 1.741110 0.000000 -0.010570 
#    y 0.000000 1.752640 0.000000 
#    z -0.010570 0.000000 1.748650 
# 
# From -- ./inp_files/28232.got.cif
#   From: 2010.06.25/outbox.cif.g09.slc.cpg/sg11_15_cif.got.tgz:28232.got - 2010.06.27 23:14:04.
