data_PCOD8075708
_publ_section_title
;
Structure prediction by ZEFSAII (Michael W. Deem and Ramdas Pophale) SiO2 
 PCOD8075708
Probable space group: P 21/M
;
_chemical_formula_sum "Si O2"
_cell_formula_units_Z 32
_cell_length_a 19.050604
_cell_length_b 9.373890
_cell_length_c 10.123979
_cell_angle_alpha 90.000000
_cell_angle_beta 92.720348
_cell_angle_gamma 90.000000
_cell_volume 1805.885239
_symmetry_space_group_name_H-M "P 21/M"
_symmetry_group_IT_number 11
_symmetry_cell_setting 'monoclinic'
loop_
_space_group_symop_operation_xyz
x,y,z
-x,1/2+y,-z
-x,-y,-z
x,1/2-y,z
loop_
_atom_site_type_symbol
_atom_site_label
_atom_site_fract_x
_atom_site_fract_y
_atom_site_fract_z
Si Si1 0.947613 0.918114 0.091568
Si Si2 0.049623 0.417650 0.603934
Si Si3 0.552901 0.915191 0.333159
Si Si4 0.265975 0.420027 0.273508
Si Si5 0.695909 0.919721 0.232648
Si Si6 0.797387 0.919659 0.464478
Si Si7 0.419479 0.415463 0.360494
Si Si8 0.209018 0.080205 0.993082
O O1 0.953966 0.750000 0.064815
O O2 0.967343 0.954108 0.244940
O O3 0.868481 0.972411 0.054860
O O4 0.000000 0.000000 0.000000
O O5 0.041956 0.250000 0.577037
O O6 0.127352 0.473087 0.577725
O O7 0.000000 0.500000 0.500000
O O8 0.535078 0.750000 0.311890
O O9 0.614444 0.966663 0.238444
O O10 0.580239 0.945205 0.483366
O O11 0.482812 0.002552 0.294030
O O12 0.266184 0.250000 0.273564
O O13 0.219242 0.478218 0.390706
O O14 0.346250 0.473429 0.294590
O O15 0.230260 0.481145 0.138001
O O16 0.700138 0.750000 0.236810
O O17 0.739092 0.982032 0.360303
O O18 0.731997 0.978748 0.102808
O O19 0.794611 0.750000 0.462899
O O20 0.429698 0.250000 0.330140
O O21 0.209976 0.250000 0.992442
#
# Coordination Sequence:
#
# PCOD8075708 Si02
#       8
#     4   4   4   4   4   4   4   4
#     4  10  21  36  53  76 105 136 169 206 252 307
#     4  10  21  35  53  78 106 133 166 211 256 300
#     4   9  16  26  45  68  91 122 155 189 235 286
#     4   9  16  26  44  70  94 120 160 204 242 279
#     4   9  14  26  46  67  90 120 160 202 238 275
#     4   9  15  27  47  69  94 124 161 205 243 278
#     4   9  16  27  43  67  96 121 150 193 237 280
#     4   9  17  29  47  71  96 123 161 205 242 282
#
# _framework density 17.719840999999999
#
# number of rings (size 3 to 8) (size 9 to 14) (size 15 to 20)
#    0.000    2.750    2.500    0.000    1.750    0.500 
#    0.000    0.625    0.000    3.000    0.000    0.000 
#    0.000    0.000    0.000    0.000    0.000    0.000 
#
# Total GULP energy -396664.884912 kJ/mol
# GULP energy per Si atom -12395.777654 kJ/mol
# Density = 1.767951 g / cm^3
# Si number density = 17.719841 Si / 1000 Ang^3
#
#
#
# Elastic Constant Matrix: (Units=GPa)
#
#
# Indices 1 2 3 4 5 6 
#
# 1 132.9243 34.3658 68.3287 0.0000 -20.4965 0.0000
# 2 34.3658 24.0922 25.2630 0.0000 -3.5809 0.0000
# 3 68.3287 25.2630 132.6925 0.0000 -13.0954 0.0000
# 4 0.0000 0.0000 0.0000 15.0177 0.0000 -1.5621
# 5 -20.4965 -3.5809 -13.0954 0.0000 36.0449 0.0000
# 6 0.0000 0.0000 0.0000 -1.5621 0.0000 26.2083
#
#
#
# Elastic Compliance Matrix: (Units=1/GPa)
#
#
# Indices 1 2 3 4 5 6 
#
# 1 0.014379 -0.015633 -0.003915 0.000000 0.005201 0.000000
# 2 -0.015633 0.068948 -0.005475 0.000000 -0.004029 0.000000
# 3 -0.003915 -0.005475 0.010705 0.000000 0.001119 0.000000
# 4 0.000000 0.000000 0.000000 0.067003 0.000000 0.003994
# 5 0.005201 -0.004029 0.001119 0.000000 0.030707 0.000000
# 6 0.000000 0.000000 0.000000 0.003994 0.000000 0.038394
#
#
# Mechanical properties :
#
#
# Convention : Reuss Voigt Hill
#
# Bulk Modulus (GPa) = 22.73353 60.62487 41.67920
# Shear Modulus (GPa) = 16.95820 26.23762 21.59791
#
# Velocity S-wave (km/s) = 3.09693 3.85215 3.49500
# Velocity P-wave (km/s) = 5.06411 7.35341 6.31339
#
# Compressibility (1/GPa) = 0.04398790
#
# Stress axis : x y z
#
# Youngs Moduli (GPa) = 69.54568 14.50372 93.41570
#
# Poissons Ratio (x) = 0.22673 0.36570
# Poissons Ratio (y) = 1.08718 0.51141
# Poissons Ratio (z) = 0.27226 0.07940
#
# Static dielectric constant tensor:
#      x y z
#    x 3.523330 0.000000 -0.097740 
#    y 0.000000 2.729550 0.000000 
#    z -0.097740 0.000000 3.444460 
# 
# 
# High freq. dielectric constant tensor:
#      x y z
#    x 1.699900 0.000000 -0.007450 
#    y 0.000000 1.621020 0.000000 
#    z -0.007450 0.000000 1.684640 
# 
# From -- ./inp_files/24451.got.cif
#   From: 2010.06.25/outbox.cif.g09.slc.cpg/sg11_13_cif.got.tgz:24451.got - 2010.06.27 23:14:04.
