data_PCOD8075486
_publ_section_title
;
Structure prediction by ZEFSAII (Michael W. Deem and Ramdas Pophale) SiO2 
 PCOD8075486
Probable space group: P 21/M
;
_chemical_formula_sum "Si O2"
_cell_formula_units_Z 32
_cell_length_a 11.677600
_cell_length_b 17.670794
_cell_length_c 14.654486
_cell_angle_alpha 90.000000
_cell_angle_beta 30.448084
_cell_angle_gamma 90.000000
_cell_volume 1532.429038
_symmetry_space_group_name_H-M "P 21/M"
_symmetry_group_IT_number 11
_symmetry_cell_setting 'monoclinic'
loop_
_space_group_symop_operation_xyz
x,y,z
-x,1/2+y,-z
-x,-y,-z
x,1/2-y,z
loop_
_atom_site_type_symbol
_atom_site_label
_atom_site_fract_x
_atom_site_fract_y
_atom_site_fract_z
Si Si1 0.175770 0.665061 0.898939
Si Si2 0.556552 0.836859 0.779829
Si Si3 0.912981 0.403704 0.230775
Si Si4 0.905854 0.547630 0.481329
Si Si5 0.409141 0.339190 0.901182
Si Si6 0.625016 0.079905 0.920911
Si Si7 0.389446 0.921883 0.404011
Si Si8 0.859365 0.545323 0.171098
O O1 0.090311 0.750000 0.947747
O O2 0.416113 0.659086 0.782839
O O3 0.203833 0.631747 0.778209
O O4 0.982753 0.626007 0.094114
O O5 0.596201 0.750000 0.782978
O O6 0.798329 0.875155 0.594607
O O7 0.421479 0.882180 0.950077
O O8 0.788270 0.377852 0.408748
O O9 0.879804 0.495483 0.249114
O O10 0.173618 0.382870 0.057297
O O11 0.711664 0.499165 0.566263
O O12 0.000000 0.500000 0.500000
O O13 0.106767 0.567723 0.273596
O O14 0.366873 0.250000 0.930013
O O15 0.538522 0.363137 0.903000
O O16 0.555642 0.362904 0.713378
O O17 0.500000 0.000000 0.000000
O O18 0.603112 0.944393 0.317534
O O19 0.000000 0.500000 0.000000
#
# Coordination Sequence:
#
# PCOD8075486 Si02
#       8
#     4   4   4   4   4   4   4   4
#     4  10  22  43  67  95 135 178 218 274 336 397
#     4  11  26  46  69  97 136 179 225 282 340 397
#     4  11  24  40  69 100 131 175 220 275 333 404
#     4  12  24  43  70  99 133 176 230 279 328 399
#     4  12  26  43  65 100 140 173 217 278 343 404
#     4  12  25  45  72  98 131 180 228 278 333 403
#     4  12  24  42  67 103 133 177 223 277 337 393
#     4  10  20  38  66  93 130 171 219 270 321 395
#
# _framework density 20.881879999999999
#
# number of rings (size 3 to 8) (size 9 to 14) (size 15 to 20)
#    0.000    0.750    5.000    3.375    3.500    2.000 
#    0.000    0.000    0.000    0.000    0.000    0.000 
#    0.000    0.000    0.000    0.000    0.000    0.000 
#
# Total GULP energy -396871.423769 kJ/mol
# GULP energy per Si atom -12402.231993 kJ/mol
# Density = 2.083435 g / cm^3
# Si number density = 20.881880 Si / 1000 Ang^3
#
#
#
# Elastic Constant Matrix: (Units=GPa)
#
#
# Indices 1 2 3 4 5 6 
#
# 1 63.7936 24.8313 24.7771 0.0000 3.1980 0.0000
# 2 24.8313 126.5617 39.2093 0.0000 0.2733 0.0000
# 3 24.7771 39.2093 126.7948 0.0000 10.2976 0.0000
# 4 0.0000 0.0000 0.0000 24.6176 0.0000 -1.9042
# 5 3.1980 0.2733 10.2976 0.0000 27.1855 0.0000
# 6 0.0000 0.0000 0.0000 -1.9042 0.0000 26.6753
#
#
#
# Elastic Compliance Matrix: (Units=1/GPa)
#
#
# Indices 1 2 3 4 5 6 
#
# 1 0.017770 -0.002694 -0.002550 0.000000 -0.001097 0.000000
# 2 -0.002694 0.009171 -0.002402 0.000000 0.001134 0.000000
# 3 -0.002550 -0.002402 0.009390 0.000000 -0.003233 0.000000
# 4 0.000000 0.000000 0.000000 0.040847 0.000000 0.002916
# 5 -0.001097 0.001134 -0.003233 0.000000 0.038127 0.000000
# 6 0.000000 0.000000 0.000000 0.002916 0.000000 0.037696
#
#
# Mechanical properties :
#
#
# Convention : Reuss Voigt Hill
#
# Bulk Modulus (GPa) = 47.52964 54.97618 51.25291
# Shear Modulus (GPa) = 28.52153 30.91784 29.71969
#
# Velocity S-wave (km/s) = 3.69975 3.85204 3.77666
# Velocity P-wave (km/s) = 6.40792 6.79475 6.60417
#
# Compressibility (1/GPa) = 0.02103950
#
# Stress axis : x y z
#
# Youngs Moduli (GPa) = 56.27567 109.03355 106.49190
#
# Poissons Ratio (x) = 0.29373 0.27158
# Poissons Ratio (y) = 0.15160 0.25578
# Poissons Ratio (z) = 0.14352 0.26188
#
# Static dielectric constant tensor:
#      x y z
#    x 3.833550 0.000000 -0.089330 
#    y 0.000000 4.259050 0.000000 
#    z -0.089330 0.000000 3.643120 
# 
# 
# High freq. dielectric constant tensor:
#      x y z
#    x 1.826590 0.000000 -0.001860 
#    y 0.000000 1.819590 0.000000 
#    z -0.001860 0.000000 1.821730 
# 
# From -- ./inp_files/50661.got.cif
#   From: 2010.06.25/outbox.cif.g09.slc.cpg/sg11_26_cif.got.tgz:50661.got - 2010.06.27 23:14:04.
