data_PCOD8075619
_publ_section_title
;
Structure prediction by ZEFSAII (Michael W. Deem and Ramdas Pophale) SiO2 
 PCOD8075619
Probable space group: P 21/M
;
_chemical_formula_sum "Si O2"
_cell_formula_units_Z 32
_cell_length_a 22.552805
_cell_length_b 14.594832
_cell_length_c 15.514683
_cell_angle_alpha 90.000000
_cell_angle_beta 161.952996
_cell_angle_gamma 90.000000
_cell_volume 1582.049025
_symmetry_space_group_name_H-M "P 21/M"
_symmetry_group_IT_number 11
_symmetry_cell_setting 'monoclinic'
loop_
_space_group_symop_operation_xyz
x,y,z
-x,1/2+y,-z
-x,-y,-z
x,1/2-y,z
loop_
_atom_site_type_symbol
_atom_site_label
_atom_site_fract_x
_atom_site_fract_y
_atom_site_fract_z
Si Si1 0.825517 0.569776 0.264191
Si Si2 0.479832 0.646337 0.392460
Si Si3 0.250578 0.856270 0.246925
Si Si4 0.721951 0.980499 0.295520
Si Si5 0.964772 0.150935 0.590843
Si Si6 0.532296 0.004898 0.334245
Si Si7 0.899862 0.646765 0.036367
Si Si8 0.882636 0.970676 0.703206
O O1 0.775542 0.594708 0.295244
O O2 0.898914 0.652551 0.305549
O O3 0.000000 0.500000 0.500000
O O4 0.626651 0.533075 0.952937
O O5 0.473525 0.750000 0.347219
O O6 0.326131 0.633864 0.254683
O O7 0.431589 0.573543 0.252249
O O8 0.688166 0.620998 0.715666
O O9 0.238819 0.750000 0.259126
O O10 0.393696 0.908450 0.508958
O O11 0.040486 0.900588 0.956469
O O12 0.799980 0.075795 0.364658
O O13 0.820348 0.947081 0.519382
O O14 0.500000 0.000000 0.000000
O O15 0.863111 0.250000 0.455250
O O16 0.101021 0.135751 0.861794
O O17 0.706184 0.958862 0.523079
O O18 0.958655 0.750000 0.089614
O O19 0.045478 0.576068 0.192778
#
# Coordination Sequence:
#
# PCOD8075619 Si02
#       8
#     4   4   4   4   4   4   4   4
#     4  10  22  38  64  91 116 159 208 260 311 364
#     4  10  22  38  60  88 120 160 204 248 304 370
#     4  11  25  41  61  94 129 161 205 258 311 374
#     4  10  20  41  63  85 122 165 210 252 305 378
#     4   9  19  36  61  91 119 153 205 262 311 357
#     4  12  23  39  64  93 123 164 206 255 315 374
#     4   9  18  35  60  90 122 159 202 251 307 371
#     4  11  23  39  63  90 127 169 202 248 318 374
#
# _framework density 20.226934
#
# number of rings (size 3 to 8) (size 9 to 14) (size 15 to 20)
#    0.000    1.750    2.500    1.500    5.250    2.500 
#    0.000    4.375    0.000    0.000    0.000    0.000 
#    0.000    0.000    0.000    0.000    0.000    0.000 
#
# Total GULP energy -396684.516261 kJ/mol
# GULP energy per Si atom -12396.391133 kJ/mol
# Density = 2.018090 g / cm^3
# Si number density = 20.226934 Si / 1000 Ang^3
#
#
#
# Elastic Constant Matrix: (Units=GPa)
#
#
# Indices 1 2 3 4 5 6 
#
# 1 80.6699 30.0818 7.3376 0.0000 5.2045 0.0000
# 2 30.0818 79.7735 19.2893 0.0000 -6.0818 0.0000
# 3 7.3376 19.2893 82.9433 0.0000 1.4774 0.0000
# 4 0.0000 0.0000 0.0000 15.2380 0.0000 4.1887
# 5 5.2045 -6.0818 1.4774 0.0000 31.8515 0.0000
# 6 0.0000 0.0000 0.0000 4.1887 0.0000 18.9384
#
#
#
# Elastic Compliance Matrix: (Units=1/GPa)
#
#
# Indices 1 2 3 4 5 6 
#
# 1 0.014808 -0.005884 0.000122 0.000000 -0.003549 0.000000
# 2 -0.005884 0.015853 -0.003240 0.000000 0.004139 0.000000
# 3 0.000122 -0.003240 0.012821 0.000000 -0.001233 0.000000
# 4 0.000000 0.000000 0.000000 0.069873 0.000000 -0.015454
# 5 -0.003549 0.004139 -0.001233 0.000000 0.032823 0.000000
# 6 0.000000 0.000000 0.000000 -0.015454 0.000000 0.056221
#
#
# Mechanical properties :
#
#
# Convention : Reuss Voigt Hill
#
# Bulk Modulus (GPa) = 39.24992 39.64490 39.44741
# Shear Modulus (GPa) = 21.84385 25.65079 23.74732
#
# Velocity S-wave (km/s) = 3.28981 3.56497 3.43015
# Velocity P-wave (km/s) = 5.82043 6.04880 5.93571
#
# Compressibility (1/GPa) = 0.02547776
#
# Stress axis : x y z
#
# Youngs Moduli (GPa) = 67.53004 63.07848 77.99616
#
# Poissons Ratio (x) = 0.37115 -0.00948
# Poissons Ratio (y) = 0.39735 0.25271
# Poissons Ratio (z) = -0.00821 0.20438
#
# Static dielectric constant tensor:
#      x y z
#    x 4.060640 0.000000 -0.011300 
#    y 0.000000 3.728320 0.000000 
#    z -0.011300 0.000000 3.632920 
# 
# 
# High freq. dielectric constant tensor:
#      x y z
#    x 1.802640 0.000000 0.000650 
#    y 0.000000 1.772160 0.000000 
#    z 0.000650 0.000000 1.791220 
# 
# From -- ./inp_files/18059.got.cif
#   From: 2010.06.25/outbox.cif.g09.slc.cpg/sg11_10_cif.got.tgz:18059.got - 2010.06.27 23:14:04.
