data_PCOD8075468
_publ_section_title
;
Structure prediction by ZEFSAII (Michael W. Deem and Ramdas Pophale) SiO2 
 PCOD8075468
Probable space group: P 21/M
;
_chemical_formula_sum "Si O2"
_cell_formula_units_Z 32
_cell_length_a 14.991594
_cell_length_b 8.792475
_cell_length_c 12.223100
_cell_angle_alpha 90.000000
_cell_angle_beta 87.182062
_cell_angle_gamma 90.000000
_cell_volume 1609.217883
_symmetry_space_group_name_H-M "P 21/M"
_symmetry_group_IT_number 11
_symmetry_cell_setting 'monoclinic'
loop_
_space_group_symop_operation_xyz
x,y,z
-x,1/2+y,-z
-x,-y,-z
x,1/2-y,z
loop_
_atom_site_type_symbol
_atom_site_label
_atom_site_fract_x
_atom_site_fract_y
_atom_site_fract_z
Si Si1 0.060320 0.570692 0.902473
Si Si2 0.023153 0.427422 0.674214
Si Si3 0.128066 0.575252 0.483148
Si Si4 0.250991 0.426544 0.898256
Si Si5 0.440982 0.423999 0.282222
Si Si6 0.377313 0.075341 0.695522
Si Si7 0.591390 0.924051 0.960021
Si Si8 0.331107 0.575095 0.474641
O O1 0.052148 0.750000 0.909379
O O2 0.025219 0.517051 0.787025
O O3 0.162274 0.523979 0.915931
O O4 0.000000 0.500000 0.000000
O O5 0.031654 0.250000 0.700256
O O6 0.104710 0.474667 0.590428
O O7 0.931045 0.470161 0.618330
O O8 0.110269 0.750000 0.516339
O O9 0.229830 0.545070 0.443730
O O10 0.228171 0.250000 0.921270
O O11 0.289695 0.450882 0.774215
O O12 0.323034 0.490962 0.981300
O O13 0.435813 0.250000 0.323049
O O14 0.543679 0.471756 0.261714
O O15 0.391167 0.443666 0.169782
O O16 0.394761 0.534520 0.370930
O O17 0.408210 0.250000 0.697760
O O18 0.355100 0.031279 0.573797
O O19 0.581461 0.750000 0.996052
O O20 0.500000 0.000000 0.000000
O O21 0.346634 0.750000 0.506960
#
# Coordination Sequence:
#
# PCOD8075468 Si02
#       8
#     4   4   4   4   4   4   4   4
#     4  12  26  43  63  89 123 162 204 252 307 365
#     4  10  20  38  64  91 121 155 197 247 301 359
#     4   9  20  38  61  90 120 155 199 244 297 360
#     4  10  22  41  65  93 122 156 199 249 304 362
#     4  11  23  38  58  85 118 155 197 243 296 354
#     4  11  22  38  61  86 118 156 197 243 294 352
#     4  10  21  39  63  90 120 154 198 249 298 355
#     4  11  23  38  56  82 120 157 197 244 294 353
#
# _framework density 19.885435999999999
#
# number of rings (size 3 to 8) (size 9 to 14) (size 15 to 20)
#    0.000    1.500    1.250    3.750    0.000    6.500 
#    0.000    2.500    0.000    0.000    0.000    0.000 
#    0.000    0.000    0.000    0.000    0.000    0.000 
#
# Total GULP energy -396955.038219 kJ/mol
# GULP energy per Si atom -12404.844944 kJ/mol
# Density = 1.984018 g / cm^3
# Si number density = 19.885436 Si / 1000 Ang^3
#
#
#
# Elastic Constant Matrix: (Units=GPa)
#
#
# Indices 1 2 3 4 5 6 
#
# 1 99.5570 44.1100 61.2897 0.0000 -3.9261 0.0000
# 2 44.1100 90.0601 53.4859 0.0000 -3.0946 0.0000
# 3 61.2897 53.4859 125.8294 0.0000 5.6262 0.0000
# 4 0.0000 0.0000 0.0000 25.8474 0.0000 -6.0330
# 5 -3.9261 -3.0946 5.6262 0.0000 30.4235 0.0000
# 6 0.0000 0.0000 0.0000 -6.0330 0.0000 31.6340
#
#
#
# Elastic Compliance Matrix: (Units=1/GPa)
#
#
# Indices 1 2 3 4 5 6 
#
# 1 0.015637 -0.003971 -0.006050 0.000000 0.002733 0.000000
# 2 -0.003971 0.016085 -0.004995 0.000000 0.002047 0.000000
# 3 -0.006050 -0.004995 0.013184 0.000000 -0.003727 0.000000
# 4 0.000000 0.000000 0.000000 0.040491 0.000000 0.007722
# 5 0.002733 0.002047 -0.003727 0.000000 0.034119 0.000000
# 6 0.000000 0.000000 0.000000 0.007722 0.000000 0.033084
#
#
# Mechanical properties :
#
#
# Convention : Reuss Voigt Hill
#
# Bulk Modulus (GPa) = 67.23443 70.35751 68.79597
# Shear Modulus (GPa) = 26.65368 28.01835 27.33602
#
# Velocity S-wave (km/s) = 3.66507 3.75772 3.71168
# Velocity P-wave (km/s) = 7.19684 7.36787 7.28286
#
# Compressibility (1/GPa) = 0.01487333
#
# Stress axis : x y z
#
# Youngs Moduli (GPa) = 63.95230 62.16836 75.84934
#
# Poissons Ratio (x) = 0.24689 0.45893
# Poissons Ratio (y) = 0.25398 0.37883
# Poissons Ratio (z) = 0.38694 0.31050
#
# Static dielectric constant tensor:
#      x y z
#    x 3.694230 0.000000 0.173710 
#    y 0.000000 3.995130 0.000000 
#    z 0.173710 0.000000 3.734780 
# 
# 
# High freq. dielectric constant tensor:
#      x y z
#    x 1.779880 0.000000 0.007920 
#    y 0.000000 1.779620 0.000000 
#    z 0.007920 0.000000 1.782620 
# 
# From -- ./inp_files/38090.got.cif
#   From: 2010.06.25/outbox.cif.g09.slc.cpg/sg11_20_cif.got.tgz:38090.got - 2010.06.27 23:14:04.
