data_PCOD8075072
_publ_section_title
;
Structure prediction by ZEFSAII (Michael W. Deem and Ramdas Pophale) SiO2 
 PCOD8075072
Probable space group: P 21/M
;
_chemical_formula_sum "Si O2"
_cell_formula_units_Z 28
_cell_length_a 20.930195
_cell_length_b 8.963332
_cell_length_c 14.078008
_cell_angle_alpha 90.000000
_cell_angle_beta 32.777996
_cell_angle_gamma 90.000000
_cell_volume 1429.849969
_symmetry_space_group_name_H-M "P 21/M"
_symmetry_group_IT_number 11
_symmetry_cell_setting 'monoclinic'
loop_
_space_group_symop_operation_xyz
x,y,z
-x,1/2+y,-z
-x,-y,-z
x,1/2-y,z
loop_
_atom_site_type_symbol
_atom_site_label
_atom_site_fract_x
_atom_site_fract_y
_atom_site_fract_z
Si Si1 0.971124 0.422608 0.633649
Si Si2 0.705604 0.077442 0.942538
Si Si3 0.627586 0.573342 0.850940
Si Si4 0.347767 0.420096 0.627088
Si Si5 0.433540 0.078915 0.724304
Si Si6 0.112286 0.423671 0.815135
Si Si7 0.839062 0.573177 0.455460
O O1 0.000880 0.250000 0.583095
O O2 0.833763 0.448952 0.829400
O O3 0.000000 0.500000 0.500000
O O4 0.053192 0.489773 0.614707
O O5 0.684222 0.250000 0.943740
O O6 0.693335 0.981105 0.863065
O O7 0.608771 0.026344 0.138638
O O8 0.611246 0.750000 0.875989
O O9 0.711783 0.525417 0.657541
O O10 0.500000 0.500000 0.000000
O O11 0.384902 0.250000 0.556109
O O12 0.433497 0.533565 0.466463
O O13 0.351021 0.446654 0.735853
O O14 0.217190 0.456582 0.756575
O O15 0.431106 0.250000 0.761109
O O16 0.085137 0.250000 0.838857
O O17 0.145567 0.491628 0.670032
O O18 0.000000 0.500000 0.000000
O O19 0.845587 0.750000 0.444015
#
# Coordination Sequence:
#
# PCOD8075072 Si02
#       7
#     4   4   4   4   4   4   4
#     4  10  20  37  59  84 113 149 194 241 289 347
#     4  11  23  37  59  89 119 155 196 242 297 356
#     4  11  23  40  62  89 123 160 201 247 297 359
#     4   9  20  39  60  84 117 153 195 245 303 357
#     4  10  21  37  59  87 117 152 195 246 298 354
#     4  10  22  40  61  86 117 156 197 242 294 356
#     4   9  20  39  61  84 116 157 194 239 302 353
#
# _framework density 19.582476
#
# number of rings (size 3 to 8) (size 9 to 14) (size 15 to 20)
#    0.000    2.000    1.429    1.286    4.000    1.714 
#    0.000    2.143    0.000    0.000    0.000    0.000 
#    0.000    0.000    0.000    0.000    0.000    0.000 
#
# Total GULP energy -347242.116135 kJ/mol
# GULP energy per Si atom -12401.504148 kJ/mol
# Density = 1.953791 g / cm^3
# Si number density = 19.582476 Si / 1000 Ang^3
#
#
#
# Elastic Constant Matrix: (Units=GPa)
#
#
# Indices 1 2 3 4 5 6 
#
# 1 103.2243 35.2863 68.5293 0.0000 -2.6503 0.0000
# 2 35.2863 62.0342 46.7697 0.0000 -2.9142 0.0000
# 3 68.5293 46.7697 133.0079 0.0000 4.2307 0.0000
# 4 0.0000 0.0000 0.0000 34.3972 0.0000 0.2342
# 5 -2.6503 -2.9142 4.2307 0.0000 36.3305 0.0000
# 6 0.0000 0.0000 0.0000 0.2342 0.0000 27.9554
#
#
#
# Elastic Compliance Matrix: (Units=1/GPa)
#
#
# Indices 1 2 3 4 5 6 
#
# 1 0.015438 -0.003633 -0.006728 0.000000 0.001618 0.000000
# 2 -0.003633 0.023051 -0.006307 0.000000 0.002319 0.000000
# 3 -0.006728 -0.006307 0.013284 0.000000 -0.002544 0.000000
# 4 0.000000 0.000000 0.000000 0.029074 0.000000 -0.000244
# 5 0.001618 0.002319 -0.002544 0.000000 0.028125 0.000000
# 6 0.000000 0.000000 0.000000 -0.000244 0.000000 0.035773
#
#
# Mechanical properties :
#
#
# Convention : Reuss Voigt Hill
#
# Bulk Modulus (GPa) = 54.24254 66.60411 60.42332
# Shear Modulus (GPa) = 27.14058 29.58205 28.36131
#
# Velocity S-wave (km/s) = 3.72689 3.89091 3.80978
# Velocity P-wave (km/s) = 6.80289 7.36692 7.09051
#
# Compressibility (1/GPa) = 0.01843572
#
# Stress axis : x y z
#
# Youngs Moduli (GPa) = 64.77676 43.38238 75.28089
#
# Poissons Ratio (x) = 0.15760 0.50649
# Poissons Ratio (y) = 0.23532 0.47483
# Poissons Ratio (z) = 0.43582 0.27363
#
# Static dielectric constant tensor:
#      x y z
#    x 4.000310 0.000000 -0.021190 
#    y 0.000000 3.464740 0.000000 
#    z -0.021190 0.000000 3.659700 
# 
# 
# High freq. dielectric constant tensor:
#      x y z
#    x 1.771130 0.000000 -0.002960 
#    y 0.000000 1.749280 0.000000 
#    z -0.002960 0.000000 1.769080 
# 
# From -- ./inp_files/37471.got.cif
#   From: 2010.06.25/outbox.cif.g09.slc.cpg/sg11_19_cif.got.tgz:37471.got - 2010.06.27 23:14:04.
