data_PCOD8075651
_publ_section_title
;
Structure prediction by ZEFSAII (Michael W. Deem and Ramdas Pophale) SiO2 
 PCOD8075651
Probable space group: P 21/M
;
_chemical_formula_sum "Si O2"
_cell_formula_units_Z 32
_cell_length_a 26.798359
_cell_length_b 9.068228
_cell_length_c 12.380865
_cell_angle_alpha 90.000000
_cell_angle_beta 39.578444
_cell_angle_gamma 90.000000
_cell_volume 1916.957312
_symmetry_space_group_name_H-M "P 21/M"
_symmetry_group_IT_number 11
_symmetry_cell_setting 'monoclinic'
loop_
_space_group_symop_operation_xyz
x,y,z
-x,1/2+y,-z
-x,-y,-z
x,1/2-y,z
loop_
_atom_site_type_symbol
_atom_site_label
_atom_site_fract_x
_atom_site_fract_y
_atom_site_fract_z
Si Si1 0.422816 0.077793 0.673052
Si Si2 0.311219 0.421551 0.286649
Si Si3 0.165185 0.580460 0.602011
Si Si4 0.677696 0.423550 0.324357
Si Si5 0.434348 0.079546 0.904832
Si Si6 0.993092 0.579253 0.898167
Si Si7 0.407217 0.424514 0.336279
Si Si8 0.155394 0.921544 0.864364
O O1 0.426448 0.250000 0.637524
O O2 0.414307 0.051270 0.814027
O O3 0.500000 0.000000 0.500000
O O4 0.347085 0.002614 0.745030
O O5 0.295685 0.250000 0.318520
O O6 0.226281 0.496537 0.424391
O O7 0.359242 0.474280 0.311289
O O8 0.358089 0.465190 0.100762
O O9 0.189538 0.750000 0.560878
O O10 0.170335 0.521612 0.717117
O O11 0.077459 0.557692 0.699033
O O12 0.660112 0.250000 0.347765
O O13 0.626319 0.489881 0.505686
O O14 0.769217 0.456523 0.188993
O O15 0.457475 0.250000 0.887424
O O16 0.503760 0.974704 0.829243
O O17 0.975072 0.750000 0.946525
O O18 0.919455 0.506291 0.958173
O O19 0.000000 0.500000 0.000000
O O20 0.403534 0.250000 0.362397
O O21 0.134611 0.750000 0.897148
#
# Coordination Sequence:
#
# PCOD8075651 Si02
#       8
#     4   4   4   4   4   4   4   4
#     4  11  22  36  54  73  96 128 169 211 254 298
#     4  10  21  34  49  73 100 131 169 203 243 297
#     4   9  17  30  46  69 100 133 162 192 241 293
#     4  11  21  34  52  73 101 133 165 206 253 296
#     4  10  22  38  52  68  97 133 166 208 255 293
#     4   9  17  28  44  68  99 132 164 197 238 291
#     4  11  21  32  50  75  99 127 169 207 242 298
#     4   9  18  31  47  70  99 131 164 198 246 297
#
# _framework density 16.693121000000001
#
# number of rings (size 3 to 8) (size 9 to 14) (size 15 to 20)
#    0.000    2.000    2.500    2.625    0.000    5.000 
#    0.000    0.000    0.000    0.000    0.000    0.875 
#    0.000    0.000    0.000    0.000    0.000    0.000 
#
# Total GULP energy -396777.046651 kJ/mol
# GULP energy per Si atom -12399.282708 kJ/mol
# Density = 1.665513 g / cm^3
# Si number density = 16.693121 Si / 1000 Ang^3
#
#
#
# Elastic Constant Matrix: (Units=GPa)
#
#
# Indices 1 2 3 4 5 6 
#
# 1 75.8223 41.3866 53.4392 0.0000 -20.4330 0.0000
# 2 41.3866 74.7943 49.2924 0.0000 -17.5681 0.0000
# 3 53.4392 49.2924 102.8058 0.0000 -18.9389 0.0000
# 4 0.0000 0.0000 0.0000 27.9141 0.0000 -7.8405
# 5 -20.4330 -17.5681 -18.9389 0.0000 27.3812 0.0000
# 6 0.0000 0.0000 0.0000 -7.8405 0.0000 27.6630
#
#
#
# Elastic Compliance Matrix: (Units=1/GPa)
#
#
# Indices 1 2 3 4 5 6 
#
# 1 0.024777 -0.006177 -0.008299 0.000000 0.008786 0.000000
# 2 -0.006177 0.022311 -0.006531 0.000000 0.005188 0.000000
# 3 -0.008299 -0.006531 0.017488 0.000000 0.001713 0.000000
# 4 0.000000 0.000000 0.000000 0.038923 0.000000 0.011032
# 5 0.008786 0.005188 0.001713 0.000000 0.047591 0.000000
# 6 0.000000 0.000000 0.000000 0.011032 0.000000 0.039276
#
#
# Mechanical properties :
#
#
# Convention : Reuss Voigt Hill
#
# Bulk Modulus (GPa) = 44.32219 60.18432 52.25325
# Shear Modulus (GPa) = 20.84197 23.87859 22.36028
#
# Velocity S-wave (km/s) = 3.53730 3.78623 3.66388
# Velocity P-wave (km/s) = 6.57967 7.43274 7.01918
#
# Compressibility (1/GPa) = 0.02256206
#
# Stress axis : x y z
#
# Youngs Moduli (GPa) = 40.35938 44.82173 57.18282
#
# Poissons Ratio (x) = 0.27687 0.47457
# Poissons Ratio (y) = 0.24930 0.37344
# Poissons Ratio (z) = 0.33495 0.29272
#
# Static dielectric constant tensor:
#      x y z
#    x 3.409990 0.000000 -0.356260 
#    y 0.000000 3.245050 0.000000 
#    z -0.356260 0.000000 3.255170 
# 
# 
# High freq. dielectric constant tensor:
#      x y z
#    x 1.627540 0.000000 -0.025000 
#    y 0.000000 1.653320 0.000000 
#    z -0.025000 0.000000 1.626160 
# 
# From -- ./inp_files/44506.got.cif
#   From: 2010.06.25/outbox.cif.g09.slc.cpg/sg11_23_cif.got.tgz:44506.got - 2010.06.27 23:14:04.
