data_PCOD8075108
_publ_section_title
;
Structure prediction by ZEFSAII (Michael W. Deem and Ramdas Pophale) SiO2 
 PCOD8075108
Probable space group: P 21/M
;
_chemical_formula_sum "Si O2"
_cell_formula_units_Z 32
_cell_length_a 11.847299
_cell_length_b 9.370380
_cell_length_c 15.100934
_cell_angle_alpha 90.000000
_cell_angle_beta 90.207102
_cell_angle_gamma 90.000000
_cell_volume 1676.399509
_symmetry_space_group_name_H-M "P 21/M"
_symmetry_group_IT_number 11
_symmetry_cell_setting 'monoclinic'
loop_
_space_group_symop_operation_xyz
x,y,z
-x,1/2+y,-z
-x,-y,-z
x,1/2-y,z
loop_
_atom_site_type_symbol
_atom_site_label
_atom_site_fract_x
_atom_site_fract_y
_atom_site_fract_z
Si Si1 0.021784 0.913057 0.273993
Si Si2 0.207627 0.587143 0.418284
Si Si3 0.536410 0.082752 0.122999
Si Si4 0.570995 0.910905 0.568848
Si Si5 0.664622 0.415673 0.944465
Si Si6 0.845778 0.082748 0.388978
Si Si7 0.924461 0.418912 0.927222
Si Si8 0.376407 0.590167 0.698947
O O1 0.980783 0.750000 0.276419
O O2 0.137489 0.930259 0.328460
O O3 0.038063 0.962599 0.172303
O O4 0.931049 0.007880 0.323229
O O5 0.251256 0.750000 0.429828
O O6 0.311081 0.481869 0.408573
O O7 0.136202 0.545491 0.506804
O O8 0.510639 0.250000 0.134093
O O9 0.608302 0.017848 0.205103
O O10 0.415212 0.004607 0.121435
O O11 0.617135 0.050858 0.041223
O O12 0.589950 0.750000 0.533651
O O13 0.499818 0.911512 0.657813
O O14 0.500000 0.000000 0.500000
O O15 0.654917 0.250000 0.918943
O O16 0.794239 0.466271 0.939026
O O17 0.861476 0.250000 0.374389
O O18 0.720949 0.021432 0.362723
O O19 0.937732 0.250000 0.942595
O O20 0.000000 0.500000 0.000000
O O21 0.333361 0.750000 0.714606
#
# Coordination Sequence:
#
# PCOD8075108 Si02
#       8
#     4   4   4   4   4   4   4   4
#     4  10  23  40  58  84 117 149 189 243 293 336
#     4  10  21  39  60  83 116 153 189 238 291 340
#     4   9  18  34  57  82 110 143 180 227 275 328
#     4  11  21  36  56  82 117 151 189 231 280 339
#     4   9  19  36  57  81 109 142 181 225 281 335
#     4  10  20  37  60  83 113 152 195 235 279 341
#     4  10  23  41  59  83 115 150 190 237 285 341
#     4   9  19  34  54  82 113 145 184 230 274 325
#
# _framework density 19.088529000000001
#
# number of rings (size 3 to 8) (size 9 to 14) (size 15 to 20)
#    0.000    2.250    1.250    0.750    3.500    2.000 
#    0.000    1.250    0.000    0.000    0.000    0.000 
#    0.000    0.000    0.000    0.000    0.000    0.000 
#
# Total GULP energy -396631.685675 kJ/mol
# GULP energy per Si atom -12394.740177 kJ/mol
# Density = 1.904508 g / cm^3
# Si number density = 19.088529 Si / 1000 Ang^3
#
#
#
# Elastic Constant Matrix: (Units=GPa)
#
#
# Indices 1 2 3 4 5 6 
#
# 1 93.9807 44.8598 32.4981 0.0000 -4.6648 0.0000
# 2 44.8598 64.6841 37.2349 0.0000 0.3907 0.0000
# 3 32.4981 37.2349 114.1714 0.0000 15.6124 0.0000
# 4 0.0000 0.0000 0.0000 24.6646 0.0000 -0.4368
# 5 -4.6648 0.3907 15.6124 0.0000 26.4242 0.0000
# 6 0.0000 0.0000 0.0000 -0.4368 0.0000 37.5049
#
#
#
# Elastic Compliance Matrix: (Units=1/GPa)
#
#
# Indices 1 2 3 4 5 6 
#
# 1 0.016431 -0.010343 -0.001873 0.000000 0.004160 0.000000
# 2 -0.010343 0.025878 -0.005650 0.000000 0.001130 0.000000
# 3 -0.001873 -0.005650 0.012150 0.000000 -0.007426 0.000000
# 4 0.000000 0.000000 0.000000 0.040552 0.000000 0.000472
# 5 0.004160 0.001130 -0.007426 0.000000 0.042949 0.000000
# 6 0.000000 0.000000 0.000000 0.000472 0.000000 0.026669
#
#
# Mechanical properties :
#
#
# Convention : Reuss Voigt Hill
#
# Bulk Modulus (GPa) = 53.39551 55.78020 54.58786
# Shear Modulus (GPa) = 24.20084 28.26829 26.23457
#
# Velocity S-wave (km/s) = 3.56451 3.85243 3.71126
# Velocity P-wave (km/s) = 6.70629 7.00525 6.85740
#
# Compressibility (1/GPa) = 0.01872817
#
# Stress axis : x y z
#
# Youngs Moduli (GPa) = 60.85891 38.64256 82.30394
#
# Poissons Ratio (x) = 0.39966 0.15415
# Poissons Ratio (y) = 0.62943 0.46504
# Poissons Ratio (z) = 0.11399 0.21834
#
# Static dielectric constant tensor:
#      x y z
#    x 3.701660 0.000000 0.096710 
#    y 0.000000 3.460810 0.000000 
#    z 0.096710 0.000000 3.705860 
# 
# 
# High freq. dielectric constant tensor:
#      x y z
#    x 1.743790 0.000000 0.003080 
#    y 0.000000 1.724630 0.000000 
#    z 0.003080 0.000000 1.754680 
# 
# From -- ./inp_files/49288.got.cif
#   From: 2010.06.25/outbox.cif.g09.slc.cpg/sg11_25_cif.got.tgz:49288.got - 2010.06.27 23:14:04.
