data_PCOD8075192
_publ_section_title
;
Structure prediction by ZEFSAII (Michael W. Deem and Ramdas Pophale) SiO2 
 PCOD8075192
Probable space group: P 21/M
;
_chemical_formula_sum "Si O2"
_cell_formula_units_Z 32
_cell_length_a 9.572512
_cell_length_b 12.300101
_cell_length_c 30.245398
_cell_angle_alpha 90.000000
_cell_angle_beta 151.700192
_cell_angle_gamma 90.000000
_cell_volume 1688.302844
_symmetry_space_group_name_H-M "P 21/M"
_symmetry_group_IT_number 11
_symmetry_cell_setting 'monoclinic'
loop_
_space_group_symop_operation_xyz
x,y,z
-x,1/2+y,-z
-x,-y,-z
x,1/2-y,z
loop_
_atom_site_type_symbol
_atom_site_label
_atom_site_fract_x
_atom_site_fract_y
_atom_site_fract_z
Si Si1 0.782561 0.126501 0.044293
Si Si2 0.208037 0.031982 0.099077
Si Si3 0.221912 0.512851 0.868728
Si Si4 0.395536 0.510039 0.403881
Si Si5 0.328019 0.622329 0.295896
Si Si6 0.191001 0.876446 0.771042
Si Si7 0.168804 0.625585 0.421450
Si Si8 0.499147 0.376675 0.753724
O O1 0.665294 0.250000 0.016238
O O2 0.896770 0.080794 0.122708
O O3 0.043088 0.125441 0.080954
O O4 0.537426 0.041600 0.960873
O O5 0.259795 0.930889 0.146831
O O6 0.526396 0.075298 0.174722
O O7 0.000000 0.000000 0.000000
O O8 0.237619 0.603733 0.835642
O O9 0.012732 0.411606 0.799200
O O10 0.473864 0.557229 0.377390
O O11 0.333281 0.608269 0.420602
O O12 0.684893 0.444875 0.499028
O O13 0.111760 0.432324 0.328234
O O14 0.356589 0.750000 0.312538
O O15 0.472380 0.586839 0.289644
O O16 0.164723 0.750000 0.753048
O O17 0.195934 0.750000 0.443380
O O18 0.827622 0.592147 0.321530
O O19 0.566849 0.250000 0.776444
#
# Coordination Sequence:
#
# PCOD8075192 Si02
#       8
#     4   4   4   4   4   4   4   4
#     4  11  22  37  57  79 111 153 195 243 292 340
#     4  12  23  41  55  86 120 153 200 241 292 349
#     4  10  21  38  55  82 113 145 197 242 283 348
#     4  10  21  36  61  92 118 147 192 245 283 353
#     4  10  20  37  61  86 117 155 193 238 287 340
#     4  11  22  38  58  82 115 152 188 237 297 345
#     4  10  20  38  62  88 119 153 189 237 294 346
#     4  10  22  40  62  85 116 155 196 241 293 346
#
# _framework density 18.953945000000001
#
# number of rings (size 3 to 8) (size 9 to 14) (size 15 to 20)
#    0.000    1.500    3.750    1.875    0.000    1.500 
#    0.000    0.000    0.000    0.000    0.000    0.000 
#    0.000    0.000    0.000    0.000    0.000    0.000 
#
# Total GULP energy -396755.446656 kJ/mol
# GULP energy per Si atom -12398.607708 kJ/mol
# Density = 1.891081 g / cm^3
# Si number density = 18.953945 Si / 1000 Ang^3
#
#
#
# Elastic Constant Matrix: (Units=GPa)
#
#
# Indices 1 2 3 4 5 6 
#
# 1 97.3603 29.1127 29.7372 0.0000 -15.5146 0.0000
# 2 29.1127 82.2840 35.3872 0.0000 -6.2869 0.0000
# 3 29.7372 35.3872 76.1408 0.0000 -17.1771 0.0000
# 4 0.0000 0.0000 0.0000 24.4047 0.0000 2.0116
# 5 -15.5146 -6.2869 -17.1771 0.0000 30.3017 0.0000
# 6 0.0000 0.0000 0.0000 2.0116 0.0000 27.9397
#
#
#
# Elastic Compliance Matrix: (Units=1/GPa)
#
#
# Indices 1 2 3 4 5 6 
#
# 1 0.012660 -0.003054 -0.002529 0.000000 0.004415 0.000000
# 2 -0.003054 0.015951 -0.006681 0.000000 -0.002042 0.000000
# 3 -0.002529 -0.006681 0.019059 0.000000 0.008123 0.000000
# 4 0.000000 0.000000 0.000000 0.041220 0.000000 -0.002968
# 5 0.004415 -0.002042 0.008123 0.000000 0.039443 0.000000
# 6 0.000000 0.000000 0.000000 -0.002968 0.000000 0.036005
#
#
# Mechanical properties :
#
#
# Convention : Reuss Voigt Hill
#
# Bulk Modulus (GPa) = 43.21290 49.36214 46.28752
# Shear Modulus (GPa) = 25.43479 27.29910 26.36695
#
# Velocity S-wave (km/s) = 3.66721 3.79923 3.73380
# Velocity P-wave (km/s) = 6.38589 6.73389 6.56220
#
# Compressibility (1/GPa) = 0.02314124
#
# Stress axis : x y z
#
# Youngs Moduli (GPa) = 78.98626 62.69210 52.46908
#
# Poissons Ratio (x) = 0.19149 0.13270
# Poissons Ratio (y) = 0.24125 0.35055
# Poissons Ratio (z) = 0.19976 0.41885
#
# Static dielectric constant tensor:
#      x y z
#    x 3.615630 0.000000 -0.099610 
#    y 0.000000 3.348870 0.000000 
#    z -0.099610 0.000000 3.419420 
# 
# 
# High freq. dielectric constant tensor:
#      x y z
#    x 1.746460 0.000000 -0.006230 
#    y 0.000000 1.734020 0.000000 
#    z -0.006230 0.000000 1.735010 
# 
# From -- ./inp_files/29244.got.cif
#   From: 2010.06.25/outbox.cif.g09.slc.cpg/sg11_15_cif.got.tgz:29244.got - 2010.06.27 23:14:04.
