data_PCOD8075473
_publ_section_title
;
Structure prediction by ZEFSAII (Michael W. Deem and Ramdas Pophale) SiO2 
 PCOD8075473
Probable space group: P 21/M
;
_chemical_formula_sum "Si O2"
_cell_formula_units_Z 20
_cell_length_a 10.523815
_cell_length_b 15.761164
_cell_length_c 5.094341
_cell_angle_alpha 90.000000
_cell_angle_beta 95.694806
_cell_angle_gamma 90.000000
_cell_volume 840.815614
_symmetry_space_group_name_H-M "P 21/M"
_symmetry_group_IT_number 11
_symmetry_cell_setting 'monoclinic'
loop_
_space_group_symop_operation_xyz
x,y,z
-x,1/2+y,-z
-x,-y,-z
x,1/2-y,z
loop_
_atom_site_type_symbol
_atom_site_label
_atom_site_fract_x
_atom_site_fract_y
_atom_site_fract_z
Si Si1 0.242669 0.345901 0.465531
Si Si2 0.190096 0.841680 0.506482
Si Si3 0.322934 0.894968 0.052534
Si Si4 0.117261 0.499361 0.218262
Si Si5 0.594627 0.653200 0.005729
O O1 0.187837 0.250000 0.448802
O O2 0.127014 0.409876 0.371912
O O3 0.295475 0.370690 0.762510
O O4 0.355868 0.356533 0.278963
O O5 0.118047 0.750000 0.475461
O O6 0.251248 0.847794 0.803486
O O7 0.097210 0.922010 0.420813
O O8 0.304740 0.840603 0.315073
O O9 0.251359 0.985879 0.085534
O O10 0.472124 0.907693 0.021052
O O11 0.000000 0.500000 0.000000
O O12 0.550406 0.750000 0.048850
#
# Coordination Sequence:
#
# PCOD8075473 Si02
#       5
#     4   4   4   4   4
#     4  10  23  41  63  91 127 168 204 254 319 373
#     4  10  21  39  62  94 124 158 206 257 311 362
#     4  10  22  38  67  91 127 159 202 255 319 364
#     4  10  26  44  64  90 131 164 218 258 304 363
#     4  10  20  38  64  93 127 160 204 258 312 378
#
# _framework density 23.786425999999999
#
# number of rings (size 3 to 8) (size 9 to 14) (size 15 to 20)
#    1.200    0.800    0.000    3.000    2.800    4.800 
#    0.000    0.000    0.000    0.000    0.000    0.000 
#    0.000    0.000    0.000    0.000    0.000    0.000 
#
# Total GULP energy -247840.440923 kJ/mol
# GULP energy per Si atom -12392.022046 kJ/mol
# Density = 2.373229 g / cm^3
# Si number density = 23.786426 Si / 1000 Ang^3
#
#
#
# Elastic Constant Matrix: (Units=GPa)
#
#
# Indices 1 2 3 4 5 6 
#
# 1 39.1340 12.8042 -4.2789 0.0000 15.1153 0.0000
# 2 12.8042 156.4859 18.8221 0.0000 26.0167 0.0000
# 3 -4.2789 18.8221 85.0152 0.0000 -3.1384 0.0000
# 4 0.0000 0.0000 0.0000 24.7542 0.0000 11.6894
# 5 15.1153 26.0167 -3.1384 0.0000 40.8098 0.0000
# 6 0.0000 0.0000 0.0000 11.6894 0.0000 -2.5986
#
#
#
# Elastic Compliance Matrix: (Units=1/GPa)
#
#
# Indices 1 2 3 4 5 6 
#
# 1 0.030024 -0.000876 0.001319 0.000000 -0.010461 0.000000
# 2 -0.000876 0.007445 -0.001861 0.000000 -0.004565 0.000000
# 3 0.001319 -0.001861 0.012302 0.000000 0.001644 0.000000
# 4 0.000000 0.000000 0.000000 0.012931 0.000000 0.058165
# 5 -0.010461 -0.004565 0.001644 0.000000 0.031415 0.000000
# 6 0.000000 0.000000 0.000000 0.058165 0.000000 -0.123174
#
#
# Mechanical properties :
#
#
# Convention : Reuss Voigt Hill
#
# Bulk Modulus (GPa) = 21.30620 37.25890 29.28255
# Shear Modulus (GPa) = -472.72879 29.47891 -221.62494
#
# Velocity S-wave (km/s) = -14.11277 3.52421 -9.66308
# Velocity P-wave (km/s) = 16.01823 5.67962 10.59070
#
# Compressibility (1/GPa) = 0.04693468
#
# Stress axis : x y z
#
# Youngs Moduli (GPa) = 33.30619 134.32231 81.28986
#
# Poissons Ratio (x) = 0.11770 -0.10722
# Poissons Ratio (y) = 0.02918 0.15127
# Poissons Ratio (z) = -0.04393 0.24996
#
# Static dielectric constant tensor:
#      x y z
#    x 3.734440 0.000000 -0.194330 
#    y 0.000000 4.484850 0.000000 
#    z -0.194330 0.000000 4.223360 
# 
# 
# High freq. dielectric constant tensor:
#      x y z
#    x 1.909290 0.000000 -0.011800 
#    y 0.000000 1.948010 0.000000 
#    z -0.011800 0.000000 1.953740 
# 
# From -- ./inp_files/4455.got.cif
#   From: 2010.06.25/outbox.cif.g09.slc.cpg/sg11_3_cif.got.tgz:4455.got - 2010.06.27 23:14:04.
