data_PCOD8075123
_publ_section_title
;
Structure prediction by ZEFSAII (Michael W. Deem and Ramdas Pophale) SiO2 
 PCOD8075123
Probable space group: P 21/M
;
_chemical_formula_sum "Si O2"
_cell_formula_units_Z 32
_cell_length_a 25.773219
_cell_length_b 8.931021
_cell_length_c 19.952283
_cell_angle_alpha 90.000000
_cell_angle_beta 158.919641
_cell_angle_gamma 90.000000
_cell_volume 1651.866715
_symmetry_space_group_name_H-M "P 21/M"
_symmetry_group_IT_number 11
_symmetry_cell_setting 'monoclinic'
loop_
_space_group_symop_operation_xyz
x,y,z
-x,1/2+y,-z
-x,-y,-z
x,1/2-y,z
loop_
_atom_site_type_symbol
_atom_site_label
_atom_site_fract_x
_atom_site_fract_y
_atom_site_fract_z
Si Si1 0.804940 0.925134 0.484598
Si Si2 0.123624 0.926764 0.910879
Si Si3 0.698901 0.578912 0.986848
Si Si4 0.889162 0.073309 0.954611
Si Si5 0.656040 0.071744 0.181331
Si Si6 0.200796 0.073981 0.280547
Si Si7 0.402780 0.424333 0.642505
Si Si8 0.848029 0.576169 0.304109
O O1 0.797299 0.750000 0.456201
O O2 0.706089 0.961224 0.428916
O O3 0.966319 0.976970 0.696308
O O4 0.755615 0.025239 0.363232
O O5 0.135557 0.750000 0.922708
O O6 0.150161 0.984499 0.018555
O O7 0.247794 0.993581 0.014475
O O8 0.677801 0.750000 0.941753
O O9 0.814441 0.559442 0.185243
O O10 0.547060 0.515878 0.828853
O O11 0.875915 0.250000 0.934393
O O12 0.051715 0.020196 0.134620
O O13 0.779415 0.002297 0.768266
O O14 0.642478 0.250000 0.161113
O O15 0.725190 0.010375 0.196670
O O16 0.500000 0.000000 0.000000
O O17 0.199949 0.250000 0.269179
O O18 0.330890 0.024962 0.485783
O O19 0.441046 0.250000 0.687216
O O20 0.852624 0.750000 0.331645
O O21 0.000000 0.500000 0.500000
#
# Coordination Sequence:
#
# PCOD8075123 Si02
#       8
#     4   4   4   4   4   4   4   4
#     4  10  20  37  62  88 113 145 189 240 290 344
#     4  10  20  37  60  85 114 150 190 232 281 341
#     4  11  25  40  56  83 118 150 189 239 285 336
#     4   9  17  32  55  85 117 147 185 231 279 333
#     4  12  25  40  59  86 118 152 193 241 293 349
#     4   9  17  32  55  85 117 147 185 231 279 335
#     4  10  20  37  60  85 115 153 193 232 284 348
#     4  11  24  43  64  87 117 153 195 243 293 352
#
# _framework density 19.372022999999999
#
# number of rings (size 3 to 8) (size 9 to 14) (size 15 to 20)
#    0.000    1.750    1.250    3.375    0.000    8.000 
#    0.000    0.625    0.000    0.000    0.000    0.000 
#    0.000    0.000    0.000    0.000    0.000    0.000 
#
# Total GULP energy -396915.992076 kJ/mol
# GULP energy per Si atom -12403.624752 kJ/mol
# Density = 1.932793 g / cm^3
# Si number density = 19.372023 Si / 1000 Ang^3
#
#
#
# Elastic Constant Matrix: (Units=GPa)
#
#
# Indices 1 2 3 4 5 6 
#
# 1 101.2240 33.7380 18.2661 0.0000 -6.1951 0.0000
# 2 33.7380 63.5839 20.3512 0.0000 -5.5098 0.0000
# 3 18.2661 20.3512 54.7801 0.0000 0.1922 0.0000
# 4 0.0000 0.0000 0.0000 32.2534 0.0000 -3.7007
# 5 -6.1951 -5.5098 0.1922 0.0000 35.5076 0.0000
# 6 0.0000 0.0000 0.0000 -3.7007 0.0000 30.2376
#
#
#
# Elastic Compliance Matrix: (Units=1/GPa)
#
#
# Indices 1 2 3 4 5 6 
#
# 1 0.012225 -0.005757 -0.001942 0.000000 0.001250 0.000000
# 2 -0.005757 0.020844 -0.005832 0.000000 0.002262 0.000000
# 3 -0.001942 -0.005832 0.021074 0.000000 -0.001358 0.000000
# 4 0.000000 0.000000 0.000000 0.031446 0.000000 0.003849
# 5 0.001250 0.002262 -0.001358 0.000000 0.028739 0.000000
# 6 0.000000 0.000000 0.000000 0.003849 0.000000 0.033542
#
#
# Mechanical properties :
#
#
# Convention : Reuss Voigt Hill
#
# Bulk Modulus (GPa) = 36.92600 40.47762 38.70181
# Shear Modulus (GPa) = 27.17985 29.41525 28.29755
#
# Velocity S-wave (km/s) = 3.74979 3.90094 3.82611
# Velocity P-wave (km/s) = 6.15230 6.42106 6.28812
#
# Compressibility (1/GPa) = 0.02708119
#
# Stress axis : x y z
#
# Youngs Moduli (GPa) = 81.80148 47.97432 47.45211
#
# Poissons Ratio (x) = 0.27617 0.09215
# Poissons Ratio (y) = 0.47090 0.27676
# Poissons Ratio (z) = 0.15886 0.27980
#
# Static dielectric constant tensor:
#      x y z
#    x 3.699940 0.000000 -0.149870 
#    y 0.000000 3.479150 0.000000 
#    z -0.149870 0.000000 3.699360 
# 
# 
# High freq. dielectric constant tensor:
#      x y z
#    x 1.762840 0.000000 -0.010280 
#    y 0.000000 1.748490 0.000000 
#    z -0.010280 0.000000 1.753300 
# 
# From -- ./inp_files/67222.got.cif
#   From: 2010.06.25/outbox.cif.g09.slc.cpg/sg11_34_cif.got.tgz:67222.got - 2010.06.27 23:14:04.
