data_PCOD8075168
_publ_section_title
;
Structure prediction by ZEFSAII (Michael W. Deem and Ramdas Pophale) SiO2 
 PCOD8075168
Probable space group: P 21/M
;
_chemical_formula_sum "Si O2"
_cell_formula_units_Z 20
_cell_length_a 11.265531
_cell_length_b 23.607123
_cell_length_c 5.175340
_cell_angle_alpha 90.000000
_cell_angle_beta 52.957717
_cell_angle_gamma 90.000000
_cell_volume 1098.602375
_symmetry_space_group_name_H-M "P 21/M"
_symmetry_group_IT_number 11
_symmetry_cell_setting 'monoclinic'
loop_
_space_group_symop_operation_xyz
x,y,z
-x,1/2+y,-z
-x,-y,-z
x,1/2-y,z
loop_
_atom_site_type_symbol
_atom_site_label
_atom_site_fract_x
_atom_site_fract_y
_atom_site_fract_z
Si Si1 0.637451 0.861356 0.281873
Si Si2 0.802161 0.464050 0.636197
Si Si3 0.108998 0.083593 0.317031
Si Si4 0.388056 0.948628 0.616229
Si Si5 0.244512 0.313422 0.359160
O O1 0.477882 0.890251 0.522735
O O2 0.669319 0.823620 0.488879
O O3 0.767495 0.909155 0.072199
O O4 0.636775 0.820791 0.030441
O O5 0.847898 0.529947 0.561764
O O6 0.683748 0.450799 0.572027
O O7 0.947370 0.424977 0.402972
O O8 0.737258 0.449576 0.001804
O O9 0.111638 0.140532 0.492414
O O10 0.500000 0.000000 0.500000
O O11 0.177527 0.250000 0.446026
#
# Coordination Sequence:
#
# PCOD8075168 Si02
#       5
#     4   4   4   4   4
#     4  10  21  35  58  84 109 141 197 223 274 336
#     4  11  23  34  59  84 125 146 178 229 291 335
#     4   9  23  36  57  88 112 148 190 229 278 343
#     4  12  21  36  54  86 118 154 174 222 281 345
#     4  10  20  37  61  82 105 146 197 242 270 320
#
# _framework density 18.20495
#
# number of rings (size 3 to 8) (size 9 to 14) (size 15 to 20)
#    1.200    0.400    2.000    3.600    2.800    1.600 
#    0.000    0.000    0.000    7.200    0.000    0.000 
#    0.000    0.000    0.000    0.000    0.000    0.000 
#
# Total GULP energy -247907.555316 kJ/mol
# GULP energy per Si atom -12395.377766 kJ/mol
# Density = 1.816351 g / cm^3
# Si number density = 18.204950 Si / 1000 Ang^3
#
#
#
# Elastic Constant Matrix: (Units=GPa)
#
#
# Indices 1 2 3 4 5 6 
#
# 1 93.5977 48.1104 29.3914 0.0000 7.6056 0.0000
# 2 48.1104 124.0566 23.6917 0.0000 -4.8592 0.0000
# 3 29.3914 23.6917 66.3033 0.0000 4.2405 0.0000
# 4 0.0000 0.0000 0.0000 13.5880 0.0000 0.4793
# 5 7.6056 -4.8592 4.2405 0.0000 37.2494 0.0000
# 6 0.0000 0.0000 0.0000 0.4793 0.0000 23.1596
#
#
#
# Elastic Compliance Matrix: (Units=1/GPa)
#
#
# Indices 1 2 3 4 5 6 
#
# 1 0.014999 -0.005056 -0.004638 0.000000 -0.003194 0.000000
# 2 -0.005056 0.010439 -0.001654 0.000000 0.002582 0.000000
# 3 -0.004638 -0.001654 0.017812 0.000000 -0.001297 0.000000
# 4 0.000000 0.000000 0.000000 0.073648 0.000000 -0.001524
# 5 -0.003194 0.002582 -0.001297 0.000000 0.027983 0.000000
# 6 0.000000 0.000000 0.000000 -0.001524 0.000000 0.043210
#
#
# Mechanical properties :
#
#
# Convention : Reuss Voigt Hill
#
# Bulk Modulus (GPa) = 48.65257 54.03832 51.34544
# Shear Modulus (GPa) = 22.97402 26.98367 24.97884
#
# Velocity S-wave (km/s) = 3.55627 3.85413 3.70819
# Velocity P-wave (km/s) = 6.60649 7.03943 6.82639
#
# Compressibility (1/GPa) = 0.02055390
#
# Stress axis : x y z
#
# Youngs Moduli (GPa) = 66.67186 95.79802 56.14200
#
# Poissons Ratio (x) = 0.48436 0.26038
# Poissons Ratio (y) = 0.33710 0.09285
# Poissons Ratio (z) = 0.30921 0.15843
#
# Static dielectric constant tensor:
#      x y z
#    x 3.245030 0.000000 0.041740 
#    y 0.000000 3.233520 0.000000 
#    z 0.041740 0.000000 3.344100 
# 
# 
# High freq. dielectric constant tensor:
#      x y z
#    x 1.702820 0.000000 0.014650 
#    y 0.000000 1.691030 0.000000 
#    z 0.014650 0.000000 1.697610 
# 
# From -- ./inp_files/2847.got.cif
#   From: 2010.06.25/outbox.cif.g09.slc.cpg/sg11_2_cif.got.tgz:2847.got - 2010.06.27 23:14:04.
