data_PCOD8075380
_publ_section_title
;
Structure prediction by ZEFSAII (Michael W. Deem and Ramdas Pophale) SiO2 
 PCOD8075380
Probable space group: P 21/M
;
_chemical_formula_sum "Si O2"
_cell_formula_units_Z 32
_cell_length_a 25.688023
_cell_length_b 9.154690
_cell_length_c 19.971588
_cell_angle_alpha 90.000000
_cell_angle_beta 21.205510
_cell_angle_gamma 90.000000
_cell_volume 1698.840141
_symmetry_space_group_name_H-M "P 21/M"
_symmetry_group_IT_number 11
_symmetry_cell_setting 'monoclinic'
loop_
_space_group_symop_operation_xyz
x,y,z
-x,1/2+y,-z
-x,-y,-z
x,1/2-y,z
loop_
_atom_site_type_symbol
_atom_site_label
_atom_site_fract_x
_atom_site_fract_y
_atom_site_fract_z
Si Si1 0.329584 0.080147 0.360163
Si Si2 0.636924 0.421153 0.052821
Si Si3 0.149928 0.579941 0.319523
Si Si4 0.590581 0.923023 0.241630
Si Si5 0.645425 0.422040 0.804574
Si Si6 0.905377 0.582060 0.247609
Si Si7 0.299405 0.079095 0.626073
Si Si8 0.200275 0.078272 0.890129
O O1 0.327300 0.250000 0.342380
O O2 0.483056 0.037357 0.206624
O O3 0.208968 0.040771 0.558592
O O4 0.297567 0.982137 0.334122
O O5 0.643891 0.250000 0.061443
O O6 0.664985 0.512411 0.086288
O O7 0.758369 0.469671 0.854760
O O8 0.118785 0.750000 0.353163
O O9 0.234604 0.538577 0.284974
O O10 0.000000 0.500000 0.500000
O O11 0.579229 0.750000 0.248996
O O12 0.686870 0.971461 0.189108
O O13 0.432830 0.988538 0.438842
O O14 0.616751 0.250000 0.834905
O O15 0.500000 0.500000 0.000000
O O16 0.950143 0.750000 0.198734
O O17 0.837373 0.546901 0.256838
O O18 0.046396 0.488511 0.090808
O O19 0.340708 0.250000 0.574560
O O20 0.260151 0.023181 0.747105
O O21 0.179356 0.250000 0.913812
#
# Coordination Sequence:
#
# PCOD8075380 Si02
#       8
#     4   4   4   4   4   4   4   4
#     4  10  20  38  61  87 117 149 195 245 284 341
#     4  10  20  40  63  82 115 157 193 236 287 344
#     4  10  23  41  61  87 119 154 192 235 286 342
#     4  11  23  37  57  89 119 150 195 242 288 343
#     4  11  22  38  61  89 118 152 192 237 287 339
#     4  10  21  37  60  86 113 150 196 241 290 346
#     4  10  20  39  62  83 112 156 198 238 291 345
#     4  10  23  39  56  83 122 155 189 242 294 344
#
# _framework density 18.836379999999998
#
# number of rings (size 3 to 8) (size 9 to 14) (size 15 to 20)
#    0.000    1.750    2.500    1.500    0.000    5.500 
#    0.000    5.000    0.000    0.000    0.000    0.000 
#    0.000    0.000    0.000    0.000    0.000    0.000 
#
# Total GULP energy -396963.093764 kJ/mol
# GULP energy per Si atom -12405.096680 kJ/mol
# Density = 1.879351 g / cm^3
# Si number density = 18.836380 Si / 1000 Ang^3
#
#
#
# Elastic Constant Matrix: (Units=GPa)
#
#
# Indices 1 2 3 4 5 6 
#
# 1 109.0996 46.3429 41.4547 0.0000 16.3580 0.0000
# 2 46.3429 52.1452 36.2101 0.0000 0.1985 0.0000
# 3 41.4547 36.2101 100.1156 0.0000 4.8579 0.0000
# 4 0.0000 0.0000 0.0000 37.9726 0.0000 0.0061
# 5 16.3580 0.1985 4.8579 0.0000 29.2222 0.0000
# 6 0.0000 0.0000 0.0000 0.0061 0.0000 35.0524
#
#
#
# Elastic Compliance Matrix: (Units=1/GPa)
#
#
# Indices 1 2 3 4 5 6 
#
# 1 0.017136 -0.014127 -0.001538 0.000000 -0.009241 0.000000
# 2 -0.014127 0.037309 -0.008081 0.000000 0.008998 0.000000
# 3 -0.001538 -0.008081 0.013614 0.000000 -0.001347 0.000000
# 4 0.000000 0.000000 0.000000 0.026335 0.000000 -0.000005
# 5 -0.009241 0.008998 -0.001347 0.000000 0.039556 0.000000
# 6 0.000000 0.000000 0.000000 -0.000005 0.000000 0.028529
#
#
# Mechanical properties :
#
#
# Convention : Reuss Voigt Hill
#
# Bulk Modulus (GPa) = 48.62002 56.59729 52.60865
# Shear Modulus (GPa) = 23.05985 29.60629 26.33307
#
# Velocity S-wave (km/s) = 3.50268 3.96884 3.74303
# Velocity P-wave (km/s) = 6.49817 7.14943 6.83156
#
# Compressibility (1/GPa) = 0.02056766
#
# Stress axis : x y z
#
# Youngs Moduli (GPa) = 58.35498 26.80287 73.45615
#
# Poissons Ratio (x) = 0.37863 0.11297
# Poissons Ratio (y) = 0.82435 0.59363
# Poissons Ratio (z) = 0.08975 0.21661
#
# Static dielectric constant tensor:
#      x y z
#    x 3.192140 0.000000 -0.199830 
#    y 0.000000 3.382100 0.000000 
#    z -0.199830 0.000000 3.166590 
# 
# 
# High freq. dielectric constant tensor:
#      x y z
#    x 1.745850 0.000000 0.007450 
#    y 0.000000 1.726820 0.000000 
#    z 0.007450 0.000000 1.737140 
# 
# From -- ./inp_files/66919.got.cif
#   From: 2010.06.25/outbox.cif.g09.slc.cpg/sg11_34_cif.got.tgz:66919.got - 2010.06.27 23:14:04.
