data_PCOD8075888
_publ_section_title
;
Structure prediction by ZEFSAII (Michael W. Deem and Ramdas Pophale) SiO2 
 PCOD8075888
Probable space group: P 21/M
;
_chemical_formula_sum "Si O2"
_cell_formula_units_Z 32
_cell_length_a 12.538809
_cell_length_b 17.783705
_cell_length_c 16.593791
_cell_angle_alpha 90.000000
_cell_angle_beta 26.259083
_cell_angle_gamma 90.000000
_cell_volume 1637.078724
_symmetry_space_group_name_H-M "P 21/M"
_symmetry_group_IT_number 11
_symmetry_cell_setting 'monoclinic'
loop_
_space_group_symop_operation_xyz
x,y,z
-x,1/2+y,-z
-x,-y,-z
x,1/2-y,z
loop_
_atom_site_type_symbol
_atom_site_label
_atom_site_fract_x
_atom_site_fract_y
_atom_site_fract_z
Si Si1 0.684929 0.837986 0.942491
Si Si2 0.367361 0.164688 0.618368
Si Si3 0.781786 0.163362 0.455748
Si Si4 0.665839 0.162463 0.966403
Si Si5 0.421204 0.090576 0.818859
Si Si6 0.801146 0.836481 0.440107
Si Si7 0.971062 0.912800 0.035296
Si Si8 0.447535 0.587516 0.790177
O O1 0.691041 0.750000 0.959722
O O2 0.950948 0.868501 0.740590
O O3 0.513744 0.856084 0.984081
O O4 0.578053 0.882537 0.090368
O O5 0.278487 0.250000 0.698649
O O6 0.634045 0.151321 0.472942
O O7 0.372669 0.152272 0.519179
O O8 0.186049 0.103853 0.778658
O O9 0.795259 0.250000 0.471889
O O10 0.658787 0.120846 0.613441
O O11 0.671244 0.250000 0.984354
O O12 0.931674 0.134652 0.761793
O O13 0.573283 0.118882 0.106472
O O14 0.176607 0.122204 0.940503
O O15 0.431257 0.001444 0.806875
O O16 0.807407 0.750000 0.464155
O O17 0.701027 0.886627 0.580940
O O18 0.236258 0.879471 0.874322
O O19 0.000000 0.000000 0.000000
#
# Coordination Sequence:
#
# PCOD8075888 Si02
#       8
#     4   4   4   4   4   4   4   4
#     4  10  22  40  63  83 108 153 197 233 281 338
#     4   9  17  33  57  84 115 146 186 240 284 328
#     4   9  19  37  58  84 114 146 188 239 286 329
#     4  10  22  41  60  83 115 150 193 241 280 329
#     4  10  22  38  56  86 118 150 189 233 284 340
#     4  10  21  36  58  87 114 148 191 236 286 335
#     4   9  19  36  54  84 119 151 184 224 286 343
#     4  11  22  37  58  85 118 154 189 228 289 347
#
# _framework density 19.547013
#
# number of rings (size 3 to 8) (size 9 to 14) (size 15 to 20)
#    0.000    2.250    1.250    0.750    1.750    3.500 
#    0.000    6.875    0.000    0.000    0.000    0.000 
#    0.000    0.000    0.000    0.000    0.000    0.000 
#
# Total GULP energy -396752.392711 kJ/mol
# GULP energy per Si atom -12398.512272 kJ/mol
# Density = 1.950252 g / cm^3
# Si number density = 19.547013 Si / 1000 Ang^3
#
#
#
# Elastic Constant Matrix: (Units=GPa)
#
#
# Indices 1 2 3 4 5 6 
#
# 1 106.9411 44.3096 78.9306 0.0000 -1.0316 0.0000
# 2 44.3096 60.1695 51.0975 0.0000 11.9128 0.0000
# 3 78.9306 51.0975 146.3180 0.0000 10.7246 0.0000
# 4 0.0000 0.0000 0.0000 15.4749 0.0000 -3.7639
# 5 -1.0316 11.9128 10.7246 0.0000 26.0760 0.0000
# 6 0.0000 0.0000 0.0000 -3.7639 0.0000 15.0076
#
#
#
# Elastic Compliance Matrix: (Units=1/GPa)
#
#
# Indices 1 2 3 4 5 6 
#
# 1 0.018699 -0.008927 -0.007550 0.000000 0.007923 0.000000
# 2 -0.008927 0.029459 -0.004598 0.000000 -0.011920 0.000000
# 3 -0.007550 -0.004598 0.012766 0.000000 -0.003448 0.000000
# 4 0.000000 0.000000 0.000000 0.068818 0.000000 0.017259
# 5 0.007923 -0.011920 -0.003448 0.000000 0.045527 0.000000
# 6 0.000000 0.000000 0.000000 0.017259 0.000000 0.070961
#
#
# Mechanical properties :
#
#
# Convention : Reuss Voigt Hill
#
# Bulk Modulus (GPa) = 53.26955 73.56711 63.41833
# Shear Modulus (GPa) = 16.96996 20.58444 18.77720
#
# Velocity S-wave (km/s) = 2.94965 3.24863 3.10275
# Velocity P-wave (km/s) = 6.23793 7.19647 6.73428
#
# Compressibility (1/GPa) = 0.01877245
#
# Stress axis : x y z
#
# Youngs Moduli (GPa) = 53.47960 33.94589 78.33317
#
# Poissons Ratio (x) = 0.30303 0.59143
# Poissons Ratio (y) = 0.47740 0.36021
# Poissons Ratio (z) = 0.40378 0.15610
#
# Static dielectric constant tensor:
#      x y z
#    x 3.722710 0.000000 -0.223640 
#    y 0.000000 3.332460 0.000000 
#    z -0.223640 0.000000 3.558130 
# 
# 
# High freq. dielectric constant tensor:
#      x y z
#    x 1.765650 0.000000 -0.004210 
#    y 0.000000 1.746010 0.000000 
#    z -0.004210 0.000000 1.760560 
# 
# From -- ./inp_files/50636.got.cif
#   From: 2010.06.25/outbox.cif.g09.slc.cpg/sg11_26_cif.got.tgz:50636.got - 2010.06.27 23:14:04.
