data_PCOD8075109
_publ_section_title
;
Structure prediction by ZEFSAII (Michael W. Deem and Ramdas Pophale) SiO2 
 PCOD8075109
Probable space group: P 21/M
;
_chemical_formula_sum "Si O2"
_cell_formula_units_Z 20
_cell_length_a 7.700296
_cell_length_b 25.806938
_cell_length_c 6.342621
_cell_angle_alpha 90.000000
_cell_angle_beta 55.590247
_cell_angle_gamma 90.000000
_cell_volume 1039.862037
_symmetry_space_group_name_H-M "P 21/M"
_symmetry_group_IT_number 11
_symmetry_cell_setting 'monoclinic'
loop_
_space_group_symop_operation_xyz
x,y,z
-x,1/2+y,-z
-x,-y,-z
x,1/2-y,z
loop_
_atom_site_type_symbol
_atom_site_label
_atom_site_fract_x
_atom_site_fract_y
_atom_site_fract_z
Si Si1 0.361655 0.691550 0.244806
Si Si2 0.998876 0.850437 0.256007
Si Si3 0.605377 0.875000 0.750636
Si Si4 0.228428 0.621833 0.713954
Si Si5 0.014054 0.439997 0.444390
O O1 0.439021 0.750000 0.231622
O O2 0.142126 0.693386 0.266706
O O3 0.537148 0.661694 0.988559
O O4 0.327102 0.664333 0.492411
O O5 0.038776 0.851227 0.977714
O O6 0.077035 0.906474 0.297569
O O7 0.754758 0.841852 0.486360
O O8 0.408508 0.897021 0.753006
O O9 0.740828 0.922710 0.756491
O O10 0.128930 0.572742 0.661872
O O11 0.000000 0.500000 0.500000
#
# Coordination Sequence:
#
# PCOD8075109 Si02
#       5
#     4   4   4   4   4
#     4  10  21  38  59  84 113 149 193 234 284 345
#     4   8  20  39  56  84 116 146 187 241 275 338
#     4   9  21  38  59  83 116 149 189 237 282 338
#     4  10  20  37  60  83 119 151 187 237 284 337
#     4   9  20  38  60  86 116 152 192 235 284 340
#
# _framework density 19.233322000000001
#
# number of rings (size 3 to 8) (size 9 to 14) (size 15 to 20)
#    1.200    1.600    0.000    0.000    2.800    5.600 
#    0.000    9.000    0.000    0.000    0.000    0.000 
#    0.000    0.000    0.000    0.000    0.000    0.000 
#
# Total GULP energy -247772.012473 kJ/mol
# GULP energy per Si atom -12388.600624 kJ/mol
# Density = 1.918955 g / cm^3
# Si number density = 19.233322 Si / 1000 Ang^3
#
#
#
# Elastic Constant Matrix: (Units=GPa)
#
#
# Indices 1 2 3 4 5 6 
#
# 1 81.9634 24.7954 26.9209 0.0000 -0.3093 0.0000
# 2 24.7954 94.6777 23.8806 0.0000 9.6759 0.0000
# 3 26.9209 23.8806 144.9378 0.0000 -3.5607 0.0000
# 4 0.0000 0.0000 0.0000 18.7930 0.0000 -5.6596
# 5 -0.3093 9.6759 -3.5607 0.0000 26.5816 0.0000
# 6 0.0000 0.0000 0.0000 -5.6596 0.0000 21.0903
#
#
#
# Elastic Compliance Matrix: (Units=1/GPa)
#
#
# Indices 1 2 3 4 5 6 
#
# 1 0.013842 -0.003226 -0.002013 0.000000 0.001066 0.000000
# 2 -0.003226 0.012277 -0.001539 0.000000 -0.004713 0.000000
# 3 -0.002013 -0.001539 0.007565 0.000000 0.001550 0.000000
# 4 0.000000 0.000000 0.000000 0.057890 0.000000 0.015535
# 5 0.001066 -0.004713 0.001550 0.000000 0.039556 0.000000
# 6 0.000000 0.000000 0.000000 0.015535 0.000000 0.051584
#
#
# Mechanical properties :
#
#
# Convention : Reuss Voigt Hill
#
# Bulk Modulus (GPa) = 49.68604 52.53030 51.10817
# Shear Modulus (GPa) = 24.63300 29.69176 27.16238
#
# Velocity S-wave (km/s) = 3.58263 3.93334 3.76208
# Velocity P-wave (km/s) = 6.55767 6.92818 6.74547
#
# Compressibility (1/GPa) = 0.02012638
#
# Stress axis : x y z
#
# Youngs Moduli (GPa) = 72.24479 81.45341 132.18466
#
# Poissons Ratio (x) = 0.26278 0.26612
# Poissons Ratio (y) = 0.23308 0.20348
# Poissons Ratio (z) = 0.14545 0.12539
#
# Static dielectric constant tensor:
#      x y z
#    x 3.479840 0.000000 -0.055580 
#    y 0.000000 3.009540 0.000000 
#    z -0.055580 0.000000 3.654740 
# 
# 
# High freq. dielectric constant tensor:
#      x y z
#    x 1.747570 0.000000 -0.002710 
#    y 0.000000 1.706850 0.000000 
#    z -0.002710 0.000000 1.760180 
# 
# From -- ./inp_files/2654.got.cif
#   From: 2010.06.25/outbox.cif.g09.slc.cpg/sg11_2_cif.got.tgz:2654.got - 2010.06.27 23:14:04.
