data_PCOD8075138
_publ_section_title
;
Structure prediction by ZEFSAII (Michael W. Deem and Ramdas Pophale) SiO2 
 PCOD8075138
Probable space group: P 21/M
;
_chemical_formula_sum "Si O2"
_cell_formula_units_Z 32
_cell_length_a 14.942917
_cell_length_b 8.889507
_cell_length_c 22.394006
_cell_angle_alpha 90.000000
_cell_angle_beta 147.981878
_cell_angle_gamma 90.000000
_cell_volume 1577.154745
_symmetry_space_group_name_H-M "P 21/M"
_symmetry_group_IT_number 11
_symmetry_cell_setting 'monoclinic'
loop_
_space_group_symop_operation_xyz
x,y,z
-x,1/2+y,-z
-x,-y,-z
x,1/2-y,z
loop_
_atom_site_type_symbol
_atom_site_label
_atom_site_fract_x
_atom_site_fract_y
_atom_site_fract_z
Si Si1 0.840702 0.078559 0.937721
Si Si2 0.341580 0.428683 0.377835
Si Si3 0.247061 0.574601 0.582609
Si Si4 0.418257 0.424113 0.288354
Si Si5 0.374579 0.571396 0.781599
Si Si6 0.070952 0.074807 0.667254
Si Si7 0.007841 0.924667 0.241128
Si Si8 0.266928 0.924307 0.991842
O O1 0.850401 0.250000 0.924276
O O2 0.670344 0.011232 0.815184
O O3 0.840984 0.057598 0.008862
O O4 0.000000 0.000000 0.000000
O O5 0.500000 0.500000 0.500000
O O6 0.351237 0.250000 0.389505
O O7 0.353498 0.479842 0.315698
O O8 0.167253 0.486645 0.305745
O O9 0.224782 0.750000 0.580139
O O10 0.383013 0.543467 0.607111
O O11 0.307901 0.505634 0.680225
O O12 0.068099 0.510453 0.458471
O O13 0.375499 0.250000 0.255317
O O14 0.398676 0.750000 0.794213
O O15 0.239462 0.523132 0.755136
O O16 0.550497 0.496892 0.898038
O O17 0.111860 0.250000 0.679099
O O18 0.995908 0.051431 0.690359
O O19 0.024784 0.750000 0.233571
O O20 0.834373 0.989968 0.116879
O O21 0.288253 0.750000 0.986573
#
# Coordination Sequence:
#
# PCOD8075138 Si02
#       8
#     4   4   4   4   4   4   4   4
#     4  11  23  37  57  86 117 154 197 244 299 358
#     4  11  23  39  62  91 126 167 208 253 305 360
#     4   9  18  36  62  90 122 156 195 244 304 368
#     4  10  20  37  60  86 119 158 197 243 301 359
#     4  11  22  38  64  94 121 157 203 252 308 367
#     4  10  22  41  63  88 121 161 202 252 312 368
#     4  11  24  42  64  89 122 165 212 257 307 366
#     4  11  24  42  62  87 124 163 203 254 309 366
#
# _framework density 20.289701999999998
#
# number of rings (size 3 to 8) (size 9 to 14) (size 15 to 20)
#    0.000    1.500    1.250    3.750    0.000    9.000 
#    0.000    1.250    0.000    0.000    0.000    0.000 
#    0.000    0.000    0.000    0.000    0.000    0.000 
#
# Total GULP energy -396889.556015 kJ/mol
# GULP energy per Si atom -12402.798625 kJ/mol
# Density = 2.024352 g / cm^3
# Si number density = 20.289702 Si / 1000 Ang^3
#
#
#
# Elastic Constant Matrix: (Units=GPa)
#
#
# Indices 1 2 3 4 5 6 
#
# 1 75.7739 25.7716 20.6656 0.0000 9.6992 0.0000
# 2 25.7716 70.4489 30.1767 0.0000 -2.3160 0.0000
# 3 20.6656 30.1767 123.8839 0.0000 2.8917 0.0000
# 4 0.0000 0.0000 0.0000 36.6642 0.0000 4.2466
# 5 9.6992 -2.3160 2.8917 0.0000 34.2515 0.0000
# 6 0.0000 0.0000 0.0000 4.2466 0.0000 30.8422
#
#
#
# Elastic Compliance Matrix: (Units=1/GPa)
#
#
# Indices 1 2 3 4 5 6 
#
# 1 0.016013 -0.005493 -0.001221 0.000000 -0.004803 0.000000
# 2 -0.005493 0.017800 -0.003491 0.000000 0.003054 0.000000
# 3 -0.001221 -0.003491 0.009142 0.000000 -0.000662 0.000000
# 4 0.000000 0.000000 0.000000 0.027717 0.000000 -0.003816
# 5 -0.004803 0.003054 -0.000662 0.000000 0.030818 0.000000
# 6 0.000000 0.000000 0.000000 -0.003816 0.000000 0.032949
#
#
# Mechanical properties :
#
#
# Convention : Reuss Voigt Hill
#
# Bulk Modulus (GPa) = 44.35576 47.03718 45.69647
# Shear Modulus (GPa) = 30.79536 33.25111 32.02323
#
# Velocity S-wave (km/s) = 3.90010 4.05262 3.97709
# Velocity P-wave (km/s) = 6.49536 6.71799 6.60762
#
# Compressibility (1/GPa) = 0.02254498
#
# Stress axis : x y z
#
# Youngs Moduli (GPa) = 62.44881 56.18066 109.39053
#
# Poissons Ratio (x) = 0.30859 0.13358
# Poissons Ratio (y) = 0.34301 0.38186
# Poissons Ratio (z) = 0.07626 0.19612
#
# Static dielectric constant tensor:
#      x y z
#    x 3.804070 0.000000 -0.040340 
#    y 0.000000 3.689770 0.000000 
#    z -0.040340 0.000000 3.972930 
# 
# 
# High freq. dielectric constant tensor:
#      x y z
#    x 1.800620 0.000000 0.004500 
#    y 0.000000 1.785550 0.000000 
#    z 0.004500 0.000000 1.805490 
# 
# From -- ./inp_files/69152.got.cif
#   From: 2010.06.25/outbox.cif.g09.slc.cpg/sg11_35_cif.got.tgz:69152.got - 2010.06.27 23:14:04.
