data_PCOD8075788
_publ_section_title
;
Structure prediction by ZEFSAII (Michael W. Deem and Ramdas Pophale) SiO2 
 PCOD8075788
Probable space group: P 21/M
;
_chemical_formula_sum "Si O2"
_cell_formula_units_Z 28
_cell_length_a 15.148307
_cell_length_b 13.044038
_cell_length_c 14.234646
_cell_angle_alpha 90.000000
_cell_angle_beta 30.042423
_cell_angle_gamma 90.000000
_cell_volume 1408.151275
_symmetry_space_group_name_H-M "P 21/M"
_symmetry_group_IT_number 11
_symmetry_cell_setting 'monoclinic'
loop_
_space_group_symop_operation_xyz
x,y,z
-x,1/2+y,-z
-x,-y,-z
x,1/2-y,z
loop_
_atom_site_type_symbol
_atom_site_label
_atom_site_fract_x
_atom_site_fract_y
_atom_site_fract_z
Si Si1 0.838215 0.870786 0.590189
Si Si2 0.453013 0.866823 0.879708
Si Si3 0.069800 0.061203 0.105745
Si Si4 0.705529 0.060511 0.358029
Si Si5 0.241076 0.636905 0.894012
Si Si6 0.339210 0.366067 0.710463
Si Si7 0.153058 0.494873 0.229916
O O1 0.875906 0.750000 0.559885
O O2 0.657098 0.896830 0.703216
O O3 0.994570 0.925051 0.389782
O O4 0.826221 0.914565 0.705937
O O5 0.421694 0.750000 0.942499
O O6 0.404462 0.880296 0.814709
O O7 0.333032 0.940948 0.053817
O O8 0.870842 0.096799 0.267407
O O9 0.112247 0.074316 0.176116
O O10 0.203565 0.129530 0.921870
O O11 0.085789 0.942153 0.060908
O O12 0.691318 0.122198 0.273378
O O13 0.527270 0.091961 0.576883
O O14 0.719198 0.939078 0.322233
O O15 0.159961 0.750000 0.980940
O O16 0.350332 0.250000 0.663271
#
# Coordination Sequence:
#
# PCOD8075788 Si02
#       7
#     4   4   4   4   4   4   4
#     4  10  21  37  58  82 106 138 178 220 273 327
#     4   9  18  34  57  84 111 140 178 224 271 317
#     4  10  22  36  54  80 110 144 180 219 265 320
#     4  10  21  36  53  80 113 144 183 223 260 309
#     4   9  17  32  55  81 109 142 181 223 265 310
#     4  10  21  36  54  76 107 147 186 223 263 310
#     4  10  21  37  57  80 110 141 175 223 270 320
#
# _framework density 19.884228
#
# number of rings (size 3 to 8) (size 9 to 14) (size 15 to 20)
#    0.000    2.286    0.000    3.000    0.000    8.571 
#    0.000    1.429    0.000    0.000    0.000    0.000 
#    0.000    0.000    0.000    0.000    0.000    0.000 
#
# Total GULP energy -347172.420976 kJ/mol
# GULP energy per Si atom -12399.015035 kJ/mol
# Density = 1.983897 g / cm^3
# Si number density = 19.884228 Si / 1000 Ang^3
#
#
#
# Elastic Constant Matrix: (Units=GPa)
#
#
# Indices 1 2 3 4 5 6 
#
# 1 74.8386 16.5587 30.7748 0.0000 -18.2139 0.0000
# 2 16.5587 79.4799 18.6357 0.0000 -1.3980 0.0000
# 3 30.7748 18.6357 68.2244 0.0000 -27.8404 0.0000
# 4 0.0000 0.0000 0.0000 18.7826 0.0000 -0.3289
# 5 -18.2139 -1.3980 -27.8404 0.0000 28.7376 0.0000
# 6 0.0000 0.0000 0.0000 -0.3289 0.0000 17.3891
#
#
#
# Elastic Compliance Matrix: (Units=1/GPa)
#
#
# Indices 1 2 3 4 5 6 
#
# 1 0.017336 -0.002444 -0.004494 0.000000 0.006515 0.000000
# 2 -0.002444 0.014200 -0.005171 0.000000 -0.005867 0.000000
# 3 -0.004494 -0.005171 0.027837 0.000000 0.023868 0.000000
# 4 0.000000 0.000000 0.000000 0.053258 0.000000 0.001007
# 5 0.006515 -0.005867 0.023868 0.000000 0.061764 0.000000
# 6 0.000000 0.000000 0.000000 0.001007 0.000000 0.057526
#
#
# Mechanical properties :
#
#
# Convention : Reuss Voigt Hill
#
# Bulk Modulus (GPa) = 28.44404 39.38680 33.91542
# Shear Modulus (GPa) = 18.66659 23.42012 21.04335
#
# Velocity S-wave (km/s) = 3.06725 3.43567 3.25667
# Velocity P-wave (km/s) = 5.18458 5.96569 5.58880
#
# Compressibility (1/GPa) = 0.03515675
#
# Stress axis : x y z
#
# Youngs Moduli (GPa) = 57.68210 70.42209 35.92338
#
# Poissons Ratio (x) = 0.17208 0.16144
# Poissons Ratio (y) = 0.14095 0.18575
# Poissons Ratio (z) = 0.25922 0.36414
#
# Static dielectric constant tensor:
#      x y z
#    x 3.525610 0.000000 -0.081700 
#    y 0.000000 3.608720 0.000000 
#    z -0.081700 0.000000 3.621170 
# 
# 
# High freq. dielectric constant tensor:
#      x y z
#    x 1.763310 0.000000 -0.009940 
#    y 0.000000 1.773880 0.000000 
#    z -0.009940 0.000000 1.776440 
# 
# From -- ./inp_files/52432.got.cif
#   From: 2010.06.25/outbox.cif.g09.slc.cpg/sg11_27_cif.got.tgz:52432.got - 2010.06.27 23:14:04.
