data_PCOD8075780
_publ_section_title
;
Structure prediction by ZEFSAII (Michael W. Deem and Ramdas Pophale) SiO2 
 PCOD8075780
Probable space group: P 21/M
;
_chemical_formula_sum "Si O2"
_cell_formula_units_Z 28
_cell_length_a 25.939780
_cell_length_b 9.059583
_cell_length_c 9.428725
_cell_angle_alpha 90.000000
_cell_angle_beta 137.690121
_cell_angle_gamma 90.000000
_cell_volume 1491.533062
_symmetry_space_group_name_H-M "P 21/M"
_symmetry_group_IT_number 11
_symmetry_cell_setting 'monoclinic'
loop_
_space_group_symop_operation_xyz
x,y,z
-x,1/2+y,-z
-x,-y,-z
x,1/2-y,z
loop_
_atom_site_type_symbol
_atom_site_label
_atom_site_fract_x
_atom_site_fract_y
_atom_site_fract_z
Si Si1 0.411752 0.077456 0.463786
Si Si2 0.862910 0.422137 0.550792
Si Si3 0.882124 0.075165 0.904268
Si Si4 0.285569 0.919965 0.379941
Si Si5 0.016311 0.074461 0.384263
Si Si6 0.312493 0.583296 0.761037
Si Si7 0.563798 0.921973 0.809983
O O1 0.417775 0.250000 0.502438
O O2 0.409883 0.035969 0.294509
O O3 0.333680 0.018370 0.370823
O O4 0.484673 0.002950 0.687698
O O5 0.882751 0.250000 0.569370
O O6 0.892902 0.481218 0.764758
O O7 0.902522 0.518263 0.509008
O O8 0.772473 0.449603 0.354657
O O9 0.876900 0.250000 0.885394
O O10 0.801592 0.019547 0.805260
O O11 0.951135 0.019419 0.142282
O O12 0.290518 0.750000 0.341540
O O13 0.317130 0.938677 0.602522
O O14 0.016898 0.250000 0.402335
O O15 0.000000 0.000000 0.500000
O O16 0.335953 0.750000 0.849553
O O17 0.370504 0.469654 0.948791
O O18 0.548731 0.750000 0.796976
#
# Coordination Sequence:
#
# PCOD8075780 Si02
#       7
#     4   4   4   4   4   4   4
#     4  10  21  36  53  76 105 137 174 214 258 307
#     4   9  18  36  58  78 102 135 174 215 260 309
#     4   8  17  35  57  77 101 136 176 214 256 309
#     4   9  18  35  57  79 102 133 174 215 257 308
#     4  11  22  35  52  78 109 140 175 215 259 306
#     4   9  19  35  56  80 105 134 170 213 261 311
#     4  10  21  36  54  76 104 139 177 214 255 307
#
# _framework density 18.772629999999999
#
# number of rings (size 3 to 8) (size 9 to 14) (size 15 to 20)
#    0.000    2.571    0.000    3.429    0.000    4.571 
#    0.000    8.571    0.000    0.000    0.000    0.000 
#    0.000    0.000    0.000    0.000    0.000    0.000 
#
# Total GULP energy -347247.300732 kJ/mol
# GULP energy per Si atom -12401.689312 kJ/mol
# Density = 1.872990 g / cm^3
# Si number density = 18.772630 Si / 1000 Ang^3
#
#
#
# Elastic Constant Matrix: (Units=GPa)
#
#
# Indices 1 2 3 4 5 6 
#
# 1 90.6679 24.7895 -8.9336 0.0000 4.4822 0.0000
# 2 24.7895 57.4679 8.5258 0.0000 1.7316 0.0000
# 3 -8.9336 8.5258 35.2931 0.0000 4.4267 0.0000
# 4 0.0000 0.0000 0.0000 30.1499 0.0000 0.6026
# 5 4.4822 1.7316 4.4267 0.0000 18.0276 0.0000
# 6 0.0000 0.0000 0.0000 0.6026 0.0000 36.2905
#
#
#
# Elastic Compliance Matrix: (Units=1/GPa)
#
#
# Indices 1 2 3 4 5 6 
#
# 1 0.013568 -0.006550 0.005531 0.000000 -0.004102 0.000000
# 2 -0.006550 0.021218 -0.006946 0.000000 0.001296 0.000000
# 3 0.005531 -0.006946 0.032502 0.000000 -0.008689 0.000000
# 4 0.000000 0.000000 0.000000 0.033179 0.000000 -0.000551
# 5 -0.004102 0.001296 -0.008689 0.000000 0.058500 0.000000
# 6 0.000000 0.000000 0.000000 -0.000551 0.000000 0.027565
#
#
# Mechanical properties :
#
#
# Convention : Reuss Voigt Hill
#
# Bulk Modulus (GPa) = 19.47098 25.79915 22.63506
# Shear Modulus (GPa) = 22.77086 27.49674 25.13380
#
# Velocity S-wave (km/s) = 3.48657 3.83132 3.66300
# Velocity P-wave (km/s) = 5.15778 5.77450 5.47483
#
# Compressibility (1/GPa) = 0.05135849
#
# Stress axis : x y z
#
# Youngs Moduli (GPa) = 73.70399 47.13044 30.76734
#
# Poissons Ratio (x) = 0.30869 -0.17018
# Poissons Ratio (y) = 0.48273 0.21371
# Poissons Ratio (z) = -0.40766 0.32737
#
# Static dielectric constant tensor:
#      x y z
#    x 3.437900 0.000000 0.059250 
#    y 0.000000 3.270800 0.000000 
#    z 0.059250 0.000000 3.478730 
# 
# 
# High freq. dielectric constant tensor:
#      x y z
#    x 1.735290 0.000000 0.006150 
#    y 0.000000 1.716950 0.000000 
#    z 0.006150 0.000000 1.726560 
# 
# From -- ./inp_files/28382.got.cif
#   From: 2010.06.25/outbox.cif.g09.slc.cpg/sg11_15_cif.got.tgz:28382.got - 2010.06.27 23:14:04.
