data_PCOD8075438
_publ_section_title
;
Structure prediction by ZEFSAII (Michael W. Deem and Ramdas Pophale) SiO2 
 PCOD8075438
Probable space group: P 21/M
;
_chemical_formula_sum "Si O2"
_cell_formula_units_Z 24
_cell_length_a 14.800735
_cell_length_b 14.496698
_cell_length_c 7.794846
_cell_angle_alpha 90.000000
_cell_angle_beta 41.518408
_cell_angle_gamma 90.000000
_cell_volume 1108.618559
_symmetry_space_group_name_H-M "P 21/M"
_symmetry_group_IT_number 11
_symmetry_cell_setting 'monoclinic'
loop_
_space_group_symop_operation_xyz
x,y,z
-x,1/2+y,-z
-x,-y,-z
x,1/2-y,z
loop_
_atom_site_type_symbol
_atom_site_label
_atom_site_fract_x
_atom_site_fract_y
_atom_site_fract_z
Si Si1 0.573446 0.357488 0.459752
Si Si2 0.888455 0.101600 0.985270
Si Si3 0.085677 0.150773 0.405822
Si Si4 0.484954 0.461554 0.261951
Si Si5 0.988114 0.409713 0.193425
Si Si6 0.273326 0.491459 0.300385
O O1 0.537013 0.250000 0.554211
O O2 0.488862 0.390875 0.413772
O O3 0.528716 0.428782 0.671927
O O4 0.734045 0.365453 0.197724
O O5 0.956621 0.132180 0.711144
O O6 0.968982 0.143408 0.038018
O O7 0.900101 0.990900 0.986443
O O8 0.147864 0.250000 0.361305
O O9 0.202465 0.076445 0.266012
O O10 0.037268 0.154713 0.277345
O O11 0.354409 0.434934 0.332106
O O12 0.622093 0.446635 0.957114
O O13 0.837685 0.446000 0.450816
#
# Coordination Sequence:
#
# PCOD8075438 Si02
#       6
#     4   4   4   4   4   4
#     4  11  22  38  60  89 120 155 203 254 303 360
#     4  10  20  38  63  87 116 154 203 251 305 362
#     4  11  23  36  58  91 125 154 194 253 306 361
#     4  10  22  39  63  84 118 163 202 248 299 355
#     4  10  20  38  64  87 115 160 200 248 307 363
#     4  10  20  41  61  82 114 161 204 239 297 367
#
# _framework density 21.648564
#
# number of rings (size 3 to 8) (size 9 to 14) (size 15 to 20)
#    0.000    1.667    1.667    4.500    0.000    2.667 
#    0.000    2.500    0.000    0.000    0.000    0.000 
#    0.000    0.000    0.000    0.000    0.000    0.000 
#
# Total GULP energy -297475.754170 kJ/mol
# GULP energy per Si atom -12394.823090 kJ/mol
# Density = 2.159929 g / cm^3
# Si number density = 21.648564 Si / 1000 Ang^3
#
#
#
# Elastic Constant Matrix: (Units=GPa)
#
#
# Indices 1 2 3 4 5 6 
#
# 1 122.2545 6.7621 14.3518 0.0000 12.5055 0.0000
# 2 6.7621 70.9650 6.2951 0.0000 -3.5909 0.0000
# 3 14.3518 6.2951 47.4052 0.0000 -2.1844 0.0000
# 4 0.0000 0.0000 0.0000 7.1043 0.0000 0.7943
# 5 12.5055 -3.5909 -2.1844 0.0000 38.0136 0.0000
# 6 0.0000 0.0000 0.0000 0.7943 0.0000 1.4917
#
#
#
# Elastic Compliance Matrix: (Units=1/GPa)
#
#
# Indices 1 2 3 4 5 6 
#
# 1 0.008864 -0.000762 -0.002727 0.000000 -0.003145 0.000000
# 2 -0.000762 0.014384 -0.001610 0.000000 0.001517 0.000000
# 3 -0.002727 -0.001610 0.022227 0.000000 0.002022 0.000000
# 4 0.000000 0.000000 0.000000 0.149670 0.000000 -0.079697
# 5 -0.003145 0.001517 0.002022 0.000000 0.027600 0.000000
# 6 0.000000 0.000000 0.000000 -0.079697 0.000000 0.712801
#
#
# Mechanical properties :
#
#
# Convention : Reuss Voigt Hill
#
# Bulk Modulus (GPa) = 28.34669 32.82699 30.58684
# Shear Modulus (GPa) = 5.22192 23.53631 14.37911
#
# Velocity S-wave (km/s) = 1.55479 3.30085 2.58002
# Velocity P-wave (km/s) = 4.04297 5.45197 4.79946
#
# Compressibility (1/GPa) = 0.03527749
#
# Stress axis : x y z
#
# Youngs Moduli (GPa) = 112.82096 69.52379 44.98970
#
# Poissons Ratio (x) = 0.05296 0.12269
# Poissons Ratio (y) = 0.08595 0.07241
# Poissons Ratio (z) = 0.30768 0.11190
#
# Static dielectric constant tensor:
#      x y z
#    x 4.304390 0.000000 0.136250 
#    y 0.000000 3.723880 0.000000 
#    z 0.136250 0.000000 3.884030 
# 
# 
# High freq. dielectric constant tensor:
#      x y z
#    x 1.872510 0.000000 0.008500 
#    y 0.000000 1.810710 0.000000 
#    z 0.008500 0.000000 1.850840 
# 
# From -- ./inp_files/21994.got.cif
#   From: 2010.06.25/outbox.cif.g09.slc.cpg/sg11_11_cif.got.tgz:21994.got - 2010.06.27 23:14:04.
