data_PCOD8075078
_publ_section_title
;
Structure prediction by ZEFSAII (Michael W. Deem and Ramdas Pophale) SiO2 
 PCOD8075078
Probable space group: P 21/M
;
_chemical_formula_sum "Si O2"
_cell_formula_units_Z 20
_cell_length_a 11.205625
_cell_length_b 10.987464
_cell_length_c 15.261933
_cell_angle_alpha 90.000000
_cell_angle_beta 149.332375
_cell_angle_gamma 90.000000
_cell_volume 958.433057
_symmetry_space_group_name_H-M "P 21/M"
_symmetry_group_IT_number 11
_symmetry_cell_setting 'monoclinic'
loop_
_space_group_symop_operation_xyz
x,y,z
-x,1/2+y,-z
-x,-y,-z
x,1/2-y,z
loop_
_atom_site_type_symbol
_atom_site_label
_atom_site_fract_x
_atom_site_fract_y
_atom_site_fract_z
Si Si1 0.577687 0.617134 0.101564
Si Si2 0.723449 0.111815 0.921626
Si Si3 0.546163 0.030800 0.388870
Si Si4 0.057015 0.616599 0.476891
Si Si5 0.193161 0.386701 0.302974
O O1 0.487483 0.750000 0.007575
O O2 0.490958 0.601964 0.146279
O O3 0.857692 0.618763 0.276841
O O4 0.500000 0.500000 0.000000
O O5 0.779978 0.250000 0.931203
O O6 0.649654 0.046932 0.785485
O O7 0.958286 0.052762 0.112977
O O8 0.691081 0.108819 0.410303
O O9 0.406090 0.114692 0.368308
O O10 0.733031 0.950789 0.560461
O O11 0.052879 0.750000 0.523599
O O12 0.000000 0.500000 0.500000
O O13 0.130536 0.250000 0.290386
#
# Coordination Sequence:
#
# PCOD8075078 Si02
#       5
#     4   4   4   4   4
#     4  10  21  38  58  86 119 156 202 252 301 363
#     4  10  20  37  59  84 117 156 202 250 302 370
#     4  11  21  38  61  85 120 159 203 249 309 357
#     4  11  23  39  61  88 122 158 203 253 305 366
#     4  10  22  37  58  88 120 157 202 254 307 363
#
# _framework density 20.867391999999999
#
# number of rings (size 3 to 8) (size 9 to 14) (size 15 to 20)
#    0.000    1.600    2.000    3.000    0.000    1.600 
#    0.000    0.000    0.000    8.400    0.000    0.000 
#    0.000    0.000    0.000    0.000    0.000    0.000 
#
# Total GULP energy -247863.972091 kJ/mol
# GULP energy per Si atom -12393.198605 kJ/mol
# Density = 2.081990 g / cm^3
# Si number density = 20.867392 Si / 1000 Ang^3
#
#
#
# Elastic Constant Matrix: (Units=GPa)
#
#
# Indices 1 2 3 4 5 6 
#
# 1 56.8587 23.9771 7.8862 0.0000 5.9460 0.0000
# 2 23.9771 142.5746 42.3836 0.0000 -16.3687 0.0000
# 3 7.8862 42.3836 137.2995 0.0000 -2.4546 0.0000
# 4 0.0000 0.0000 0.0000 28.0817 0.0000 -1.8868
# 5 5.9460 -16.3687 -2.4546 0.0000 34.3775 0.0000
# 6 0.0000 0.0000 0.0000 -1.8868 0.0000 11.0782
#
#
#
# Elastic Compliance Matrix: (Units=1/GPa)
#
#
# Indices 1 2 3 4 5 6 
#
# 1 0.019803 -0.003933 -0.000018 0.000000 -0.005299 0.000000
# 2 -0.003933 0.008952 -0.002452 0.000000 0.004768 0.000000
# 3 -0.000018 -0.002452 0.008031 0.000000 -0.000591 0.000000
# 4 0.000000 0.000000 0.000000 0.036023 0.000000 0.006135
# 5 -0.005299 0.004768 -0.000591 0.000000 0.032233 0.000000
# 6 0.000000 0.000000 0.000000 0.006135 0.000000 0.091313
#
#
# Mechanical properties :
#
#
# Convention : Reuss Voigt Hill
#
# Bulk Modulus (GPa) = 41.70440 53.91406 47.80923
# Shear Modulus (GPa) = 23.02521 32.20654 27.61587
#
# Velocity S-wave (km/s) = 3.32536 3.93286 3.64180
# Velocity P-wave (km/s) = 5.89685 6.82025 6.37529
#
# Compressibility (1/GPa) = 0.02397829
#
# Stress axis : x y z
#
# Youngs Moduli (GPa) = 50.49794 111.71109 124.52077
#
# Poissons Ratio (x) = 0.43940 0.00224
# Poissons Ratio (y) = 0.19863 0.30535
# Poissons Ratio (z) = 0.00091 0.27394
#
# Static dielectric constant tensor:
#      x y z
#    x 3.611540 0.000000 0.252180 
#    y 0.000000 3.918760 0.000000 
#    z 0.252180 0.000000 3.868800 
# 
# 
# High freq. dielectric constant tensor:
#      x y z
#    x 1.804590 0.000000 0.019720 
#    y 0.000000 1.816010 0.000000 
#    z 0.019720 0.000000 1.821290 
# 
# From -- ./inp_files/16652.got.cif
#   From: 2010.06.25/outbox.cif.g09.slc.cpg/sg11_9_cif.got.tgz:16652.got - 2010.06.27 23:14:04.
