data_PCOD8075495
_publ_section_title
;
Structure prediction by ZEFSAII (Michael W. Deem and Ramdas Pophale) SiO2 
 PCOD8075495
Probable space group: P 21/M
;
_chemical_formula_sum "Si O2"
_cell_formula_units_Z 32
_cell_length_a 27.823414
_cell_length_b 13.324477
_cell_length_c 9.072213
_cell_angle_alpha 90.000000
_cell_angle_beta 27.931201
_cell_angle_gamma 90.000000
_cell_volume 1575.436564
_symmetry_space_group_name_H-M "P 21/M"
_symmetry_group_IT_number 11
_symmetry_cell_setting 'monoclinic'
loop_
_space_group_symop_operation_xyz
x,y,z
-x,1/2+y,-z
-x,-y,-z
x,1/2-y,z
loop_
_atom_site_type_symbol
_atom_site_label
_atom_site_fract_x
_atom_site_fract_y
_atom_site_fract_z
Si Si1 0.993457 0.865054 0.427906
Si Si2 0.351374 0.536530 0.227042
Si Si3 0.536275 0.635424 0.574056
Si Si4 0.461771 0.363850 0.774818
Si Si5 0.883651 0.049481 0.154967
Si Si6 0.646408 0.460640 0.427645
Si Si7 0.130251 0.550771 0.286291
Si Si8 0.017742 0.866094 0.840097
O O1 0.965246 0.750000 0.473002
O O2 0.036288 0.881758 0.475813
O O3 0.090616 0.908257 0.075267
O O4 0.891990 0.931614 0.672210
O O5 0.236465 0.563996 0.493145
O O6 0.367261 0.533532 0.359794
O O7 0.426882 0.618103 0.949684
O O8 0.375709 0.428687 0.090194
O O9 0.569384 0.750000 0.503943
O O10 0.527826 0.605491 0.424965
O O11 0.622933 0.568818 0.418924
O O12 0.426664 0.250000 0.885756
O O13 0.569715 0.379625 0.565229
O O14 0.952544 0.121281 0.070469
O O15 0.916153 0.932291 0.080455
O O16 0.759613 0.424023 0.078282
O O17 0.119079 0.586342 0.485413
O O18 0.995326 0.750000 0.864336
#
# Coordination Sequence:
#
# PCOD8075495 Si02
#       8
#     4   4   4   4   4   4   4   4
#     4  10  20  39  59  83 121 156 192 238 291 349
#     4  11  22  39  62  87 120 156 189 246 298 344
#     4  10  23  41  62  88 116 152 197 242 294 356
#     4  10  23  41  62  88 116 152 197 242 295 355
#     4  10  22  39  60  87 119 153 197 246 291 349
#     4  11  22  39  61  87 122 154 192 245 294 345
#     4  10  22  37  58  89 117 155 197 239 290 347
#     4  10  22  39  59  85 119 158 198 242 291 346
#
# _framework density 20.311827999999998
#
# number of rings (size 3 to 8) (size 9 to 14) (size 15 to 20)
#    0.000    1.750    1.250    3.750    3.500    5.000 
#    0.000    0.000    0.000    0.000    0.000    0.000 
#    0.000    0.000    0.000    0.000    0.000    0.000 
#
# Total GULP energy -396699.660996 kJ/mol
# GULP energy per Si atom -12396.864406 kJ/mol
# Density = 2.026560 g / cm^3
# Si number density = 20.311828 Si / 1000 Ang^3
#
#
#
# Elastic Constant Matrix: (Units=GPa)
#
#
# Indices 1 2 3 4 5 6 
#
# 1 80.5734 14.3872 10.1559 0.0000 13.5531 0.0000
# 2 14.3872 96.4957 -18.9479 0.0000 3.4599 0.0000
# 3 10.1559 -18.9479 64.8338 0.0000 8.0552 0.0000
# 4 0.0000 0.0000 0.0000 14.6980 0.0000 6.5903
# 5 13.5531 3.4599 8.0552 0.0000 25.8971 0.0000
# 6 0.0000 0.0000 0.0000 6.5903 0.0000 22.0904
#
#
#
# Elastic Compliance Matrix: (Units=1/GPa)
#
#
# Indices 1 2 3 4 5 6 
#
# 1 0.014170 -0.002291 -0.002086 0.000000 -0.006461 0.000000
# 2 -0.002291 0.011531 0.003923 0.000000 -0.001562 0.000000
# 3 -0.002086 0.003923 0.017503 0.000000 -0.004876 0.000000
# 4 0.000000 0.000000 0.000000 0.078543 0.000000 -0.023432
# 5 -0.006461 -0.001562 -0.004876 0.000000 0.043721 0.000000
# 6 0.000000 0.000000 0.000000 -0.023432 0.000000 0.052259
#
#
# Mechanical properties :
#
#
# Convention : Reuss Voigt Hill
#
# Bulk Modulus (GPa) = 23.64320 28.12150 25.88235
# Shear Modulus (GPa) = 21.48375 28.29094 24.88735
#
# Velocity S-wave (km/s) = 3.25575 3.73611 3.50417
# Velocity P-wave (km/s) = 5.07923 5.69968 5.39838
#
# Compressibility (1/GPa) = 0.04229545
#
# Stress axis : x y z
#
# Youngs Moduli (GPa) = 70.57259 86.72289 57.13243
#
# Poissons Ratio (x) = 0.19866 0.11920
# Poissons Ratio (y) = 0.16166 -0.22412
# Poissons Ratio (z) = 0.14724 -0.34020
#
# Static dielectric constant tensor:
#      x y z
#    x 3.723250 0.000000 0.241950 
#    y 0.000000 3.549650 0.000000 
#    z 0.241950 0.000000 3.557580 
# 
# 
# High freq. dielectric constant tensor:
#      x y z
#    x 1.804660 0.000000 0.020670 
#    y 0.000000 1.789490 0.000000 
#    z 0.020670 0.000000 1.788680 
# 
# From -- ./inp_files/28848.got.cif
#   From: 2010.06.25/outbox.cif.g09.slc.cpg/sg11_15_cif.got.tgz:28848.got - 2010.06.27 23:14:04.
