data_PCOD8075258
_publ_section_title
;
Structure prediction by ZEFSAII (Michael W. Deem and Ramdas Pophale) SiO2 
 PCOD8075258
Probable space group: P 21/M
;
_chemical_formula_sum "Si O2"
_cell_formula_units_Z 24
_cell_length_a 8.957400
_cell_length_b 8.365620
_cell_length_c 15.872338
_cell_angle_alpha 90.000000
_cell_angle_beta 105.990827
_cell_angle_gamma 90.000000
_cell_volume 1143.358891
_symmetry_space_group_name_H-M "P 21/M"
_symmetry_group_IT_number 11
_symmetry_cell_setting 'monoclinic'
loop_
_space_group_symop_operation_xyz
x,y,z
-x,1/2+y,-z
-x,-y,-z
x,1/2-y,z
loop_
_atom_site_type_symbol
_atom_site_label
_atom_site_fract_x
_atom_site_fract_y
_atom_site_fract_z
Si Si1 0.625343 0.065861 0.901884
Si Si2 0.136137 0.564913 0.578852
Si Si3 0.276182 0.432720 0.255271
Si Si4 0.959206 0.565951 0.262089
Si Si5 0.290389 0.436460 0.913202
Si Si6 0.534687 0.564164 0.413319
O O1 0.639614 0.250000 0.877797
O O2 0.446356 0.015264 0.887394
O O3 0.696758 0.960066 0.839165
O O4 0.722135 0.034645 0.002128
O O5 0.167843 0.750000 0.563810
O O6 0.089664 0.545594 0.668589
O O7 0.286825 0.461908 0.581432
O O8 0.000000 0.500000 0.500000
O O9 0.228780 0.250000 0.262814
O O10 0.432673 0.470784 0.329590
O O11 0.139022 0.543679 0.268381
O O12 0.928737 0.750000 0.281755
O O13 0.857020 0.515885 0.165666
O O14 0.294057 0.250000 0.936393
O O15 0.500000 0.500000 0.500000
O O16 0.494120 0.750000 0.402158
#
# Coordination Sequence:
#
# PCOD8075258 Si02
#       6
#     4   4   4   4   4   4
#     4  10  20  37  62  90 120 157 202 252 306 365
#     4  12  25  43  66  94 126 162 203 248 301 359
#     4  12  25  41  61  89 124 162 205 253 306 363
#     4  11  23  41  63  89 123 163 206 253 305 361
#     4   9  20  38  61  88 119 156 200 250 305 365
#     4  12  25  44  67  93 124 160 203 250 303 361
#
# _framework density 20.990784999999999
#
# number of rings (size 3 to 8) (size 9 to 14) (size 15 to 20)
#    0.000    1.000    0.000    7.500    0.000    4.000 
#    0.000    0.000    0.000    0.000    0.000    0.000 
#    0.000    0.000    0.000    0.000    0.000    0.000 
#
# Total GULP energy -297815.341266 kJ/mol
# GULP energy per Si atom -12408.972553 kJ/mol
# Density = 2.094301 g / cm^3
# Si number density = 20.990785 Si / 1000 Ang^3
#
#
#
# Elastic Constant Matrix: (Units=GPa)
#
#
# Indices 1 2 3 4 5 6 
#
# 1 110.7246 4.8851 51.3383 0.0000 3.2394 0.0000
# 2 4.8851 82.1214 27.1577 0.0000 -0.4621 0.0000
# 3 51.3383 27.1577 115.3641 0.0000 0.0354 0.0000
# 4 0.0000 0.0000 0.0000 39.1571 0.0000 -2.2585
# 5 3.2394 -0.4621 0.0354 0.0000 41.2058 0.0000
# 6 0.0000 0.0000 0.0000 -2.2585 0.0000 32.8273
#
#
#
# Elastic Compliance Matrix: (Units=1/GPa)
#
#
# Indices 1 2 3 4 5 6 
#
# 1 0.011501 0.001088 -0.005374 0.000000 -0.000887 0.000000
# 2 0.001088 0.013309 -0.003617 0.000000 0.000067 0.000000
# 3 -0.005374 -0.003617 0.011911 0.000000 0.000372 0.000000
# 4 0.000000 0.000000 0.000000 0.025640 0.000000 0.001764
# 5 -0.000887 0.000067 0.000372 0.000000 0.024339 0.000000
# 6 0.000000 0.000000 0.000000 0.001764 0.000000 0.030584
#
#
# Mechanical properties :
#
#
# Convention : Reuss Voigt Hill
#
# Bulk Modulus (GPa) = 47.81309 52.77470 50.29390
# Shear Modulus (GPa) = 35.69862 37.62663 36.66262
#
# Velocity S-wave (km/s) = 4.12840 4.23842 4.18378
# Velocity P-wave (km/s) = 6.74926 7.01061 6.88118
#
# Compressibility (1/GPa) = 0.02091477
#
# Stress axis : x y z
#
# Youngs Moduli (GPa) = 86.94854 75.13721 83.95534
#
# Poissons Ratio (x) = -0.08175 0.45117
# Poissons Ratio (y) = -0.09460 0.30369
# Poissons Ratio (z) = 0.46726 0.27179
#
# Static dielectric constant tensor:
#      x y z
#    x 3.567550 0.000000 -0.037970 
#    y 0.000000 3.797390 0.000000 
#    z -0.037970 0.000000 3.847770 
# 
# 
# High freq. dielectric constant tensor:
#      x y z
#    x 1.825550 0.000000 0.002050 
#    y 0.000000 1.829470 0.000000 
#    z 0.002050 0.000000 1.836180 
# 
# From -- ./inp_files/46605.got.cif
#   From: 2010.06.25/outbox.cif.g09.slc.cpg/sg11_24_cif.got.tgz:46605.got - 2010.06.27 23:14:04.
