data_PCOD8075374
_publ_section_title
;
Structure prediction by ZEFSAII (Michael W. Deem and Ramdas Pophale) SiO2 
 PCOD8075374
Probable space group: P 21/M
;
_chemical_formula_sum "Si O2"
_cell_formula_units_Z 24
_cell_length_a 12.671684
_cell_length_b 13.952961
_cell_length_c 11.552305
_cell_angle_alpha 90.000000
_cell_angle_beta 34.094175
_cell_angle_gamma 90.000000
_cell_volume 1144.952426
_symmetry_space_group_name_H-M "P 21/M"
_symmetry_group_IT_number 11
_symmetry_cell_setting 'monoclinic'
loop_
_space_group_symop_operation_xyz
x,y,z
-x,1/2+y,-z
-x,-y,-z
x,1/2-y,z
loop_
_atom_site_type_symbol
_atom_site_label
_atom_site_fract_x
_atom_site_fract_y
_atom_site_fract_z
Si Si1 0.726978 0.440523 0.023502
Si Si2 0.309215 0.446112 0.431399
Si Si3 0.034962 0.860112 0.383327
Si Si4 0.163050 0.352474 0.015553
Si Si5 0.938569 0.909399 0.127714
Si Si6 0.174009 0.856328 0.509531
O O1 0.516593 0.399913 0.230914
O O2 0.714653 0.554056 0.065574
O O3 0.800488 0.423655 0.826192
O O4 0.874484 0.380373 0.969448
O O5 0.171897 0.395736 0.464352
O O6 0.234953 0.429276 0.628537
O O7 0.327006 0.559751 0.385432
O O8 0.059701 0.750000 0.323320
O O9 0.052042 0.873363 0.504869
O O10 0.252200 0.250000 0.977546
O O11 0.130499 0.335662 0.906976
O O12 0.962120 0.367822 0.257791
O O13 0.000000 0.000000 0.000000
O O14 0.268728 0.750000 0.421592
#
# Coordination Sequence:
#
# PCOD8075374 Si02
#       6
#     4   4   4   4   4   4
#     4  10  22  37  63  88 116 150 197 243 287 346
#     4  11  21  37  65  88 115 152 200 237 294 341
#     4  10  22  41  59  82 119 156 194 243 291 341
#     4  10  20  38  61  86 118 156 191 235 293 345
#     4   9  18  37  55  83 114 153 183 236 284 340
#     4  10  20  38  62  86 118 155 191 236 292 349
#
# _framework density 20.961569999999998
#
# number of rings (size 3 to 8) (size 9 to 14) (size 15 to 20)
#    0.000    2.000    5.000    0.500    0.000    7.333 
#    0.000    0.000    0.000    0.000    0.000    0.000 
#    0.000    0.000    0.000    0.000    0.000    0.000 
#
# Total GULP energy -297354.131593 kJ/mol
# GULP energy per Si atom -12389.755483 kJ/mol
# Density = 2.091386 g / cm^3
# Si number density = 20.961570 Si / 1000 Ang^3
#
#
#
# Elastic Constant Matrix: (Units=GPa)
#
#
# Indices 1 2 3 4 5 6 
#
# 1 63.6803 31.8884 58.2062 0.0000 2.5973 0.0000
# 2 31.8884 83.8306 27.0726 0.0000 5.6996 0.0000
# 3 58.2062 27.0726 104.8022 0.0000 -19.3540 0.0000
# 4 0.0000 0.0000 0.0000 13.9918 0.0000 6.8440
# 5 2.5973 5.6996 -19.3540 0.0000 37.5483 0.0000
# 6 0.0000 0.0000 0.0000 6.8440 0.0000 22.2423
#
#
#
# Elastic Compliance Matrix: (Units=1/GPa)
#
#
# Indices 1 2 3 4 5 6 
#
# 1 0.041785 -0.007194 -0.023961 0.000000 -0.014149 0.000000
# 2 -0.007194 0.014850 -0.000182 0.000000 -0.001850 0.000000
# 3 -0.023961 -0.000182 0.025649 0.000000 0.014906 0.000000
# 4 0.000000 0.000000 0.000000 0.084133 0.000000 -0.025888
# 5 -0.014149 -0.001850 0.014906 0.000000 0.035575 0.000000
# 6 0.000000 0.000000 0.000000 -0.025888 0.000000 0.052925
#
#
# Mechanical properties :
#
#
# Convention : Reuss Voigt Hill
#
# Bulk Modulus (GPa) = 50.99792 54.07194 52.53493
# Shear Modulus (GPa) = 15.42593 23.76622 19.59607
#
# Velocity S-wave (km/s) = 2.71572 3.37085 3.06086
# Velocity P-wave (km/s) = 5.84941 6.40327 6.13260
#
# Compressibility (1/GPa) = 0.01960864
#
# Stress axis : x y z
#
# Youngs Moduli (GPa) = 23.93219 67.33952 38.98726
#
# Poissons Ratio (x) = 0.48447 0.93419
# Poissons Ratio (y) = 0.17218 0.00710
# Poissons Ratio (z) = 0.57345 0.01226
#
# Static dielectric constant tensor:
#      x y z
#    x 4.218250 0.000000 0.558930 
#    y 0.000000 4.218650 0.000000 
#    z 0.558930 0.000000 3.678550 
# 
# 
# High freq. dielectric constant tensor:
#      x y z
#    x 1.808340 0.000000 0.024650 
#    y 0.000000 1.824920 0.000000 
#    z 0.024650 0.000000 1.808470 
# 
# From -- ./inp_files/39414.got.cif
#   From: 2010.06.25/outbox.cif.g09.slc.cpg/sg11_20_cif.got.tgz:39414.got - 2010.06.27 23:14:04.
