data_PCOD8075137
_publ_section_title
;
Structure prediction by ZEFSAII (Michael W. Deem and Ramdas Pophale) SiO2 
 PCOD8075137
Probable space group: P 21/M
;
_chemical_formula_sum "Si O2"
_cell_formula_units_Z 32
_cell_length_a 8.629284
_cell_length_b 14.968868
_cell_length_c 13.925889
_cell_angle_alpha 90.000000
_cell_angle_beta 116.682356
_cell_angle_gamma 90.000000
_cell_volume 1607.259227
_symmetry_space_group_name_H-M "P 21/M"
_symmetry_group_IT_number 11
_symmetry_cell_setting 'monoclinic'
loop_
_space_group_symop_operation_xyz
x,y,z
-x,1/2+y,-z
-x,-y,-z
x,1/2-y,z
loop_
_atom_site_type_symbol
_atom_site_label
_atom_site_fract_x
_atom_site_fract_y
_atom_site_fract_z
Si Si1 0.460143 0.502563 0.252386
Si Si2 0.261621 0.153074 0.689111
Si Si3 0.884054 0.419935 0.933358
Si Si4 0.018780 0.648351 0.240133
Si Si5 0.936531 0.149896 0.147087
Si Si6 0.299002 0.649327 0.743817
Si Si7 0.803604 0.971260 0.675182
Si Si8 0.033313 0.405373 0.463656
O O1 0.607245 0.576568 0.304273
O O2 0.305518 0.545314 0.148264
O O3 0.537493 0.415186 0.223920
O O4 0.393632 0.473438 0.340350
O O5 0.354873 0.250000 0.717750
O O6 0.173582 0.134407 0.768472
O O7 0.112466 0.158945 0.566096
O O8 0.980774 0.368020 0.873946
O O9 0.866978 0.353662 0.018936
O O10 0.000000 0.500000 0.000000
O O11 0.083021 0.750000 0.279439
O O12 0.140392 0.574615 0.324907
O O13 0.009193 0.250000 0.187877
O O14 0.773873 0.130245 0.170670
O O15 0.083122 0.075278 0.208373
O O16 0.368188 0.750000 0.752413
O O17 0.147328 0.633803 0.624009
O O18 0.827230 0.915351 0.584599
O O19 0.000000 0.500000 0.500000
#
# Coordination Sequence:
#
# PCOD8075137 Si02
#       8
#     4   4   4   4   4   4   4   4
#     4  11  23  38  61  86 128 156 189 253 296 354
#     4  11  23  40  62  91 123 159 199 245 298 353
#     4  11  22  40  62  87 114 161 203 243 299 354
#     4  10  20  37  60  86 119 157 201 245 291 358
#     4  10  20  39  64  85 116 157 202 245 292 353
#     4  10  22  40  61  91 121 154 196 245 297 355
#     4  10  21  38  62  91 118 156 201 241 301 347
#     4  11  19  39  69  85 114 161 201 237 291 359
#
# _framework density 19.909669000000001
#
# number of rings (size 3 to 8) (size 9 to 14) (size 15 to 20)
#    0.000    1.500    5.000    1.500    0.000    4.500 
#    0.000    0.000    0.000    0.000    0.000    0.000 
#    0.000    0.000    0.000    0.000    0.000    0.000 
#
# Total GULP energy -396691.211486 kJ/mol
# GULP energy per Si atom -12396.600359 kJ/mol
# Density = 1.986435 g / cm^3
# Si number density = 19.909669 Si / 1000 Ang^3
#
#
#
# Elastic Constant Matrix: (Units=GPa)
#
#
# Indices 1 2 3 4 5 6 
#
# 1 123.0513 51.6628 32.7512 0.0000 -13.7067 0.0000
# 2 51.6628 112.7378 11.2361 0.0000 -3.9727 0.0000
# 3 32.7512 11.2361 79.2139 0.0000 -12.9835 0.0000
# 4 0.0000 0.0000 0.0000 19.8208 0.0000 -5.1853
# 5 -13.7067 -3.9727 -12.9835 0.0000 24.6724 0.0000
# 6 0.0000 0.0000 0.0000 -5.1853 0.0000 14.8625
#
#
#
# Elastic Compliance Matrix: (Units=1/GPa)
#
#
# Indices 1 2 3 4 5 6 
#
# 1 0.011473 -0.004781 -0.003444 0.000000 0.003792 0.000000
# 2 -0.004781 0.011006 0.000296 0.000000 -0.000728 0.000000
# 3 -0.003444 0.000296 0.014993 0.000000 0.006024 0.000000
# 4 0.000000 0.000000 0.000000 0.055520 0.000000 0.019370
# 5 0.003792 -0.000728 0.006024 0.000000 0.045691 0.000000
# 6 0.000000 0.000000 0.000000 0.019370 0.000000 0.074041
#
#
# Mechanical properties :
#
#
# Convention : Reuss Voigt Hill
#
# Bulk Modulus (GPa) = 46.26383 56.25590 51.25986
# Shear Modulus (GPa) = 21.20573 26.49464 23.85019
#
# Velocity S-wave (km/s) = 3.26712 3.65189 3.46485
# Velocity P-wave (km/s) = 6.12531 6.78960 6.46599
#
# Compressibility (1/GPa) = 0.02161516
#
# Stress axis : x y z
#
# Youngs Moduli (GPa) = 87.16261 90.86171 66.69616
#
# Poissons Ratio (x) = 0.43438 0.22969
# Poissons Ratio (y) = 0.41669 -0.01975
# Poissons Ratio (z) = 0.30018 -0.02691
#
# Static dielectric constant tensor:
#      x y z
#    x 3.934010 0.000000 -0.178590 
#    y 0.000000 3.749430 0.000000 
#    z -0.178590 0.000000 4.090750 
# 
# 
# High freq. dielectric constant tensor:
#      x y z
#    x 1.773300 0.000000 -0.028870 
#    y 0.000000 1.793480 0.000000 
#    z -0.028870 0.000000 1.757410 
# 
# From -- ./inp_files/47653.got.cif
#   From: 2010.06.25/outbox.cif.g09.slc.cpg/sg11_24_cif.got.tgz:47653.got - 2010.06.27 23:14:04.
