data_PCOD8075063
_publ_section_title
;
Structure prediction by ZEFSAII (Michael W. Deem and Ramdas Pophale) SiO2 
 PCOD8075063
Probable space group: P 21/M
;
_chemical_formula_sum "Si O2"
_cell_formula_units_Z 24
_cell_length_a 8.738345
_cell_length_b 15.394022
_cell_length_c 9.086276
_cell_angle_alpha 90.000000
_cell_angle_beta 81.389002
_cell_angle_gamma 90.000000
_cell_volume 1208.492329
_symmetry_space_group_name_H-M "P 21/M"
_symmetry_group_IT_number 11
_symmetry_cell_setting 'monoclinic'
loop_
_space_group_symop_operation_xyz
x,y,z
-x,1/2+y,-z
-x,-y,-z
x,1/2-y,z
loop_
_atom_site_type_symbol
_atom_site_label
_atom_site_fract_x
_atom_site_fract_y
_atom_site_fract_z
Si Si1 0.239523 0.152509 0.313244
Si Si2 0.110407 0.847970 0.593111
Si Si3 0.676515 0.150771 0.701316
Si Si4 0.846113 0.499606 0.207990
Si Si5 0.404992 0.416123 0.562486
Si Si6 0.797734 0.008198 0.882897
O O1 0.261585 0.250000 0.245244
O O2 0.365889 0.136904 0.421003
O O3 0.256759 0.082732 0.180427
O O4 0.071308 0.142981 0.411573
O O5 0.161952 0.750000 0.619851
O O6 0.197015 0.882217 0.435531
O O7 0.161106 0.902097 0.728289
O O8 0.706051 0.250000 0.746635
O O9 0.506998 0.143700 0.654709
O O10 0.693000 0.087090 0.837992
O O11 0.753106 0.562469 0.329705
O O12 0.023147 0.531542 0.173492
O O13 0.765813 0.499677 0.060553
O O14 0.500000 0.500000 0.500000
#
# Coordination Sequence:
#
# PCOD8075063 Si02
#       6
#     4   4   4   4   4   4
#     4  10  20  37  59  83 112 147 192 236 281 332
#     4   9  18  34  58  84 110 147 194 238 274 328
#     4  11  22  37  57  85 116 149 191 233 281 335
#     4  10  21  37  60  84 115 151 187 231 285 334
#     4  12  21  36  58  83 112 150 184 233 280 334
#     4  10  21  39  60  85 114 150 189 233 280 336
#
# _framework density 19.859456000000002
#
# number of rings (size 3 to 8) (size 9 to 14) (size 15 to 20)
#    0.000    1.667    3.333    1.500    0.000    4.000 
#    0.000    5.000    0.000    0.000    0.000    0.000 
#    0.000    0.000    0.000    0.000    0.000    0.000 
#
# Total GULP energy -297669.536732 kJ/mol
# GULP energy per Si atom -12402.897364 kJ/mol
# Density = 1.981425 g / cm^3
# Si number density = 19.859456 Si / 1000 Ang^3
#
#
#
# Elastic Constant Matrix: (Units=GPa)
#
#
# Indices 1 2 3 4 5 6 
#
# 1 59.5556 31.4409 20.3863 0.0000 23.8221 0.0000
# 2 31.4409 106.3036 40.6316 0.0000 20.4267 0.0000
# 3 20.3863 40.6316 80.7700 0.0000 27.8147 0.0000
# 4 0.0000 0.0000 0.0000 15.3566 0.0000 4.8236
# 5 23.8221 20.4267 27.8147 0.0000 37.3449 0.0000
# 6 0.0000 0.0000 0.0000 4.8236 0.0000 30.8161
#
#
#
# Elastic Compliance Matrix: (Units=1/GPa)
#
#
# Indices 1 2 3 4 5 6 
#
# 1 0.024570 -0.005036 0.001050 0.000000 -0.013701 0.000000
# 2 -0.005036 0.012884 -0.005232 0.000000 0.000061 0.000000
# 3 0.001050 -0.005232 0.018820 0.000000 -0.011825 0.000000
# 4 0.000000 0.000000 0.000000 0.068486 0.000000 -0.010720
# 5 -0.013701 0.000061 -0.011825 0.000000 0.044291 0.000000
# 6 0.000000 0.000000 0.000000 -0.010720 0.000000 0.034129
#
#
# Mechanical properties :
#
#
# Convention : Reuss Voigt Hill
#
# Bulk Modulus (GPa) = 26.42730 47.94964 37.18847
# Shear Modulus (GPa) = 21.34670 26.98155 24.16413
#
# Velocity S-wave (km/s) = 3.28211 3.68995 3.49199
# Velocity P-wave (km/s) = 5.26298 6.50778 5.91820
#
# Compressibility (1/GPa) = 0.03783966
#
# Stress axis : x y z
#
# Youngs Moduli (GPa) = 40.69929 77.61428 53.13530
#
# Poissons Ratio (x) = 0.39084 -0.05578
# Poissons Ratio (y) = 0.20495 0.27798
# Poissons Ratio (z) = -0.04273 0.40605
#
# Static dielectric constant tensor:
#      x y z
#    x 3.689780 0.000000 0.027470 
#    y 0.000000 3.580580 0.000000 
#    z 0.027470 0.000000 3.473380 
# 
# 
# High freq. dielectric constant tensor:
#      x y z
#    x 1.777480 0.000000 0.008140 
#    y 0.000000 1.774260 0.000000 
#    z 0.008140 0.000000 1.758120 
# 
# From -- ./inp_files/12429.got.cif
#   From: 2010.06.25/outbox.cif.g09.slc.cpg/sg11_7_cif.got.tgz:12429.got - 2010.06.27 23:14:04.
