data_PCOD8075846
_publ_section_title
;
Structure prediction by ZEFSAII (Michael W. Deem and Ramdas Pophale) SiO2 
 PCOD8075846
Probable space group: P 21/M
;
_chemical_formula_sum "Si O2"
_cell_formula_units_Z 28
_cell_length_a 15.921421
_cell_length_b 8.917812
_cell_length_c 20.774378
_cell_angle_alpha 90.000000
_cell_angle_beta 28.383745
_cell_angle_gamma 90.000000
_cell_volume 1402.181295
_symmetry_space_group_name_H-M "P 21/M"
_symmetry_group_IT_number 11
_symmetry_cell_setting 'monoclinic'
loop_
_space_group_symop_operation_xyz
x,y,z
-x,1/2+y,-z
-x,-y,-z
x,1/2-y,z
loop_
_atom_site_type_symbol
_atom_site_label
_atom_site_fract_x
_atom_site_fract_y
_atom_site_fract_z
Si Si1 0.942203 0.425832 0.634894
Si Si2 0.271291 0.426351 0.329974
Si Si3 0.258402 0.922058 0.621620
Si Si4 0.928506 0.422046 0.790518
Si Si5 0.171777 0.073347 0.914929
Si Si6 0.332030 0.577583 0.925063
Si Si7 0.412975 0.922101 0.654807
O O1 0.914006 0.250000 0.647071
O O2 0.791792 0.503719 0.694398
O O3 0.916033 0.479756 0.725708
O O4 0.137903 0.472229 0.477658
O O5 0.276638 0.250000 0.316057
O O6 0.467884 0.485708 0.213278
O O7 0.290131 0.750000 0.580518
O O8 0.287933 0.944314 0.677531
O O9 0.388730 0.027503 0.493557
O O10 0.061687 0.972501 0.739233
O O11 0.995337 0.250000 0.747064
O O12 0.739668 0.437377 0.953380
O O13 0.144823 0.250000 0.932940
O O14 0.203538 0.017957 0.966013
O O15 0.342602 0.026367 0.758958
O O16 0.000000 0.000000 0.000000
O O17 0.325897 0.750000 0.906222
O O18 0.416194 0.750000 0.675635
#
# Coordination Sequence:
#
# PCOD8075846 Si02
#       7
#     4   4   4   4   4   4   4
#     4   9  19  36  58  84 114 151 192 240 297 352
#     4   9  19  37  59  84 114 150 192 241 296 354
#     4  10  21  36  56  85 116 148 194 244 291 349
#     4  10  21  36  56  83 115 155 195 241 294 352
#     4  12  25  40  59  85 117 156 202 246 295 350
#     4  10  22  39  59  85 118 156 200 245 296 354
#     4  10  21  38  59  82 113 154 195 243 298 347
#
# _framework density 19.968886999999999
#
# number of rings (size 3 to 8) (size 9 to 14) (size 15 to 20)
#    0.000    2.000    0.000    3.000    2.000    6.286 
#    0.000    0.000    0.000    0.000    0.000    0.000 
#    0.000    0.000    0.000    0.000    0.000    0.000 
#
# Total GULP energy -347299.087902 kJ/mol
# GULP energy per Si atom -12403.538854 kJ/mol
# Density = 1.992344 g / cm^3
# Si number density = 19.968887 Si / 1000 Ang^3
#
#
#
# Elastic Constant Matrix: (Units=GPa)
#
#
# Indices 1 2 3 4 5 6 
#
# 1 106.2726 41.2948 64.7080 0.0000 1.8217 0.0000
# 2 41.2948 78.9147 36.0226 0.0000 0.0731 0.0000
# 3 64.7080 36.0226 99.9950 0.0000 0.0602 0.0000
# 4 0.0000 0.0000 0.0000 27.8556 0.0000 -1.2952
# 5 1.8217 0.0731 0.0602 0.0000 36.5476 0.0000
# 6 0.0000 0.0000 0.0000 -1.2952 0.0000 33.5211
#
#
#
# Elastic Compliance Matrix: (Units=1/GPa)
#
#
# Indices 1 2 3 4 5 6 
#
# 1 0.016833 -0.004590 -0.009238 0.000000 -0.000815 0.000000
# 2 -0.004590 0.016418 -0.002944 0.000000 0.000201 0.000000
# 3 -0.009238 -0.002944 0.017039 0.000000 0.000438 0.000000
# 4 0.000000 0.000000 0.000000 0.035964 0.000000 0.001390
# 5 -0.000815 0.000201 0.000438 0.000000 0.027401 0.000000
# 6 0.000000 0.000000 0.000000 0.001390 0.000000 0.029886
#
#
# Mechanical properties :
#
#
# Convention : Reuss Voigt Hill
#
# Bulk Modulus (GPa) = 59.72377 63.24812 61.48595
# Shear Modulus (GPa) = 27.37220 29.12864 28.25042
#
# Velocity S-wave (km/s) = 3.70637 3.82344 3.76536
# Velocity P-wave (km/s) = 6.94907 7.15777 7.05419
#
# Compressibility (1/GPa) = 0.01674375
#
# Stress axis : x y z
#
# Youngs Moduli (GPa) = 59.40849 60.91004 58.68848
#
# Poissons Ratio (x) = 0.27960 0.54219
# Poissons Ratio (y) = 0.27271 0.17278
# Poissons Ratio (z) = 0.54884 0.17932
#
# Static dielectric constant tensor:
#      x y z
#    x 3.585830 0.000000 0.105630 
#    y 0.000000 3.554240 0.000000 
#    z 0.105630 0.000000 3.749380 
# 
# 
# High freq. dielectric constant tensor:
#      x y z
#    x 1.773610 0.000000 0.006290 
#    y 0.000000 1.773320 0.000000 
#    z 0.006290 0.000000 1.787000 
# 
# From -- ./inp_files/65341.got.cif
#   From: 2010.06.25/outbox.cif.g09.slc.cpg/sg11_33_cif.got.tgz:65341.got - 2010.06.27 23:14:04.
