data_PCOD8075721
_publ_section_title
;
Structure prediction by ZEFSAII (Michael W. Deem and Ramdas Pophale) SiO2 
 PCOD8075721
Probable space group: P 21/M
;
_chemical_formula_sum "Si O2"
_cell_formula_units_Z 32
_cell_length_a 14.300365
_cell_length_b 25.005732
_cell_length_c 8.978393
_cell_angle_alpha 90.000000
_cell_angle_beta 32.867962
_cell_angle_gamma 90.000000
_cell_volume 1742.404683
_symmetry_space_group_name_H-M "P 21/M"
_symmetry_group_IT_number 11
_symmetry_cell_setting 'monoclinic'
loop_
_space_group_symop_operation_xyz
x,y,z
-x,1/2+y,-z
-x,-y,-z
x,1/2-y,z
loop_
_atom_site_type_symbol
_atom_site_label
_atom_site_fract_x
_atom_site_fract_y
_atom_site_fract_z
Si Si1 0.003504 0.494893 0.168139
Si Si2 0.659053 0.808052 0.686272
Si Si3 0.334558 0.468695 0.271288
Si Si4 0.830593 0.617863 0.031720
Si Si5 0.820905 0.876300 0.704621
Si Si6 0.005972 0.688358 0.035667
Si Si7 0.143633 0.891863 0.082911
Si Si8 0.530438 0.891253 0.660424
O O1 0.109693 0.443035 0.071048
O O2 0.081261 0.550274 0.118601
O O3 0.812188 0.488284 0.491748
O O4 0.000000 0.500000 0.000000
O O5 0.581093 0.750000 0.815076
O O6 0.702126 0.831327 0.789209
O O7 0.514871 0.839815 0.787786
O O8 0.830025 0.808816 0.359503
O O9 0.265140 0.432582 0.227926
O O10 0.375537 0.436543 0.367626
O O11 0.500000 0.500000 0.000000
O O12 0.808499 0.638469 0.893961
O O13 0.969012 0.655994 0.931274
O O14 0.646049 0.618846 0.359911
O O15 0.019798 0.872722 0.383380
O O16 0.072933 0.750000 0.917779
O O17 0.138971 0.652533 0.956049
O O18 0.337124 0.903606 0.873799
#
# Coordination Sequence:
#
# PCOD8075721 Si02
#       8
#     4   4   4   4   4   4   4   4
#     4  11  20  37  56  77 114 148 178 219 271 326
#     4   8  16  36  59  75 104 145 181 223 270 320
#     4  10  22  37  53  78 109 145 181 217 264 322
#     4  11  21  36  56  83 111 144 181 222 273 322
#     4   9  21  36  53  80 109 139 180 219 268 326
#     4   9  18  36  58  78 106 145 183 222 270 324
#     4  10  21  36  55  81 110 143 182 222 267 324
#     4  10  21  35  54  83 108 138 186 222 263 325
#
# _framework density 18.365423
#
# number of rings (size 3 to 8) (size 9 to 14) (size 15 to 20)
#    0.000    2.250    2.500    1.500    3.500    3.500 
#    0.000    0.000    0.000    1.500    0.000    0.000 
#    0.000    0.000    0.000    0.000    0.000    0.000 
#
# Total GULP energy -396569.401487 kJ/mol
# GULP energy per Si atom -12392.793796 kJ/mol
# Density = 1.832362 g / cm^3
# Si number density = 18.365423 Si / 1000 Ang^3
#
#
#
# Elastic Constant Matrix: (Units=GPa)
#
#
# Indices 1 2 3 4 5 6 
#
# 1 99.7200 24.2111 48.5665 0.0000 18.6523 0.0000
# 2 24.2111 103.1341 28.5270 0.0000 6.9086 0.0000
# 3 48.5665 28.5270 80.0368 0.0000 2.9095 0.0000
# 4 0.0000 0.0000 0.0000 17.0301 0.0000 -0.3667
# 5 18.6523 6.9086 2.9095 0.0000 36.8947 0.0000
# 6 0.0000 0.0000 0.0000 -0.3667 0.0000 10.7735
#
#
#
# Elastic Compliance Matrix: (Units=1/GPa)
#
#
# Indices 1 2 3 4 5 6 
#
# 1 0.016050 -0.000733 -0.009214 0.000000 -0.007250 0.000000
# 2 -0.000733 0.010900 -0.003389 0.000000 -0.001403 0.000000
# 3 -0.009214 -0.003389 0.019156 0.000000 0.003782 0.000000
# 4 0.000000 0.000000 0.000000 0.058762 0.000000 0.002000
# 5 -0.007250 -0.001403 0.003782 0.000000 0.030734 0.000000
# 6 0.000000 0.000000 0.000000 0.002000 0.000000 0.092889
#
#
# Mechanical properties :
#
#
# Convention : Reuss Voigt Hill
#
# Bulk Modulus (GPa) = 51.46033 53.94446 52.70240
# Shear Modulus (GPa) = 19.11021 25.04543 22.07782
#
# Velocity S-wave (km/s) = 3.22926 3.69687 3.47095
# Velocity P-wave (km/s) = 6.47960 6.90356 6.69494
#
# Compressibility (1/GPa) = 0.01943245
#
# Stress axis : x y z
#
# Youngs Moduli (GPa) = 62.30618 91.74632 52.20374
#
# Poissons Ratio (x) = 0.06729 0.48101
# Poissons Ratio (y) = 0.04570 0.17691
# Poissons Ratio (z) = 0.57409 0.31091
#
# Static dielectric constant tensor:
#      x y z
#    x 3.371050 0.000000 0.049220 
#    y 0.000000 3.655440 0.000000 
#    z 0.049220 0.000000 3.212590 
# 
# 
# High freq. dielectric constant tensor:
#      x y z
#    x 1.716350 0.000000 0.005030 
#    y 0.000000 1.714010 0.000000 
#    z 0.005030 0.000000 1.691020 
# 
# From -- ./inp_files/23438.got.cif
#   From: 2010.06.25/outbox.cif.g09.slc.cpg/sg11_12_cif.got.tgz:23438.got - 2010.06.27 23:14:04.
