data_PCOD8075601
_publ_section_title
;
Structure prediction by ZEFSAII (Michael W. Deem and Ramdas Pophale) SiO2 
 PCOD8075601
Probable space group: P 21/M
;
_chemical_formula_sum "Si O2"
_cell_formula_units_Z 32
_cell_length_a 18.656884
_cell_length_b 14.610023
_cell_length_c 5.160605
_cell_angle_alpha 90.000000
_cell_angle_beta 95.281125
_cell_angle_gamma 90.000000
_cell_volume 1400.693644
_symmetry_space_group_name_H-M "P 21/M"
_symmetry_group_IT_number 11
_symmetry_cell_setting 'monoclinic'
loop_
_space_group_symop_operation_xyz
x,y,z
-x,1/2+y,-z
-x,-y,-z
x,1/2-y,z
loop_
_atom_site_type_symbol
_atom_site_label
_atom_site_fract_x
_atom_site_fract_y
_atom_site_fract_z
Si Si1 0.509429 0.560652 0.253317
Si Si2 0.663706 0.535523 0.362572
Si Si3 0.033496 0.641090 0.171744
Si Si4 0.749871 0.428493 0.009132
Si Si5 0.629754 0.351269 0.652233
Si Si6 0.798091 0.573477 0.682356
Si Si7 0.113799 0.858231 0.697531
Si Si8 0.871437 0.854931 0.203559
O O1 0.500000 0.500000 0.500000
O O2 0.592445 0.596493 0.283708
O O3 0.449029 0.639778 0.237020
O O4 0.500000 0.500000 0.000000
O O5 0.707805 0.516212 0.114176
O O6 0.642121 0.433318 0.454880
O O7 0.714159 0.592760 0.577110
O O8 0.037664 0.750000 0.173282
O O9 0.080551 0.600618 0.423837
O O10 0.951084 0.609310 0.166352
O O11 0.066204 0.601507 0.917393
O O12 0.802459 0.384953 0.241347
O O13 0.692662 0.354207 0.889857
O O14 0.798408 0.468432 0.787583
O O15 0.632906 0.250000 0.523448
O O16 0.844561 0.583018 0.434452
O O17 0.824684 0.638360 0.924440
O O18 0.108251 0.750000 0.690960
O O19 0.870193 0.750000 0.297398
#
# Coordination Sequence:
#
# PCOD8075601 Si02
#       8
#     4   4   4   4   4   4   4   4
#     4  10  20  40  64  89 121 171 205 246 306 368
#     4  10  22  41  65  87 135 173 205 245 321 377
#     4   9  20  38  59  84 117 160 206 263 324 368
#     4  11  22  39  61  89 133 173 202 248 313 382
#     4  10  22  38  64  99 125 163 218 261 296 362
#     4  11  23  39  63  94 123 162 210 256 318 386
#     4  10  21  36  57  86 122 163 210 256 309 369
#     4  11  22  42  68  88 114 157 216 272 316 373
#
# _framework density 22.845821000000001
#
# number of rings (size 3 to 8) (size 9 to 14) (size 15 to 20)
#    0.000    1.750    2.500    1.500    3.500    3.000 
#    0.000    5.000    0.000    0.000    0.000    0.000 
#    0.000    0.000    0.000    0.000    0.000    0.000 
#
# Total GULP energy -396550.114577 kJ/mol
# GULP energy per Si atom -12392.191081 kJ/mol
# Density = 2.279382 g / cm^3
# Si number density = 22.845821 Si / 1000 Ang^3
#
#
#
# Elastic Constant Matrix: (Units=GPa)
#
#
# Indices 1 2 3 4 5 6 
#
# 1 148.4490 22.1824 37.7597 0.0000 14.6958 0.0000
# 2 22.1824 35.1361 -0.6974 0.0000 1.9988 0.0000
# 3 37.7597 -0.6974 116.4044 0.0000 1.8935 0.0000
# 4 0.0000 0.0000 0.0000 25.2144 0.0000 3.1156
# 5 14.6958 1.9988 1.8935 0.0000 40.9152 0.0000
# 6 0.0000 0.0000 0.0000 3.1156 0.0000 25.5250
#
#
#
# Elastic Compliance Matrix: (Units=1/GPa)
#
#
# Indices 1 2 3 4 5 6 
#
# 1 0.008483 -0.005258 -0.002740 0.000000 -0.002663 0.000000
# 2 -0.005258 0.031804 0.001892 0.000000 0.000247 0.000000
# 3 -0.002740 0.001892 0.009483 0.000000 0.000453 0.000000
# 4 0.000000 0.000000 0.000000 0.040267 0.000000 -0.004915
# 5 -0.002663 0.000247 0.000453 0.000000 0.025364 0.000000
# 6 0.000000 0.000000 0.000000 -0.004915 0.000000 0.039777
#
#
# Mechanical properties :
#
#
# Convention : Reuss Voigt Hill
#
# Bulk Modulus (GPa) = 26.62526 46.49766 36.56146
# Shear Modulus (GPa) = 27.79176 34.38059 31.08618
#
# Velocity S-wave (km/s) = 3.49161 3.88351 3.69276
# Velocity P-wave (km/s) = 5.28533 6.36442 5.84981
#
# Compressibility (1/GPa) = 0.03755832
#
# Stress axis : x y z
#
# Youngs Moduli (GPa) = 117.88895 31.44276 105.44680
#
# Poissons Ratio (x) = 0.16533 0.28890
# Poissons Ratio (y) = 0.61988 -0.19952
# Poissons Ratio (z) = 0.32299 -0.05950
#
# Static dielectric constant tensor:
#      x y z
#    x 4.778800 0.000000 0.079280 
#    y 0.000000 3.621970 0.000000 
#    z 0.079280 0.000000 4.251720 
# 
# 
# High freq. dielectric constant tensor:
#      x y z
#    x 1.923140 0.000000 0.005870 
#    y 0.000000 1.851790 0.000000 
#    z 0.005870 0.000000 1.913190 
# 
# From -- ./inp_files/8086.got.cif
#   From: 2010.06.25/outbox.cif.g09.slc.cpg/sg11_5_cif.got.tgz:8086.got - 2010.06.27 23:14:04.
