data_PCOD8075051
_publ_section_title
;
Structure prediction by ZEFSAII (Michael W. Deem and Ramdas Pophale) SiO2 
 PCOD8075051
Probable space group: P 21/M
;
_chemical_formula_sum "Si O2"
_cell_formula_units_Z 32
_cell_length_a 16.851292
_cell_length_b 9.726250
_cell_length_c 20.269739
_cell_angle_alpha 90.000000
_cell_angle_beta 28.620000
_cell_angle_gamma 90.000000
_cell_volume 1591.331881
_symmetry_space_group_name_H-M "P 21/M"
_symmetry_group_IT_number 11
_symmetry_cell_setting 'monoclinic'
loop_
_space_group_symop_operation_xyz
x,y,z
-x,1/2+y,-z
-x,-y,-z
x,1/2-y,z
loop_
_atom_site_type_symbol
_atom_site_label
_atom_site_fract_x
_atom_site_fract_y
_atom_site_fract_z
Si Si1 0.972398 0.594782 0.957340
Si Si2 0.275905 0.412127 0.113731
Si Si3 0.951625 0.907986 0.336399
Si Si4 0.545033 0.895083 0.397729
Si Si5 0.395879 0.409448 0.783787
Si Si6 0.331668 0.406690 0.355486
Si Si7 0.427017 0.094267 0.143182
Si Si8 0.775887 0.493469 0.336960
O O1 0.997715 0.750000 0.963744
O O2 0.094816 0.563517 0.808738
O O3 0.793170 0.573894 0.055112
O O4 0.000000 0.500000 0.000000
O O5 0.266498 0.250000 0.101442
O O6 0.310412 0.433869 0.165782
O O7 0.102909 0.485911 0.224146
O O8 0.421335 0.485737 0.965720
O O9 0.011285 0.750000 0.302327
O O10 0.830646 0.952563 0.484973
O O11 0.858847 0.917147 0.333797
O O12 0.622813 0.750000 0.320850
O O13 0.594362 0.981849 0.296683
O O14 0.343707 0.876757 0.545785
O O15 0.629772 0.924205 0.405918
O O16 0.453789 0.250000 0.745387
O O17 0.511458 0.498023 0.745986
O O18 0.374467 0.250000 0.343790
O O19 0.307317 0.421894 0.294279
O O20 0.500212 0.250000 0.086514
#
# Coordination Sequence:
#
# PCOD8075051 Si02
#       8
#     4   4   4   4   4   4   4   4
#     4  11  24  40  58  83 115 152 199 253 305 359
#     4  10  22  40  65  94 124 159 200 247 300 363
#     4  11  24  40  61  91 126 160 201 252 302 361
#     4  10  20  37  59  81 113 156 199 245 292 345
#     4  10  21  39  57  82 117 154 195 246 298 350
#     4  10  22  41  62  89 121 157 199 246 301 364
#     4   9  20  42  67  91 123 161 200 243 301 368
#     4  11  22  38  58  85 116 158 203 244 297 356
#
# _framework density 20.108941000000002
#
# number of rings (size 3 to 8) (size 9 to 14) (size 15 to 20)
#    0.000    1.750    2.500    1.125    1.750    4.000 
#    0.000    0.000    0.000    0.000    0.000    0.000 
#    0.000    0.000    0.000    0.000    0.000    0.000 
#
# Total GULP energy -396431.072874 kJ/mol
# GULP energy per Si atom -12388.471027 kJ/mol
# Density = 2.006317 g / cm^3
# Si number density = 20.108941 Si / 1000 Ang^3
#
#
#
# Elastic Constant Matrix: (Units=GPa)
#
#
# Indices 1 2 3 4 5 6 
#
# 1 75.5749 26.3218 34.5765 0.0000 0.0725 0.0000
# 2 26.3218 94.8424 35.8601 0.0000 -10.8929 0.0000
# 3 34.5765 35.8601 124.6065 0.0000 -2.2444 0.0000
# 4 0.0000 0.0000 0.0000 24.8896 0.0000 -1.4703
# 5 0.0725 -10.8929 -2.2444 0.0000 29.4341 0.0000
# 6 0.0000 0.0000 0.0000 -1.4703 0.0000 23.5962
#
#
#
# Elastic Compliance Matrix: (Units=1/GPa)
#
#
# Indices 1 2 3 4 5 6 
#
# 1 0.015986 -0.003281 -0.003519 0.000000 -0.001522 0.000000
# 2 -0.003281 0.013027 -0.002755 0.000000 0.004619 0.000000
# 3 -0.003519 -0.002755 0.009790 0.000000 -0.000265 0.000000
# 4 0.000000 0.000000 0.000000 0.040326 0.000000 0.002513
# 5 -0.001522 0.004619 -0.000265 0.000000 0.035667 0.000000
# 6 0.000000 0.000000 0.000000 0.002513 0.000000 0.042536
#
#
# Mechanical properties :
#
#
# Convention : Reuss Voigt Hill
#
# Bulk Modulus (GPa) = 50.78185 54.28231 52.53208
# Shear Modulus (GPa) = 27.32143 28.80168 28.06155
#
# Velocity S-wave (km/s) = 3.69001 3.78866 3.73966
# Velocity P-wave (km/s) = 6.59266 6.79642 6.69531
#
# Compressibility (1/GPa) = 0.01969208
#
# Stress axis : x y z
#
# Youngs Moduli (GPa) = 62.55441 76.76594 102.14558
#
# Poissons Ratio (x) = 0.25186 0.35946
# Poissons Ratio (y) = 0.20523 0.28144
# Poissons Ratio (z) = 0.22014 0.21151
#
# Static dielectric constant tensor:
#      x y z
#    x 3.661920 0.000000 0.163980 
#    y 0.000000 3.756170 0.000000 
#    z 0.163980 0.000000 3.871270 
# 
# 
# High freq. dielectric constant tensor:
#      x y z
#    x 1.780040 0.000000 0.011570 
#    y 0.000000 1.780880 0.000000 
#    z 0.011570 0.000000 1.795260 
# 
# From -- ./inp_files/60411.got.cif
#   From: 2010.06.25/outbox.cif.g09.slc.cpg/sg11_31_cif.got.tgz:60411.got - 2010.06.27 23:14:04.
