data_PCOD8075773
_publ_section_title
;
Structure prediction by ZEFSAII (Michael W. Deem and Ramdas Pophale) SiO2 
 PCOD8075773
Probable space group: P 21/M
;
_chemical_formula_sum "Si O2"
_cell_formula_units_Z 28
_cell_length_a 17.498552
_cell_length_b 9.051925
_cell_length_c 14.057526
_cell_angle_alpha 90.000000
_cell_angle_beta 136.281911
_cell_angle_gamma 90.000000
_cell_volume 1538.861469
_symmetry_space_group_name_H-M "P 21/M"
_symmetry_group_IT_number 11
_symmetry_cell_setting 'monoclinic'
loop_
_space_group_symop_operation_xyz
x,y,z
-x,1/2+y,-z
-x,-y,-z
x,1/2-y,z
loop_
_atom_site_type_symbol
_atom_site_label
_atom_site_fract_x
_atom_site_fract_y
_atom_site_fract_z
Si Si1 0.349557 0.422395 0.613243
Si Si2 0.838036 0.074722 0.670392
Si Si3 0.731562 0.421015 0.083621
Si Si4 0.218423 0.574514 0.172078
Si Si5 0.411332 0.925226 0.219826
Si Si6 0.935083 0.420870 0.136779
Si Si7 0.387984 0.077498 0.867478
O O1 0.326634 0.250000 0.574340
O O2 0.249135 0.517507 0.484181
O O3 0.461344 0.475658 0.659200
O O4 0.362437 0.457414 0.735422
O O5 0.837443 0.250000 0.669790
O O6 0.806998 0.009835 0.746735
O O7 0.957970 0.018773 0.747994
O O8 0.709163 0.250000 0.086827
O O9 0.854985 0.443647 0.154872
O O10 0.715152 0.515510 0.164395
O O11 0.643411 0.481993 0.927229
O O12 0.219741 0.750000 0.175701
O O13 0.338970 0.516200 0.244483
O O14 0.124453 0.522750 0.013289
O O15 0.403514 0.750000 0.209116
O O16 0.969253 0.250000 0.157556
O O17 0.401688 0.250000 0.897529
O O18 0.500000 0.000000 0.000000
#
# Coordination Sequence:
#
# PCOD8075773 Si02
#       7
#     4   4   4   4   4   4   4
#     4  10  21  36  53  74 105 145 180 207 253 325
#     4  11  22  34  50  77 111 141 176 224 265 298
#     4   9  17  33  57  83 105 132 174 219 264 311
#     4   8  16  31  54  80 104 136 176 219 263 307
#     4   8  14  30  53  76 104 137 172 210 258 317
#     4   9  18  35  59  79 102 141 181 213 258 323
#     4  11  21  34  56  83 108 136 173 216 262 315
#
# _framework density 18.195269
#
# number of rings (size 3 to 8) (size 9 to 14) (size 15 to 20)
#    0.000    2.571    1.429    3.000    0.000    2.286 
#    0.000    1.429    0.000    2.571    0.000    0.000 
#    0.000    0.000    0.000    0.000    0.000    0.000 
#
# Total GULP energy -347138.538578 kJ/mol
# GULP energy per Si atom -12397.804949 kJ/mol
# Density = 1.815386 g / cm^3
# Si number density = 18.195269 Si / 1000 Ang^3
#
#
#
# Elastic Constant Matrix: (Units=GPa)
#
#
# Indices 1 2 3 4 5 6 
#
# 1 122.5438 50.1613 63.0642 0.0000 6.7650 0.0000
# 2 50.1613 59.8290 50.2438 0.0000 1.3096 0.0000
# 3 63.0642 50.2438 107.9735 0.0000 14.9154 0.0000
# 4 0.0000 0.0000 0.0000 20.7054 0.0000 0.2880
# 5 6.7650 1.3096 14.9154 0.0000 16.6524 0.0000
# 6 0.0000 0.0000 0.0000 0.2880 0.0000 27.1164
#
#
#
# Elastic Compliance Matrix: (Units=1/GPa)
#
#
# Indices 1 2 3 4 5 6 
#
# 1 0.013568 -0.007942 -0.004055 0.000000 -0.001255 0.000000
# 2 -0.007942 0.033824 -0.012758 0.000000 0.011993 0.000000
# 3 -0.004055 -0.012758 0.019629 0.000000 -0.014931 0.000000
# 4 0.000000 0.000000 0.000000 0.048304 0.000000 -0.000513
# 5 -0.001255 0.011993 -0.014931 0.000000 0.072992 0.000000
# 6 0.000000 0.000000 0.000000 -0.000513 0.000000 0.036883
#
#
# Mechanical properties :
#
#
# Convention : Reuss Voigt Hill
#
# Bulk Modulus (GPa) = 57.10703 68.58724 62.84713
# Shear Modulus (GPa) = 17.82234 21.35330 19.58782
#
# Velocity S-wave (km/s) = 3.13310 3.42945 3.28462
# Velocity P-wave (km/s) = 6.67399 7.31153 7.00002
#
# Compressibility (1/GPa) = 0.01751098
#
# Stress axis : x y z
#
# Youngs Moduli (GPa) = 73.70506 29.56466 50.94448
#
# Poissons Ratio (x) = 0.23481 0.20660
# Poissons Ratio (y) = 0.58537 0.64993
# Poissons Ratio (z) = 0.29890 0.37717
#
# Static dielectric constant tensor:
#      x y z
#    x 3.761030 0.000000 0.014290 
#    y 0.000000 3.060160 0.000000 
#    z 0.014290 0.000000 3.197050 
# 
# 
# High freq. dielectric constant tensor:
#      x y z
#    x 1.721090 0.000000 0.005500 
#    y 0.000000 1.676960 0.000000 
#    z 0.005500 0.000000 1.688040 
# 
# From -- ./inp_files/44671.got.cif
#   From: 2010.06.25/outbox.cif.g09.slc.cpg/sg11_23_cif.got.tgz:44671.got - 2010.06.27 23:14:04.
