data_PCOD8075343
_publ_section_title
;
Structure prediction by ZEFSAII (Michael W. Deem and Ramdas Pophale) SiO2 
 PCOD8075343
Probable space group: P 21/M
;
_chemical_formula_sum "Si O2"
_cell_formula_units_Z 32
_cell_length_a 13.012419
_cell_length_b 8.995099
_cell_length_c 14.101134
_cell_angle_alpha 90.000000
_cell_angle_beta 93.240972
_cell_angle_gamma 90.000000
_cell_volume 1647.869653
_symmetry_space_group_name_H-M "P 21/M"
_symmetry_group_IT_number 11
_symmetry_cell_setting 'monoclinic'
loop_
_space_group_symop_operation_xyz
x,y,z
-x,1/2+y,-z
-x,-y,-z
x,1/2-y,z
loop_
_atom_site_type_symbol
_atom_site_label
_atom_site_fract_x
_atom_site_fract_y
_atom_site_fract_z
Si Si1 0.587769 0.420786 0.064310
Si Si2 0.004660 0.924751 0.704368
Si Si3 0.627044 0.078476 0.715357
Si Si4 0.052323 0.423016 0.090756
Si Si5 0.259251 0.583682 0.090841
Si Si6 0.782378 0.423386 0.379034
Si Si7 0.597324 0.572785 0.265096
Si Si8 0.188624 0.575487 0.400290
O O1 0.555807 0.250000 0.081020
O O2 0.611840 0.502511 0.162921
O O3 0.500000 0.500000 0.000000
O O4 0.693398 0.429508 0.010853
O O5 0.987269 0.750000 0.692158
O O6 0.000380 0.974416 0.813909
O O7 0.115310 0.973761 0.670786
O O8 0.916486 0.003114 0.639663
O O9 0.625703 0.250000 0.688412
O O10 0.653031 0.051095 0.826939
O O11 0.511267 0.016174 0.694987
O O12 0.713593 0.005036 0.651702
O O13 0.038968 0.250000 0.075163
O O14 0.171824 0.462625 0.100511
O O15 0.000000 0.500000 0.000000
O O16 0.213873 0.750000 0.104004
O O17 0.758847 0.250000 0.360704
O O18 0.687498 0.520092 0.338127
O O19 0.796845 0.461242 0.489411
O O20 0.598316 0.750000 0.254257
O O21 0.179070 0.750000 0.380207
#
# Coordination Sequence:
#
# PCOD8075343 Si02
#       8
#     4   4   4   4   4   4   4   4
#     4  11  22  37  59  85 116 154 193 235 286 345
#     4  10  22  40  60  85 121 153 188 243 300 346
#     4   9  18  36  60  87 118 151 191 242 293 341
#     4  11  24  39  57  86 120 156 195 239 292 351
#     4  10  20  38  60  82 116 155 190 240 296 344
#     4  10  23  41  59  86 120 156 194 241 299 350
#     4  11  23  40  59  86 121 158 198 242 293 349
#     4  10  20  38  66  89 111 150 200 243 290 355
#
# _framework density 19.419011999999999
#
# number of rings (size 3 to 8) (size 9 to 14) (size 15 to 20)
#    0.000    1.750    2.500    1.500    1.750    3.000 
#    0.000    1.250    0.000    0.000    0.000    0.000 
#    0.000    0.000    0.000    0.000    0.000    0.000 
#
# Total GULP energy -396836.043146 kJ/mol
# GULP energy per Si atom -12401.126348 kJ/mol
# Density = 1.937481 g / cm^3
# Si number density = 19.419012 Si / 1000 Ang^3
#
#
#
# Elastic Constant Matrix: (Units=GPa)
#
#
# Indices 1 2 3 4 5 6 
#
# 1 138.6988 35.4492 53.3779 0.0000 0.2700 0.0000
# 2 35.4492 55.9918 33.8129 0.0000 7.0836 0.0000
# 3 53.3779 33.8129 98.6947 0.0000 1.2714 0.0000
# 4 0.0000 0.0000 0.0000 29.5552 0.0000 6.6202
# 5 0.2700 7.0836 1.2714 0.0000 29.8082 0.0000
# 6 0.0000 0.0000 0.0000 6.6202 0.0000 34.8822
#
#
#
# Elastic Compliance Matrix: (Units=1/GPa)
#
#
# Indices 1 2 3 4 5 6 
#
# 1 0.009719 -0.003907 -0.003931 0.000000 0.001008 0.000000
# 2 -0.003907 0.024868 -0.006334 0.000000 -0.005604 0.000000
# 3 -0.003931 -0.006334 0.014417 0.000000 0.000926 0.000000
# 4 0.000000 0.000000 0.000000 0.035337 0.000000 -0.006707
# 5 0.001008 -0.005604 0.000926 0.000000 0.034831 0.000000
# 6 0.000000 0.000000 0.000000 -0.006707 0.000000 0.029941
#
#
# Mechanical properties :
#
#
# Convention : Reuss Voigt Hill
#
# Bulk Modulus (GPa) = 48.40613 59.85171 54.12892
# Shear Modulus (GPa) = 27.12329 30.23215 28.67772
#
# Velocity S-wave (km/s) = 3.74135 3.94995 3.84707
# Velocity P-wave (km/s) = 6.60643 7.18964 6.90420
#
# Compressibility (1/GPa) = 0.02065854
#
# Stress axis : x y z
#
# Youngs Moduli (GPa) = 102.88783 40.21295 69.36484
#
# Poissons Ratio (x) = 0.15711 0.27267
# Poissons Ratio (y) = 0.40199 0.43938
# Poissons Ratio (z) = 0.40445 0.25472
#
# Static dielectric constant tensor:
#      x y z
#    x 3.839720 0.000000 -0.201610 
#    y 0.000000 3.502460 0.000000 
#    z -0.201610 0.000000 3.758980 
# 
# 
# High freq. dielectric constant tensor:
#      x y z
#    x 1.766120 0.000000 -0.006940 
#    y 0.000000 1.742100 0.000000 
#    z -0.006940 0.000000 1.765410 
# 
# From -- ./inp_files/49340.got.cif
#   From: 2010.06.25/outbox.cif.g09.slc.cpg/sg11_25_cif.got.tgz:49340.got - 2010.06.27 23:14:04.
