data_PCOD8075153
_publ_section_title
;
Structure prediction by ZEFSAII (Michael W. Deem and Ramdas Pophale) SiO2 
 PCOD8075153
Probable space group: P 21/M
;
_chemical_formula_sum "Si O2"
_cell_formula_units_Z 32
_cell_length_a 22.395720
_cell_length_b 9.024144
_cell_length_c 15.035243
_cell_angle_alpha 90.000000
_cell_angle_beta 148.489309
_cell_angle_gamma 90.000000
_cell_volume 1588.176666
_symmetry_space_group_name_H-M "P 21/M"
_symmetry_group_IT_number 11
_symmetry_cell_setting 'monoclinic'
loop_
_space_group_symop_operation_xyz
x,y,z
-x,1/2+y,-z
-x,-y,-z
x,1/2-y,z
loop_
_atom_site_type_symbol
_atom_site_label
_atom_site_fract_x
_atom_site_fract_y
_atom_site_fract_z
Si Si1 0.496548 0.079233 0.731302
Si Si2 0.284963 0.577172 0.384287
Si Si3 0.244672 0.921222 0.973489
Si Si4 0.916100 0.422900 0.744415
Si Si5 0.876928 0.925381 0.343303
Si Si6 0.804303 0.417304 0.422785
Si Si7 0.547869 0.080990 0.145580
Si Si8 0.147437 0.921806 0.037373
O O1 0.466622 0.250000 0.710082
O O2 0.402652 0.009673 0.547118
O O3 0.502215 0.997389 0.832194
O O4 0.619842 0.059619 0.843006
O O5 0.308126 0.750000 0.432360
O O6 0.188695 0.515494 0.329733
O O7 0.246174 0.546741 0.234311
O O8 0.213564 0.750000 0.914479
O O9 0.196768 0.021043 0.833489
O O10 0.189142 0.978882 0.994460
O O11 0.927671 0.250000 0.777689
O O12 0.897453 0.457204 0.616113
O O13 0.032909 0.497559 0.923375
O O14 0.890975 0.750000 0.356633
O O15 0.811642 0.969075 0.350833
O O16 0.000000 0.000000 0.500000
O O17 0.822967 0.250000 0.410214
O O18 0.684022 0.429685 0.319716
O O19 0.505670 0.250000 0.091355
O O20 0.500000 0.000000 0.000000
O O21 0.117944 0.750000 0.995843
#
# Coordination Sequence:
#
# PCOD8075153 Si02
#       8
#     4   4   4   4   4   4   4   4
#     4  11  23  39  61  88 122 161 204 251 301 359
#     4  10  21  40  62  88 122 159 198 248 310 365
#     4  10  23  43  61  86 123 161 203 255 304 354
#     4  10  20  37  60  88 122 155 193 245 308 366
#     4  12  25  40  61  89 120 160 205 249 298 359
#     4  10  21  38  59  84 118 157 193 242 301 354
#     4  11  22  38  59  86 120 155 196 244 298 356
#     4  10  22  39  62  88 117 157 203 251 305 362
#
# _framework density 20.148890999999999
#
# number of rings (size 3 to 8) (size 9 to 14) (size 15 to 20)
#    0.000    1.500    1.250    3.750    0.000    9.500 
#    0.000    0.000    0.000    0.000    0.000    0.000 
#    0.000    0.000    0.000    0.000    0.000    0.000 
#
# Total GULP energy -396963.364429 kJ/mol
# GULP energy per Si atom -12405.105138 kJ/mol
# Density = 2.010303 g / cm^3
# Si number density = 20.148891 Si / 1000 Ang^3
#
#
#
# Elastic Constant Matrix: (Units=GPa)
#
#
# Indices 1 2 3 4 5 6 
#
# 1 82.7689 35.1314 24.5253 0.0000 -2.6858 0.0000
# 2 35.1314 104.5451 50.2406 0.0000 -0.0284 0.0000
# 3 24.5253 50.2406 102.3865 0.0000 3.4614 0.0000
# 4 0.0000 0.0000 0.0000 36.1734 0.0000 4.2845
# 5 -2.6858 -0.0284 3.4614 0.0000 30.8269 0.0000
# 6 0.0000 0.0000 0.0000 4.2845 0.0000 23.1314
#
#
#
# Elastic Compliance Matrix: (Units=1/GPa)
#
#
# Indices 1 2 3 4 5 6 
#
# 1 0.014302 -0.004104 -0.001459 0.000000 0.001406 0.000000
# 2 -0.004104 0.013710 -0.005754 0.000000 0.000301 0.000000
# 3 -0.001459 -0.005754 0.012994 0.000000 -0.001591 0.000000
# 4 0.000000 0.000000 0.000000 0.028265 0.000000 -0.005235
# 5 0.001406 0.000301 -0.001591 0.000000 0.032741 0.000000
# 6 0.000000 0.000000 0.000000 -0.005235 0.000000 0.044201
#
#
# Mechanical properties :
#
#
# Convention : Reuss Voigt Hill
#
# Bulk Modulus (GPa) = 54.43800 56.61059 55.52429
# Shear Modulus (GPa) = 28.57605 30.01324 29.29464
#
# Velocity S-wave (km/s) = 3.77004 3.86369 3.81715
# Velocity P-wave (km/s) = 6.78436 6.93262 6.85889
#
# Compressibility (1/GPa) = 0.01836952
#
# Stress axis : x y z
#
# Youngs Moduli (GPa) = 69.92036 72.93983 76.95872
#
# Poissons Ratio (x) = 0.29937 0.11231
# Poissons Ratio (y) = 0.28698 0.44285
# Poissons Ratio (z) = 0.10204 0.41973
#
# Static dielectric constant tensor:
#      x y z
#    x 3.679530 0.000000 0.057960 
#    y 0.000000 3.878160 0.000000 
#    z 0.057960 0.000000 3.747660 
# 
# 
# High freq. dielectric constant tensor:
#      x y z
#    x 1.791040 0.000000 -0.001690 
#    y 0.000000 1.781670 0.000000 
#    z -0.001690 0.000000 1.798430 
# 
# From -- ./inp_files/55705.got.cif
#   From: 2010.06.25/outbox.cif.g09.slc.cpg/sg11_28_cif.got.tgz:55705.got - 2010.06.27 23:14:04.
