data_PCOD8075222
_publ_section_title
;
Structure prediction by ZEFSAII (Michael W. Deem and Ramdas Pophale) SiO2 
 PCOD8075222
Probable space group: P 21/M
;
_chemical_formula_sum "Si O2"
_cell_formula_units_Z 24
_cell_length_a 17.138262
_cell_length_b 9.161850
_cell_length_c 13.808363
_cell_angle_alpha 90.000000
_cell_angle_beta 143.727956
_cell_angle_gamma 90.000000
_cell_volume 1282.728980
_symmetry_space_group_name_H-M "P 21/M"
_symmetry_group_IT_number 11
_symmetry_cell_setting 'monoclinic'
loop_
_space_group_symop_operation_xyz
x,y,z
-x,1/2+y,-z
-x,-y,-z
x,1/2-y,z
loop_
_atom_site_type_symbol
_atom_site_label
_atom_site_fract_x
_atom_site_fract_y
_atom_site_fract_z
Si Si1 0.874764 0.920387 0.918147
Si Si2 0.119582 0.575940 0.673404
Si Si3 0.616345 0.413709 0.163223
Si Si4 0.391376 0.421471 0.454055
Si Si5 0.785646 0.578255 0.043471
Si Si6 0.480872 0.915376 0.723834
O O1 0.902435 0.750000 0.939757
O O2 0.750993 0.965586 0.728683
O O3 0.846392 0.966066 0.000573
O O4 0.000000 0.000000 0.000000
O O5 0.099501 0.750000 0.657309
O O6 0.244429 0.526546 0.734264
O O7 0.135366 0.513860 0.797618
O O8 0.000000 0.500000 0.500000
O O9 0.598953 0.250000 0.108959
O O10 0.607865 0.424757 0.269802
O O11 0.500000 0.500000 0.000000
O O12 0.500000 0.500000 0.500000
O O13 0.414717 0.250000 0.471510
O O14 0.405480 0.476075 0.577310
O O15 0.802525 0.750000 0.081552
O O16 0.631325 0.534103 0.892527
O O17 0.483304 0.750000 0.684579
#
# Coordination Sequence:
#
# PCOD8075222 Si02
#       6
#     4   4   4   4   4   4
#     4  10  23  41  60  87 121 157 199 245 296 354
#     4  11  24  40  60  90 123 158 201 242 293 357
#     4  10  21  37  60  88 117 151 197 244 292 350
#     4  11  22  38  60  89 120 153 199 246 292 351
#     4  10  20  39  63  85 118 159 197 243 300 354
#     4  10  20  37  61  89 121 156 195 246 301 347
#
# _framework density 18.71011
#
# number of rings (size 3 to 8) (size 9 to 14) (size 15 to 20)
#    0.000    1.667    3.333    1.000    0.000    5.333 
#    0.000    5.000    0.000    0.000    0.000    0.000 
#    0.000    0.000    0.000    0.000    0.000    0.000 
#
# Total GULP energy -297651.733482 kJ/mol
# GULP energy per Si atom -12402.155562 kJ/mol
# Density = 1.866753 g / cm^3
# Si number density = 18.710110 Si / 1000 Ang^3
#
#
#
# Elastic Constant Matrix: (Units=GPa)
#
#
# Indices 1 2 3 4 5 6 
#
# 1 118.8838 48.7893 73.0426 0.0000 7.0429 0.0000
# 2 48.7893 77.9234 77.6185 0.0000 1.0464 0.0000
# 3 73.0426 77.6185 165.8321 0.0000 -1.5621 0.0000
# 4 0.0000 0.0000 0.0000 39.1406 0.0000 -3.4521
# 5 7.0429 1.0464 -1.5621 0.0000 33.6332 0.0000
# 6 0.0000 0.0000 0.0000 -3.4521 0.0000 33.6683
#
#
#
# Elastic Compliance Matrix: (Units=1/GPa)
#
#
# Indices 1 2 3 4 5 6 
#
# 1 0.012488 -0.004271 -0.003526 0.000000 -0.002646 0.000000
# 2 -0.004271 0.025557 -0.010085 0.000000 -0.000369 0.000000
# 3 -0.003526 -0.010085 0.012319 0.000000 0.001624 0.000000
# 4 0.000000 0.000000 0.000000 0.025782 0.000000 0.002644
# 5 -0.002646 -0.000369 0.001624 0.000000 0.030374 0.000000
# 6 0.000000 0.000000 0.000000 0.002644 0.000000 0.029973
#
#
# Mechanical properties :
#
#
# Convention : Reuss Voigt Hill
#
# Bulk Modulus (GPa) = 68.49103 84.61558 76.55331
# Shear Modulus (GPa) = 28.22923 32.16767 30.19845
#
# Velocity S-wave (km/s) = 3.88850 4.15090 4.02184
# Velocity P-wave (km/s) = 7.53966 8.26414 7.91020
#
# Compressibility (1/GPa) = 0.01460045
#
# Stress axis : x y z
#
# Youngs Moduli (GPa) = 80.07977 39.12814 81.17672
#
# Poissons Ratio (x) = 0.16710 0.28625
# Poissons Ratio (y) = 0.34199 0.81863
# Poissons Ratio (z) = 0.28239 0.39459
#
# Static dielectric constant tensor:
#      x y z
#    x -65.154340 0.000000 21.767370 
#    y 0.000000 3.350170 0.000000 
#    z 21.767370 0.000000 -3.453630 
# 
# 
# High freq. dielectric constant tensor:
#      x y z
#    x 1.738650 0.000000 -0.003730 
#    y 0.000000 1.726940 0.000000 
#    z -0.003730 0.000000 1.728910 
# 
# From -- ./inp_files/53153.got.cif
#   From: 2010.06.25/outbox.cif.g09.slc.cpg/sg11_27_cif.got.tgz:53153.got - 2010.06.27 23:14:04.
