data_PCOD8075926
_publ_section_title
;
Structure prediction by ZEFSAII (Michael W. Deem and Ramdas Pophale) SiO2 
 PCOD8075926
Probable space group: P 21/M
;
_chemical_formula_sum "Si O2"
_cell_formula_units_Z 28
_cell_length_a 9.386535
_cell_length_b 15.032647
_cell_length_c 10.836581
_cell_angle_alpha 90.000000
_cell_angle_beta 63.987071
_cell_angle_gamma 90.000000
_cell_volume 1374.185685
_symmetry_space_group_name_H-M "P 21/M"
_symmetry_group_IT_number 11
_symmetry_cell_setting 'monoclinic'
loop_
_space_group_symop_operation_xyz
x,y,z
-x,1/2+y,-z
-x,-y,-z
x,1/2-y,z
loop_
_atom_site_type_symbol
_atom_site_label
_atom_site_fract_x
_atom_site_fract_y
_atom_site_fract_z
Si Si1 0.681361 0.969812 0.166469
Si Si2 0.852417 0.556775 0.602251
Si Si3 0.945367 0.650909 0.971887
Si Si4 0.388117 0.951836 0.142182
Si Si5 0.313894 0.010168 0.562867
Si Si6 0.093556 0.848830 0.654554
Si Si7 0.743026 0.350282 0.019966
O O1 0.507924 0.925129 0.208305
O O2 0.739273 0.952899 0.283926
O O3 0.667168 0.075296 0.139922
O O4 0.809076 0.922742 0.029940
O O5 0.752804 0.511063 0.749501
O O6 0.739071 0.577616 0.526948
O O7 0.000000 0.500000 0.500000
O O8 0.933724 0.643474 0.631739
O O9 0.869756 0.750000 0.994765
O O10 0.049500 0.630797 0.812173
O O11 0.065937 0.643591 0.041669
O O12 0.307018 0.868430 0.103293
O O13 0.500000 0.000000 0.000000
O O14 0.232870 0.915681 0.561649
O O15 0.500000 0.000000 0.500000
O O16 0.161696 0.750000 0.612812
O O17 0.686244 0.250000 0.078601
#
# Coordination Sequence:
#
# PCOD8075926 Si02
#       7
#     4   4   4   4   4   4   4
#     4  11  21  37  64  88 126 161 199 251 321 364
#     4  10  22  39  61  88 119 162 207 241 303 378
#     4  10  21  37  62  95 121 156 208 259 313 369
#     4  10  21  37  59  89 119 155 203 249 313 360
#     4  11  22  39  64  88 121 165 212 247 304 380
#     4  10  21  40  64  90 121 158 206 261 311 367
#     4  10  21  36  60  92 121 156 207 258 307 370
#
# _framework density 20.375702
#
# number of rings (size 3 to 8) (size 9 to 14) (size 15 to 20)
#    0.000    1.714    2.857    2.143    4.000    0.571 
#    0.000    9.286    0.000    0.000    0.000    0.000 
#    0.000    0.000    0.000    0.000    0.000    0.000 
#
# Total GULP energy -346944.923401 kJ/mol
# GULP energy per Si atom -12390.890121 kJ/mol
# Density = 2.032933 g / cm^3
# Si number density = 20.375702 Si / 1000 Ang^3
#
#
#
# Elastic Constant Matrix: (Units=GPa)
#
#
# Indices 1 2 3 4 5 6 
#
# 1 140.2896 44.2617 32.2261 0.0000 16.0102 0.0000
# 2 44.2617 82.0116 31.6707 0.0000 3.7188 0.0000
# 3 32.2261 31.6707 79.0806 0.0000 2.7915 0.0000
# 4 0.0000 0.0000 0.0000 13.8342 0.0000 2.9083
# 5 16.0102 3.7188 2.7915 0.0000 45.0293 0.0000
# 6 0.0000 0.0000 0.0000 2.9083 0.0000 22.0821
#
#
#
# Elastic Compliance Matrix: (Units=1/GPa)
#
#
# Indices 1 2 3 4 5 6 
#
# 1 0.009192 -0.004052 -0.002024 0.000000 -0.002808 0.000000
# 2 -0.004052 0.016242 -0.004868 0.000000 0.000401 0.000000
# 3 -0.002024 -0.004868 0.015414 0.000000 0.000166 0.000000
# 4 0.000000 0.000000 0.000000 0.074343 0.000000 -0.009791
# 5 -0.002808 0.000401 0.000166 0.000000 0.023163 0.000000
# 6 0.000000 0.000000 0.000000 -0.009791 0.000000 0.046575
#
#
# Mechanical properties :
#
#
# Convention : Reuss Voigt Hill
#
# Bulk Modulus (GPa) = 52.74139 57.52209 55.13174
# Shear Modulus (GPa) = 23.45928 29.07067 26.26498
#
# Velocity S-wave (km/s) = 3.39682 3.78131 3.59421
# Velocity P-wave (km/s) = 6.42846 6.88160 6.65889
#
# Compressibility (1/GPa) = 0.01896044
#
# Stress axis : x y z
#
# Youngs Moduli (GPa) = 108.79151 61.56959 64.87776
#
# Poissons Ratio (x) = 0.24948 0.13131
# Poissons Ratio (y) = 0.44082 0.31580
# Poissons Ratio (z) = 0.22018 0.29969
#
# Static dielectric constant tensor:
#      x y z
#    x 4.496520 0.000000 0.572860 
#    y 0.000000 3.542960 0.000000 
#    z 0.572860 0.000000 3.898550 
# 
# 
# High freq. dielectric constant tensor:
#      x y z
#    x 1.820810 0.000000 0.016740 
#    y 0.000000 1.758440 0.000000 
#    z 0.016740 0.000000 1.787290 
# 
# From -- ./inp_files/31654.got.cif
#   From: 2010.06.25/outbox.cif.g09.slc.cpg/sg11_16_cif.got.tgz:31654.got - 2010.06.27 23:14:04.
