data_PCOD8075882
_publ_section_title
;
Structure prediction by ZEFSAII (Michael W. Deem and Ramdas Pophale) SiO2 
 PCOD8075882
Probable space group: P 21/M
;
_chemical_formula_sum "Si O2"
_cell_formula_units_Z 32
_cell_length_a 9.605325
_cell_length_b 13.369877
_cell_length_c 13.277141
_cell_angle_alpha 90.000000
_cell_angle_beta 93.355749
_cell_angle_gamma 90.000000
_cell_volume 1702.153547
_symmetry_space_group_name_H-M "P 21/M"
_symmetry_group_IT_number 11
_symmetry_cell_setting 'monoclinic'
loop_
_space_group_symop_operation_xyz
x,y,z
-x,1/2+y,-z
-x,-y,-z
x,1/2-y,z
loop_
_atom_site_type_symbol
_atom_site_label
_atom_site_fract_x
_atom_site_fract_y
_atom_site_fract_z
Si Si1 0.985979 0.136511 0.710614
Si Si2 0.388321 0.522467 0.136851
Si Si3 0.064163 0.002619 0.113554
Si Si4 0.776528 0.506765 0.365571
Si Si5 0.579036 0.137216 0.061441
Si Si6 0.499108 0.134650 0.669396
Si Si7 0.154168 0.637533 0.805231
Si Si8 0.749235 0.138803 0.545772
O O1 0.038074 0.250000 0.721198
O O2 0.978884 0.095774 0.824744
O O3 0.835950 0.127200 0.652456
O O4 0.090339 0.076807 0.642796
O O5 0.229864 0.485693 0.116859
O O6 0.485317 0.424561 0.136269
O O7 0.411102 0.580392 0.241024
O O8 0.437384 0.597182 0.051648
O O9 0.997408 0.096573 0.169834
O O10 0.000000 0.000000 0.000000
O O11 0.643025 0.577159 0.356620
O O12 0.770158 0.424629 0.278391
O O13 0.789465 0.448805 0.471287
O O14 0.523196 0.250000 0.063366
O O15 0.742612 0.131750 0.095193
O O16 0.469264 0.250000 0.698424
O O17 0.587484 0.129543 0.570065
O O18 0.133148 0.750000 0.765584
O O19 0.776811 0.250000 0.500426
#
# Coordination Sequence:
#
# PCOD8075882 Si02
#       8
#     4   4   4   4   4   4   4   4
#     4  10  22  38  60  88 117 154 197 243 291 346
#     4  11  21  38  59  83 119 151 195 245 291 350
#     4  11  22  37  59  86 116 150 192 238 291 347
#     4  11  21  38  59  86 117 155 193 248 290 343
#     4  10  21  36  58  83 113 155 194 232 290 353
#     4  11  22  37  59  89 118 151 196 243 294 348
#     4  10  21  37  56  81 112 151 193 233 289 350
#     4  10  21  38  61  87 114 153 199 240 296 353
#
# _framework density 18.799714999999999
#
# number of rings (size 3 to 8) (size 9 to 14) (size 15 to 20)
#    0.000    1.500    3.750    1.875    0.000    1.500 
#    0.000    1.250    0.000    1.500    0.000    0.000 
#    0.000    0.000    0.000    0.000    0.000    0.000 
#
# Total GULP energy -396822.556888 kJ/mol
# GULP energy per Si atom -12400.704903 kJ/mol
# Density = 1.875693 g / cm^3
# Si number density = 18.799715 Si / 1000 Ang^3
#
#
#
# Elastic Constant Matrix: (Units=GPa)
#
#
# Indices 1 2 3 4 5 6 
#
# 1 101.4331 54.2269 22.3172 0.0000 -7.7541 0.0000
# 2 54.2269 150.3877 43.4713 0.0000 -9.4435 0.0000
# 3 22.3172 43.4713 79.2847 0.0000 -6.3474 0.0000
# 4 0.0000 0.0000 0.0000 25.9415 0.0000 2.6778
# 5 -7.7541 -9.4435 -6.3474 0.0000 26.2552 0.0000
# 6 0.0000 0.0000 0.0000 2.6778 0.0000 25.9923
#
#
#
# Elastic Compliance Matrix: (Units=1/GPa)
#
#
# Indices 1 2 3 4 5 6 
#
# 1 0.012408 -0.004025 -0.001130 0.000000 0.001943 0.000000
# 2 -0.004025 0.009295 -0.003866 0.000000 0.001220 0.000000
# 3 -0.001130 -0.003866 0.015207 0.000000 0.001952 0.000000
# 4 0.000000 0.000000 0.000000 0.038963 0.000000 -0.004014
# 5 0.001943 0.001220 0.001952 0.000000 0.039572 0.000000
# 6 0.000000 0.000000 0.000000 -0.004014 0.000000 0.038887
#
#
# Mechanical properties :
#
#
# Convention : Reuss Voigt Hill
#
# Bulk Modulus (GPa) = 53.00095 63.45958 58.23027
# Shear Modulus (GPa) = 27.98581 29.71048 28.84814
#
# Velocity S-wave (km/s) = 3.86246 3.97970 3.92152
# Velocity P-wave (km/s) = 6.93867 7.41257 7.17953
#
# Compressibility (1/GPa) = 0.01886758
#
# Stress axis : x y z
#
# Youngs Moduli (GPa) = 80.59384 107.58522 65.76092
#
# Poissons Ratio (x) = 0.43307 0.07430
# Poissons Ratio (y) = 0.32442 0.25421
# Poissons Ratio (z) = 0.09106 0.41588
#
# Static dielectric constant tensor:
#      x y z
#    x 3.438130 0.000000 -0.054320 
#    y 0.000000 3.559880 0.000000 
#    z -0.054320 0.000000 3.310930 
# 
# 
# High freq. dielectric constant tensor:
#      x y z
#    x 1.734770 0.000000 -0.006270 
#    y 0.000000 1.738480 0.000000 
#    z -0.006270 0.000000 1.723890 
# 
# From -- ./inp_files/21548.got.cif
#   From: 2010.06.25/outbox.cif.g09.slc.cpg/sg11_11_cif.got.tgz:21548.got - 2010.06.27 23:14:04.
