data_PCOD8075272
_publ_section_title
;
Structure prediction by ZEFSAII (Michael W. Deem and Ramdas Pophale) SiO2 
 PCOD8075272
Probable space group: P 21/M
;
_chemical_formula_sum "Si O2"
_cell_formula_units_Z 20
_cell_length_a 9.261351
_cell_length_b 10.362141
_cell_length_c 11.559632
_cell_angle_alpha 90.000000
_cell_angle_beta 55.765413
_cell_angle_gamma 90.000000
_cell_volume 917.143702
_symmetry_space_group_name_H-M "P 21/M"
_symmetry_group_IT_number 11
_symmetry_cell_setting 'monoclinic'
loop_
_space_group_symop_operation_xyz
x,y,z
-x,1/2+y,-z
-x,-y,-z
x,1/2-y,z
loop_
_atom_site_type_symbol
_atom_site_label
_atom_site_fract_x
_atom_site_fract_y
_atom_site_fract_z
Si Si1 0.037846 0.514149 0.619229
Si Si2 0.889888 0.750000 0.456099
Si Si3 0.783186 0.250000 0.519331
Si Si4 0.509730 0.750000 0.647089
Si Si5 0.888468 0.600344 0.900706
Si Si6 0.734783 0.015165 0.185277
Si Si7 0.409035 0.250000 0.660062
O O1 0.871325 0.555367 0.773307
O O2 0.000000 0.500000 0.500000
O O3 0.108224 0.374655 0.628999
O O4 0.188639 0.621524 0.570947
O O5 0.707905 0.750000 0.610133
O O6 0.062954 0.750000 0.455752
O O7 0.587552 0.250000 0.657842
O O8 0.417979 0.619925 0.733503
O O9 0.523941 0.750000 0.502031
O O10 0.839964 0.750000 0.937072
O O11 0.089540 0.575348 0.842797
O O12 0.759864 0.515305 0.037421
O O13 0.696853 0.879661 0.265550
#
# Coordination Sequence:
#
# PCOD8075272 Si02
#       7
#     4   2   2   2   4   4   2
#     4  10  20  37  65  91 114 166 220 257 304 376
#     4  10  22  37  59  95 127 161 207 268 315 371
#     4  10  20  37  63  87 127 169 207 254 321 379
#     4  12  22  38  59  93 136 160 211 280 316 363
#     4  11  21  41  64  89 136 170 208 260 329 393
#     4  11  24  37  62  97 127 174 208 259 331 385
#     4  12  22  38  63  97 132 162 215 266 320 383
#
# _framework density 21.806833999999998
#
# number of rings (size 3 to 8) (size 9 to 14) (size 15 to 20)
#    0.000    1.200    3.000    4.200    0.000    0.800 
#    0.000    0.000    0.000   28.800    0.000    0.000 
#    0.000    0.000    0.000    0.000    0.000    0.000 
#
# Total GULP energy -247764.122758 kJ/mol
# GULP energy per Si atom -12388.206138 kJ/mol
# Density = 2.175720 g / cm^3
# Si number density = 21.806834 Si / 1000 Ang^3
#
#
#
# Elastic Constant Matrix: (Units=GPa)
#
#
# Indices 1 2 3 4 5 6 
#
# 1 64.4106 -2.7147 28.3609 0.0000 -0.5927 0.0000
# 2 -2.7147 178.7409 34.6486 0.0000 3.2248 0.0000
# 3 28.3609 34.6486 135.2655 0.0000 20.0962 0.0000
# 4 0.0000 0.0000 0.0000 51.8027 0.0000 -6.7055
# 5 -0.5927 3.2248 20.0962 0.0000 31.8644 0.0000
# 6 0.0000 0.0000 0.0000 -6.7055 0.0000 9.6429
#
#
#
# Elastic Compliance Matrix: (Units=1/GPa)
#
#
# Indices 1 2 3 4 5 6 
#
# 1 0.017532 0.001064 -0.004392 0.000000 0.002989 0.000000
# 2 0.001064 0.005956 -0.001834 0.000000 0.000574 0.000000
# 3 -0.004392 -0.001834 0.009675 0.000000 -0.005998 0.000000
# 4 0.000000 0.000000 0.000000 0.021213 0.000000 0.014751
# 5 0.002989 0.000574 -0.005998 0.000000 0.035163 0.000000
# 6 0.000000 0.000000 0.000000 0.014751 0.000000 0.113961
#
#
# Mechanical properties :
#
#
# Convention : Reuss Voigt Hill
#
# Bulk Modulus (GPa) = 43.78772 55.44517 49.61644
# Shear Modulus (GPa) = 22.57976 39.87015 31.22495
#
# Velocity S-wave (km/s) = 3.22132 4.28054 3.78814
# Velocity P-wave (km/s) = 5.82746 7.06481 6.47575
#
# Compressibility (1/GPa) = 0.02283745
#
# Stress axis : x y z
#
# Youngs Moduli (GPa) = 57.03934 167.89792 103.36304
#
# Poissons Ratio (x) = -0.17861 0.45401
# Poissons Ratio (y) = -0.06068 0.18956
# Poissons Ratio (z) = 0.25054 0.30791
#
# Static dielectric constant tensor:
#      x y z
#    x 3.674900 0.000000 -0.012950 
#    y 0.000000 14.026410 0.000000 
#    z -0.012950 0.000000 4.263080 
# 
# 
# High freq. dielectric constant tensor:
#      x y z
#    x 1.821310 0.000000 0.002540 
#    y 0.000000 1.895120 0.000000 
#    z 0.002540 0.000000 1.855440 
# 
# From -- ./inp_files/31081.got.cif
#   From: 2010.06.25/outbox.cif.g09.slc.cpg/sg11_16_cif.got.tgz:31081.got - 2010.06.27 23:14:04.
