data_PCOD8075142
_publ_section_title
;
Structure prediction by ZEFSAII (Michael W. Deem and Ramdas Pophale) SiO2 
 PCOD8075142
Probable space group: P 21/M
;
_chemical_formula_sum "Si O2"
_cell_formula_units_Z 28
_cell_length_a 20.163499
_cell_length_b 8.914159
_cell_length_c 7.913924
_cell_angle_alpha 90.000000
_cell_angle_beta 79.487264
_cell_angle_gamma 90.000000
_cell_volume 1398.576959
_symmetry_space_group_name_H-M "P 21/M"
_symmetry_group_IT_number 11
_symmetry_cell_setting 'monoclinic'
loop_
_space_group_symop_operation_xyz
x,y,z
-x,1/2+y,-z
-x,-y,-z
x,1/2-y,z
loop_
_atom_site_type_symbol
_atom_site_label
_atom_site_fract_x
_atom_site_fract_y
_atom_site_fract_z
Si Si1 0.837350 0.573759 0.258844
Si Si2 0.302747 0.915202 0.049786
Si Si3 0.294330 0.587504 0.665997
Si Si4 0.831161 0.927048 0.874906
Si Si5 0.567853 0.571763 0.899942
Si Si6 0.433743 0.927904 0.454709
Si Si7 0.927571 0.572598 0.524795
O O1 0.836756 0.750000 0.264641
O O2 0.764698 0.522807 0.366530
O O3 0.851666 0.520588 0.057601
O O4 0.892448 0.512965 0.367638
O O5 0.315466 0.750000 0.128331
O O6 0.284275 0.889880 0.866771
O O7 0.237875 0.996701 0.160758
O O8 0.368215 0.021251 0.020796
O O9 0.285853 0.750000 0.579375
O O10 0.369544 0.526859 0.597654
O O11 0.818722 0.750000 0.879326
O O12 0.887895 0.975519 0.713780
O O13 0.560174 0.750000 0.902808
O O14 0.582786 0.505981 0.711584
O O15 0.500000 0.500000 0.000000
O O16 0.444524 0.750000 0.432990
O O17 0.500000 0.000000 0.500000
O O18 0.935006 0.750000 0.514999
O O19 0.000000 0.500000 0.500000
#
# Coordination Sequence:
#
# PCOD8075142 Si02
#       7
#     4   4   4   4   4   4   4
#     4   9  19  36  58  83 114 152 193 238 291 351
#     4  10  20  37  60  87 116 148 190 241 295 356
#     4   9  20  37  58  84 114 146 187 238 291 349
#     4   9  19  37  58  83 117 154 194 241 293 352
#     4  12  25  40  58  82 114 154 198 247 300 356
#     4  11  23  39  58  84 116 154 197 244 298 356
#     4  10  22  38  57  85 117 152 195 243 295 357
#
# _framework density 20.020349
#
# number of rings (size 3 to 8) (size 9 to 14) (size 15 to 20)
#    0.000    2.000    0.000    3.000    2.000    4.571 
#    0.000    0.000    0.000    0.000    0.000    0.000 
#    0.000    0.000    0.000    0.000    0.000    0.000 
#
# Total GULP energy -347026.846203 kJ/mol
# GULP energy per Si atom -12393.815936 kJ/mol
# Density = 1.997478 g / cm^3
# Si number density = 20.020349 Si / 1000 Ang^3
#
#
#
# Elastic Constant Matrix: (Units=GPa)
#
#
# Indices 1 2 3 4 5 6 
#
# 1 167.3908 52.3370 58.1685 0.0000 -14.8649 0.0000
# 2 52.3370 82.6242 37.5925 0.0000 -6.1333 0.0000
# 3 58.1685 37.5925 90.4830 0.0000 -12.5846 0.0000
# 4 0.0000 0.0000 0.0000 22.3350 0.0000 -2.4752
# 5 -14.8649 -6.1333 -12.5846 0.0000 37.1516 0.0000
# 6 0.0000 0.0000 0.0000 -2.4752 0.0000 40.6915
#
#
#
# Elastic Compliance Matrix: (Units=1/GPa)
#
#
# Indices 1 2 3 4 5 6 
#
# 1 0.008547 -0.003572 -0.003796 0.000000 0.001544 0.000000
# 2 -0.003572 0.016422 -0.004563 0.000000 -0.000264 0.000000
# 3 -0.003796 -0.004563 0.015817 0.000000 0.003086 0.000000
# 4 0.000000 0.000000 0.000000 0.045077 0.000000 0.002742
# 5 0.001544 -0.000264 0.003086 0.000000 0.028536 0.000000
# 6 0.000000 0.000000 0.000000 0.002742 0.000000 0.024742
#
#
# Mechanical properties :
#
#
# Convention : Reuss Voigt Hill
#
# Bulk Modulus (GPa) = 59.08719 70.74376 64.91547
# Shear Modulus (GPa) = 29.64807 32.86230 31.25519
#
# Velocity S-wave (km/s) = 3.85242 4.05587 3.95545
# Velocity P-wave (km/s) = 7.02608 7.57272 7.30452
#
# Compressibility (1/GPa) = 0.01692414
#
# Stress axis : x y z
#
# Youngs Moduli (GPa) = 116.99793 60.89236 63.22370
#
# Poissons Ratio (x) = 0.21754 0.23998
# Poissons Ratio (y) = 0.41797 0.28849
# Poissons Ratio (z) = 0.44408 0.27785
#
# Static dielectric constant tensor:
#      x y z
#    x 3.664350 0.000000 0.082490 
#    y 0.000000 4.273860 0.000000 
#    z 0.082490 0.000000 3.867500 
# 
# 
# High freq. dielectric constant tensor:
#      x y z
#    x 1.783800 0.000000 -0.001320 
#    y 0.000000 1.779650 0.000000 
#    z -0.001320 0.000000 1.784490 
# 
# From -- ./inp_files/23974.got.cif
#   From: 2010.06.25/outbox.cif.g09.slc.cpg/sg11_12_cif.got.tgz:23974.got - 2010.06.27 23:14:04.
