data_PCOD8075621
_publ_section_title
;
Structure prediction by ZEFSAII (Michael W. Deem and Ramdas Pophale) SiO2 
 PCOD8075621
Probable space group: P 21/M
;
_chemical_formula_sum "Si O2"
_cell_formula_units_Z 20
_cell_length_a 10.024002
_cell_length_b 14.431134
_cell_length_c 11.449008
_cell_angle_alpha 90.000000
_cell_angle_beta 36.466990
_cell_angle_gamma 90.000000
_cell_volume 984.370783
_symmetry_space_group_name_H-M "P 21/M"
_symmetry_group_IT_number 11
_symmetry_cell_setting 'monoclinic'
loop_
_space_group_symop_operation_xyz
x,y,z
-x,1/2+y,-z
-x,-y,-z
x,1/2-y,z
loop_
_atom_site_type_symbol
_atom_site_label
_atom_site_fract_x
_atom_site_fract_y
_atom_site_fract_z
Si Si1 0.655945 0.075137 0.508614
Si Si2 0.266652 0.750000 0.162138
Si Si3 0.960360 0.250000 0.920049
Si Si4 0.825002 0.250000 0.276341
Si Si5 0.836202 0.948064 0.203852
Si Si6 0.931716 0.394824 0.529180
Si Si7 0.797362 0.750000 0.797898
O O1 0.674295 0.162369 0.411227
O O2 0.403319 0.039263 0.689581
O O3 0.717729 0.105118 0.595202
O O4 0.826676 0.997237 0.337523
O O5 0.148971 0.841973 0.297712
O O6 0.224842 0.750000 0.052684
O O7 0.531096 0.750000 0.005812
O O8 0.111409 0.341507 0.807482
O O9 0.839988 0.250000 0.127784
O O10 0.066744 0.250000 0.174035
O O11 0.000000 0.000000 0.000000
O O12 0.000000 0.500000 0.500000
O O13 0.136989 0.341082 0.322613
#
# Coordination Sequence:
#
# PCOD8075621 Si02
#       7
#     4   2   2   2   4   4   2
#     4  10  22  40  63  92 121 163 210 249 308 371
#     4  11  25  41  61  94 126 162 206 262 314 363
#     4  12  24  39  62  91 127 159 204 262 313 355
#     4  10  20  41  64  89 121 163 204 254 307 367
#     4  11  23  39  61  96 125 159 205 259 305 368
#     4  10  22  42  64  88 125 168 205 256 313 375
#     4   9  23  41  63  92 120 158 220 248 304 385
#
# _framework density 20.317547999999999
#
# number of rings (size 3 to 8) (size 9 to 14) (size 15 to 20)
#    0.000    1.600    2.000    2.400    2.800    2.400 
#    7.200    0.000    0.000    0.000    0.000    0.000 
#    0.000    0.000    0.000    0.000    0.000    0.000 
#
# Total GULP energy -247965.860007 kJ/mol
# GULP energy per Si atom -12398.293000 kJ/mol
# Density = 2.027130 g / cm^3
# Si number density = 20.317548 Si / 1000 Ang^3
#
#
#
# Elastic Constant Matrix: (Units=GPa)
#
#
# Indices 1 2 3 4 5 6 
#
# 1 92.2076 27.7569 56.7140 0.0000 15.4382 0.0000
# 2 27.7569 166.9325 54.7383 0.0000 3.7086 0.0000
# 3 56.7140 54.7383 117.1858 0.0000 -3.5063 0.0000
# 4 0.0000 0.0000 0.0000 30.2260 0.0000 2.0015
# 5 15.4382 3.7086 -3.5063 0.0000 34.4860 0.0000
# 6 0.0000 0.0000 0.0000 2.0015 0.0000 35.8632
#
#
#
# Elastic Compliance Matrix: (Units=1/GPa)
#
#
# Indices 1 2 3 4 5 6 
#
# 1 0.017792 0.000177 -0.008959 0.000000 -0.008895 0.000000
# 2 0.000177 0.007118 -0.003446 0.000000 -0.001195 0.000000
# 3 -0.008959 -0.003446 0.014655 0.000000 0.005871 0.000000
# 4 0.000000 0.000000 0.000000 0.033207 0.000000 -0.001853
# 5 -0.008895 -0.001195 0.005871 0.000000 0.033705 0.000000
# 6 0.000000 0.000000 0.000000 -0.001853 0.000000 0.027987
#
#
# Mechanical properties :
#
#
# Convention : Reuss Voigt Hill
#
# Bulk Modulus (GPa) = 66.19345 72.74936 69.47141
# Shear Modulus (GPa) = 30.49609 35.92282 33.20945
#
# Velocity S-wave (km/s) = 3.87844 4.20940 4.04731
# Velocity P-wave (km/s) = 7.25993 7.71423 7.49052
#
# Compressibility (1/GPa) = 0.01510724
#
# Stress axis : x y z
#
# Youngs Moduli (GPa) = 56.20609 140.49763 68.23643
#
# Poissons Ratio (x) = -0.02489 0.61136
# Poissons Ratio (y) = -0.00996 0.23515
# Poissons Ratio (z) = 0.50358 0.48418
#
# Static dielectric constant tensor:
#      x y z
#    x 3.626290 0.000000 0.172260 
#    y 0.000000 3.935530 0.000000 
#    z 0.172260 0.000000 3.590890 
# 
# 
# High freq. dielectric constant tensor:
#      x y z
#    x 1.787670 0.000000 0.007300 
#    y 0.000000 1.815460 0.000000 
#    z 0.007300 0.000000 1.789630 
# 
# From -- ./inp_files/4384.got.cif
#   From: 2010.06.25/outbox.cif.g09.slc.cpg/sg11_3_cif.got.tgz:4384.got - 2010.06.27 23:14:04.
