data_PCOD8075114
_publ_section_title
;
Structure prediction by ZEFSAII (Michael W. Deem and Ramdas Pophale) SiO2 
 PCOD8075114
Probable space group: P 21/M
;
_chemical_formula_sum "Si O2"
_cell_formula_units_Z 28
_cell_length_a 19.692544
_cell_length_b 9.026717
_cell_length_c 22.686971
_cell_angle_alpha 90.000000
_cell_angle_beta 20.466466
_cell_angle_gamma 90.000000
_cell_volume 1410.110062
_symmetry_space_group_name_H-M "P 21/M"
_symmetry_group_IT_number 11
_symmetry_cell_setting 'monoclinic'
loop_
_space_group_symop_operation_xyz
x,y,z
-x,1/2+y,-z
-x,-y,-z
x,1/2-y,z
loop_
_atom_site_type_symbol
_atom_site_label
_atom_site_fract_x
_atom_site_fract_y
_atom_site_fract_z
Si Si1 0.055176 0.920810 0.098235
Si Si2 0.382974 0.073079 0.542879
Si Si3 0.241158 0.920011 0.470584
Si Si4 0.094895 0.918038 0.197394
Si Si5 0.823763 0.077574 0.610809
Si Si6 0.568254 0.425647 0.268598
Si Si7 0.516943 0.422770 0.048671
O O1 0.022840 0.750000 0.111164
O O2 0.155018 0.945681 0.080841
O O3 0.838196 0.990696 0.273125
O O4 0.209158 0.983118 0.924315
O O5 0.390245 0.250000 0.541451
O O6 0.486078 0.020153 0.398357
O O7 0.500000 0.000000 0.500000
O O8 0.290899 0.750000 0.441103
O O9 0.155540 0.947522 0.475413
O O10 0.436761 0.011116 0.322811
O O11 0.078100 0.970612 0.648738
O O12 0.017659 0.750000 0.267878
O O13 0.270144 0.948850 0.098961
O O14 0.820103 0.250000 0.631122
O O15 0.625971 0.000783 0.790143
O O16 0.000000 0.000000 0.500000
O O17 0.561880 0.250000 0.268606
O O18 0.465349 0.250000 0.084535
O O19 0.500000 0.500000 0.000000
#
# Coordination Sequence:
#
# PCOD8075114 Si02
#       7
#     4   4   4   4   4   4   4
#     4   9  18  36  61  88 114 149 201 247 284 346
#     4  10  21  38  60  88 122 157 196 243 295 356
#     4  11  23  37  57  87 120 151 191 250 307 351
#     4  10  20  37  60  84 112 153 200 241 291 361
#     4  11  24  40  57  81 116 156 201 252 307 367
#     4  10  20  38  64  87 115 158 202 243 293 358
#     4  11  23  38  59  85 115 154 200 250 306 366
#
# _framework density 19.856605999999999
#
# number of rings (size 3 to 8) (size 9 to 14) (size 15 to 20)
#    0.000    1.714    1.429    3.000    0.000    8.000 
#    0.000    1.429    0.000    0.000    0.000    0.000 
#    0.000    0.000    0.000    0.000    0.000    0.000 
#
# Total GULP energy -347165.710798 kJ/mol
# GULP energy per Si atom -12398.775386 kJ/mol
# Density = 1.981141 g / cm^3
# Si number density = 19.856606 Si / 1000 Ang^3
#
#
#
# Elastic Constant Matrix: (Units=GPa)
#
#
# Indices 1 2 3 4 5 6 
#
# 1 111.2185 38.9698 58.1530 0.0000 -11.4970 0.0000
# 2 38.9698 57.8323 40.3260 0.0000 -1.2786 0.0000
# 3 58.1530 40.3260 158.6173 0.0000 6.8785 0.0000
# 4 0.0000 0.0000 0.0000 24.5105 0.0000 -3.4860
# 5 -11.4970 -1.2786 6.8785 0.0000 26.2129 0.0000
# 6 0.0000 0.0000 0.0000 -3.4860 0.0000 33.8474
#
#
#
# Elastic Compliance Matrix: (Units=1/GPa)
#
#
# Indices 1 2 3 4 5 6 
#
# 1 0.013976 -0.006673 -0.003722 0.000000 0.006781 0.000000
# 2 -0.006673 0.024360 -0.003714 0.000000 -0.000764 0.000000
# 3 -0.003722 -0.003714 0.008792 0.000000 -0.004121 0.000000
# 4 0.000000 0.000000 0.000000 0.041405 0.000000 0.004264
# 5 0.006781 -0.000764 -0.004121 0.000000 0.042167 0.000000
# 6 0.000000 0.000000 0.000000 0.004264 0.000000 0.029984
#
#
# Mechanical properties :
#
#
# Convention : Reuss Voigt Hill
#
# Bulk Modulus (GPa) = 52.87604 66.95173 59.91388
# Shear Modulus (GPa) = 25.61404 29.59545 27.60474
#
# Velocity S-wave (km/s) = 3.59548 3.86483 3.73259
# Velocity P-wave (km/s) = 6.62748 7.32849 6.98678
#
# Compressibility (1/GPa) = 0.01891216
#
# Stress axis : x y z
#
# Youngs Moduli (GPa) = 71.54952 41.05011 113.74248
#
# Poissons Ratio (x) = 0.27392 0.42331
# Poissons Ratio (y) = 0.47744 0.42241
# Poissons Ratio (z) = 0.26628 0.15245
#
# Static dielectric constant tensor:
#      x y z
#    x 3.689970 0.000000 0.025860 
#    y 0.000000 3.486220 0.000000 
#    z 0.025860 0.000000 4.009140 
# 
# 
# High freq. dielectric constant tensor:
#      x y z
#    x 1.777000 0.000000 0.000950 
#    y 0.000000 1.756800 0.000000 
#    z 0.000950 0.000000 1.789020 
# 
# From -- ./inp_files/66728.got.cif
#   From: 2010.06.25/outbox.cif.g09.slc.cpg/sg11_34_cif.got.tgz:66728.got - 2010.06.27 23:14:04.
