data_PCOD8075714
_publ_section_title
;
Structure prediction by ZEFSAII (Michael W. Deem and Ramdas Pophale) SiO2 
 PCOD8075714
Probable space group: P 21/M
;
_chemical_formula_sum "Si O2"
_cell_formula_units_Z 32
_cell_length_a 21.130939
_cell_length_b 9.152928
_cell_length_c 26.487537
_cell_angle_alpha 90.000000
_cell_angle_beta 19.121996
_cell_angle_gamma 90.000000
_cell_volume 1678.180422
_symmetry_space_group_name_H-M "P 21/M"
_symmetry_group_IT_number 11
_symmetry_cell_setting 'monoclinic'
loop_
_space_group_symop_operation_xyz
x,y,z
-x,1/2+y,-z
-x,-y,-z
x,1/2-y,z
loop_
_atom_site_type_symbol
_atom_site_label
_atom_site_fract_x
_atom_site_fract_y
_atom_site_fract_z
Si Si1 0.389654 0.581608 0.814986
Si Si2 0.011105 0.084259 0.256985
Si Si3 0.576301 0.916746 0.864762
Si Si4 0.625088 0.581464 0.539085
Si Si5 0.745324 0.583887 0.836291
Si Si6 0.414808 0.420291 0.899035
Si Si7 0.016428 0.584092 0.039277
Si Si8 0.412817 0.417420 0.612702
O O1 0.367246 0.750000 0.847836
O O2 0.559297 0.560796 0.646304
O O3 0.445141 0.488660 0.821600
O O4 0.187658 0.520005 0.944854
O O5 0.947936 0.250000 0.292347
O O6 0.052328 0.066037 0.286220
O O7 0.203059 0.042489 0.080734
O O8 0.841517 0.976673 0.368331
O O9 0.554304 0.750000 0.863734
O O10 0.762842 0.936931 0.761901
O O11 0.395844 0.961153 0.035527
O O12 0.580678 0.015490 0.811280
O O13 0.620472 0.750000 0.525963
O O14 0.476966 0.492961 0.616077
O O15 0.667310 0.750000 0.906342
O O16 0.450509 0.250000 0.867741
O O17 0.069580 0.750000 0.985111
O O18 0.817544 0.572701 0.219743
O O19 0.000000 0.500000 0.000000
O O20 0.500000 0.500000 0.500000
O O21 0.483033 0.250000 0.560092
#
# Coordination Sequence:
#
# PCOD8075714 Si02
#       8
#     4   4   4   4   4   4   4   4
#     4  10  22  39  57  79 108 142 180 224 268 317
#     4   9  19  35  53  79 113 144 179 223 267 320
#     4   9  15  26  48  76 107 141 176 220 269 317
#     4  11  23  39  58  80 109 145 181 222 271 322
#     4   8  15  28  47  74 107 142 178 218 268 318
#     4  10  21  35  53  81 111 143 181 224 271 318
#     4  10  21  39  61  83 107 139 179 221 267 320
#     4  11  24  40  60  86 112 142 178 220 271 322
#
# _framework density 19.068272
#
# number of rings (size 3 to 8) (size 9 to 14) (size 15 to 20)
#    0.000    2.250    1.250    2.250    1.750    5.000 
#    0.000    0.000    0.000    0.750    0.000    0.000 
#    0.000    0.000    0.000    0.000    0.000    0.000 
#
# Total GULP energy -396679.723697 kJ/mol
# GULP energy per Si atom -12396.241366 kJ/mol
# Density = 1.902487 g / cm^3
# Si number density = 19.068272 Si / 1000 Ang^3
#
#
#
# Elastic Constant Matrix: (Units=GPa)
#
#
# Indices 1 2 3 4 5 6 
#
# 1 99.4622 38.9697 -0.6274 0.0000 14.2173 0.0000
# 2 38.9697 94.1769 16.6318 0.0000 11.2395 0.0000
# 3 -0.6274 16.6318 32.1174 0.0000 7.1137 0.0000
# 4 0.0000 0.0000 0.0000 22.3953 0.0000 1.9398
# 5 14.2173 11.2395 7.1137 0.0000 20.2963 0.0000
# 6 0.0000 0.0000 0.0000 1.9398 0.0000 37.7301
#
#
#
# Elastic Compliance Matrix: (Units=1/GPa)
#
#
# Indices 1 2 3 4 5 6 
#
# 1 0.013362 -0.005425 0.004855 0.000000 -0.008057 0.000000
# 2 -0.005425 0.014321 -0.007163 0.000000 -0.001620 0.000000
# 3 0.004855 -0.007163 0.037745 0.000000 -0.012663 0.000000
# 4 0.000000 0.000000 0.000000 0.044852 0.000000 -0.002306
# 5 -0.008057 -0.001620 -0.012663 0.000000 0.060250 0.000000
# 6 0.000000 0.000000 0.000000 -0.002306 0.000000 0.026623
#
#
# Mechanical properties :
#
#
# Convention : Reuss Voigt Hill
#
# Bulk Modulus (GPa) = 20.01543 37.30054 28.65799
# Shear Modulus (GPa) = 21.80805 27.46983 24.63894
#
# Velocity S-wave (km/s) = 3.38551 3.79965 3.59854
# Velocity P-wave (km/s) = 5.07954 6.23328 5.68575
#
# Compressibility (1/GPa) = 0.04996146
#
# Stress axis : x y z
#
# Youngs Moduli (GPa) = 74.83970 69.82515 26.49363
#
# Poissons Ratio (x) = 0.37879 -0.12862
# Poissons Ratio (y) = 0.40599 0.18979
# Poissons Ratio (z) = -0.36334 0.50019
#
# Static dielectric constant tensor:
#      x y z
#    x 3.791290 0.000000 -0.216000 
#    y 0.000000 3.905120 0.000000 
#    z -0.216000 0.000000 3.194760 
# 
# 
# High freq. dielectric constant tensor:
#      x y z
#    x 1.755800 0.000000 -0.009960 
#    y 0.000000 1.749180 0.000000 
#    z -0.009960 0.000000 1.700210 
# 
# From -- ./inp_files/71997.got.cif
#   From: 2010.06.25/outbox.cif.g09.slc.cpg/sg11_36_cif.got.tgz:71997.got - 2010.06.27 23:14:04.
