data_PCOD8075541
_publ_section_title
;
Structure prediction by ZEFSAII (Michael W. Deem and Ramdas Pophale) SiO2 
 PCOD8075541
Probable space group: P 21/M
;
_chemical_formula_sum "Si O2"
_cell_formula_units_Z 28
_cell_length_a 26.800207
_cell_length_b 8.687670
_cell_length_c 9.715012
_cell_angle_alpha 90.000000
_cell_angle_beta 39.464389
_cell_angle_gamma 90.000000
_cell_volume 1437.698026
_symmetry_space_group_name_H-M "P 21/M"
_symmetry_group_IT_number 11
_symmetry_cell_setting 'monoclinic'
loop_
_space_group_symop_operation_xyz
x,y,z
-x,1/2+y,-z
-x,-y,-z
x,1/2-y,z
loop_
_atom_site_type_symbol
_atom_site_label
_atom_site_fract_x
_atom_site_fract_y
_atom_site_fract_z
Si Si1 0.683740 0.570072 0.742832
Si Si2 0.490179 0.426734 0.875981
Si Si3 0.915549 0.932093 0.207023
Si Si4 0.778424 0.068226 0.314351
Si Si5 0.428024 0.934080 0.565682
Si Si6 0.186759 0.431120 0.330701
Si Si7 0.258912 0.433092 0.901528
O O1 0.698440 0.750000 0.681683
O O2 0.700334 0.480908 0.564209
O O3 0.740732 0.501091 0.737029
O O4 0.598012 0.537305 0.985939
O O5 0.504078 0.250000 0.869550
O O6 0.552269 0.486072 0.632426
O O7 0.500000 0.500000 0.000000
O O8 0.917641 0.750000 0.185869
O O9 0.891322 0.978851 0.416793
O O10 0.854864 0.995808 0.223649
O O11 0.000000 0.000000 0.000000
O O12 0.787479 0.250000 0.292718
O O13 0.769689 0.010847 0.177106
O O14 0.424371 0.750000 0.591207
O O15 0.500000 0.000000 0.500000
O O16 0.343772 0.009333 0.775844
O O17 0.195362 0.250000 0.311622
O O18 0.194510 0.485642 0.155490
O O19 0.261982 0.250000 0.876482
#
# Coordination Sequence:
#
# PCOD8075541 Si02
#       7
#     4   4   4   4   4   4   4
#     4   9  17  34  55  74  98 138 186 231 275 326
#     4  10  21  34  50  72 102 138 182 231 281 327
#     4  10  20  39  64  90 115 143 177 219 268 324
#     4  11  22  36  55  84 116 148 183 225 272 326
#     4  11  23  38  54  78 110 147 188 235 284 333
#     4   8  17  34  58  81 105 138 179 221 267 320
#     4  11  21  37  58  81 110 148 188 230 276 326
#
# _framework density 19.475580000000001
#
# number of rings (size 3 to 8) (size 9 to 14) (size 15 to 20)
#    0.000    2.000    0.000    5.143    0.000    6.286 
#    0.000   10.714    0.000    0.000    0.000    0.000 
#    0.000    0.000    0.000    0.000    0.000    0.000 
#
# Total GULP energy -346972.729022 kJ/mol
# GULP energy per Si atom -12391.883179 kJ/mol
# Density = 1.943125 g / cm^3
# Si number density = 19.475580 Si / 1000 Ang^3
#
#
#
# Elastic Constant Matrix: (Units=GPa)
#
#
# Indices 1 2 3 4 5 6 
#
# 1 64.1652 29.4424 35.9972 0.0000 9.3893 0.0000
# 2 29.4424 83.8744 43.6363 0.0000 -3.7279 0.0000
# 3 35.9972 43.6363 130.1891 0.0000 9.0446 0.0000
# 4 0.0000 0.0000 0.0000 24.1430 0.0000 -4.0021
# 5 9.3893 -3.7279 9.0446 0.0000 29.0646 0.0000
# 6 0.0000 0.0000 0.0000 -4.0021 0.0000 31.7392
#
#
#
# Elastic Compliance Matrix: (Units=1/GPa)
#
#
# Indices 1 2 3 4 5 6 
#
# 1 0.021187 -0.005956 -0.003407 0.000000 -0.006548 0.000000
# 2 -0.005956 0.016458 -0.004242 0.000000 0.005355 0.000000
# 3 -0.003407 -0.004242 0.010227 0.000000 -0.002626 0.000000
# 4 0.000000 0.000000 0.000000 0.042304 0.000000 0.005334
# 5 -0.006548 0.005355 -0.002626 0.000000 0.038026 0.000000
# 6 0.000000 0.000000 0.000000 0.005334 0.000000 0.032179
#
#
# Mechanical properties :
#
#
# Convention : Reuss Voigt Hill
#
# Bulk Modulus (GPa) = 48.39440 55.15342 51.77391
# Shear Modulus (GPa) = 25.70978 28.26619 26.98798
#
# Velocity S-wave (km/s) = 3.63726 3.81381 3.72658
# Velocity P-wave (km/s) = 6.52245 6.91190 6.71999
#
# Compressibility (1/GPa) = 0.02066355
#
# Stress axis : x y z
#
# Youngs Moduli (GPa) = 47.19823 60.76077 97.77750
#
# Poissons Ratio (x) = 0.36188 0.33314
# Poissons Ratio (y) = 0.28111 0.41473
# Poissons Ratio (z) = 0.16081 0.25772
#
# Static dielectric constant tensor:
#      x y z
#    x 3.282450 0.000000 0.152870 
#    y 0.000000 3.560010 0.000000 
#    z 0.152870 0.000000 4.026530 
# 
# 
# High freq. dielectric constant tensor:
#      x y z
#    x 1.747440 0.000000 0.011220 
#    y 0.000000 1.750730 0.000000 
#    z 0.011220 0.000000 1.771420 
# 
# From -- ./inp_files/28245.got.cif
#   From: 2010.06.25/outbox.cif.g09.slc.cpg/sg11_15_cif.got.tgz:28245.got - 2010.06.27 23:14:04.
