data_PCOD8075998
_publ_section_title
;
Structure prediction by ZEFSAII (Michael W. Deem and Ramdas Pophale) SiO2 
 PCOD8075998
Probable space group: P 21/M
;
_chemical_formula_sum "Si O2"
_cell_formula_units_Z 32
_cell_length_a 22.314373
_cell_length_b 8.684692
_cell_length_c 15.030764
_cell_angle_alpha 90.000000
_cell_angle_beta 148.185854
_cell_angle_gamma 90.000000
_cell_volume 1535.561585
_symmetry_space_group_name_H-M "P 21/M"
_symmetry_group_IT_number 11
_symmetry_cell_setting 'monoclinic'
loop_
_space_group_symop_operation_xyz
x,y,z
-x,1/2+y,-z
-x,-y,-z
x,1/2-y,z
loop_
_atom_site_type_symbol
_atom_site_label
_atom_site_fract_x
_atom_site_fract_y
_atom_site_fract_z
Si Si1 0.168601 0.074186 0.469754
Si Si2 0.915901 0.072300 0.106533
Si Si3 0.695511 0.067201 0.514462
Si Si4 0.781838 0.931991 0.092744
Si Si5 0.543998 0.434456 0.786895
Si Si6 0.815333 0.419122 0.325919
Si Si7 0.441341 0.586302 0.001891
Si Si8 0.119247 0.066803 0.120668
O O1 0.207970 0.250000 0.530058
O O2 0.052212 0.060986 0.266971
O O3 0.268574 0.988280 0.540048
O O4 0.137910 0.010205 0.529520
O O5 0.876718 0.250000 0.060629
O O6 0.880545 0.984919 0.151361
O O7 0.856280 0.986295 0.949117
O O8 0.693884 0.250000 0.513127
O O9 0.573555 0.004606 0.397603
O O10 0.783652 0.002570 0.695830
O O11 0.771381 0.750000 0.084095
O O12 0.822082 0.991505 0.240722
O O13 0.663832 0.000216 0.901602
O O14 0.545695 0.250000 0.779244
O O15 0.547278 0.501136 0.891248
O O16 0.875251 0.250000 0.392270
O O17 0.686380 0.390724 0.188326
O O18 0.503060 0.750000 0.091117
O O19 0.500000 0.500000 0.000000
O O20 0.119032 0.250000 0.128099
O O21 0.000000 0.000000 0.000000
#
# Coordination Sequence:
#
# PCOD8075998 Si02
#       8
#     4   4   4   4   4   4   4   4
#     4  11  23  38  60  91 126 163 208 259 314 370
#     4  11  24  43  66  91 123 164 208 256 312 371
#     4  12  24  39  63  95 130 164 203 254 313 371
#     4  11  23  41  64  90 123 165 213 257 307 367
#     4  10  21  39  60  85 121 163 206 252 306 365
#     4  10  21  37  56  82 120 164 209 255 307 364
#     4   9  18  30  48  75 109 152 197 245 297 354
#     4  12  24  42  67  96 127 161 202 251 311 372
#
# _framework density 20.839281
#
# number of rings (size 3 to 8) (size 9 to 14) (size 15 to 20)
#    0.000    1.250    1.250    6.375    0.000    7.000 
#    0.000    0.625    0.000    0.000    0.000    0.000 
#    0.000    0.000    0.000    0.000    0.000    0.000 
#
# Total GULP energy -396581.766896 kJ/mol
# GULP energy per Si atom -12393.180215 kJ/mol
# Density = 2.079185 g / cm^3
# Si number density = 20.839281 Si / 1000 Ang^3
#
#
#
# Elastic Constant Matrix: (Units=GPa)
#
#
# Indices 1 2 3 4 5 6 
#
# 1 64.2734 28.7424 -0.0673 0.0000 -8.2333 0.0000
# 2 28.7424 169.8473 26.8507 0.0000 -2.8457 0.0000
# 3 -0.0673 26.8507 75.3730 0.0000 -5.5913 0.0000
# 4 0.0000 0.0000 0.0000 33.9701 0.0000 -2.1151
# 5 -8.2333 -2.8457 -5.5913 0.0000 25.1862 0.0000
# 6 0.0000 0.0000 0.0000 -2.1151 0.0000 34.8494
#
#
#
# Elastic Compliance Matrix: (Units=1/GPa)
#
#
# Indices 1 2 3 4 5 6 
#
# 1 0.017708 -0.003147 0.001566 0.000000 0.005781 0.000000
# 2 -0.003147 0.006800 -0.002485 0.000000 -0.000812 0.000000
# 3 0.001566 -0.002485 0.014409 0.000000 0.003430 0.000000
# 4 0.000000 0.000000 0.000000 0.029549 0.000000 0.001793
# 5 0.005781 -0.000812 0.003430 0.000000 0.042264 0.000000
# 6 0.000000 0.000000 0.000000 0.001793 0.000000 0.028804
#
#
# Mechanical properties :
#
#
# Convention : Reuss Voigt Hill
#
# Bulk Modulus (GPa) = 32.48596 46.72728 39.60662
# Shear Modulus (GPa) = 31.66012 35.73232 33.69622
#
# Velocity S-wave (km/s) = 3.90199 4.14534 4.02550
# Velocity P-wave (km/s) = 5.99361 6.73670 6.37599
#
# Compressibility (1/GPa) = 0.03078253
#
# Stress axis : x y z
#
# Youngs Moduli (GPa) = 56.47121 147.06878 69.40328
#
# Poissons Ratio (x) = 0.46288 -0.10867
# Poissons Ratio (y) = 0.17773 0.17249
# Poissons Ratio (z) = -0.08842 0.36551
#
# Static dielectric constant tensor:
#      x y z
#    x 3.701950 0.000000 0.039120 
#    y 0.000000 3.851150 0.000000 
#    z 0.039120 0.000000 3.898380 
# 
# 
# High freq. dielectric constant tensor:
#      x y z
#    x 1.807240 0.000000 0.001970 
#    y 0.000000 1.829170 0.000000 
#    z 0.001970 0.000000 1.816060 
# 
# From -- ./inp_files/55764.got.cif
#   From: 2010.06.25/outbox.cif.g09.slc.cpg/sg11_28_cif.got.tgz:55764.got - 2010.06.27 23:14:04.
