data_PCOD8075067
_publ_section_title
;
Structure prediction by ZEFSAII (Michael W. Deem and Ramdas Pophale) SiO2 
 PCOD8075067
Probable space group: P 21/M
;
_chemical_formula_sum "Si O2"
_cell_formula_units_Z 24
_cell_length_a 9.724065
_cell_length_b 9.148878
_cell_length_c 14.283665
_cell_angle_alpha 90.000000
_cell_angle_beta 99.480960
_cell_angle_gamma 90.000000
_cell_volume 1253.378281
_symmetry_space_group_name_H-M "P 21/M"
_symmetry_group_IT_number 11
_symmetry_cell_setting 'monoclinic'
loop_
_space_group_symop_operation_xyz
x,y,z
-x,1/2+y,-z
-x,-y,-z
x,1/2-y,z
loop_
_atom_site_type_symbol
_atom_site_label
_atom_site_fract_x
_atom_site_fract_y
_atom_site_fract_z
Si Si1 0.804262 0.081642 0.932095
Si Si2 0.740766 0.423099 0.259383
Si Si3 0.545199 0.421264 0.774937
Si Si4 0.611365 0.080304 0.574512
Si Si5 0.856842 0.080937 0.471811
Si Si6 0.098677 0.419835 0.879524
O O1 0.803521 0.250000 0.965192
O O2 0.663429 0.039512 0.863005
O O3 0.934674 0.054074 0.877867
O O4 0.812382 0.978406 0.022940
O O5 0.736143 0.250000 0.245037
O O6 0.592071 0.489230 0.213378
O O7 0.774518 0.469390 0.369590
O O8 0.860947 0.491040 0.208266
O O9 0.509631 0.250000 0.771653
O O10 0.602665 0.471890 0.680448
O O11 0.578328 0.250000 0.560993
O O12 0.764606 0.044144 0.552458
O O13 0.500000 0.000000 0.500000
O O14 0.892587 0.250000 0.468056
O O15 0.000000 0.000000 0.500000
O O16 0.133951 0.250000 0.869129
#
# Coordination Sequence:
#
# PCOD8075067 Si02
#       6
#     4   4   4   4   4   4
#     4   9  20  39  61  86 114 146 188 237 286 338
#     4  11  23  39  57  84 119 152 188 236 283 333
#     4  10  21  37  60  86 112 150 193 234 284 337
#     4  10  20  37  59  83 115 151 189 232 279 334
#     4  10  23  39  57  84 117 152 191 233 281 333
#     4  10  21  38  62  87 114 150 188 232 286 342
#
# _framework density 19.148250999999998
#
# number of rings (size 3 to 8) (size 9 to 14) (size 15 to 20)
#    0.000    2.000    1.667    1.000    2.333    4.000 
#    0.000    0.000    0.000    0.000    0.000    0.000 
#    0.000    0.000    0.000    0.000    0.000    0.000 
#
# Total GULP energy -297693.942921 kJ/mol
# GULP energy per Si atom -12403.914288 kJ/mol
# Density = 1.910467 g / cm^3
# Si number density = 19.148251 Si / 1000 Ang^3
#
#
#
# Elastic Constant Matrix: (Units=GPa)
#
#
# Indices 1 2 3 4 5 6 
#
# 1 87.9959 36.0732 19.7062 0.0000 11.0969 0.0000
# 2 36.0732 61.3334 27.4890 0.0000 3.3563 0.0000
# 3 19.7062 27.4890 51.6346 0.0000 0.0695 0.0000
# 4 0.0000 0.0000 0.0000 32.4624 0.0000 0.7601
# 5 11.0969 3.3563 0.0695 0.0000 37.6846 0.0000
# 6 0.0000 0.0000 0.0000 0.7601 0.0000 36.2827
#
#
#
# Elastic Compliance Matrix: (Units=1/GPa)
#
#
# Indices 1 2 3 4 5 6 
#
# 1 0.015582 -0.008263 -0.001543 0.000000 -0.003850 0.000000
# 2 -0.008263 0.025930 -0.010651 0.000000 0.000143 0.000000
# 3 -0.001543 -0.010651 0.025624 0.000000 0.001356 0.000000
# 4 0.000000 0.000000 0.000000 0.030820 0.000000 -0.000646
# 5 -0.003850 0.000143 0.001356 0.000000 0.027654 0.000000
# 6 0.000000 0.000000 0.000000 -0.000646 0.000000 0.027575
#
#
# Mechanical properties :
#
#
# Convention : Reuss Voigt Hill
#
# Bulk Modulus (GPa) = 38.13440 40.83340 39.48390
# Shear Modulus (GPa) = 24.64991 29.13231 26.89111
#
# Velocity S-wave (km/s) = 3.59182 3.90475 3.75155
# Velocity P-wave (km/s) = 6.09591 6.45760 6.27936
#
# Compressibility (1/GPa) = 0.02622304
#
# Stress axis : x y z
#
# Youngs Moduli (GPa) = 64.17515 38.56557 39.02529
#
# Poissons Ratio (x) = 0.31865 0.06022
# Poissons Ratio (y) = 0.53025 0.41567
# Poissons Ratio (z) = 0.09902 0.41077
#
# Static dielectric constant tensor:
#      x y z
#    x 3.503880 0.000000 -0.155140 
#    y 0.000000 3.489040 0.000000 
#    z -0.155140 0.000000 3.676350 
# 
# 
# High freq. dielectric constant tensor:
#      x y z
#    x 1.751550 0.000000 -0.005060 
#    y 0.000000 1.743480 0.000000 
#    z -0.005060 0.000000 1.748250 
# 
# From -- ./inp_files/20559.got.cif
#   From: 2010.06.25/outbox.cif.g09.slc.cpg/sg11_11_cif.got.tgz:20559.got - 2010.06.27 23:14:04.
