data_PCOD8075580
_publ_section_title
;
Structure prediction by ZEFSAII (Michael W. Deem and Ramdas Pophale) SiO2 
 PCOD8075580
Probable space group: P 21/M
;
_chemical_formula_sum "Si O2"
_cell_formula_units_Z 32
_cell_length_a 9.278119
_cell_length_b 26.782244
_cell_length_c 6.418228
_cell_angle_alpha 90.000000
_cell_angle_beta 91.202455
_cell_angle_gamma 90.000000
_cell_volume 1594.506864
_symmetry_space_group_name_H-M "P 21/M"
_symmetry_group_IT_number 11
_symmetry_cell_setting 'monoclinic'
loop_
_space_group_symop_operation_xyz
x,y,z
-x,1/2+y,-z
-x,-y,-z
x,1/2-y,z
loop_
_atom_site_type_symbol
_atom_site_label
_atom_site_fract_x
_atom_site_fract_y
_atom_site_fract_z
Si Si1 0.016807 0.538147 0.313171
Si Si2 0.974663 0.118487 0.360488
Si Si3 0.353273 0.871126 0.718172
Si Si4 0.456197 0.305203 0.044812
Si Si5 0.462097 0.057053 0.001327
Si Si6 0.230077 0.309142 0.377134
Si Si7 0.451834 0.128092 0.652517
Si Si8 0.844624 0.956552 0.911364
O O1 0.045871 0.592870 0.411885
O O2 0.144019 0.513846 0.174840
O O3 0.000000 0.500000 0.500000
O O4 0.877019 0.542306 0.160143
O O5 0.817755 0.132407 0.271328
O O6 0.067189 0.169718 0.373417
O O7 0.045620 0.079996 0.202102
O O8 0.420118 0.817564 0.782674
O O9 0.411667 0.913256 0.878247
O O10 0.408826 0.881189 0.486512
O O11 0.473181 0.250000 0.965821
O O12 0.299807 0.313961 0.148570
O O13 0.489280 0.337171 0.846000
O O14 0.315794 0.063989 0.132001
O O15 0.425126 0.074676 0.763380
O O16 0.500000 0.000000 0.000000
O O17 0.232289 0.250000 0.446196
O O18 0.316482 0.346440 0.533454
#
# Coordination Sequence:
#
# PCOD8075580 Si02
#       8
#     4   4   4   4   4   4   4   4
#     4   9  21  35  59  84 114 156 200 238 297 347
#     4  11  22  38  60  85 123 156 193 243 303 357
#     4  10  24  38  56  91 124 159 193 246 303 355
#     4   9  19  39  65  89 115 152 198 244 300 361
#     4  11  25  38  61  87 121 162 210 250 295 354
#     4  10  21  39  65  92 114 151 202 249 299 362
#     4  10  20  40  61  86 119 153 198 250 299 349
#     4  10  21  39  59  82 116 159 204 243 291 352
#
# _framework density 20.068899999999999
#
# number of rings (size 3 to 8) (size 9 to 14) (size 15 to 20)
#    0.000    2.000    0.000    3.375    7.000    3.500 
#    0.000    0.000    0.000    0.000    0.000    0.000 
#    0.000    0.000    0.000    0.000    0.000    0.000 
#
# Total GULP energy -396469.580842 kJ/mol
# GULP energy per Si atom -12389.674401 kJ/mol
# Density = 2.002322 g / cm^3
# Si number density = 20.068900 Si / 1000 Ang^3
#
#
#
# Elastic Constant Matrix: (Units=GPa)
#
#
# Indices 1 2 3 4 5 6 
#
# 1 139.8427 31.9978 26.2646 0.0000 0.3327 0.0000
# 2 31.9978 96.2598 28.4133 0.0000 4.4306 0.0000
# 3 26.2646 28.4133 93.0975 0.0000 1.6189 0.0000
# 4 0.0000 0.0000 0.0000 23.3157 0.0000 -2.5209
# 5 0.3327 4.4306 1.6189 0.0000 21.6480 0.0000
# 6 0.0000 0.0000 0.0000 -2.5209 0.0000 28.7895
#
#
#
# Elastic Compliance Matrix: (Units=1/GPa)
#
#
# Indices 1 2 3 4 5 6 
#
# 1 0.007949 -0.002197 -0.001580 0.000000 0.000446 0.000000
# 2 -0.002197 0.012118 -0.003040 0.000000 -0.002219 0.000000
# 3 -0.001580 -0.003040 0.012120 0.000000 -0.000260 0.000000
# 4 0.000000 0.000000 0.000000 0.043300 0.000000 0.003791
# 5 0.000446 -0.002219 -0.000260 0.000000 0.046660 0.000000
# 6 0.000000 0.000000 0.000000 0.003791 0.000000 0.035067
#
#
# Mechanical properties :
#
#
# Convention : Reuss Voigt Hill
#
# Bulk Modulus (GPa) = 53.89812 55.83905 54.86858
# Shear Modulus (GPa) = 28.24353 30.91892 29.58123
#
# Velocity S-wave (km/s) = 3.75551 3.92936 3.84341
# Velocity P-wave (km/s) = 6.76165 6.96208 6.86260
#
# Compressibility (1/GPa) = 0.01855352
#
# Stress axis : x y z
#
# Youngs Moduli (GPa) = 125.79929 82.52032 82.51121
#
# Poissons Ratio (x) = 0.18126 0.13037
# Poissons Ratio (y) = 0.27632 0.25085
# Poissons Ratio (z) = 0.19876 0.25088
#
# Static dielectric constant tensor:
#      x y z
#    x 3.520600 0.000000 -0.068650 
#    y 0.000000 4.001460 0.000000 
#    z -0.068650 0.000000 4.023010 
# 
# 
# High freq. dielectric constant tensor:
#      x y z
#    x 1.766660 0.000000 -0.002730 
#    y 0.000000 1.784080 0.000000 
#    z -0.002730 0.000000 1.790680 
# 
# From -- ./inp_files/3400.got.cif
#   From: 2010.06.25/outbox.cif.g09.slc.cpg/sg11_2_cif.got.tgz:3400.got - 2010.06.27 23:14:04.
