data_PCOD8075889
_publ_section_title
;
Structure prediction by ZEFSAII (Michael W. Deem and Ramdas Pophale) SiO2 
 PCOD8075889
Probable space group: P 21/M
;
_chemical_formula_sum "Si O2"
_cell_formula_units_Z 28
_cell_length_a 9.625928
_cell_length_b 9.117932
_cell_length_c 27.231713
_cell_angle_alpha 90.000000
_cell_angle_beta 38.348216
_cell_angle_gamma 90.000000
_cell_volume 1482.904438
_symmetry_space_group_name_H-M "P 21/M"
_symmetry_group_IT_number 11
_symmetry_cell_setting 'monoclinic'
loop_
_space_group_symop_operation_xyz
x,y,z
-x,1/2+y,-z
-x,-y,-z
x,1/2-y,z
loop_
_atom_site_type_symbol
_atom_site_label
_atom_site_fract_x
_atom_site_fract_y
_atom_site_fract_z
Si Si1 0.509470 0.578570 0.277319
Si Si2 0.599374 0.919012 0.018710
Si Si3 0.694824 0.916454 0.472497
Si Si4 0.149700 0.578972 0.296794
Si Si5 0.037070 0.583419 0.845822
Si Si6 0.252222 0.421741 0.170240
Si Si7 0.234177 0.419230 0.435812
O O1 0.499638 0.750000 0.292649
O O2 0.373280 0.544012 0.265536
O O3 0.763586 0.528552 0.199172
O O4 0.408459 0.490814 0.350666
O O5 0.524180 0.750000 0.039371
O O6 0.493840 0.998223 0.095711
O O7 0.868440 0.931771 0.939204
O O8 0.500000 0.000000 0.000000
O O9 0.670825 0.750000 0.462819
O O10 0.660441 0.936253 0.539773
O O11 0.940012 0.972129 0.388136
O O12 0.500000 0.000000 0.500000
O O13 0.137752 0.750000 0.286183
O O14 0.141109 0.483081 0.250174
O O15 0.128290 0.750000 0.817355
O O16 0.913006 0.543176 0.829258
O O17 0.297014 0.250000 0.162959
O O18 0.195454 0.250000 0.432686
O O19 0.000000 0.500000 0.500000
#
# Coordination Sequence:
#
# PCOD8075889 Si02
#       7
#     4   4   4   4   4   4   4
#     4  11  23  39  59  84 114 151 193 233 282 338
#     4   9  17  33  57  84 116 150 186 232 283 334
#     4  10  23  41  59  83 115 147 187 237 283 334
#     4  10  22  41  57  79 116 151 187 234 284 334
#     4   9  20  37  57  86 117 145 185 235 280 331
#     4  10  21  36  58  87 116 149 190 234 284 338
#     4  11  22  40  62  84 113 149 190 235 281 336
#
# _framework density 18.881865000000001
#
# number of rings (size 3 to 8) (size 9 to 14) (size 15 to 20)
#    0.000    2.000    1.429    2.571    2.000    6.286 
#    0.000    0.714    0.000    0.000    0.000    0.000 
#    0.000    0.000    0.000    0.000    0.000    0.000 
#
# Total GULP energy -347201.691916 kJ/mol
# GULP energy per Si atom -12400.060426 kJ/mol
# Density = 1.883889 g / cm^3
# Si number density = 18.881865 Si / 1000 Ang^3
#
#
#
# Elastic Constant Matrix: (Units=GPa)
#
#
# Indices 1 2 3 4 5 6 
#
# 1 77.8107 47.9385 31.8913 0.0000 -12.1415 0.0000
# 2 47.9385 105.8023 44.0607 0.0000 -8.9626 0.0000
# 3 31.8913 44.0607 78.9066 0.0000 -10.6285 0.0000
# 4 0.0000 0.0000 0.0000 41.3035 0.0000 -1.5333
# 5 -12.1415 -8.9626 -10.6285 0.0000 28.0226 0.0000
# 6 0.0000 0.0000 0.0000 -1.5333 0.0000 32.9203
#
#
#
# Elastic Compliance Matrix: (Units=1/GPa)
#
#
# Indices 1 2 3 4 5 6 
#
# 1 0.019218 -0.006949 -0.003230 0.000000 0.004879 0.000000
# 2 -0.006949 0.014881 -0.005549 0.000000 -0.000356 0.000000
# 3 -0.003230 -0.005549 0.017546 0.000000 0.003481 0.000000
# 4 0.000000 0.000000 0.000000 0.024253 0.000000 0.001130
# 5 0.004879 -0.000356 0.003481 0.000000 0.039006 0.000000
# 6 0.000000 0.000000 0.000000 0.001130 0.000000 0.030429
#
#
# Mechanical properties :
#
#
# Convention : Reuss Voigt Hill
#
# Bulk Modulus (GPa) = 49.53080 56.70007 53.11543
# Shear Modulus (GPa) = 27.24537 29.69123 28.46830
#
# Velocity S-wave (km/s) = 3.80272 3.96974 3.88713
# Velocity P-wave (km/s) = 6.75054 7.14884 6.95254
#
# Compressibility (1/GPa) = 0.02018946
#
# Stress axis : x y z
#
# Youngs Moduli (GPa) = 52.03398 67.20061 56.99422
#
# Poissons Ratio (x) = 0.46700 0.18407
# Poissons Ratio (y) = 0.36160 0.31624
# Poissons Ratio (z) = 0.16805 0.37287
#
# Static dielectric constant tensor:
#      x y z
#    x 3.233200 0.000000 -0.019480 
#    y 0.000000 3.570110 0.000000 
#    z -0.019480 0.000000 4.036340 
# 
# 
# High freq. dielectric constant tensor:
#      x y z
#    x 1.712770 0.000000 -0.000430 
#    y 0.000000 1.743550 0.000000 
#    z -0.000430 0.000000 1.746760 
# 
# From -- ./inp_files/28145.got.cif
#   From: 2010.06.25/outbox.cif.g09.slc.cpg/sg11_15_cif.got.tgz:28145.got - 2010.06.27 23:14:04.
