data_PCOD8075798
_publ_section_title
;
Structure prediction by ZEFSAII (Michael W. Deem and Ramdas Pophale) SiO2 
 PCOD8075798
Probable space group: P 21/M
;
_chemical_formula_sum "Si O2"
_cell_formula_units_Z 28
_cell_length_a 31.074835
_cell_length_b 8.822740
_cell_length_c 31.074809
_cell_angle_alpha 90.000000
_cell_angle_beta 9.575228
_cell_angle_gamma 90.000000
_cell_volume 1417.176132
_symmetry_space_group_name_H-M "P 21/M"
_symmetry_group_IT_number 11
_symmetry_cell_setting 'monoclinic'
loop_
_space_group_symop_operation_xyz
x,y,z
-x,1/2+y,-z
-x,-y,-z
x,1/2-y,z
loop_
_atom_site_type_symbol
_atom_site_label
_atom_site_fract_x
_atom_site_fract_y
_atom_site_fract_z
Si Si1 0.622227 0.573633 0.122217
Si Si2 0.239950 0.574392 0.739948
Si Si3 0.523511 0.430155 0.023483
Si Si4 0.905209 0.074602 0.405239
Si Si5 0.810848 0.073599 0.310833
Si Si6 0.048583 0.071088 0.548558
Si Si7 0.331813 0.929076 0.831803
O O1 0.629001 0.750000 0.129039
O O2 0.358502 0.530786 0.358430
O O3 0.643132 0.469406 0.143107
O O4 0.858462 0.530808 0.858474
O O5 0.500000 0.500000 0.500000
O O6 0.245941 0.750000 0.745943
O O7 0.214563 0.547297 0.714552
O O8 0.000000 0.500000 0.000000
O O9 0.521545 0.250000 0.021518
O O10 0.785006 0.491791 0.787631
O O11 0.500000 0.500000 0.000000
O O12 0.287676 0.491790 0.284966
O O13 0.911526 0.250000 0.411606
O O14 0.926915 0.980114 0.426899
O O15 0.817050 0.250000 0.317007
O O16 0.570179 0.997097 0.571030
O O17 0.071048 0.997089 0.070156
O O18 0.048306 0.250000 0.548290
O O19 0.328875 0.750000 0.828839
#
# Coordination Sequence:
#
# PCOD8075798 Si02
#       7
#     4   4   4   4   4   4   4
#     4  10  21  38  58  82 115 153 190 233 287 349
#     4  11  24  41  64  92 123 161 204 249 302 360
#     4  10  21  36  54  78 106 140 179 220 271 329
#     4  10  21  36  57  83 109 145 192 231 274 338
#     4  11  24  43  64  88 123 167 204 241 302 370
#     4  10  21  36  54  78 109 141 176 223 280 330
#     4  12  25  40  63  95 123 155 204 257 302 350
#
# _framework density 19.7576
#
# number of rings (size 3 to 8) (size 9 to 14) (size 15 to 20)
#    0.000    1.429    0.000    5.143    0.000    9.143 
#    0.000    0.000    0.000    0.000    0.000    0.000 
#    0.000    0.000    0.000    0.000    0.000    0.000 
#
# Total GULP energy -347369.196179 kJ/mol
# GULP energy per Si atom -12406.042721 kJ/mol
# Density = 1.971263 g / cm^3
# Si number density = 19.757600 Si / 1000 Ang^3
#
#
#
# Elastic Constant Matrix: (Units=GPa)
#
#
# Indices 1 2 3 4 5 6 
#
# 1 135.4106 72.2002 91.9746 0.0000 -2.3033 0.0000
# 2 72.2002 85.9393 70.9471 0.0000 0.1053 0.0000
# 3 91.9746 70.9471 222.5062 0.0000 -5.4084 0.0000
# 4 0.0000 0.0000 0.0000 30.0105 0.0000 1.0486
# 5 -2.3033 0.1053 -5.4084 0.0000 34.9748 0.0000
# 6 0.0000 0.0000 0.0000 1.0486 0.0000 41.8763
#
#
#
# Elastic Compliance Matrix: (Units=1/GPa)
#
#
# Indices 1 2 3 4 5 6 
#
# 1 0.014639 -0.009928 -0.002872 0.000000 0.000550 0.000000
# 2 -0.009928 0.022551 -0.003116 0.000000 -0.001204 0.000000
# 3 -0.002872 -0.003116 0.006696 0.000000 0.000856 0.000000
# 4 0.000000 0.000000 0.000000 0.033351 0.000000 -0.000835
# 5 0.000550 -0.001204 0.000856 0.000000 0.028764 0.000000
# 6 0.000000 0.000000 0.000000 -0.000835 0.000000 0.023901
#
#
# Mechanical properties :
#
#
# Convention : Reuss Voigt Hill
#
# Bulk Modulus (GPa) = 82.96485 101.56665 92.26575
# Shear Modulus (GPa) = 30.16584 35.28792 32.72688
#
# Velocity S-wave (km/s) = 3.91166 4.23074 4.07433
# Velocity P-wave (km/s) = 7.90468 8.68237 8.30264
#
# Compressibility (1/GPa) = 0.01205330
#
# Stress axis : x y z
#
# Youngs Moduli (GPa) = 68.31240 44.34457 149.34914
#
# Poissons Ratio (x) = 0.44025 0.42894
# Poissons Ratio (y) = 0.67821 0.46534
# Poissons Ratio (z) = 0.19620 0.13817
#
# Static dielectric constant tensor:
#      x y z
#    x 3.682180 0.000000 -0.049260 
#    y 0.000000 3.597900 0.000000 
#    z -0.049260 0.000000 4.240630 
# 
# 
# High freq. dielectric constant tensor:
#      x y z
#    x 1.787770 0.000000 -0.000820 
#    y 0.000000 1.768150 0.000000 
#    z -0.000820 0.000000 1.797020 
# 
# From -- ./inp_files/73833.got.cif
#   From: 2010.06.25/outbox.cif.g09.slc.cpg/sg11_37_cif.got.tgz:73833.got - 2010.06.27 23:14:04.
