data_PCOD8075821
_publ_section_title
;
Structure prediction by ZEFSAII (Michael W. Deem and Ramdas Pophale) SiO2 
 PCOD8075821
Probable space group: P 21/M
;
_chemical_formula_sum "Si O2"
_cell_formula_units_Z 32
_cell_length_a 25.530440
_cell_length_b 9.105555
_cell_length_c 14.563918
_cell_angle_alpha 90.000000
_cell_angle_beta 30.086324
_cell_angle_gamma 90.000000
_cell_volume 1697.244094
_symmetry_space_group_name_H-M "P 21/M"
_symmetry_group_IT_number 11
_symmetry_cell_setting 'monoclinic'
loop_
_space_group_symop_operation_xyz
x,y,z
-x,1/2+y,-z
-x,-y,-z
x,1/2-y,z
loop_
_atom_site_type_symbol
_atom_site_label
_atom_site_fract_x
_atom_site_fract_y
_atom_site_fract_z
Si Si1 0.607351 0.919731 0.351377
Si Si2 0.780664 0.920634 0.939967
Si Si3 0.245111 0.582313 0.745653
Si Si4 0.070579 0.921747 0.152266
Si Si5 0.855034 0.418576 0.466862
Si Si6 0.281461 0.917929 0.147176
Si Si7 0.498352 0.423663 0.100711
Si Si8 0.702945 0.080293 0.536152
O O1 0.584896 0.750000 0.400573
O O2 0.500000 0.000000 0.500000
O O3 0.661870 0.980334 0.359855
O O4 0.678503 0.951288 0.155279
O O5 0.808871 0.750000 0.892447
O O6 0.879821 0.002227 0.833516
O O7 0.758505 0.978166 0.872440
O O8 0.275506 0.750000 0.721981
O O9 0.233591 0.556602 0.654544
O O10 0.137073 0.540742 0.959921
O O11 0.066043 0.750000 0.179084
O O12 0.955601 0.980258 0.309488
O O13 0.888004 0.250000 0.400789
O O14 0.798334 0.439825 0.649040
O O15 0.777280 0.472600 0.505231
O O16 0.282048 0.750000 0.111932
O O17 0.396973 0.965694 0.003128
O O18 0.490173 0.250000 0.098376
O O19 0.401248 0.482555 0.307067
O O20 0.500000 0.500000 0.000000
O O21 0.670362 0.250000 0.599386
#
# Coordination Sequence:
#
# PCOD8075821 Si02
#       8
#     4   4   4   4   4   4   4   4
#     4  10  21  36  55  81 113 149 191 235 284 341
#     4  10  22  39  59  84 112 149 193 236 286 342
#     4   9  20  38  59  83 115 151 189 234 288 340
#     4  10  21  39  61  86 115 149 190 241 290 338
#     4  10  21  39  60  83 114 153 192 234 287 344
#     4  10  22  39  58  84 117 153 191 234 287 341
#     4  11  22  38  59  85 118 156 194 237 287 340
#     4  10  21  39  60  85 118 156 193 235 287 342
#
# _framework density 18.854094
#
# number of rings (size 3 to 8) (size 9 to 14) (size 15 to 20)
#    0.000    2.000    1.250    1.500    1.750    5.500 
#    0.000    0.000    0.000    0.000    0.000    0.000 
#    0.000    0.000    0.000    0.000    0.000    0.000 
#
# Total GULP energy -396945.570777 kJ/mol
# GULP energy per Si atom -12404.549087 kJ/mol
# Density = 1.881118 g / cm^3
# Si number density = 18.854094 Si / 1000 Ang^3
#
#
#
# Elastic Constant Matrix: (Units=GPa)
#
#
# Indices 1 2 3 4 5 6 
#
# 1 60.8554 27.6396 36.0223 0.0000 17.6960 0.0000
# 2 27.6396 75.8579 43.5316 0.0000 -1.8873 0.0000
# 3 36.0223 43.5316 93.3517 0.0000 -12.0868 0.0000
# 4 0.0000 0.0000 0.0000 36.2655 0.0000 -4.4743
# 5 17.6960 -1.8873 -12.0868 0.0000 25.6775 0.0000
# 6 0.0000 0.0000 0.0000 -4.4743 0.0000 33.9743
#
#
#
# Elastic Compliance Matrix: (Units=1/GPa)
#
#
# Indices 1 2 3 4 5 6 
#
# 1 0.039630 -0.005309 -0.017468 0.000000 -0.035924 0.000000
# 2 -0.005309 0.018901 -0.006508 0.000000 0.001985 0.000000
# 3 -0.017468 -0.006508 0.023411 0.000000 0.022580 0.000000
# 4 0.000000 0.000000 0.000000 0.028030 0.000000 0.003691
# 5 -0.035924 0.001985 0.022580 0.000000 0.074477 0.000000
# 6 0.000000 0.000000 0.000000 0.003691 0.000000 0.029920
#
#
# Mechanical properties :
#
#
# Convention : Reuss Voigt Hill
#
# Bulk Modulus (GPa) = 42.78720 49.38355 46.08538
# Shear Modulus (GPa) = 17.81067 27.37488 22.59277
#
# Velocity S-wave (km/s) = 3.07686 3.81456 3.46540
# Velocity P-wave (km/s) = 5.94692 6.75651 6.36460
#
# Compressibility (1/GPa) = 0.02337147
#
# Stress axis : x y z
#
# Youngs Moduli (GPa) = 25.23349 52.90660 42.71473
#
# Poissons Ratio (x) = 0.28090 0.74613
# Poissons Ratio (y) = 0.13397 0.27800
# Poissons Ratio (z) = 0.44077 0.34433
#
# Static dielectric constant tensor:
#      x y z
#    x 3.569280 0.000000 -0.017820 
#    y 0.000000 3.540720 0.000000 
#    z -0.017820 0.000000 3.561090 
# 
# 
# High freq. dielectric constant tensor:
#      x y z
#    x 1.736630 0.000000 0.001490 
#    y 0.000000 1.737480 0.000000 
#    z 0.001490 0.000000 1.735300 
# 
# From -- ./inp_files/51786.got.cif
#   From: 2010.06.25/outbox.cif.g09.slc.cpg/sg11_26_cif.got.tgz:51786.got - 2010.06.27 23:14:04.
