data_PCOD8075474
_publ_section_title
;
Structure prediction by ZEFSAII (Michael W. Deem and Ramdas Pophale) SiO2 
 PCOD8075474
Probable space group: P 21/M
;
_chemical_formula_sum "Si O2"
_cell_formula_units_Z 32
_cell_length_a 15.954341
_cell_length_b 16.720423
_cell_length_c 12.090865
_cell_angle_alpha 90.000000
_cell_angle_beta 27.176048
_cell_angle_gamma 90.000000
_cell_volume 1473.124012
_symmetry_space_group_name_H-M "P 21/M"
_symmetry_group_IT_number 11
_symmetry_cell_setting 'monoclinic'
loop_
_space_group_symop_operation_xyz
x,y,z
-x,1/2+y,-z
-x,-y,-z
x,1/2-y,z
loop_
_atom_site_type_symbol
_atom_site_label
_atom_site_fract_x
_atom_site_fract_y
_atom_site_fract_z
Si Si1 0.724866 0.658244 0.187700
Si Si2 0.218263 0.658950 0.283950
Si Si3 0.830748 0.905759 0.462022
Si Si4 0.091711 0.908838 0.649423
Si Si5 0.433580 0.079577 0.416228
Si Si6 0.532522 0.102538 0.689639
Si Si7 0.617119 0.843001 0.911882
Si Si8 0.203826 0.841765 0.056502
O O1 0.758587 0.750000 0.184649
O O2 0.686611 0.600913 0.336138
O O3 0.553136 0.658209 0.304659
O O4 0.904365 0.620927 0.921569
O O5 0.152599 0.750000 0.360237
O O6 0.090361 0.615105 0.522584
O O7 0.188680 0.620720 0.197687
O O8 0.430017 0.649816 0.064644
O O9 0.666407 0.880906 0.572734
O O10 0.771761 0.887253 0.657429
O O11 0.010669 0.853878 0.221342
O O12 0.886178 0.996473 0.373678
O O13 0.263309 0.868347 0.514115
O O14 0.457484 0.985689 0.371824
O O15 0.635075 0.115073 0.199126
O O16 0.400506 0.109115 0.952136
O O17 0.670064 0.750000 0.870300
O O18 0.259240 0.750000 0.997566
#
# Coordination Sequence:
#
# PCOD8075474 Si02
#       8
#     4   4   4   4   4   4   4   4
#     4  12  26  44  68  94 129 175 224 271 323 388
#     4   9  19  36  60  88 130 169 205 265 325 381
#     4  11  24  39  66  98 131 173 214 264 327 393
#     4  10  24  42  64  97 131 168 217 269 325 381
#     4  11  25  45  67  94 132 172 221 273 324 383
#     4  10  24  43  69  95 130 172 218 271 326 388
#     4  10  20  38  64  97 137 170 211 268 328 392
#     4  11  23  38  60  93 131 170 212 265 326 387
#
# _framework density 21.722542000000001
#
# number of rings (size 3 to 8) (size 9 to 14) (size 15 to 20)
#    0.000    1.500    1.250    2.625    3.500    8.000 
#    0.000    0.000    0.000    0.000    0.000    0.000 
#    0.000    0.000    0.000    0.000    0.000    0.000 
#
# Total GULP energy -396831.815731 kJ/mol
# GULP energy per Si atom -12400.994242 kJ/mol
# Density = 2.167310 g / cm^3
# Si number density = 21.722542 Si / 1000 Ang^3
#
#
#
# Elastic Constant Matrix: (Units=GPa)
#
#
# Indices 1 2 3 4 5 6 
#
# 1 50.1262 23.0245 20.2368 0.0000 4.5201 0.0000
# 2 23.0245 80.9816 43.4531 0.0000 1.8171 0.0000
# 3 20.2368 43.4531 123.7483 0.0000 4.7813 0.0000
# 4 0.0000 0.0000 0.0000 1.3933 0.0000 -12.9336
# 5 4.5201 1.8171 4.7813 0.0000 23.7122 0.0000
# 6 0.0000 0.0000 0.0000 -12.9336 0.0000 24.9524
#
#
#
# Elastic Compliance Matrix: (Units=1/GPa)
#
#
# Indices 1 2 3 4 5 6 
#
# 1 0.023597 -0.005708 -0.001711 0.000000 -0.003716 0.000000
# 2 -0.005708 0.016596 -0.004925 0.000000 0.000809 0.000000
# 3 -0.001711 -0.004925 0.010142 0.000000 -0.001341 0.000000
# 4 0.000000 0.000000 0.000000 -0.188304 0.000000 -0.097603
# 5 -0.003716 0.000809 -0.001341 0.000000 0.043089 0.000000
# 6 0.000000 0.000000 0.000000 -0.097603 0.000000 -0.010514
#
#
# Mechanical properties :
#
#
# Convention : Reuss Voigt Hill
#
# Bulk Modulus (GPa) = 38.99095 47.58721 43.28908
# Shear Modulus (GPa) = -69.29352 21.22103 -24.03624
#
# Velocity S-wave (km/s) = -5.65408 3.12895 -3.33004
# Velocity P-wave (km/s) = 4.96350 5.91677 2.27726
#
# Compressibility (1/GPa) = 0.02564697
#
# Stress axis : x y z
#
# Youngs Moduli (GPa) = 42.37794 60.25564 98.59891
#
# Poissons Ratio (x) = 0.34391 0.16872
# Poissons Ratio (y) = 0.24187 0.48564
# Poissons Ratio (z) = 0.07252 0.29679
#
# Static dielectric constant tensor:
#      x y z
#    x 4.098860 0.000000 -0.081380 
#    y 0.000000 3.734570 0.000000 
#    z -0.081380 0.000000 3.893990 
# 
# 
# High freq. dielectric constant tensor:
#      x y z
#    x 1.852760 0.000000 -0.005280 
#    y 0.000000 1.846730 0.000000 
#    z -0.005280 0.000000 1.858870 
# 
# From -- ./inp_files/39959.got.cif
#   From: 2010.06.25/outbox.cif.g09.slc.cpg/sg11_20_cif.got.tgz:39959.got - 2010.06.27 23:14:04.
