data_PCOD8075726
_publ_section_title
;
Structure prediction by ZEFSAII (Michael W. Deem and Ramdas Pophale) SiO2 
 PCOD8075726
Probable space group: P 21/M
;
_chemical_formula_sum "Si O2"
_cell_formula_units_Z 28
_cell_length_a 26.713266
_cell_length_b 9.075213
_cell_length_c 9.584187
_cell_angle_alpha 90.000000
_cell_angle_beta 38.547704
_cell_angle_gamma 90.000000
_cell_volume 1447.914290
_symmetry_space_group_name_H-M "P 21/M"
_symmetry_group_IT_number 11
_symmetry_cell_setting 'monoclinic'
loop_
_space_group_symop_operation_xyz
x,y,z
-x,1/2+y,-z
-x,-y,-z
x,1/2-y,z
loop_
_atom_site_type_symbol
_atom_site_label
_atom_site_fract_x
_atom_site_fract_y
_atom_site_fract_z
Si Si1 0.683962 0.086517 0.777446
Si Si2 0.499440 0.581844 0.856837
Si Si3 0.914887 0.923926 0.195696
Si Si4 0.784622 0.079286 0.297375
Si Si5 0.436408 0.922875 0.538063
Si Si6 0.194766 0.420670 0.311616
Si Si7 0.253157 0.578940 0.930153
O O1 0.715314 0.250000 0.752293
O O2 0.706386 0.057550 0.566377
O O3 0.723614 0.964690 0.788119
O O4 0.589912 0.077950 0.009564
O O5 0.529623 0.750000 0.807350
O O6 0.557176 0.492590 0.628849
O O7 0.500000 0.500000 0.000000
O O8 0.922997 0.750000 0.157209
O O9 0.879585 0.962636 0.425973
O O10 0.858501 0.985981 0.196515
O O11 0.000000 0.000000 0.000000
O O12 0.810587 0.250000 0.235381
O O13 0.761556 0.018898 0.194467
O O14 0.455921 0.750000 0.490190
O O15 0.344295 0.951046 0.784270
O O16 0.500000 0.000000 0.500000
O O17 0.197247 0.250000 0.273252
O O18 0.190310 0.502369 0.172525
O O19 0.233959 0.750000 0.974129
#
# Coordination Sequence:
#
# PCOD8075726 Si02
#       7
#     4   4   4   4   4   4   4
#     4   9  18  34  54  74 101 139 182 223 270 327
#     4  11  22  35  52  76 105 141 185 234 284 332
#     4  10  21  38  60  87 114 140 172 213 261 319
#     4   9  18  35  58  81 106 141 181 223 269 318
#     4  11  23  38  54  77 110 149 193 238 282 331
#     4  10  21  35  55  83 110 136 174 221 264 311
#     4  10  21  37  56  78 109 148 187 224 271 330
#
# _framework density 19.338162000000001
#
# number of rings (size 3 to 8) (size 9 to 14) (size 15 to 20)
#    0.000    2.000    0.000    3.429    0.000   10.286 
#    0.000    3.571    0.000    0.000    0.000    0.000 
#    0.000    0.000    0.000    0.000    0.000    0.000 
#
# Total GULP energy -347205.840346 kJ/mol
# GULP energy per Si atom -12400.208584 kJ/mol
# Density = 1.929415 g / cm^3
# Si number density = 19.338162 Si / 1000 Ang^3
#
#
#
# Elastic Constant Matrix: (Units=GPa)
#
#
# Indices 1 2 3 4 5 6 
#
# 1 62.7980 36.3870 33.2134 0.0000 10.7133 0.0000
# 2 36.3870 93.4391 54.7438 0.0000 3.0424 0.0000
# 3 33.2134 54.7438 98.1571 0.0000 12.7416 0.0000
# 4 0.0000 0.0000 0.0000 34.1232 0.0000 4.9880
# 5 10.7133 3.0424 12.7416 0.0000 35.6419 0.0000
# 6 0.0000 0.0000 0.0000 4.9880 0.0000 34.0395
#
#
#
# Elastic Compliance Matrix: (Units=1/GPa)
#
#
# Indices 1 2 3 4 5 6 
#
# 1 0.022324 -0.006662 -0.003189 0.000000 -0.005002 0.000000
# 2 -0.006662 0.018008 -0.008232 0.000000 0.003408 0.000000
# 3 -0.003189 -0.008232 0.016403 0.000000 -0.004203 0.000000
# 4 0.000000 0.000000 0.000000 0.029947 0.000000 -0.004388
# 5 -0.005002 0.003408 -0.004203 0.000000 0.030772 0.000000
# 6 0.000000 0.000000 0.000000 -0.004388 0.000000 0.030021
#
#
# Mechanical properties :
#
#
# Convention : Reuss Voigt Hill
#
# Bulk Modulus (GPa) = 48.61418 55.89806 52.25612
# Shear Modulus (GPa) = 26.24702 29.43093 27.83898
#
# Velocity S-wave (km/s) = 3.68811 3.90540 3.79831
# Velocity P-wave (km/s) = 6.58253 7.02172 6.80567
#
# Compressibility (1/GPa) = 0.02057013
#
# Stress axis : x y z
#
# Youngs Moduli (GPa) = 44.79426 55.52977 60.96356
#
# Poissons Ratio (x) = 0.36996 0.19441
# Poissons Ratio (y) = 0.29843 0.50183
# Poissons Ratio (z) = 0.14285 0.45710
#
# Static dielectric constant tensor:
#      x y z
#    x 3.381340 0.000000 0.085830 
#    y 0.000000 3.788470 0.000000 
#    z 0.085830 0.000000 3.777730 
# 
# 
# High freq. dielectric constant tensor:
#      x y z
#    x 1.737870 0.000000 0.016900 
#    y 0.000000 1.757050 0.000000 
#    z 0.016900 0.000000 1.757250 
# 
# From -- ./inp_files/28248.got.cif
#   From: 2010.06.25/outbox.cif.g09.slc.cpg/sg11_15_cif.got.tgz:28248.got - 2010.06.27 23:14:04.
