data_PCOD8075094
_publ_section_title
;
Structure prediction by ZEFSAII (Michael W. Deem and Ramdas Pophale) SiO2 
 PCOD8075094
Probable space group: P 21/M
;
_chemical_formula_sum "Si O2"
_cell_formula_units_Z 32
_cell_length_a 8.155527
_cell_length_b 25.837628
_cell_length_c 13.250409
_cell_angle_alpha 90.000000
_cell_angle_beta 33.329715
_cell_angle_gamma 90.000000
_cell_volume 1534.147245
_symmetry_space_group_name_H-M "P 21/M"
_symmetry_group_IT_number 11
_symmetry_cell_setting 'monoclinic'
loop_
_space_group_symop_operation_xyz
x,y,z
-x,1/2+y,-z
-x,-y,-z
x,1/2-y,z
loop_
_atom_site_type_symbol
_atom_site_label
_atom_site_fract_x
_atom_site_fract_y
_atom_site_fract_z
Si Si1 0.308956 0.589451 0.088611
Si Si2 0.240952 0.693217 0.012646
Si Si3 0.398998 0.308588 0.362862
Si Si4 0.948267 0.931473 0.675379
Si Si5 0.592914 0.809117 0.292902
Si Si6 0.400348 0.624255 0.581367
Si Si7 0.171440 0.870386 0.368820
Si Si8 0.222816 0.469957 0.597972
O O1 0.305186 0.591265 0.213778
O O2 0.042911 0.550134 0.189920
O O3 0.250474 0.648821 0.090219
O O4 0.602893 0.567325 0.884381
O O5 0.257296 0.750000 0.057403
O O6 0.525402 0.686230 0.793843
O O7 0.947630 0.690815 0.093010
O O8 0.392861 0.250000 0.402951
O O9 0.657607 0.336883 0.296294
O O10 0.073072 0.331847 0.551954
O O11 0.107612 0.903789 0.689260
O O12 0.008962 0.903721 0.539187
O O13 0.068898 0.990355 0.598680
O O14 0.472044 0.750000 0.366840
O O15 0.544494 0.842460 0.418104
O O16 0.439482 0.836537 0.276722
O O17 0.632994 0.583549 0.515220
O O18 0.500000 0.500000 0.500000
#
# Coordination Sequence:
#
# PCOD8075094 Si02
#       8
#     4   4   4   4   4   4   4   4
#     4  12  22  42  65  91 124 167 205 255 314 366
#     4  10  22  38  61  90 126 166 206 251 307 375
#     4  11  21  38  61  91 127 164 204 253 309 372
#     4  10  24  41  62  90 129 158 206 263 309 363
#     4  10  20  37  59  87 121 161 203 250 308 370
#     4  10  20  39  62  87 118 165 205 253 306 373
#     4  11  23  38  63  93 125 160 205 256 304 376
#     4  10  21  41  66  89 118 162 213 259 311 365
#
# _framework density 20.858492999999999
#
# number of rings (size 3 to 8) (size 9 to 14) (size 15 to 20)
#    0.000    1.500    3.750    1.125    1.750    2.500 
#    0.000    0.625    0.000    5.250    0.000    0.000 
#    0.000    0.000    0.000    0.000    0.000    0.000 
#
# Total GULP energy -396418.247259 kJ/mol
# GULP energy per Si atom -12388.070227 kJ/mol
# Density = 2.081102 g / cm^3
# Si number density = 20.858493 Si / 1000 Ang^3
#
#
#
# Elastic Constant Matrix: (Units=GPa)
#
#
# Indices 1 2 3 4 5 6 
#
# 1 70.2219 44.2664 28.6678 0.0000 0.6235 0.0000
# 2 44.2664 121.3180 32.4063 0.0000 -2.4915 0.0000
# 3 28.6678 32.4063 90.3630 0.0000 -7.4387 0.0000
# 4 0.0000 0.0000 0.0000 26.6372 0.0000 -5.5886
# 5 0.6235 -2.4915 -7.4387 0.0000 26.0394 0.0000
# 6 0.0000 0.0000 0.0000 -5.5886 0.0000 32.5145
#
#
#
# Elastic Compliance Matrix: (Units=1/GPa)
#
#
# Indices 1 2 3 4 5 6 
#
# 1 0.019896 -0.006160 -0.004292 0.000000 -0.002292 0.000000
# 2 -0.006160 0.011024 -0.001946 0.000000 0.000646 0.000000
# 3 -0.004292 -0.001946 0.013435 0.000000 0.003755 0.000000
# 4 0.000000 0.000000 0.000000 0.038946 0.000000 0.006694
# 5 -0.002292 0.000646 0.003755 0.000000 0.039593 0.000000
# 6 0.000000 0.000000 0.000000 0.006694 0.000000 0.031906
#
#
# Mechanical properties :
#
#
# Convention : Reuss Voigt Hill
#
# Bulk Modulus (GPa) = 51.12630 54.73156 52.92893
# Shear Modulus (GPa) = 26.86516 28.80905 27.83710
#
# Velocity S-wave (km/s) = 3.59273 3.72044 3.65714
# Velocity P-wave (km/s) = 6.46332 6.68969 6.57748
#
# Compressibility (1/GPa) = 0.01955941
#
# Stress axis : x y z
#
# Youngs Moduli (GPa) = 50.26048 90.71411 74.43348
#
# Poissons Ratio (x) = 0.55884 0.31943
# Poissons Ratio (y) = 0.30963 0.14483
# Poissons Ratio (z) = 0.21569 0.17650
#
# Static dielectric constant tensor:
#      x y z
#    x 3.679190 0.000000 -0.254150 
#    y 0.000000 4.334260 0.000000 
#    z -0.254150 0.000000 3.648040 
# 
# 
# High freq. dielectric constant tensor:
#      x y z
#    x 1.797460 0.000000 -0.017790 
#    y 0.000000 1.841660 0.000000 
#    z -0.017790 0.000000 1.806280 
# 
# From -- ./inp_files/23359.got.cif
#   From: 2010.06.25/outbox.cif.g09.slc.cpg/sg11_12_cif.got.tgz:23359.got - 2010.06.27 23:14:04.
