data_PCOD8075999
_publ_section_title
;
Structure prediction by ZEFSAII (Michael W. Deem and Ramdas Pophale) SiO2 
 PCOD8075999
Probable space group: P 21/M
;
_chemical_formula_sum "Si O2"
_cell_formula_units_Z 28
_cell_length_a 12.710758
_cell_length_b 8.895882
_cell_length_c 15.309673
_cell_angle_alpha 90.000000
_cell_angle_beta 55.822547
_cell_angle_gamma 90.000000
_cell_volume 1432.155898
_symmetry_space_group_name_H-M "P 21/M"
_symmetry_group_IT_number 11
_symmetry_cell_setting 'monoclinic'
loop_
_space_group_symop_operation_xyz
x,y,z
-x,1/2+y,-z
-x,-y,-z
x,1/2-y,z
loop_
_atom_site_type_symbol
_atom_site_label
_atom_site_fract_x
_atom_site_fract_y
_atom_site_fract_z
Si Si1 0.619011 0.086549 0.475164
Si Si2 0.407673 0.424383 0.156199
Si Si3 0.927505 0.923746 0.457103
Si Si4 0.895331 0.074325 0.303069
Si Si5 0.687655 0.416985 0.629805
Si Si6 0.695443 0.425550 0.964149
Si Si7 0.060643 0.428352 0.058853
O O1 0.616245 0.250000 0.432566
O O2 0.750907 0.011861 0.378887
O O3 0.596278 0.100679 0.589656
O O4 0.500000 0.000000 0.500000
O O5 0.371801 0.250000 0.184010
O O6 0.383989 0.517642 0.254168
O O7 0.315391 0.490275 0.123834
O O8 0.557365 0.445699 0.071364
O O9 0.955831 0.750000 0.441325
O O10 0.974408 0.991890 0.342671
O O11 0.783576 0.960292 0.547275
O O12 0.000000 0.000000 0.500000
O O13 0.898489 0.250000 0.323386
O O14 0.956899 0.036427 0.181692
O O15 0.745015 0.250000 0.625519
O O16 0.727979 0.250000 0.935135
O O17 0.803912 0.499158 0.975755
O O18 0.080109 0.250000 0.036631
O O19 0.000000 0.500000 0.000000
#
# Coordination Sequence:
#
# PCOD8075999 Si02
#       7
#     4   4   4   4   4   4   4
#     4   9  19  36  57  81 112 149 190 235 290 347
#     4  10  21  38  61  89 119 156 200 250 307 366
#     4  11  22  36  57  85 117 152 190 234 289 357
#     4   9  21  41  59  81 116 155 195 244 294 349
#     4  10  21  37  56  83 117 151 191 239 289 351
#     4  10  22  40  61  86 120 158 201 253 309 366
#     4  11  24  42  64  88 120 161 210 259 308 367
#
# _framework density 19.550944999999999
#
# number of rings (size 3 to 8) (size 9 to 14) (size 15 to 20)
#    0.000    2.000    0.000    3.857    2.000    6.857 
#    0.000    4.286    0.000    0.000    0.000    0.000 
#    0.000    0.000    0.000    0.000    0.000    0.000 
#
# Total GULP energy -346936.068354 kJ/mol
# GULP energy per Si atom -12390.573870 kJ/mol
# Density = 1.950645 g / cm^3
# Si number density = 19.550945 Si / 1000 Ang^3
#
#
#
# Elastic Constant Matrix: (Units=GPa)
#
#
# Indices 1 2 3 4 5 6 
#
# 1 138.4673 65.8967 50.0390 0.0000 15.2613 0.0000
# 2 65.8967 124.8354 55.9225 0.0000 14.1907 0.0000
# 3 50.0390 55.9225 113.1624 0.0000 19.6877 0.0000
# 4 0.0000 0.0000 0.0000 34.8251 0.0000 3.1681
# 5 15.2613 14.1907 19.6877 0.0000 20.0649 0.0000
# 6 0.0000 0.0000 0.0000 3.1681 0.0000 38.4476
#
#
#
# Elastic Compliance Matrix: (Units=1/GPa)
#
#
# Indices 1 2 3 4 5 6 
#
# 1 0.010248 -0.004207 -0.001946 0.000000 -0.002910 0.000000
# 2 -0.004207 0.012143 -0.003863 0.000000 -0.001598 0.000000
# 3 -0.001946 -0.003863 0.013112 0.000000 -0.008653 0.000000
# 4 0.000000 0.000000 0.000000 0.028932 0.000000 -0.002384
# 5 -0.002910 -0.001598 -0.008653 0.000000 0.061672 0.000000
# 6 0.000000 0.000000 0.000000 -0.002384 0.000000 0.026206
#
#
# Mechanical properties :
#
#
# Convention : Reuss Voigt Hill
#
# Bulk Modulus (GPa) = 64.63604 80.02016 72.32810
# Shear Modulus (GPa) = 28.16869 32.30798 30.23833
#
# Velocity S-wave (km/s) = 3.79988 4.06951 3.93700
# Velocity P-wave (km/s) = 7.23770 7.94349 7.59879
#
# Compressibility (1/GPa) = 0.01547125
#
# Stress axis : x y z
#
# Youngs Moduli (GPa) = 97.57921 82.34986 76.26726
#
# Poissons Ratio (x) = 0.34644 0.14845
# Poissons Ratio (y) = 0.41051 0.29459
# Poissons Ratio (z) = 0.18993 0.31809
#
# Static dielectric constant tensor:
#      x y z
#    x 3.413690 0.000000 0.163620 
#    y 0.000000 3.778560 0.000000 
#    z 0.163620 0.000000 3.514240 
# 
# 
# High freq. dielectric constant tensor:
#      x y z
#    x 1.759860 0.000000 0.006230 
#    y 0.000000 1.772990 0.000000 
#    z 0.006230 0.000000 1.762710 
# 
# From -- ./inp_files/37503.got.cif
#   From: 2010.06.25/outbox.cif.g09.slc.cpg/sg11_19_cif.got.tgz:37503.got - 2010.06.27 23:14:04.
