data_PCOD8075594
_publ_section_title
;
Structure prediction by ZEFSAII (Michael W. Deem and Ramdas Pophale) SiO2 
 PCOD8075594
Probable space group: P 21/M
;
_chemical_formula_sum "Si O2"
_cell_formula_units_Z 32
_cell_length_a 8.889908
_cell_length_b 20.781859
_cell_length_c 16.243682
_cell_angle_alpha 90.000000
_cell_angle_beta 32.566256
_cell_angle_gamma 90.000000
_cell_volume 1615.362413
_symmetry_space_group_name_H-M "P 21/M"
_symmetry_group_IT_number 11
_symmetry_cell_setting 'monoclinic'
loop_
_space_group_symop_operation_xyz
x,y,z
-x,1/2+y,-z
-x,-y,-z
x,1/2-y,z
loop_
_atom_site_type_symbol
_atom_site_label
_atom_site_fract_x
_atom_site_fract_y
_atom_site_fract_z
Si Si1 0.757385 0.470581 0.429346
Si Si2 0.314080 0.977786 0.357609
Si Si3 0.094836 0.629459 0.766780
Si Si4 0.832054 0.439784 0.107580
Si Si5 0.342911 0.320818 0.420944
Si Si6 0.499384 0.177382 0.994109
Si Si7 0.371026 0.822462 0.878909
Si Si8 0.863755 0.088839 0.709573
O O1 0.500000 0.500000 0.500000
O O2 0.639305 0.448677 0.573100
O O3 0.864870 0.405262 0.338857
O O4 0.012982 0.521779 0.312830
O O5 0.354712 0.926022 0.264745
O O6 0.506676 0.040528 0.258113
O O7 0.000000 0.000000 0.500000
O O8 0.055067 0.574453 0.853750
O O9 0.361388 0.672250 0.668310
O O10 0.818078 0.672592 0.890554
O O11 0.864599 0.376411 0.034262
O O12 0.000000 0.500000 0.000000
O O13 0.225152 0.250000 0.494630
O O14 0.388443 0.328694 0.301714
O O15 0.124295 0.371810 0.554612
O O16 0.603619 0.250000 0.928027
O O17 0.504247 0.162468 0.089156
O O18 0.702320 0.127230 0.854867
O O19 0.241170 0.750000 0.936029
#
# Coordination Sequence:
#
# PCOD8075594 Si02
#       8
#     4   4   4   4   4   4   4   4
#     4  11  20  37  60  92 122 150 197 249 297 368
#     4  10  21  37  57  85 122 152 189 244 303 354
#     4  11  22  37  61  88 117 159 195 247 306 354
#     4  11  22  37  58  89 120 154 199 243 304 370
#     4  10  20  40  64  82 111 159 208 237 294 370
#     4  11  25  41  59  89 124 156 207 257 301 359
#     4   9  21  39  60  84 116 161 201 245 297 367
#     4  11  23  38  61  89 120 161 191 252 313 348
#
# _framework density 19.809795999999999
#
# number of rings (size 3 to 8) (size 9 to 14) (size 15 to 20)
#    0.000    1.500    2.500    3.750    7.000    1.000 
#    0.000    0.000    0.000    0.000    0.000    0.000 
#    0.000    0.000    0.000    0.000    0.000    0.000 
#
# Total GULP energy -396656.439417 kJ/mol
# GULP energy per Si atom -12395.513732 kJ/mol
# Density = 1.976471 g / cm^3
# Si number density = 19.809796 Si / 1000 Ang^3
#
#
#
# Elastic Constant Matrix: (Units=GPa)
#
#
# Indices 1 2 3 4 5 6 
#
# 1 120.4454 37.5818 45.5035 0.0000 17.4930 0.0000
# 2 37.5818 88.2029 34.7995 0.0000 13.6234 0.0000
# 3 45.5035 34.7995 72.2703 0.0000 11.5062 0.0000
# 4 0.0000 0.0000 0.0000 31.4878 0.0000 1.0544
# 5 17.4930 13.6234 11.5062 0.0000 23.8724 0.0000
# 6 0.0000 0.0000 0.0000 1.0544 0.0000 33.6051
#
#
#
# Elastic Compliance Matrix: (Units=1/GPa)
#
#
# Indices 1 2 3 4 5 6 
#
# 1 0.011771 -0.002048 -0.005673 0.000000 -0.004722 0.000000
# 2 -0.002048 0.014959 -0.005192 0.000000 -0.004534 0.000000
# 3 -0.005673 -0.005192 0.020336 0.000000 -0.002682 0.000000
# 4 0.000000 0.000000 0.000000 0.031792 0.000000 -0.000998
# 5 -0.004722 -0.004534 -0.002682 0.000000 0.049229 0.000000
# 6 0.000000 0.000000 0.000000 -0.000998 0.000000 0.029789
#
#
# Mechanical properties :
#
#
# Convention : Reuss Voigt Hill
#
# Bulk Modulus (GPa) = 47.08170 57.40978 52.24574
# Shear Modulus (GPa) = 26.20817 28.66198 27.43507
#
# Velocity S-wave (km/s) = 3.64124 3.80789 3.72549
# Velocity P-wave (km/s) = 6.44179 6.95534 6.70348
#
# Compressibility (1/GPa) = 0.02123968
#
# Stress axis : x y z
#
# Youngs Moduli (GPa) = 84.95757 66.85147 49.17406
#
# Poissons Ratio (x) = 0.13688 0.27898
# Poissons Ratio (y) = 0.17395 0.25530
# Poissons Ratio (z) = 0.48199 0.34708
#
# Static dielectric constant tensor:
#      x y z
#    x 4.625830 0.000000 0.374260 
#    y 0.000000 3.549450 0.000000 
#    z 0.374260 0.000000 3.301820 
# 
# 
# High freq. dielectric constant tensor:
#      x y z
#    x 1.780710 0.000000 0.012820 
#    y 0.000000 1.777560 0.000000 
#    z 0.012820 0.000000 1.757190 
# 
# From -- ./inp_files/48448.got.cif
#   From: 2010.06.25/outbox.cif.g09.slc.cpg/sg11_25_cif.got.tgz:48448.got - 2010.06.27 23:14:04.
