data_PCOD8075502
_publ_section_title
;
Structure prediction by ZEFSAII (Michael W. Deem and Ramdas Pophale) SiO2 
 PCOD8075502
Probable space group: P 21/M
;
_chemical_formula_sum "Si O2"
_cell_formula_units_Z 24
_cell_length_a 22.652125
_cell_length_b 10.105740
_cell_length_c 16.487311
_cell_angle_alpha 90.000000
_cell_angle_beta 19.397775
_cell_angle_gamma 90.000000
_cell_volume 1253.510042
_symmetry_space_group_name_H-M "P 21/M"
_symmetry_group_IT_number 11
_symmetry_cell_setting 'monoclinic'
loop_
_space_group_symop_operation_xyz
x,y,z
-x,1/2+y,-z
-x,-y,-z
x,1/2-y,z
loop_
_atom_site_type_symbol
_atom_site_label
_atom_site_fract_x
_atom_site_fract_y
_atom_site_fract_z
Si Si1 0.715034 0.527963 0.496629
Si Si2 0.148035 0.599921 0.278628
Si Si3 0.441396 0.250000 0.691118
Si Si4 0.793254 0.250000 0.339170
Si Si5 0.013618 0.250000 0.900202
Si Si6 0.498798 0.599922 0.927819
Si Si7 0.658543 0.250000 0.255354
Si Si8 0.638429 0.472084 0.149879
O O1 0.789187 0.378580 0.401710
O O2 0.874126 0.619457 0.261581
O O3 0.660589 0.565993 0.658226
O O4 0.550726 0.547491 0.648526
O O5 0.074939 0.750000 0.376866
O O6 0.000000 0.500000 0.500000
O O7 0.315237 0.581305 0.119569
O O8 0.201811 0.566236 0.117029
O O9 0.623122 0.250000 0.503573
O O10 0.487885 0.250000 0.535727
O O11 0.328684 0.121344 0.862265
O O12 0.964674 0.250000 0.058893
O O13 0.842034 0.250000 0.065859
O O14 0.521573 0.750000 0.930196
O O15 0.500000 0.500000 0.000000
O O16 0.645495 0.380461 0.218748
#
# Coordination Sequence:
#
# PCOD8075502 Si02
#       8
#     4   4   2   2   2   4   2   4
#     4  10  20  39  61  81 112 153 190 227 276 339
#     4  10  22  39  60  86 112 145 189 231 278 337
#     4   9  20  35  58  87 112 146 193 233 272 331
#     4   9  20  35  58  87 112 146 193 233 272 331
#     4  11  21  35  56  87 118 146 187 235 280 325
#     4  10  22  39  60  86 112 145 189 231 278 337
#     4  11  21  35  56  87 118 146 187 235 280 325
#     4  10  20  39  61  81 112 153 190 227 276 339
#
# _framework density 19.146235999999998
#
# number of rings (size 3 to 8) (size 9 to 14) (size 15 to 20)
#    0.000    2.000    1.667    1.500    2.333    2.000 
#    0.000    2.500    0.000    0.000    0.000    0.000 
#    0.000    0.000    0.000    0.000    0.000    0.000 
#
# Total GULP energy -297655.635628 kJ/mol
# GULP energy per Si atom -12402.318151 kJ/mol
# Density = 1.910266 g / cm^3
# Si number density = 19.146236 Si / 1000 Ang^3
#
#
#
# Elastic Constant Matrix: (Units=GPa)
#
#
# Indices 1 2 3 4 5 6 
#
# 1 75.9476 50.2836 26.2740 0.0000 22.7652 0.0000
# 2 50.2836 177.4932 57.2426 0.0000 18.8564 0.0000
# 3 26.2740 57.2426 92.0494 0.0000 21.0157 0.0000
# 4 0.0000 0.0000 0.0000 40.4914 0.0000 7.0448
# 5 22.7652 18.8564 21.0157 0.0000 24.5723 0.0000
# 6 0.0000 0.0000 0.0000 7.0448 0.0000 37.9093
#
#
#
# Elastic Compliance Matrix: (Units=1/GPa)
#
#
# Indices 1 2 3 4 5 6 
#
# 1 0.020739 -0.004295 0.000479 0.000000 -0.016328 0.000000
# 2 -0.004295 0.008022 -0.004058 0.000000 0.001294 0.000000
# 3 0.000479 -0.004058 0.015708 0.000000 -0.010764 0.000000
# 4 0.000000 0.000000 0.000000 0.025522 0.000000 -0.004743
# 5 -0.016328 0.001294 -0.010764 0.000000 0.064037 0.000000
# 6 0.000000 0.000000 0.000000 -0.004743 0.000000 0.027260
#
#
# Mechanical properties :
#
#
# Convention : Reuss Voigt Hill
#
# Bulk Modulus (GPa) = 34.81755 68.12116 51.46935
# Shear Modulus (GPa) = 26.79377 34.70726 30.75052
#
# Velocity S-wave (km/s) = 3.74495 4.26225 4.01195
# Velocity P-wave (km/s) = 6.07652 7.73816 6.95712
#
# Compressibility (1/GPa) = 0.02872115
#
# Stress axis : x y z
#
# Youngs Moduli (GPa) = 48.21758 124.65438 63.66103
#
# Poissons Ratio (x) = 0.53543 -0.03051
# Poissons Ratio (y) = 0.20711 0.25835
# Poissons Ratio (z) = -0.02311 0.50587
#
# Static dielectric constant tensor:
#      x y z
#    x 3.437730 0.000000 0.223020 
#    y 0.000000 18.118010 0.000000 
#    z 0.223020 0.000000 3.516620 
# 
# 
# High freq. dielectric constant tensor:
#      x y z
#    x 1.734540 0.000000 0.018080 
#    y 0.000000 1.765730 0.000000 
#    z 0.018080 0.000000 1.740940 
# 
# From -- ./inp_files/61883.got.cif
#   From: 2010.06.25/outbox.cif.g09.slc.cpg/sg11_31_cif.got.tgz:61883.got - 2010.06.27 23:14:04.
