data_PCOD8075687
_publ_section_title
;
Structure prediction by ZEFSAII (Michael W. Deem and Ramdas Pophale) SiO2 
 PCOD8075687
Probable space group: P 21/M
;
_chemical_formula_sum "Si O2"
_cell_formula_units_Z 28
_cell_length_a 18.213047
_cell_length_b 12.493991
_cell_length_c 9.980243
_cell_angle_alpha 90.000000
_cell_angle_beta 36.289329
_cell_angle_gamma 90.000000
_cell_volume 1344.145104
_symmetry_space_group_name_H-M "P 21/M"
_symmetry_group_IT_number 11
_symmetry_cell_setting 'monoclinic'
loop_
_space_group_symop_operation_xyz
x,y,z
-x,1/2+y,-z
-x,-y,-z
x,1/2-y,z
loop_
_atom_site_type_symbol
_atom_site_label
_atom_site_fract_x
_atom_site_fract_y
_atom_site_fract_z
Si Si1 0.905624 0.122984 0.058357
Si Si2 0.017556 0.876208 0.338304
Si Si3 0.044600 0.876204 0.723829
Si Si4 0.598777 0.001393 0.181171
Si Si5 0.625800 0.123345 0.410327
Si Si6 0.160931 0.124241 0.173500
Si Si7 0.770271 0.125109 0.770220
O O1 0.910390 0.250000 0.061168
O O2 0.956979 0.074616 0.123546
O O3 0.763616 0.087069 0.246898
O O4 0.987228 0.083038 0.810200
O O5 0.038674 0.750000 0.305513
O O6 0.888993 0.905583 0.602661
O O7 0.137710 0.919569 0.245706
O O8 0.024019 0.750000 0.761760
O O9 0.174739 0.900049 0.457319
O O10 0.935003 0.927893 0.793845
O O11 0.593152 0.089342 0.307121
O O12 0.467935 0.941322 0.353688
O O13 0.639954 0.063211 0.984231
O O14 0.700217 0.910200 0.062433
O O15 0.606473 0.250000 0.454605
O O16 0.153458 0.250000 0.166227
O O17 0.747172 0.250000 0.821879
#
# Coordination Sequence:
#
# PCOD8075687 Si02
#       7
#     4   4   4   4   4   4   4
#     4   9  15  30  52  73  98 135 173 200 238 291
#     4   8  14  26  48  72  98 130 163 202 240 282
#     4   8  16  29  50  76 103 135 163 198 250 296
#     4  11  20  31  53  75 100 132 165 205 255 291
#     4  10  21  35  51  74  99 129 170 211 244 291
#     4   9  18  32  49  76 106 130 162 202 249 299
#     4   9  16  30  49  74 101 128 167 206 241 291
#
# _framework density 20.831085000000002
#
# number of rings (size 3 to 8) (size 9 to 14) (size 15 to 20)
#    0.000    2.857    1.429    2.571    0.000    2.286 
#    0.000    1.429    0.000    0.000    0.000    0.000 
#    0.000    2.286    0.000    0.000    0.000    0.000 
#
# Total GULP energy -347060.061263 kJ/mol
# GULP energy per Si atom -12395.002188 kJ/mol
# Density = 2.078367 g / cm^3
# Si number density = 20.831085 Si / 1000 Ang^3
#
#
#
# Elastic Constant Matrix: (Units=GPa)
#
#
# Indices 1 2 3 4 5 6 
#
# 1 71.0100 22.0190 39.4239 0.0000 22.2986 0.0000
# 2 22.0190 48.4820 38.4523 0.0000 14.2953 0.0000
# 3 39.4239 38.4523 123.1544 0.0000 16.0649 0.0000
# 4 0.0000 0.0000 0.0000 40.9034 0.0000 -0.9636
# 5 22.2986 14.2953 16.0649 0.0000 31.3851 0.0000
# 6 0.0000 0.0000 0.0000 -0.9636 0.0000 19.4840
#
#
#
# Elastic Compliance Matrix: (Units=1/GPa)
#
#
# Indices 1 2 3 4 5 6 
#
# 1 0.020922 -0.002667 -0.004377 0.000000 -0.011410 0.000000
# 2 -0.002667 0.030158 -0.007520 0.000000 -0.007993 0.000000
# 3 -0.004377 -0.007520 0.011805 0.000000 0.000492 0.000000
# 4 0.000000 0.000000 0.000000 0.024476 0.000000 0.001211
# 5 -0.011410 -0.007993 0.000492 0.000000 0.043357 0.000000
# 6 0.000000 0.000000 0.000000 0.001211 0.000000 0.051384
#
#
# Mechanical properties :
#
#
# Convention : Reuss Voigt Hill
#
# Bulk Modulus (GPa) = 29.62204 49.15964 39.39084
# Shear Modulus (GPa) = 22.47366 27.87123 25.17245
#
# Velocity S-wave (km/s) = 3.28815 3.66179 3.47999
# Velocity P-wave (km/s) = 5.35415 6.44427 5.92434
#
# Compressibility (1/GPa) = 0.03375865
#
# Stress axis : x y z
#
# Youngs Moduli (GPa) = 47.79595 33.15828 84.71244
#
# Poissons Ratio (x) = 0.08842 0.37075
# Poissons Ratio (y) = 0.12746 0.63704
# Poissons Ratio (z) = 0.20918 0.24935
#
# Static dielectric constant tensor:
#      x y z
#    x 3.578820 0.000000 0.264450 
#    y 0.000000 3.972010 0.000000 
#    z 0.264450 0.000000 4.049800 
# 
# 
# High freq. dielectric constant tensor:
#      x y z
#    x 1.755200 0.000000 0.017450 
#    y 0.000000 1.859110 0.000000 
#    z 0.017450 0.000000 1.821290 
# 
# From -- ./inp_files/24920.got.cif
#   From: 2010.06.25/outbox.cif.g09.slc.cpg/sg11_13_cif.got.tgz:24920.got - 2010.06.27 23:14:04.
