data_PCOD8075810
_publ_section_title
;
Structure prediction by ZEFSAII (Michael W. Deem and Ramdas Pophale) SiO2 
 PCOD8075810
Probable space group: P 21/M
;
_chemical_formula_sum "Si O2"
_cell_formula_units_Z 24
_cell_length_a 7.564631
_cell_length_b 18.482527
_cell_length_c 11.560069
_cell_angle_alpha 90.000000
_cell_angle_beta 128.219592
_cell_angle_gamma 90.000000
_cell_volume 1269.802237
_symmetry_space_group_name_H-M "P 21/M"
_symmetry_group_IT_number 11
_symmetry_cell_setting 'monoclinic'
loop_
_space_group_symop_operation_xyz
x,y,z
-x,1/2+y,-z
-x,-y,-z
x,1/2-y,z
loop_
_atom_site_type_symbol
_atom_site_label
_atom_site_fract_x
_atom_site_fract_y
_atom_site_fract_z
Si Si1 0.233717 0.166347 0.861792
Si Si2 0.506173 0.332873 0.199374
Si Si3 0.866493 0.584062 0.829619
Si Si4 0.855611 0.085160 0.830709
Si Si5 0.004790 0.166533 0.345373
Si Si6 0.404278 0.333997 0.682229
O O1 0.160786 0.250000 0.826253
O O2 0.340342 0.140319 0.784824
O O3 0.011816 0.119521 0.795212
O O4 0.419690 0.152042 0.034850
O O5 0.462877 0.250000 0.217510
O O6 0.376614 0.382201 0.239465
O O7 0.768569 0.352767 0.310537
O O8 0.835158 0.499385 0.799304
O O9 0.965260 0.617314 0.753848
O O10 0.042095 0.602517 0.002162
O O11 0.611465 0.119745 0.720378
O O12 0.006126 0.250000 0.306008
O O13 0.196045 0.149669 0.515113
O O14 0.472529 0.250000 0.708937
#
# Coordination Sequence:
#
# PCOD8075810 Si02
#       6
#     4   4   4   4   4   4
#     4   9  18  34  56  78 101 135 178 220 261 309
#     4   9  18  34  56  78 101 135 178 220 261 309
#     4  10  21  36  55  80 109 141 177 218 264 314
#     4  10  21  36  55  80 109 141 177 218 264 314
#     4  10  21  36  55  79 106 138 176 219 266 314
#     4  10  21  36  55  79 106 138 176 219 266 314
#
# _framework density 18.900580999999999
#
# number of rings (size 3 to 8) (size 9 to 14) (size 15 to 20)
#    0.000    2.333    0.000    2.000    0.000    6.667 
#    0.000   10.000    0.000    0.000    0.000    0.000 
#    0.000    0.000    0.000    0.000    0.000    0.000 
#
# Total GULP energy -297722.309466 kJ/mol
# GULP energy per Si atom -12405.096228 kJ/mol
# Density = 1.885756 g / cm^3
# Si number density = 18.900581 Si / 1000 Ang^3
#
#
#
# Elastic Constant Matrix: (Units=GPa)
#
#
# Indices 1 2 3 4 5 6 
#
# 1 85.8495 42.6751 27.9315 0.0000 33.4604 0.0000
# 2 42.6751 69.9985 28.9889 0.0000 18.2563 0.0000
# 3 27.9315 28.9889 48.9876 0.0000 26.1193 0.0000
# 4 0.0000 0.0000 0.0000 19.8211 0.0000 -7.9975
# 5 33.4604 18.2563 26.1193 0.0000 31.3621 0.0000
# 6 0.0000 0.0000 0.0000 -7.9975 0.0000 3.4813
#
#
#
# Elastic Compliance Matrix: (Units=1/GPa)
#
#
# Indices 1 2 3 4 5 6 
#
# 1 0.025057 -0.011078 0.005548 0.000000 -0.024905 0.000000
# 2 -0.011078 0.023984 -0.012113 0.000000 0.007946 0.000000
# 3 0.005548 -0.012113 0.042836 0.000000 -0.034543 0.000000
# 4 0.000000 0.000000 0.000000 0.690315 0.000000 1.585831
# 5 -0.024905 0.007946 -0.034543 0.000000 0.082600 0.000000
# 6 0.000000 0.000000 0.000000 1.585831 0.000000 3.930309
#
#
# Mechanical properties :
#
#
# Convention : Reuss Voigt Hill
#
# Bulk Modulus (GPa) = 17.67108 44.89185 31.28147
# Shear Modulus (GPa) = 1.03109 17.94891 9.49000
#
# Velocity S-wave (km/s) = 0.73940 3.08498 2.24319
# Velocity P-wave (km/s) = 3.17785 6.04091 4.82656
#
# Compressibility (1/GPa) = 0.05658964
#
# Stress axis : x y z
#
# Youngs Moduli (GPa) = 39.90859 41.69449 23.34509
#
# Poissons Ratio (x) = 0.46191 -0.12951
# Poissons Ratio (y) = 0.44212 0.28278
# Poissons Ratio (z) = -0.22140 0.50504
#
# Static dielectric constant tensor:
#      x y z
#    x 3.478020 0.000000 0.055380 
#    y 0.000000 3.298080 0.000000 
#    z 0.055380 0.000000 3.392660 
# 
# 
# High freq. dielectric constant tensor:
#      x y z
#    x 1.743480 0.000000 0.005470 
#    y 0.000000 1.729350 0.000000 
#    z 0.005470 0.000000 1.728240 
# 
# From -- ./inp_files/4825.got.cif
#   From: 2010.06.25/outbox.cif.g09.slc.cpg/sg11_3_cif.got.tgz:4825.got - 2010.06.27 23:14:04.
