data_PCOD8075532
_publ_section_title
;
Structure prediction by ZEFSAII (Michael W. Deem and Ramdas Pophale) SiO2 
 PCOD8075532
Probable space group: P 21/M
;
_chemical_formula_sum "Si O2"
_cell_formula_units_Z 32
_cell_length_a 14.973354
_cell_length_b 21.618566
_cell_length_c 15.138714
_cell_angle_alpha 90.000000
_cell_angle_beta 18.967494
_cell_angle_gamma 90.000000
_cell_volume 1592.797793
_symmetry_space_group_name_H-M "P 21/M"
_symmetry_group_IT_number 11
_symmetry_cell_setting 'monoclinic'
loop_
_space_group_symop_operation_xyz
x,y,z
-x,1/2+y,-z
-x,-y,-z
x,1/2-y,z
loop_
_atom_site_type_symbol
_atom_site_label
_atom_site_fract_x
_atom_site_fract_y
_atom_site_fract_z
Si Si1 0.054774 0.126110 0.614812
Si Si2 0.671146 0.507818 0.568736
Si Si3 0.530451 0.898414 0.553402
Si Si4 0.335852 0.320782 0.027114
Si Si5 0.028002 0.428001 0.993003
Si Si6 0.902954 0.179118 0.578742
Si Si7 0.593668 0.320296 0.166367
Si Si8 0.174981 0.072697 0.051334
O O1 0.180373 0.057430 0.506737
O O2 0.902102 0.134278 0.664455
O O3 0.311303 0.173599 0.375168
O O4 0.838250 0.137923 0.896761
O O5 0.558367 0.539239 0.585062
O O6 0.408644 0.476692 0.861817
O O7 0.878274 0.453068 0.353193
O O8 0.807442 0.891759 0.237808
O O9 0.481595 0.840753 0.663965
O O10 0.279828 0.901551 0.719187
O O11 0.303450 0.250000 0.025888
O O12 0.218562 0.362480 0.058804
O O13 0.650258 0.338527 0.751949
O O14 0.177478 0.332075 0.266730
O O15 0.182628 0.414491 0.939684
O O16 0.000000 0.500000 0.000000
O O17 0.874089 0.250000 0.638526
O O18 0.695082 0.250000 0.070285
#
# Coordination Sequence:
#
# PCOD8075532 Si02
#       8
#     4   4   4   4   4   4   4   4
#     4  11  22  37  61  91 120 153 199 239 290 353
#     4  11  21  37  57  88 123 151 186 241 300 354
#     4  11  21  37  55  88 119 150 194 244 284 339
#     4  10  23  42  61  84 114 152 199 251 295 340
#     4  12  21  36  61  88 112 149 206 242 283 346
#     4  10  20  39  64  85 112 152 204 246 282 346
#     4  11  22  37  58  86 127 161 188 234 302 361
#     4  12  23  38  61  85 116 156 197 244 302 352
#
# _framework density 20.090434999999999
#
# number of rings (size 3 to 8) (size 9 to 14) (size 15 to 20)
#    0.000    1.000    2.500    6.750    0.000    1.000 
#    0.000    5.000    0.000    0.000    0.000    0.000 
#    0.000    0.000    0.000    0.000    0.000    0.000 
#
# Total GULP energy -396892.685224 kJ/mol
# GULP energy per Si atom -12402.896413 kJ/mol
# Density = 2.004471 g / cm^3
# Si number density = 20.090435 Si / 1000 Ang^3
#
#
#
# Elastic Constant Matrix: (Units=GPa)
#
#
# Indices 1 2 3 4 5 6 
#
# 1 104.5098 53.9084 16.6126 0.0000 1.7601 0.0000
# 2 53.9084 84.8438 19.1759 0.0000 -2.1574 0.0000
# 3 16.6126 19.1759 88.3298 0.0000 -10.1134 0.0000
# 4 0.0000 0.0000 0.0000 26.2937 0.0000 0.8615
# 5 1.7601 -2.1574 -10.1134 0.0000 25.6208 0.0000
# 6 0.0000 0.0000 0.0000 0.8615 0.0000 27.4003
#
#
#
# Elastic Compliance Matrix: (Units=1/GPa)
#
#
# Indices 1 2 3 4 5 6 
#
# 1 0.014392 -0.008972 -0.001004 0.000000 -0.002141 0.000000
# 2 -0.008972 0.017988 -0.002067 0.000000 0.001315 0.000000
# 3 -0.001004 -0.002067 0.012512 0.000000 0.004834 0.000000
# 4 0.000000 0.000000 0.000000 0.038071 0.000000 -0.001197
# 5 -0.002141 0.001315 0.004834 0.000000 0.041197 0.000000
# 6 0.000000 0.000000 0.000000 -0.001197 0.000000 0.036534
#
#
# Mechanical properties :
#
#
# Convention : Reuss Voigt Hill
#
# Bulk Modulus (GPa) = 48.06371 50.78636 49.42503
# Shear Modulus (GPa) = 26.08039 28.39540 27.23790
#
# Velocity S-wave (km/s) = 3.60689 3.76357 3.68607
# Velocity P-wave (km/s) = 6.42821 6.64979 6.53994
#
# Compressibility (1/GPa) = 0.02080572
#
# Stress axis : x y z
#
# Youngs Moduli (GPa) = 69.48265 55.59367 79.92166
#
# Poissons Ratio (x) = 0.49879 0.08025
# Poissons Ratio (y) = 0.62340 0.16520
# Poissons Ratio (z) = 0.06977 0.11492
#
# Static dielectric constant tensor:
#      x y z
#    x 3.533080 0.000000 -0.166740 
#    y 0.000000 3.396680 0.000000 
#    z -0.166740 0.000000 3.898170 
# 
# 
# High freq. dielectric constant tensor:
#      x y z
#    x 1.773470 0.000000 -0.012850 
#    y 0.000000 1.759710 0.000000 
#    z -0.012850 0.000000 1.806570 
# 
# From -- ./inp_files/52705.got.cif
#   From: 2010.06.25/outbox.cif.g09.slc.cpg/sg11_27_cif.got.tgz:52705.got - 2010.06.27 23:14:04.
