data_PCOD8075362
_publ_section_title
;
Structure prediction by ZEFSAII (Michael W. Deem and Ramdas Pophale) SiO2 
 PCOD8075362
Probable space group: P 21/M
;
_chemical_formula_sum "Si O2"
_cell_formula_units_Z 32
_cell_length_a 29.222119
_cell_length_b 8.996324
_cell_length_c 12.630386
_cell_angle_alpha 90.000000
_cell_angle_beta 29.434399
_cell_angle_gamma 90.000000
_cell_volume 1631.744597
_symmetry_space_group_name_H-M "P 21/M"
_symmetry_group_IT_number 11
_symmetry_cell_setting 'monoclinic'
loop_
_space_group_symop_operation_xyz
x,y,z
-x,1/2+y,-z
-x,-y,-z
x,1/2-y,z
loop_
_atom_site_type_symbol
_atom_site_label
_atom_site_fract_x
_atom_site_fract_y
_atom_site_fract_z
Si Si1 0.715556 0.426394 0.464269
Si Si2 0.478794 0.414688 0.437494
Si Si3 0.316480 0.076964 0.258444
Si Si4 0.274353 0.414720 0.908468
Si Si5 0.217543 0.073427 0.243389
Si Si6 0.843119 0.923630 0.039464
Si Si7 0.028726 0.575733 0.553379
Si Si8 0.484252 0.921892 0.217737
O O1 0.719502 0.250000 0.454641
O O2 0.729818 0.483676 0.554448
O O3 0.801823 0.488929 0.222824
O O4 0.613707 0.483948 0.629589
O O5 0.500000 0.500000 0.500000
O O6 0.522146 0.250000 0.354565
O O7 0.368200 0.410487 0.653367
O O8 0.516627 0.497787 0.259279
O O9 0.294320 0.250000 0.319961
O O10 0.270017 0.017730 0.243142
O O11 0.428615 0.050756 0.036043
O O12 0.233899 0.250000 0.008107
O O13 0.202146 0.495881 0.975988
O O14 0.280269 0.481485 0.015489
O O15 0.205880 0.250000 0.273911
O O16 0.118152 0.998049 0.426786
O O17 0.816894 0.750000 0.106490
O O18 0.952572 0.946493 0.800456
O O19 0.044868 0.750000 0.498269
O O20 0.000000 0.500000 0.500000
O O21 0.473208 0.750000 0.268224
#
# Coordination Sequence:
#
# PCOD8075362 Si02
#       8
#     4   4   4   4   4   4   4   4
#     4  11  23  38  60  89 120 149 194 255 290 323
#     4  11  21  33  52  79 115 156 193 235 284 343
#     4  10  22  40  62  83 115 162 199 232 287 358
#     4   9  17  33  56  80 111 151 188 226 280 348
#     4  10  20  38  61  86 116 152 196 240 286 345
#     4  10  20  38  61  84 113 152 193 228 282 356
#     4  11  22  37  61  90 119 152 189 236 290 351
#     4  10  21  38  58  84 115 152 198 243 286 339
#
# _framework density 19.610911999999999
#
# number of rings (size 3 to 8) (size 9 to 14) (size 15 to 20)
#    0.000    1.750    2.500    2.250    0.000    4.500 
#    0.000    3.125    0.000    0.000    0.000    0.000 
#    0.000    0.000    0.000    0.000    0.000    0.000 
#
# Total GULP energy -396587.243828 kJ/mol
# GULP energy per Si atom -12393.351370 kJ/mol
# Density = 1.956628 g / cm^3
# Si number density = 19.610912 Si / 1000 Ang^3
#
#
#
# Elastic Constant Matrix: (Units=GPa)
#
#
# Indices 1 2 3 4 5 6 
#
# 1 80.3213 26.5239 33.7857 0.0000 17.2406 0.0000
# 2 26.5239 56.4912 32.3977 0.0000 9.6251 0.0000
# 3 33.7857 32.3977 98.5101 0.0000 18.8840 0.0000
# 4 0.0000 0.0000 0.0000 29.9811 0.0000 1.2515
# 5 17.2406 9.6251 18.8840 0.0000 36.6786 0.0000
# 6 0.0000 0.0000 0.0000 1.2515 0.0000 30.8396
#
#
#
# Elastic Compliance Matrix: (Units=1/GPa)
#
#
# Indices 1 2 3 4 5 6 
#
# 1 0.016466 -0.005177 -0.003019 0.000000 -0.004827 0.000000
# 2 -0.005177 0.023614 -0.005846 0.000000 -0.000753 0.000000
# 3 -0.003019 -0.005846 0.013917 0.000000 -0.004212 0.000000
# 4 0.000000 0.000000 0.000000 0.033411 0.000000 -0.001356
# 5 -0.004827 -0.000753 -0.004212 0.000000 0.031899 0.000000
# 6 0.000000 0.000000 0.000000 -0.001356 0.000000 0.032481
#
#
# Mechanical properties :
#
#
# Convention : Reuss Voigt Hill
#
# Bulk Modulus (GPa) = 38.59325 46.74857 42.67091
# Shear Modulus (GPa) = 26.52403 29.00755 27.76579
#
# Velocity S-wave (km/s) = 3.68164 3.85015 3.76684
# Velocity P-wave (km/s) = 6.14775 6.60717 6.38160
#
# Compressibility (1/GPa) = 0.02591127
#
# Stress axis : x y z
#
# Youngs Moduli (GPa) = 60.73274 42.34838 71.85573
#
# Poissons Ratio (x) = 0.21924 0.21696
# Poissons Ratio (y) = 0.31441 0.42007
# Poissons Ratio (z) = 0.18337 0.24757
#
# Static dielectric constant tensor:
#      x y z
#    x 3.531980 0.000000 -0.060920 
#    y 0.000000 3.389340 0.000000 
#    z -0.060920 0.000000 3.950360 
# 
# 
# High freq. dielectric constant tensor:
#      x y z
#    x 1.757980 0.000000 0.005070 
#    y 0.000000 1.749220 0.000000 
#    z 0.005070 0.000000 1.768400 
# 
# From -- ./inp_files/45146.got.cif
#   From: 2010.06.25/outbox.cif.g09.slc.cpg/sg11_23_cif.got.tgz:45146.got - 2010.06.27 23:14:04.
