data_PCOD8075718
_publ_section_title
;
Structure prediction by ZEFSAII (Michael W. Deem and Ramdas Pophale) SiO2 
 PCOD8075718
Probable space group: P 21/M
;
_chemical_formula_sum "Si O2"
_cell_formula_units_Z 32
_cell_length_a 5.404897
_cell_length_b 25.045469
_cell_length_c 12.727096
_cell_angle_alpha 90.000000
_cell_angle_beta 107.364466
_cell_angle_gamma 90.000000
_cell_volume 1644.326262
_symmetry_space_group_name_H-M "P 21/M"
_symmetry_group_IT_number 11
_symmetry_cell_setting 'monoclinic'
loop_
_space_group_symop_operation_xyz
x,y,z
-x,1/2+y,-z
-x,-y,-z
x,1/2-y,z
loop_
_atom_site_type_symbol
_atom_site_label
_atom_site_fract_x
_atom_site_fract_y
_atom_site_fract_z
Si Si1 0.238879 0.812212 0.899695
Si Si2 0.537137 0.573520 0.317944
Si Si3 0.763491 0.469156 0.416511
Si Si4 0.904608 0.188011 0.528850
Si Si5 0.972490 0.877202 0.251531
Si Si6 0.034770 0.625552 0.676812
Si Si7 0.544514 0.880121 0.526855
Si Si8 0.169158 0.312406 0.970994
O O1 0.217359 0.750000 0.870268
O O2 0.177053 0.844342 0.786717
O O3 0.531992 0.827430 0.967715
O O4 0.026485 0.828562 0.959660
O O5 0.550358 0.510724 0.347438
O O6 0.723039 0.584462 0.240642
O O7 0.669444 0.609063 0.428154
O O8 0.236489 0.589519 0.264137
O O9 0.835286 0.431589 0.326582
O O10 0.659252 0.429458 0.492976
O O11 0.000000 0.500000 0.500000
O O12 0.970379 0.250000 0.535350
O O13 0.004868 0.161625 0.433686
O O14 0.594910 0.177286 0.488992
O O15 0.011884 0.163820 0.650368
O O16 0.921751 0.843972 0.141131
O O17 0.727537 0.614829 0.653923
O O18 0.143342 0.250000 0.943982
#
# Coordination Sequence:
#
# PCOD8075718 Si02
#       8
#     4   4   4   4   4   4   4   4
#     4  10  23  41  64  89 119 160 208 251 297 357
#     4  11  21  37  58  91 121 155 201 249 306 358
#     4  11  21  36  59  86 126 167 204 248 299 374
#     4  10  21  35  53  87 127 158 188 242 315 375
#     4  11  22  39  62  90 121 154 203 254 309 361
#     4  11  22  37  58  89 122 158 201 249 304 364
#     4  10  21  35  54  87 124 163 199 238 296 372
#     4  10  22  43  66  88 115 162 212 252 297 361
#
# _framework density 19.460857000000001
#
# number of rings (size 3 to 8) (size 9 to 14) (size 15 to 20)
#    0.000    1.500    2.500    3.375    5.250    1.000 
#    0.000    1.250    0.000    4.500    0.000    0.000 
#    0.000    0.000    0.000    0.000    0.000    0.000 
#
# Total GULP energy -396449.880328 kJ/mol
# GULP energy per Si atom -12389.058760 kJ/mol
# Density = 1.941656 g / cm^3
# Si number density = 19.460857 Si / 1000 Ang^3
#
#
#
# Elastic Constant Matrix: (Units=GPa)
#
#
# Indices 1 2 3 4 5 6 
#
# 1 123.9384 30.5875 45.2624 0.0000 6.4375 0.0000
# 2 30.5875 67.4066 37.3200 0.0000 4.9267 0.0000
# 3 45.2624 37.3200 113.5873 0.0000 6.9585 0.0000
# 4 0.0000 0.0000 0.0000 31.0196 0.0000 1.4973
# 5 6.4375 4.9267 6.9585 0.0000 25.8832 0.0000
# 6 0.0000 0.0000 0.0000 1.4973 0.0000 16.7765
#
#
#
# Elastic Compliance Matrix: (Units=1/GPa)
#
#
# Indices 1 2 3 4 5 6 
#
# 1 0.009892 -0.002765 -0.002964 0.000000 -0.001137 0.000000
# 2 -0.002765 0.018997 -0.005044 0.000000 -0.001572 0.000000
# 3 -0.002964 -0.005044 0.011731 0.000000 -0.001457 0.000000
# 4 0.000000 0.000000 0.000000 0.032377 0.000000 -0.002890
# 5 -0.001137 -0.001572 -0.001457 0.000000 0.039609 0.000000
# 6 0.000000 0.000000 0.000000 -0.002890 0.000000 0.059865
#
#
# Mechanical properties :
#
#
# Convention : Reuss Voigt Hill
#
# Bulk Modulus (GPa) = 52.42128 59.03022 55.72575
# Shear Modulus (GPa) = 24.95314 27.52000 26.23657
#
# Velocity S-wave (km/s) = 3.58470 3.76456 3.67573
# Velocity P-wave (km/s) = 6.64294 7.02101 6.83459
#
# Compressibility (1/GPa) = 0.01907622
#
# Stress axis : x y z
#
# Youngs Moduli (GPa) = 101.08830 52.63897 85.24271
#
# Poissons Ratio (x) = 0.14554 0.25265
# Poissons Ratio (y) = 0.27949 0.42993
# Poissons Ratio (z) = 0.29961 0.26549
#
# Static dielectric constant tensor:
#      x y z
#    x 3.991920 0.000000 -0.002120 
#    y 0.000000 3.509280 0.000000 
#    z -0.002120 0.000000 3.311280 
# 
# 
# High freq. dielectric constant tensor:
#      x y z
#    x 1.783300 0.000000 0.001230 
#    y 0.000000 1.752150 0.000000 
#    z 0.001230 0.000000 1.731300 
# 
# From -- ./inp_files/5474.got.cif
#   From: 2010.06.25/outbox.cif.g09.slc.cpg/sg11_3_cif.got.tgz:5474.got - 2010.06.27 23:14:04.
