data_PCOD8075736
_publ_section_title
;
Structure prediction by ZEFSAII (Michael W. Deem and Ramdas Pophale) SiO2 
 PCOD8075736
Probable space group: P 21/M
;
_chemical_formula_sum "Si O2"
_cell_formula_units_Z 32
_cell_length_a 19.137716
_cell_length_b 12.784750
_cell_length_c 19.406087
_cell_angle_alpha 90.000000
_cell_angle_beta 19.768616
_cell_angle_gamma 90.000000
_cell_volume 1605.915953
_symmetry_space_group_name_H-M "P 21/M"
_symmetry_group_IT_number 11
_symmetry_cell_setting 'monoclinic'
loop_
_space_group_symop_operation_xyz
x,y,z
-x,1/2+y,-z
-x,-y,-z
x,1/2-y,z
loop_
_atom_site_type_symbol
_atom_site_label
_atom_site_fract_x
_atom_site_fract_y
_atom_site_fract_z
Si Si1 0.537715 0.130497 0.820624
Si Si2 0.463832 0.868935 0.461065
Si Si3 0.827779 0.960180 0.211348
Si Si4 0.290273 0.053218 0.171221
Si Si5 0.132180 0.453232 0.459302
Si Si6 0.102468 0.865892 0.068665
Si Si7 0.787533 0.864113 0.473286
Si Si8 0.456563 0.030702 0.752264
O O1 0.610842 0.250000 0.742862
O O2 0.434621 0.087725 0.845981
O O3 0.738897 0.062167 0.653816
O O4 0.357088 0.129289 0.046757
O O5 0.396282 0.750000 0.535343
O O6 0.657257 0.894323 0.329513
O O7 0.523607 0.883461 0.325584
O O8 0.269070 0.939367 0.661498
O O9 0.922413 0.883033 0.180197
O O10 0.000000 0.000000 0.000000
O O11 0.191157 0.104982 0.332383
O O12 0.113644 0.973843 0.308032
O O13 0.500000 0.000000 0.000000
O O14 0.189957 0.374316 0.465759
O O15 0.199114 0.750000 0.966319
O O16 0.010743 0.870232 0.230727
O O17 0.264787 0.958004 0.911642
O O18 0.686092 0.750000 0.553578
O O19 0.653912 0.956373 0.565952
#
# Coordination Sequence:
#
# PCOD8075736 Si02
#       8
#     4   4   4   4   4   4   4   4
#     4  10  21  35  56  84 117 158 198 238 292 353
#     4  11  24  41  64  90 122 160 200 245 302 358
#     4  11  23  44  61  89 123 154 199 251 297 361
#     4   9  18  36  58  83 114 151 192 241 295 344
#     4   9  19  36  58  82 118 153 190 245 294 348
#     4  11  22  38  62  88 117 157 200 248 306 357
#     4  10  21  37  58  85 115 154 198 244 297 351
#     4  11  21  40  60  84 122 154 200 248 292 350
#
# _framework density 19.926323
#
# number of rings (size 3 to 8) (size 9 to 14) (size 15 to 20)
#    0.000    1.750    2.500    1.875    0.000    2.000 
#    0.000    5.000    0.000    0.750    0.000    0.000 
#    0.000    0.000    0.000    0.000    0.000    0.000 
#
# Total GULP energy -396667.020627 kJ/mol
# GULP energy per Si atom -12395.844395 kJ/mol
# Density = 1.988097 g / cm^3
# Si number density = 19.926323 Si / 1000 Ang^3
#
#
#
# Elastic Constant Matrix: (Units=GPa)
#
#
# Indices 1 2 3 4 5 6 
#
# 1 103.8473 31.9968 31.2611 0.0000 10.3337 0.0000
# 2 31.9968 101.0331 28.7043 0.0000 9.1159 0.0000
# 3 31.2611 28.7043 88.9785 0.0000 3.4836 0.0000
# 4 0.0000 0.0000 0.0000 16.1620 0.0000 14.5809
# 5 10.3337 9.1159 3.4836 0.0000 34.6311 0.0000
# 6 0.0000 0.0000 0.0000 14.5809 0.0000 -1.9113
#
#
#
# Elastic Compliance Matrix: (Units=1/GPa)
#
#
# Indices 1 2 3 4 5 6 
#
# 1 0.011615 -0.002558 -0.003159 0.000000 -0.002475 0.000000
# 2 -0.002558 0.011684 -0.002791 0.000000 -0.002032 0.000000
# 3 -0.003159 -0.002791 0.013235 0.000000 0.000346 0.000000
# 4 0.000000 0.000000 0.000000 0.007850 0.000000 0.059882
# 5 -0.002475 -0.002032 0.000346 0.000000 0.030114 0.000000
# 6 0.000000 0.000000 0.000000 0.059882 0.000000 -0.066376
#
#
# Mechanical properties :
#
#
# Convention : Reuss Voigt Hill
#
# Bulk Modulus (GPa) = 51.23170 53.08705 52.15937
# Shear Modulus (GPa) = 158.01098 23.23613 90.62355
#
# Velocity S-wave (km/s) = 8.91458 3.41853 6.75115
# Velocity P-wave (km/s) = 11.47720 6.50241 9.32758
#
# Compressibility (1/GPa) = 0.01951917
#
# Stress axis : x y z
#
# Youngs Moduli (GPa) = 86.09794 85.58685 75.55566
#
# Poissons Ratio (x) = 0.21890 0.23865
# Poissons Ratio (y) = 0.22021 0.21089
# Poissons Ratio (z) = 0.27195 0.23888
#
# Static dielectric constant tensor:
#      x y z
#    x 3.934790 0.000000 0.167760 
#    y 0.000000 3.398610 0.000000 
#    z 0.167760 0.000000 3.704460 
# 
# 
# High freq. dielectric constant tensor:
#      x y z
#    x 1.795490 0.000000 0.010010 
#    y 0.000000 1.759770 0.000000 
#    z 0.010010 0.000000 1.779070 
# 
# From -- ./inp_files/66544.got.cif
#   From: 2010.06.25/outbox.cif.g09.slc.cpg/sg11_34_cif.got.tgz:66544.got - 2010.06.27 23:14:04.
