data_PCOD8075729
_publ_section_title
;
Structure prediction by ZEFSAII (Michael W. Deem and Ramdas Pophale) SiO2 
 PCOD8075729
Probable space group: P 21/M
;
_chemical_formula_sum "Si O2"
_cell_formula_units_Z 28
_cell_length_a 10.204469
_cell_length_b 10.469969
_cell_length_c 15.531966
_cell_angle_alpha 90.000000
_cell_angle_beta 121.952029
_cell_angle_gamma 90.000000
_cell_volume 1408.022908
_symmetry_space_group_name_H-M "P 21/M"
_symmetry_group_IT_number 11
_symmetry_cell_setting 'monoclinic'
loop_
_space_group_symop_operation_xyz
x,y,z
-x,1/2+y,-z
-x,-y,-z
x,1/2-y,z
loop_
_atom_site_type_symbol
_atom_site_label
_atom_site_fract_x
_atom_site_fract_y
_atom_site_fract_z
Si Si1 0.924233 0.607060 0.859856
Si Si2 0.872147 0.488677 0.668854
Si Si3 0.815998 0.604642 0.288793
Si Si4 0.525429 0.898332 0.083100
Si Si5 0.553904 0.110131 0.580397
Si Si6 0.245625 0.393599 0.549190
Si Si7 0.786031 0.106548 0.925787
O O1 0.867008 0.750000 0.864476
O O2 0.920667 0.596547 0.754625
O O3 0.813695 0.500407 0.863029
O O4 0.098368 0.584536 0.953605
O O5 0.733978 0.408391 0.666375
O O6 0.816883 0.538734 0.557659
O O7 0.021357 0.402630 0.703175
O O8 0.771343 0.750000 0.291301
O O9 0.680989 0.549500 0.182239
O O10 0.816478 0.538827 0.384479
O O11 0.540555 0.750000 0.055332
O O12 0.387180 0.909097 0.102448
O O13 0.500000 0.000000 0.000000
O O14 0.535352 0.250000 0.529826
O O15 0.434649 0.103093 0.619282
O O16 0.500000 0.000000 0.500000
O O17 0.182571 0.250000 0.520983
O O18 0.810987 0.250000 0.896212
#
# Coordination Sequence:
#
# PCOD8075729 Si02
#       7
#     4   4   4   4   4   4   4
#     4  10  21  36  57  85 116 149 188 240 296 343
#     4  11  20  33  56  85 115 149 191 239 286 341
#     4  10  21  35  55  83 115 151 195 236 282 341
#     4  10  21  38  61  84 114 153 194 238 287 342
#     4   9  19  34  55  79 108 146 189 233 280 332
#     4   9  19  36  55  78 111 153 191 233 285 342
#     4   9  20  38  58  83 113 151 196 240 287 346
#
# _framework density 19.886040000000001
#
# number of rings (size 3 to 8) (size 9 to 14) (size 15 to 20)
#    0.000    2.286    0.000    2.143    2.000    2.286 
#    0.000    3.571    0.000    2.571    0.000    0.000 
#    0.000    0.000    0.000    0.000    0.000    0.000 
#
# Total GULP energy -346900.368450 kJ/mol
# GULP energy per Si atom -12389.298873 kJ/mol
# Density = 1.984078 g / cm^3
# Si number density = 19.886040 Si / 1000 Ang^3
#
#
#
# Elastic Constant Matrix: (Units=GPa)
#
#
# Indices 1 2 3 4 5 6 
#
# 1 109.5031 33.6347 44.8654 0.0000 17.0684 0.0000
# 2 33.6347 98.3842 39.5745 0.0000 -5.3329 0.0000
# 3 44.8654 39.5745 117.1875 0.0000 -2.3131 0.0000
# 4 0.0000 0.0000 0.0000 23.8596 0.0000 -4.1351
# 5 17.0684 -5.3329 -2.3131 0.0000 30.2916 0.0000
# 6 0.0000 0.0000 0.0000 -4.1351 0.0000 28.7699
#
#
#
# Elastic Compliance Matrix: (Units=1/GPa)
#
#
# Indices 1 2 3 4 5 6 
#
# 1 0.013098 -0.003290 -0.004067 0.000000 -0.008270 0.000000
# 2 -0.003290 0.012684 -0.002947 0.000000 0.003862 0.000000
# 3 -0.004067 -0.002947 0.011137 0.000000 0.002623 0.000000
# 4 0.000000 0.000000 0.000000 0.042983 0.000000 0.006178
# 5 -0.008270 0.003862 0.002623 0.000000 0.038553 0.000000
# 6 0.000000 0.000000 0.000000 0.006178 0.000000 0.035646
#
#
# Mechanical properties :
#
#
# Convention : Reuss Voigt Hill
#
# Bulk Modulus (GPa) = 61.31019 62.35822 61.83421
# Shear Modulus (GPa) = 27.75509 30.38425 29.06967
#
# Velocity S-wave (km/s) = 3.73997 3.91310 3.82751
# Velocity P-wave (km/s) = 7.03900 7.20016 7.12004
#
# Compressibility (1/GPa) = 0.01631050
#
# Stress axis : x y z
#
# Youngs Moduli (GPa) = 76.34696 78.83920 89.78729
#
# Poissons Ratio (x) = 0.25941 0.36514
# Poissons Ratio (y) = 0.25121 0.26465
# Poissons Ratio (z) = 0.31048 0.23238
#
# Static dielectric constant tensor:
#      x y z
#    x 3.958420 0.000000 0.192510 
#    y 0.000000 3.571410 0.000000 
#    z 0.192510 0.000000 3.618970 
# 
# 
# High freq. dielectric constant tensor:
#      x y z
#    x 1.780970 0.000000 0.010220 
#    y 0.000000 1.762930 0.000000 
#    z 0.010220 0.000000 1.773420 
# 
# From -- ./inp_files/47271.got.cif
#   From: 2010.06.25/outbox.cif.g09.slc.cpg/sg11_24_cif.got.tgz:47271.got - 2010.06.27 23:14:04.
