data_PCOD8075320
_publ_section_title
;
Structure prediction by ZEFSAII (Michael W. Deem and Ramdas Pophale) SiO2 
 PCOD8075320
Probable space group: P 21/M
;
_chemical_formula_sum "Si O2"
_cell_formula_units_Z 26
_cell_length_a 8.641202
_cell_length_b 18.874994
_cell_length_c 8.405290
_cell_angle_alpha 90.000000
_cell_angle_beta 102.724698
_cell_angle_gamma 90.000000
_cell_volume 1337.254607
_symmetry_space_group_name_H-M "P 21/M"
_symmetry_group_IT_number 11
_symmetry_cell_setting 'monoclinic'
loop_
_space_group_symop_operation_xyz
x,y,z
-x,1/2+y,-z
-x,-y,-z
x,1/2-y,z
loop_
_atom_site_type_symbol
_atom_site_label
_atom_site_fract_x
_atom_site_fract_y
_atom_site_fract_z
Si Si1 0.597074 0.991798 0.361041
Si Si2 0.357057 0.607853 0.195628
Si Si3 0.657508 0.376947 0.173717
Si Si4 0.484707 0.250000 0.261270
Si Si5 0.443621 0.750000 0.376850
Si Si6 0.871524 0.022884 0.632666
Si Si7 0.217736 0.250000 0.431798
Si Si8 0.012225 0.615648 0.600937
O O1 0.536334 0.921878 0.256333
O O2 0.500000 0.000000 0.500000
O O3 0.573811 0.055707 0.233418
O O4 0.777789 0.989198 0.458382
O O5 0.355885 0.683668 0.278202
O O6 0.234200 0.552957 0.248894
O O7 0.306075 0.612059 0.002633
O O8 0.524418 0.317046 0.162058
O O9 0.820741 0.354489 0.296751
O O10 0.596828 0.250000 0.444514
O O11 0.299660 0.250000 0.274205
O O12 0.637630 0.750000 0.404624
O O13 0.971681 0.087599 0.578385
O O14 0.968121 0.952171 0.706549
O O15 0.114990 0.178891 0.426071
#
# Coordination Sequence:
#
# PCOD8075320 Si02
#       8
#     4   4   4   2   2   4   2   4
#     4   9  18  34  58  86 111 150 195 237 272 332
#     4  11  21  35  59  88 123 147 189 245 293 346
#     4  11  22  36  59  89 119 154 185 241 301 345
#     4  10  22  38  59  85 108 154 205 237 285 338
#     4  10  21  36  59  84 105 152 198 236 288 329
#     4   9  20  35  62  84 118 155 196 239 279 349
#     4  10  23  36  66  81 109 152 205 249 271 343
#     4  10  20  38  58  87 116 154 197 234 291 347
#
# _framework density 19.442819
#
# number of rings (size 3 to 8) (size 9 to 14) (size 15 to 20)
#    0.462    1.538    0.000    5.077    4.308    1.231 
#    0.000    0.000    6.769    0.000    0.000    0.000 
#    0.000    0.000    0.000    0.000    0.000    0.000 
#
# Total GULP energy -322128.178948 kJ/mol
# GULP energy per Si atom -12389.545344 kJ/mol
# Density = 1.939857 g / cm^3
# Si number density = 19.442819 Si / 1000 Ang^3
#
#
#
# Elastic Constant Matrix: (Units=GPa)
#
#
# Indices 1 2 3 4 5 6 
#
# 1 77.8601 36.1640 17.2361 0.0000 -15.6591 0.0000
# 2 36.1640 104.4717 24.4860 0.0000 -15.1173 0.0000
# 3 17.2361 24.4860 78.6983 0.0000 -20.0730 0.0000
# 4 0.0000 0.0000 0.0000 25.0399 0.0000 -7.4266
# 5 -15.6591 -15.1173 -20.0730 0.0000 23.9806 0.0000
# 6 0.0000 0.0000 0.0000 -7.4266 0.0000 41.7116
#
#
#
# Elastic Compliance Matrix: (Units=1/GPa)
#
#
# Indices 1 2 3 4 5 6 
#
# 1 0.016572 -0.004560 -0.000234 0.000000 0.007751 0.000000
# 2 -0.004560 0.012045 -0.001998 0.000000 0.002942 0.000000
# 3 -0.000234 -0.001998 0.016554 0.000000 0.012444 0.000000
# 4 0.000000 0.000000 0.000000 0.042163 0.000000 0.007507
# 5 0.007751 0.002942 0.012444 0.000000 0.059033 0.000000
# 6 0.000000 0.000000 0.000000 0.007507 0.000000 0.025311
#
#
# Mechanical properties :
#
#
# Convention : Reuss Voigt Hill
#
# Bulk Modulus (GPa) = 31.65938 46.31135 38.98537
# Shear Modulus (GPa) = 25.53753 30.35603 27.94678
#
# Velocity S-wave (km/s) = 3.62811 3.95561 3.79540
# Velocity P-wave (km/s) = 5.81976 6.68831 6.26909
#
# Compressibility (1/GPa) = 0.03158621
#
# Stress axis : x y z
#
# Youngs Moduli (GPa) = 60.34160 83.02406 60.40952
#
# Poissons Ratio (x) = 0.37861 0.01412
# Poissons Ratio (y) = 0.27518 0.12072
# Poissons Ratio (z) = 0.01410 0.16591
#
# Static dielectric constant tensor:
#      x y z
#    x 4.016440 0.000000 0.131030 
#    y 0.000000 3.622600 0.000000 
#    z 0.131030 0.000000 3.344690 
# 
# 
# High freq. dielectric constant tensor:
#      x y z
#    x 1.759340 0.000000 -0.009490 
#    y 0.000000 1.767240 0.000000 
#    z -0.009490 0.000000 1.725570 
# 
# From -- ./inp_files/13608.got.cif
#   From: 2010.06.25/outbox.cif.g09.slc.cpg/sg11_7_cif.got.tgz:13608.got - 2010.06.27 23:14:04.
