data_PCOD8075336
_publ_section_title
;
Structure prediction by ZEFSAII (Michael W. Deem and Ramdas Pophale) SiO2 
 PCOD8075336
Probable space group: P 21/M
;
_chemical_formula_sum "Si O2"
_cell_formula_units_Z 32
_cell_length_a 23.437450
_cell_length_b 9.314170
_cell_length_c 16.337768
_cell_angle_alpha 90.000000
_cell_angle_beta 28.435613
_cell_angle_gamma 90.000000
_cell_volume 1698.283038
_symmetry_space_group_name_H-M "P 21/M"
_symmetry_group_IT_number 11
_symmetry_cell_setting 'monoclinic'
loop_
_space_group_symop_operation_xyz
x,y,z
-x,1/2+y,-z
-x,-y,-z
x,1/2-y,z
loop_
_atom_site_type_symbol
_atom_site_label
_atom_site_fract_x
_atom_site_fract_y
_atom_site_fract_z
Si Si1 0.238654 0.419574 0.511444
Si Si2 0.339460 0.913237 0.986012
Si Si3 0.242622 0.583650 0.842761
Si Si4 0.068087 0.913103 0.346028
Si Si5 0.530157 0.918061 0.879809
Si Si6 0.412005 0.080903 0.740016
Si Si7 0.016066 0.579452 0.230552
Si Si8 0.685151 0.414060 0.425835
O O1 0.236722 0.250000 0.526886
O O2 0.338972 0.462639 0.318297
O O3 0.111717 0.479275 0.639338
O O4 0.265327 0.486907 0.565401
O O5 0.367943 0.750000 0.921690
O O6 0.208119 0.922505 0.190420
O O7 0.434041 0.966189 0.933590
O O8 0.342797 0.018612 0.905292
O O9 0.265101 0.750000 0.837367
O O10 0.356351 0.492897 0.730090
O O11 0.231553 0.564593 0.759006
O O12 0.120486 0.524846 0.038006
O O13 0.022072 0.750000 0.407434
O O14 0.040812 0.978808 0.290678
O O15 0.000000 0.000000 0.500000
O O16 0.521983 0.750000 0.908443
O O17 0.500000 0.000000 0.000000
O O18 0.391186 0.250000 0.760945
O O19 0.551038 0.040135 0.570930
O O20 0.016066 0.750000 0.231340
O O21 0.687576 0.250000 0.453336
#
# Coordination Sequence:
#
# PCOD8075336 Si02
#       8
#     4   4   4   4   4   4   4   4
#     4  10  21  38  59  82 110 147 189 229 273 331
#     4  10  20  38  60  81 108 152 192 221 277 344
#     4  10  20  38  60  80 112 152 185 223 280 343
#     4  10  21  37  58  82 110 144 185 228 276 331
#     4  10  22  37  57  83 110 144 186 227 275 329
#     4  11  21  34  55  87 117 141 184 237 281 324
#     4   9  19  37  59  81 108 147 188 224 271 334
#     4  10  22  37  56  84 114 148 185 228 283 332
#
# _framework density 18.842561
#
# number of rings (size 3 to 8) (size 9 to 14) (size 15 to 20)
#    0.000    2.000    2.500    0.750    1.750    3.000 
#    0.000    1.250    0.000    0.000    0.000    0.000 
#    0.000    0.000    0.000    0.000    0.000    0.000 
#
# Total GULP energy -396882.108373 kJ/mol
# GULP energy per Si atom -12402.565887 kJ/mol
# Density = 1.879967 g / cm^3
# Si number density = 18.842561 Si / 1000 Ang^3
#
#
#
# Elastic Constant Matrix: (Units=GPa)
#
#
# Indices 1 2 3 4 5 6 
#
# 1 102.3243 34.7791 55.3081 0.0000 -7.1593 0.0000
# 2 34.7791 46.0056 34.5486 0.0000 2.6521 0.0000
# 3 55.3081 34.5486 123.9812 0.0000 3.5052 0.0000
# 4 0.0000 0.0000 0.0000 25.3321 0.0000 8.0316
# 5 -7.1593 2.6521 3.5052 0.0000 35.9716 0.0000
# 6 0.0000 0.0000 0.0000 8.0316 0.0000 29.6491
#
#
#
# Elastic Compliance Matrix: (Units=1/GPa)
#
#
# Indices 1 2 3 4 5 6 
#
# 1 0.015442 -0.008412 -0.004662 0.000000 0.004148 0.000000
# 2 -0.008412 0.032131 -0.005101 0.000000 -0.003546 0.000000
# 3 -0.004662 -0.005101 0.011614 0.000000 -0.001684 0.000000
# 4 0.000000 0.000000 0.000000 0.043184 0.000000 -0.011698
# 5 0.004148 -0.003546 -0.001684 0.000000 0.029051 0.000000
# 6 0.000000 0.000000 0.000000 -0.011698 0.000000 0.036897
#
#
# Mechanical properties :
#
#
# Convention : Reuss Voigt Hill
#
# Bulk Modulus (GPa) = 43.78687 57.95366 50.87026
# Shear Modulus (GPa) = 23.55370 28.03557 25.79464
#
# Velocity S-wave (km/s) = 3.53941 3.86150 3.70395
# Velocity P-wave (km/s) = 6.32392 7.12075 6.73413
#
# Compressibility (1/GPa) = 0.02283790
#
# Stress axis : x y z
#
# Youngs Moduli (GPa) = 64.75817 31.12297 86.10037
#
# Poissons Ratio (x) = 0.26181 0.40139
# Poissons Ratio (y) = 0.54475 0.43917
# Poissons Ratio (z) = 0.30190 0.15875
#
# Static dielectric constant tensor:
#      x y z
#    x 3.598400 0.000000 -0.139500 
#    y 0.000000 3.324450 0.000000 
#    z -0.139500 0.000000 3.577590 
# 
# 
# High freq. dielectric constant tensor:
#      x y z
#    x 1.735880 0.000000 -0.001070 
#    y 0.000000 1.711110 0.000000 
#    z -0.001070 0.000000 1.741370 
# 
# From -- ./inp_files/55516.got.cif
#   From: 2010.06.25/outbox.cif.g09.slc.cpg/sg11_28_cif.got.tgz:55516.got - 2010.06.27 23:14:04.
