data_PCOD8075758
_publ_section_title
;
Structure prediction by ZEFSAII (Michael W. Deem and Ramdas Pophale) SiO2 
 PCOD8075758
Probable space group: P 21/M
;
_chemical_formula_sum "Si O2"
_cell_formula_units_Z 24
_cell_length_a 19.544056
_cell_length_b 9.464725
_cell_length_c 10.081502
_cell_angle_alpha 90.000000
_cell_angle_beta 130.135606
_cell_angle_gamma 90.000000
_cell_volume 1425.730170
_symmetry_space_group_name_H-M "P 21/M"
_symmetry_group_IT_number 11
_symmetry_cell_setting 'monoclinic'
loop_
_space_group_symop_operation_xyz
x,y,z
-x,1/2+y,-z
-x,-y,-z
x,1/2-y,z
loop_
_atom_site_type_symbol
_atom_site_label
_atom_site_fract_x
_atom_site_fract_y
_atom_site_fract_z
Si Si1 0.220779 0.082702 0.309071
Si Si2 0.956672 0.912503 0.329473
Si Si3 0.774015 0.582137 0.984892
Si Si4 0.420739 0.405853 0.559495
Si Si5 0.419555 0.092739 0.241606
Si Si6 0.056731 0.584446 0.179134
O O1 0.200218 0.250000 0.299064
O O2 0.321825 0.046785 0.482804
O O3 0.154169 0.987950 0.313555
O O4 0.206967 0.030475 0.140666
O O5 0.955973 0.750000 0.372052
O O6 0.854729 0.967452 0.180346
O O7 0.011165 0.934110 0.263644
O O8 0.000000 0.000000 0.500000
O O9 0.767381 0.750000 0.968891
O O10 0.677750 0.526378 0.919395
O O11 0.440682 0.250000 0.638927
O O12 0.498347 0.504408 0.716930
O O13 0.423723 0.405555 0.405032
O O14 0.429728 0.250000 0.196635
O O15 0.063382 0.750000 0.148444
O O16 0.000000 0.500000 0.000000
#
# Coordination Sequence:
#
# PCOD8075758 Si02
#       6
#     4   4   4   4   4   4
#     4   9  16  29  47  67  95 128 158 192 238 287
#     4  10  21  36  51  69  97 129 163 201 242 286
#     4   8  14  28  46  64  91 127 158 191 238 284
#     4   8  14  23  37  60  92 123 148 185 235 278
#     4   8  13  22  39  59  85 122 156 184 224 280
#     4  11  21  33  51  73  97 127 162 202 243 286
#
# _framework density 16.833482
#
# number of rings (size 3 to 8) (size 9 to 14) (size 15 to 20)
#    0.000    3.000    1.667    2.500    0.000    2.000 
#    0.000    3.333    0.000    0.000    0.000    1.167 
#    0.000    0.000    0.000    0.000    0.000    0.000 
#
# Total GULP energy -297405.445091 kJ/mol
# GULP energy per Si atom -12391.893545 kJ/mol
# Density = 1.679517 g / cm^3
# Si number density = 16.833482 Si / 1000 Ang^3
#
#
#
# Elastic Constant Matrix: (Units=GPa)
#
#
# Indices 1 2 3 4 5 6 
#
# 1 99.4184 61.4814 54.7636 0.0000 42.6139 0.0000
# 2 61.4814 84.2036 47.2994 0.0000 21.1991 0.0000
# 3 54.7636 47.2994 85.3727 0.0000 28.1020 0.0000
# 4 0.0000 0.0000 0.0000 24.0408 0.0000 6.3523
# 5 42.6139 21.1991 28.1020 0.0000 32.7494 0.0000
# 6 0.0000 0.0000 0.0000 6.3523 0.0000 30.0586
#
#
#
# Elastic Compliance Matrix: (Units=1/GPa)
#
#
# Indices 1 2 3 4 5 6 
#
# 1 0.036618 -0.016322 -0.003122 0.000000 -0.034404 0.000000
# 2 -0.016322 0.024927 -0.006997 0.000000 0.011106 0.000000
# 3 -0.003122 -0.006997 0.020576 0.000000 -0.009065 0.000000
# 4 0.000000 0.000000 0.000000 0.044056 0.000000 -0.009310
# 5 -0.034404 0.011106 -0.009065 0.000000 0.075892 0.000000
# 6 0.000000 0.000000 0.000000 -0.009310 0.000000 0.035236
#
#
# Mechanical properties :
#
#
# Convention : Reuss Voigt Hill
#
# Bulk Modulus (GPa) = 34.19766 66.23150 50.21458
# Shear Modulus (GPa) = 16.67036 24.39979 20.53507
#
# Velocity S-wave (km/s) = 3.15033 3.81133 3.49649
# Velocity P-wave (km/s) = 5.79587 7.66804 6.79673
#
# Compressibility (1/GPa) = 0.02924177
#
# Stress axis : x y z
#
# Youngs Moduli (GPa) = 27.30864 40.11636 48.59986
#
# Poissons Ratio (x) = 0.65477 0.15172
# Poissons Ratio (y) = 0.44573 0.34003
# Poissons Ratio (z) = 0.08525 0.28067
#
# Static dielectric constant tensor:
#      x y z
#    x 3.520930 0.000000 -0.032420 
#    y 0.000000 3.160370 0.000000 
#    z -0.032420 0.000000 4.656790 
# 
# 
# High freq. dielectric constant tensor:
#      x y z
#    x 1.645560 0.000000 0.042270 
#    y 0.000000 1.633710 0.000000 
#    z 0.042270 0.000000 1.612220 
# 
# From -- ./inp_files/25930.got.cif
#   From: 2010.06.25/outbox.cif.g09.slc.cpg/sg11_13_cif.got.tgz:25930.got - 2010.06.27 23:14:04.
