data_PCOD8075696
_publ_section_title
;
Structure prediction by ZEFSAII (Michael W. Deem and Ramdas Pophale) SiO2 
 PCOD8075696
Probable space group: P 21/M
;
_chemical_formula_sum "Si O2"
_cell_formula_units_Z 32
_cell_length_a 27.838342
_cell_length_b 8.628566
_cell_length_c 14.256013
_cell_angle_alpha 90.000000
_cell_angle_beta 28.866341
_cell_angle_gamma 90.000000
_cell_volume 1653.173933
_symmetry_space_group_name_H-M "P 21/M"
_symmetry_group_IT_number 11
_symmetry_cell_setting 'monoclinic'
loop_
_space_group_symop_operation_xyz
x,y,z
-x,1/2+y,-z
-x,-y,-z
x,1/2-y,z
loop_
_atom_site_type_symbol
_atom_site_label
_atom_site_fract_x
_atom_site_fract_y
_atom_site_fract_z
Si Si1 0.703749 0.570511 0.300348
Si Si2 0.904632 0.430684 0.280229
Si Si3 0.795996 0.576757 0.948885
Si Si4 0.190820 0.069558 0.384928
Si Si5 0.887296 0.068994 0.094484
Si Si6 0.315215 0.571033 0.017404
Si Si7 0.985296 0.427647 0.424447
Si Si8 0.504169 0.067837 0.597149
O O1 0.708256 0.750000 0.321006
O O2 0.785331 0.479977 0.220393
O O3 0.594384 0.501757 0.504971
O O4 0.719029 0.544355 0.163405
O O5 0.897954 0.250000 0.312923
O O6 0.822092 0.514628 0.485808
O O7 0.877600 0.474736 0.220396
O O8 0.017058 0.483172 0.112885
O O9 0.781326 0.750000 0.932632
O O10 0.905016 0.562076 0.808880
O O11 0.778118 0.457711 0.893609
O O12 0.214207 0.250000 0.341782
O O13 0.087434 0.033376 0.510574
O O14 0.282336 0.981228 0.177826
O O15 0.905149 0.250000 0.049905
O O16 0.345421 0.750000 0.966874
O O17 0.405613 0.469388 0.824456
O O18 0.946146 0.250000 0.494585
O O19 0.000000 0.500000 0.500000
O O20 0.517613 0.250000 0.564886
O O21 0.500000 0.000000 0.500000
#
# Coordination Sequence:
#
# PCOD8075696 Si02
#       8
#     4   4   4   4   4   4   4   4
#     4  11  22  37  60  87 118 154 195 243 295 350
#     4  10  21  39  62  89 122 158 198 243 291 351
#     4  10  21  35  52  76 112 152 192 235 282 339
#     4  12  24  38  57  82 116 156 197 241 292 351
#     4  10  21  38  62  92 123 155 195 244 297 349
#     4  12  24  38  58  81 111 153 197 240 289 346
#     4  11  21  33  50  76 112 151 190 231 278 337
#     4  12  24  40  60  85 118 154 198 246 296 349
#
# _framework density 19.356705000000002
#
# number of rings (size 3 to 8) (size 9 to 14) (size 15 to 20)
#    0.000    1.000    2.500    5.625    0.000    3.500 
#    0.000    0.000    0.000    0.750    0.000    0.000 
#    0.000    0.000    0.000    0.000    0.000    0.000 
#
# Total GULP energy -396891.688713 kJ/mol
# GULP energy per Si atom -12402.865272 kJ/mol
# Density = 1.931265 g / cm^3
# Si number density = 19.356705 Si / 1000 Ang^3
#
#
#
# Elastic Constant Matrix: (Units=GPa)
#
#
# Indices 1 2 3 4 5 6 
#
# 1 47.8928 16.2187 24.7699 0.0000 1.0601 0.0000
# 2 16.2187 81.3378 15.3094 0.0000 8.4912 0.0000
# 3 24.7699 15.3094 93.9178 0.0000 9.5964 0.0000
# 4 0.0000 0.0000 0.0000 33.1128 0.0000 -0.1246
# 5 1.0601 8.4912 9.5964 0.0000 28.2827 0.0000
# 6 0.0000 0.0000 0.0000 -0.1246 0.0000 29.6832
#
#
#
# Elastic Compliance Matrix: (Units=1/GPa)
#
#
# Indices 1 2 3 4 5 6 
#
# 1 0.025487 -0.004151 -0.006293 0.000000 0.002426 0.000000
# 2 -0.004151 0.013649 -0.000753 0.000000 -0.003686 0.000000
# 3 -0.006293 -0.000753 0.012828 0.000000 -0.003890 0.000000
# 4 0.000000 0.000000 0.000000 0.030200 0.000000 0.000127
# 5 0.002426 -0.003686 -0.003890 0.000000 0.037693 0.000000
# 6 0.000000 0.000000 0.000000 0.000127 0.000000 0.033690
#
#
# Mechanical properties :
#
#
# Convention : Reuss Voigt Hill
#
# Bulk Modulus (GPa) = 33.81997 37.30492 35.56244
# Shear Modulus (GPa) = 26.91109 29.33912 28.12510
#
# Velocity S-wave (km/s) = 3.73268 3.89743 3.81595
# Velocity P-wave (km/s) = 6.00725 6.29027 6.15039
#
# Compressibility (1/GPa) = 0.02956833
#
# Stress axis : x y z
#
# Youngs Moduli (GPa) = 39.23618 73.26688 77.95634
#
# Poissons Ratio (x) = 0.30412 0.49059
# Poissons Ratio (y) = 0.16286 0.05874
# Poissons Ratio (z) = 0.24692 0.05520
#
# Static dielectric constant tensor:
#      x y z
#    x 3.205740 0.000000 -0.005250 
#    y 0.000000 3.608750 0.000000 
#    z -0.005250 0.000000 3.758030 
# 
# 
# High freq. dielectric constant tensor:
#      x y z
#    x 1.727020 0.000000 0.006920 
#    y 0.000000 1.767350 0.000000 
#    z 0.006920 0.000000 1.758840 
# 
# From -- ./inp_files/56147.got.cif
#   From: 2010.06.25/outbox.cif.g09.slc.cpg/sg11_29_cif.got.tgz:56147.got - 2010.06.27 23:14:04.
