data_PCOD8075555
_publ_section_title
;
Structure prediction by ZEFSAII (Michael W. Deem and Ramdas Pophale) SiO2 
 PCOD8075555
Probable space group: P 21/M
;
_chemical_formula_sum "Si O2"
_cell_formula_units_Z 32
_cell_length_a 29.752724
_cell_length_b 9.676112
_cell_length_c 11.815234
_cell_angle_alpha 90.000000
_cell_angle_beta 27.324315
_cell_angle_gamma 90.000000
_cell_volume 1561.377156
_symmetry_space_group_name_H-M "P 21/M"
_symmetry_group_IT_number 11
_symmetry_cell_setting 'monoclinic'
loop_
_space_group_symop_operation_xyz
x,y,z
-x,1/2+y,-z
-x,-y,-z
x,1/2-y,z
loop_
_atom_site_type_symbol
_atom_site_label
_atom_site_fract_x
_atom_site_fract_y
_atom_site_fract_z
Si Si1 0.214328 0.090879 0.208271
Si Si2 0.558169 0.598868 0.288641
Si Si3 0.899767 0.084616 0.718132
Si Si4 0.768097 0.398350 0.633859
Si Si5 0.565358 0.492705 0.027571
Si Si6 0.804768 0.410547 0.169274
Si Si7 0.369969 0.097951 0.354361
Si Si8 0.925366 0.404040 0.102747
O O1 0.175254 0.250000 0.288390
O O2 0.161227 0.985545 0.244432
O O3 0.194939 0.029149 0.376353
O O4 0.329070 0.084017 0.929002
O O5 0.500000 0.500000 0.500000
O O6 0.519929 0.750000 0.405309
O O7 0.538334 0.581421 0.199113
O O8 0.917366 0.250000 0.659543
O O9 0.835085 0.057955 0.973873
O O10 0.000000 0.000000 0.500000
O O11 0.795765 0.250000 0.629393
O O12 0.651945 0.391428 0.872819
O O13 0.819958 0.410589 0.397565
O O14 0.606559 0.583354 0.831338
O O15 0.470223 0.410347 0.200908
O O16 0.780911 0.250000 0.242289
O O17 0.707128 0.490504 0.422903
O O18 0.899998 0.453147 0.032006
O O19 0.325362 0.250000 0.472147
O O20 0.970172 0.250000 0.003178
O O21 0.000000 0.500000 0.000000
#
# Coordination Sequence:
#
# PCOD8075555 Si02
#       8
#     4   4   4   4   4   4   4   4
#     4  10  23  42  63  90 124 161 204 261 313 368
#     4  10  23  41  62  89 125 166 212 261 312 370
#     4  11  25  45  69  95 125 167 212 260 319 383
#     4  10  20  39  65  90 122 162 208 257 310 379
#     4  10  22  40  61  93 130 169 213 261 316 374
#     4  10  24  45  65  92 130 167 203 256 321 381
#     4  11  23  38  65  97 127 167 213 262 316 375
#     4  10  22  40  62  91 123 159 201 253 315 371
#
# _framework density 20.494727999999999
#
# number of rings (size 3 to 8) (size 9 to 14) (size 15 to 20)
#    0.000    1.750    1.250    1.500    3.500    8.000 
#    0.000    0.000    0.000    0.000    0.000    0.000 
#    0.000    0.000    0.000    0.000    0.000    0.000 
#
# Total GULP energy -396611.666544 kJ/mol
# GULP energy per Si atom -12394.114580 kJ/mol
# Density = 2.044808 g / cm^3
# Si number density = 20.494728 Si / 1000 Ang^3
#
#
#
# Elastic Constant Matrix: (Units=GPa)
#
#
# Indices 1 2 3 4 5 6 
#
# 1 122.3260 53.0289 35.6865 0.0000 0.9784 0.0000
# 2 53.0289 133.7298 44.2556 0.0000 3.7963 0.0000
# 3 35.6865 44.2556 70.1069 0.0000 9.4148 0.0000
# 4 0.0000 0.0000 0.0000 32.8887 0.0000 -2.4458
# 5 0.9784 3.7963 9.4148 0.0000 20.3175 0.0000
# 6 0.0000 0.0000 0.0000 -2.4458 0.0000 27.1526
#
#
#
# Elastic Compliance Matrix: (Units=1/GPa)
#
#
# Indices 1 2 3 4 5 6 
#
# 1 0.010545 -0.003004 -0.003709 0.000000 0.001772 0.000000
# 2 -0.003004 0.010330 -0.005067 0.000000 0.000563 0.000000
# 3 -0.003709 -0.005067 0.020474 0.000000 -0.008362 0.000000
# 4 0.000000 0.000000 0.000000 0.030611 0.000000 0.002757
# 5 0.001772 0.000563 -0.008362 0.000000 0.052903 0.000000
# 6 0.000000 0.000000 0.000000 0.002757 0.000000 0.037077
#
#
# Mechanical properties :
#
#
# Convention : Reuss Voigt Hill
#
# Bulk Modulus (GPa) = 56.22001 65.78942 61.00471
# Shear Modulus (GPa) = 26.11913 28.95120 27.53517
#
# Velocity S-wave (km/s) = 3.57379 3.76256 3.66939
# Velocity P-wave (km/s) = 6.67235 7.14466 6.91254
#
# Compressibility (1/GPa) = 0.01778726
#
# Stress axis : x y z
#
# Youngs Moduli (GPa) = 94.82951 96.80518 48.84312
#
# Poissons Ratio (x) = 0.29084 0.18118
# Poissons Ratio (y) = 0.28490 0.24750
# Poissons Ratio (z) = 0.35175 0.49053
#
# Static dielectric constant tensor:
#      x y z
#    x 3.500860 0.000000 0.306630 
#    y 0.000000 3.869180 0.000000 
#    z 0.306630 0.000000 3.462200 
# 
# 
# High freq. dielectric constant tensor:
#      x y z
#    x 1.811000 0.000000 0.001690 
#    y 0.000000 1.806830 0.000000 
#    z 0.001690 0.000000 1.797350 
# 
# From -- ./inp_files/45155.got.cif
#   From: 2010.06.25/outbox.cif.g09.slc.cpg/sg11_23_cif.got.tgz:45155.got - 2010.06.27 23:14:04.
