data_PCOD8075869
_publ_section_title
;
Structure prediction by ZEFSAII (Michael W. Deem and Ramdas Pophale) SiO2 
 PCOD8075869
Probable space group: P 21/M
;
_chemical_formula_sum "Si O2"
_cell_formula_units_Z 32
_cell_length_a 13.952524
_cell_length_b 9.246550
_cell_length_c 23.615443
_cell_angle_alpha 90.000000
_cell_angle_beta 149.229059
_cell_angle_gamma 90.000000
_cell_volume 1558.709592
_symmetry_space_group_name_H-M "P 21/M"
_symmetry_group_IT_number 11
_symmetry_cell_setting 'monoclinic'
loop_
_space_group_symop_operation_xyz
x,y,z
-x,1/2+y,-z
-x,-y,-z
x,1/2-y,z
loop_
_atom_site_type_symbol
_atom_site_label
_atom_site_fract_x
_atom_site_fract_y
_atom_site_fract_z
Si Si1 0.661664 0.081846 0.548528
Si Si2 0.550597 0.084598 0.367343
Si Si3 0.191230 0.919127 0.608472
Si Si4 0.717034 0.081067 0.030745
Si Si5 0.690216 0.585178 0.222330
Si Si6 0.162265 0.411580 0.011831
Si Si7 0.259572 0.910654 0.162671
Si Si8 0.914239 0.582579 0.227074
O O1 0.629885 0.250000 0.543910
O O2 0.652165 0.045676 0.477253
O O3 0.870032 0.035327 0.674062
O O4 0.500000 0.000000 0.500000
O O5 0.483352 0.250000 0.332424
O O6 0.684928 0.049218 0.383488
O O7 0.368026 0.983945 0.269736
O O8 0.153023 0.750000 0.597386
O O9 0.292580 0.979230 0.715829
O O10 0.000000 0.000000 0.500000
O O11 0.764305 0.250000 0.053243
O O12 0.774119 0.017211 0.120283
O O13 0.499712 0.049908 0.908202
O O14 0.844356 0.999659 0.049479
O O15 0.689365 0.750000 0.244214
O O16 0.863280 0.561193 0.267277
O O17 0.243741 0.250000 0.044094
O O18 0.294015 0.494939 0.123545
O O19 0.955665 0.402300 0.931065
O O20 0.338192 0.750000 0.190997
O O21 0.884315 0.750000 0.194597
#
# Coordination Sequence:
#
# PCOD8075869 Si02
#       8
#     4   4   4   4   4   4   4   4
#     4  10  23  42  63  87 117 157 204 252 303 360
#     4  10  22  40  61  86 118 157 197 241 304 366
#     4  11  23  39  63  92 123 160 202 248 304 367
#     4  11  23  37  60  92 123 157 204 255 302 356
#     4  10  22  41  63  90 126 163 202 252 307 363
#     4  10  21  37  56  82 119 160 198 241 300 361
#     4  10  21  36  57  85 116 152 199 250 296 352
#     4  10  22  42  64  85 120 164 204 250 308 371
#
# _framework density 20.529802
#
# number of rings (size 3 to 8) (size 9 to 14) (size 15 to 20)
#    0.000    1.750    0.000    3.375    1.750    9.000 
#    0.000    1.250    0.000    0.000    0.000    0.000 
#    0.000    0.000    0.000    0.000    0.000    0.000 
#
# Total GULP energy -396904.539460 kJ/mol
# GULP energy per Si atom -12403.266858 kJ/mol
# Density = 2.048308 g / cm^3
# Si number density = 20.529802 Si / 1000 Ang^3
#
#
#
# Elastic Constant Matrix: (Units=GPa)
#
#
# Indices 1 2 3 4 5 6 
#
# 1 99.1187 53.5976 39.1354 0.0000 -9.1768 0.0000
# 2 53.5976 127.9907 65.5199 0.0000 -6.5094 0.0000
# 3 39.1354 65.5199 114.0283 0.0000 -6.5500 0.0000
# 4 0.0000 0.0000 0.0000 39.9841 0.0000 -3.3086
# 5 -9.1768 -6.5094 -6.5500 0.0000 25.0829 0.0000
# 6 0.0000 0.0000 0.0000 -3.3086 0.0000 28.9961
#
#
#
# Elastic Compliance Matrix: (Units=1/GPa)
#
#
# Indices 1 2 3 4 5 6 
#
# 1 0.013602 -0.004583 -0.001845 0.000000 0.003305 0.000000
# 2 -0.004583 0.012651 -0.005689 0.000000 0.000121 0.000000
# 3 -0.001845 -0.005689 0.012739 0.000000 0.001175 0.000000
# 4 0.000000 0.000000 0.000000 0.025248 0.000000 0.002881
# 5 0.003305 0.000121 0.001175 0.000000 0.041415 0.000000
# 6 0.000000 0.000000 0.000000 0.002881 0.000000 0.034816
#
#
# Mechanical properties :
#
#
# Convention : Reuss Voigt Hill
#
# Bulk Modulus (GPa) = 67.76292 73.07150 70.41721
# Shear Modulus (GPa) = 29.47673 31.00495 30.24084
#
# Velocity S-wave (km/s) = 3.79331 3.89040 3.84216
# Velocity P-wave (km/s) = 7.22941 7.47331 7.35237
#
# Compressibility (1/GPa) = 0.01475733
#
# Stress axis : x y z
#
# Youngs Moduli (GPa) = 73.52001 79.04577 78.49701
#
# Poissons Ratio (x) = 0.36230 0.14481
# Poissons Ratio (y) = 0.33697 0.44658
# Poissons Ratio (z) = 0.13563 0.44970
#
# Static dielectric constant tensor:
#      x y z
#    x 3.816330 0.000000 0.014430 
#    y 0.000000 3.908660 0.000000 
#    z 0.014430 0.000000 3.784800 
# 
# 
# High freq. dielectric constant tensor:
#      x y z
#    x 1.803810 0.000000 -0.000460 
#    y 0.000000 1.806500 0.000000 
#    z -0.000460 0.000000 1.807960 
# 
# From -- ./inp_files/69125.got.cif
#   From: 2010.06.25/outbox.cif.g09.slc.cpg/sg11_35_cif.got.tgz:69125.got - 2010.06.27 23:14:04.
