data_PCOD8075657
_publ_section_title
;
Structure prediction by ZEFSAII (Michael W. Deem and Ramdas Pophale) SiO2 
 PCOD8075657
Probable space group: P 21/M
;
_chemical_formula_sum "Si O2"
_cell_formula_units_Z 32
_cell_length_a 21.952313
_cell_length_b 13.064891
_cell_length_c 9.656633
_cell_angle_alpha 90.000000
_cell_angle_beta 145.965718
_cell_angle_gamma 90.000000
_cell_volume 1550.095496
_symmetry_space_group_name_H-M "P 21/M"
_symmetry_group_IT_number 11
_symmetry_cell_setting 'monoclinic'
loop_
_space_group_symop_operation_xyz
x,y,z
-x,1/2+y,-z
-x,-y,-z
x,1/2-y,z
loop_
_atom_site_type_symbol
_atom_site_label
_atom_site_fract_x
_atom_site_fract_y
_atom_site_fract_z
Si Si1 0.687335 0.864389 0.482816
Si Si2 0.739663 0.868575 0.268440
Si Si3 0.872935 0.000681 0.860248
Si Si4 0.333996 0.993774 0.107724
Si Si5 0.927593 0.130172 0.730139
Si Si6 0.985589 0.866704 0.679148
Si Si7 0.879131 0.132231 0.323975
Si Si8 0.457187 0.132877 0.548580
O O1 0.734024 0.750000 0.593753
O O2 0.686123 0.887825 0.317322
O O3 0.570473 0.874095 0.338499
O O4 0.763613 0.946165 0.704794
O O5 0.733660 0.750000 0.213988
O O6 0.865385 0.906624 0.492564
O O7 0.666856 0.933625 0.027425
O O8 0.842672 0.065838 0.664022
O O9 0.919507 0.073964 0.064324
O O10 0.956855 0.906978 0.988690
O O11 0.368685 0.063624 0.302090
O O12 0.420978 0.904538 0.245635
O O13 0.217951 0.939569 0.914420
O O14 0.912193 0.250000 0.725141
O O15 0.915112 0.099704 0.546013
O O16 0.996433 0.750000 0.745844
O O17 0.012644 0.881085 0.566788
O O18 0.839105 0.250000 0.246487
O O19 0.448298 0.250000 0.479797
#
# Coordination Sequence:
#
# PCOD8075657 Si02
#       8
#     4   4   4   4   4   4   4   4
#     4  10  21  37  56  81 112 144 182 227 271 316
#     4  10  21  37  56  80 111 145 181 223 269 320
#     4  11  19  32  54  76 107 147 186 222 265 319
#     4  11  21  38  62  82 106 141 182 226 275 329
#     4  10  21  34  50  77 110 145 184 224 268 320
#     4  10  21  35  53  81 115 149 184 221 265 320
#     4  10  21  36  54  80 114 147 180 222 271 323
#     4  10  23  40  59  84 109 137 179 230 280 326
#
# _framework density 20.643888
#
# number of rings (size 3 to 8) (size 9 to 14) (size 15 to 20)
#    0.000    1.750    0.000    5.250    0.000    4.500 
#    0.000    2.500    0.000    2.250    0.000    0.000 
#    0.000    0.000    0.000    0.000    0.000    0.000 
#
# Total GULP energy -396667.615244 kJ/mol
# GULP energy per Si atom -12395.862976 kJ/mol
# Density = 2.059690 g / cm^3
# Si number density = 20.643888 Si / 1000 Ang^3
#
#
#
# Elastic Constant Matrix: (Units=GPa)
#
#
# Indices 1 2 3 4 5 6 
#
# 1 114.8961 41.3074 30.5922 0.0000 -12.3575 0.0000
# 2 41.3074 86.3995 20.2295 0.0000 -7.4262 0.0000
# 3 30.5922 20.2295 54.1061 0.0000 -14.3071 0.0000
# 4 0.0000 0.0000 0.0000 33.4889 0.0000 -6.1394
# 5 -12.3575 -7.4262 -14.3071 0.0000 25.1384 0.0000
# 6 0.0000 0.0000 0.0000 -6.1394 0.0000 19.6292
#
#
#
# Elastic Compliance Matrix: (Units=1/GPa)
#
#
# Indices 1 2 3 4 5 6 
#
# 1 0.011667 -0.004370 -0.004458 0.000000 0.001907 0.000000
# 2 -0.004370 0.014354 -0.002758 0.000000 0.000523 0.000000
# 3 -0.004458 -0.002758 0.025002 0.000000 0.011223 0.000000
# 4 0.000000 0.000000 0.000000 0.031677 0.000000 0.009908
# 5 0.001907 0.000523 0.011223 0.000000 0.047259 0.000000
# 6 0.000000 0.000000 0.000000 0.009908 0.000000 0.054043
#
#
# Mechanical properties :
#
#
# Convention : Reuss Voigt Hill
#
# Bulk Modulus (GPa) = 35.90633 48.85111 42.37872
# Shear Modulus (GPa) = 23.09919 26.53614 24.81766
#
# Velocity S-wave (km/s) = 3.34868 3.58917 3.47101
# Velocity P-wave (km/s) = 5.69056 6.39463 6.05284
#
# Compressibility (1/GPa) = 0.02785024
#
# Stress axis : x y z
#
# Youngs Moduli (GPa) = 85.71314 69.66664 39.99714
#
# Poissons Ratio (x) = 0.30445 0.17832
# Poissons Ratio (y) = 0.37457 0.11030
# Poissons Ratio (z) = 0.38215 0.19212
#
# Static dielectric constant tensor:
#      x y z
#    x 3.761940 0.000000 -0.157580 
#    y 0.000000 3.987780 0.000000 
#    z -0.157580 0.000000 3.419550 
# 
# 
# High freq. dielectric constant tensor:
#      x y z
#    x 1.808130 0.000000 -0.018320 
#    y 0.000000 1.834030 0.000000 
#    z -0.018320 0.000000 1.774860 
# 
# From -- ./inp_files/26868.got.cif
#   From: 2010.06.25/outbox.cif.g09.slc.cpg/sg11_14_cif.got.tgz:26868.got - 2010.06.27 23:14:04.
