data_PCOD8075804
_publ_section_title
;
Structure prediction by ZEFSAII (Michael W. Deem and Ramdas Pophale) SiO2 
 PCOD8075804
Probable space group: P 21/M
;
_chemical_formula_sum "Si O2"
_cell_formula_units_Z 32
_cell_length_a 24.474365
_cell_length_b 8.923550
_cell_length_c 24.460650
_cell_angle_alpha 90.000000
_cell_angle_beta 17.666607
_cell_angle_gamma 90.000000
_cell_volume 1621.227597
_symmetry_space_group_name_H-M "P 21/M"
_symmetry_group_IT_number 11
_symmetry_cell_setting 'monoclinic'
loop_
_space_group_symop_operation_xyz
x,y,z
-x,1/2+y,-z
-x,-y,-z
x,1/2-y,z
loop_
_atom_site_type_symbol
_atom_site_label
_atom_site_fract_x
_atom_site_fract_y
_atom_site_fract_z
Si Si1 0.512551 0.414481 0.931610
Si Si2 0.107520 0.922064 0.149941
Si Si3 0.934954 0.074853 0.936376
Si Si4 0.267086 0.575056 0.673011
Si Si5 0.679692 0.925133 0.264679
Si Si6 0.472543 0.574377 0.861586
Si Si7 0.154028 0.571594 0.519238
Si Si8 0.071582 0.588635 0.482822
O O1 0.420482 0.250000 0.024198
O O2 0.420494 0.508196 0.970763
O O3 0.717466 0.392322 0.721656
O O4 0.500000 0.500000 0.000000
O O5 0.061255 0.750000 0.207174
O O6 0.100959 0.956818 0.092476
O O7 0.307063 0.962914 0.979709
O O8 0.957645 0.023729 0.321571
O O9 0.925358 0.250000 0.959884
O O10 0.131922 0.012241 0.762458
O O11 0.779744 0.986987 0.116359
O O12 0.219155 0.750000 0.719202
O O13 0.243323 0.512766 0.756653
O O14 0.467502 0.544604 0.459686
O O15 0.720113 0.750000 0.234054
O O16 0.507353 0.750000 0.835121
O O17 0.648505 0.501030 0.666852
O O18 0.177619 0.750000 0.495228
O O19 0.042298 0.516752 0.571145
O O20 0.975527 0.750000 0.571278
O O21 0.000000 0.500000 0.500000
#
# Coordination Sequence:
#
# PCOD8075804 Si02
#       8
#     4   4   4   4   4   4   4   4
#     4  10  21  36  54  82 113 144 183 228 285 348
#     4  10  24  42  61  85 114 157 204 242 292 351
#     4  11  23  39  59  86 120 157 200 248 294 347
#     4  10  21  38  61  90 123 159 199 243 294 350
#     4  10  21  38  61  89 122 160 199 242 295 348
#     4  10  21  40  62  84 113 151 194 240 290 348
#     4  10  22  40  60  85 115 149 191 240 294 349
#     4   9  20  35  52  79 109 139 177 221 278 342
#
# _framework density 19.738129000000001
#
# number of rings (size 3 to 8) (size 9 to 14) (size 15 to 20)
#    0.000    2.000    0.000    3.375    1.750    7.500 
#    0.000    3.750    0.000    0.000    0.000    0.000 
#    0.000    0.000    0.000    0.000    0.000    0.000 
#
# Total GULP energy -396784.359618 kJ/mol
# GULP energy per Si atom -12399.511238 kJ/mol
# Density = 1.969320 g / cm^3
# Si number density = 19.738129 Si / 1000 Ang^3
#
#
#
# Elastic Constant Matrix: (Units=GPa)
#
#
# Indices 1 2 3 4 5 6 
#
# 1 136.1591 48.1021 56.4370 0.0000 -6.9345 0.0000
# 2 48.1021 89.8529 43.0713 0.0000 -1.3950 0.0000
# 3 56.4370 43.0713 90.7226 0.0000 0.1078 0.0000
# 4 0.0000 0.0000 0.0000 31.4727 0.0000 3.3820
# 5 -6.9345 -1.3950 0.1078 0.0000 24.9422 0.0000
# 6 0.0000 0.0000 0.0000 3.3820 0.0000 34.1264
#
#
#
# Elastic Compliance Matrix: (Units=1/GPa)
#
#
# Indices 1 2 3 4 5 6 
#
# 1 0.010778 -0.003250 -0.005165 0.000000 0.002837 0.000000
# 2 -0.003250 0.015406 -0.005292 0.000000 -0.000019 0.000000
# 3 -0.005165 -0.005292 0.016750 0.000000 -0.001804 0.000000
# 4 0.000000 0.000000 0.000000 0.032116 0.000000 -0.003183
# 5 0.002837 -0.000019 -0.001804 0.000000 0.040888 0.000000
# 6 0.000000 0.000000 0.000000 -0.003183 0.000000 0.029618
#
#
# Mechanical properties :
#
#
# Convention : Reuss Voigt Hill
#
# Bulk Modulus (GPa) = 64.43559 67.99504 66.21531
# Shear Modulus (GPa) = 28.06722 29.38322 28.72522
#
# Velocity S-wave (km/s) = 3.77501 3.86249 3.81900
# Velocity P-wave (km/s) = 7.19145 7.37666 7.28465
#
# Compressibility (1/GPa) = 0.01551937
#
# Stress axis : x y z
#
# Youngs Moduli (GPa) = 92.78251 64.91130 59.69977
#
# Poissons Ratio (x) = 0.21095 0.30836
# Poissons Ratio (y) = 0.30153 0.31595
# Poissons Ratio (z) = 0.47924 0.34353
#
# Static dielectric constant tensor:
#      x y z
#    x 3.340630 0.000000 -0.071060 
#    y 0.000000 3.884310 0.000000 
#    z -0.071060 0.000000 3.491180 
# 
# 
# High freq. dielectric constant tensor:
#      x y z
#    x 1.770640 0.000000 0.000050 
#    y 0.000000 1.780850 0.000000 
#    z 0.000050 0.000000 1.773430 
# 
# From -- ./inp_files/69981.got.cif
#   From: 2010.06.25/outbox.cif.g09.slc.cpg/sg11_35_cif.got.tgz:69981.got - 2010.06.27 23:14:04.
