data_PCOD8075948
_publ_section_title
;
Structure prediction by ZEFSAII (Michael W. Deem and Ramdas Pophale) SiO2 
 PCOD8075948
Probable space group: P 21/M
;
_chemical_formula_sum "Si O2"
_cell_formula_units_Z 32
_cell_length_a 21.267234
_cell_length_b 8.629891
_cell_length_c 12.567066
_cell_angle_alpha 90.000000
_cell_angle_beta 125.740216
_cell_angle_gamma 90.000000
_cell_volume 1872.111498
_symmetry_space_group_name_H-M "P 21/M"
_symmetry_group_IT_number 11
_symmetry_cell_setting 'monoclinic'
loop_
_space_group_symop_operation_xyz
x,y,z
-x,1/2+y,-z
-x,-y,-z
x,1/2-y,z
loop_
_atom_site_type_symbol
_atom_site_label
_atom_site_fract_x
_atom_site_fract_y
_atom_site_fract_z
Si Si1 0.914609 0.067060 0.423358
Si Si2 0.662214 0.932343 0.280470
Si Si3 0.179047 0.066285 0.473097
Si Si4 0.505109 0.431246 0.888414
Si Si5 0.173472 0.430505 0.859849
Si Si6 0.658830 0.569049 0.038174
Si Si7 0.920013 0.069671 0.803140
Si Si8 0.917242 0.070612 0.044628
O O1 0.917262 0.250000 0.447325
O O2 0.873099 0.981701 0.479166
O O3 0.869979 0.033503 0.270090
O O4 0.000000 0.000000 0.500000
O O5 0.673411 0.750000 0.281275
O O6 0.733014 0.995410 0.421518
O O7 0.577925 0.973131 0.249552
O O8 0.668306 0.000836 0.166718
O O9 0.174438 0.250000 0.453209
O O10 0.151916 0.982272 0.339181
O O11 0.514976 0.250000 0.906217
O O12 0.500000 0.500000 0.000000
O O13 0.581517 0.498435 0.905245
O O14 0.161548 0.250000 0.819972
O O15 0.264552 0.473627 0.952375
O O16 0.141120 0.467923 0.944165
O O17 0.644760 0.750000 0.029445
O O18 0.938551 0.250000 0.806011
O O19 0.899040 0.031819 0.904148
O O20 0.994842 0.973729 0.839814
O O21 0.904638 0.250000 0.059059
#
# Coordination Sequence:
#
# PCOD8075948 Si02
#       8
#     4   4   4   4   4   4   4   4
#     4  12  24  36  49  69  99 134 170 201 245 299
#     4   8  15  29  46  67  98 131 161 195 239 288
#     4  11  20  34  53  73 100 133 167 203 248 295
#     4   9  16  27  44  67  95 130 166 198 238 286
#     4  11  21  35  53  73 101 132 166 206 251 297
#     4   9  17  31  47  68  99 132 162 198 243 291
#     4  10  21  37  54  74  99 127 165 212 255 295
#     4  10  21  37  55  74  97 127 167 211 254 298
#
# _framework density 17.092998999999999
#
# number of rings (size 3 to 8) (size 9 to 14) (size 15 to 20)
#    0.000    2.000    1.250    4.500    0.000    2.500 
#    0.000    1.875    0.000    0.000    0.000    0.875 
#    0.000    0.000    0.000    0.000    0.000    0.000 
#
# Total GULP energy -396692.904147 kJ/mol
# GULP energy per Si atom -12396.653255 kJ/mol
# Density = 1.705409 g / cm^3
# Si number density = 17.092999 Si / 1000 Ang^3
#
#
#
# Elastic Constant Matrix: (Units=GPa)
#
#
# Indices 1 2 3 4 5 6 
#
# 1 93.6021 27.9924 61.3696 0.0000 23.3327 0.0000
# 2 27.9924 40.8209 19.1724 0.0000 5.3249 0.0000
# 3 61.3696 19.1724 97.9088 0.0000 20.5519 0.0000
# 4 0.0000 0.0000 0.0000 24.1883 0.0000 1.7763
# 5 23.3327 5.3249 20.5519 0.0000 29.8491 0.0000
# 6 0.0000 0.0000 0.0000 1.7763 0.0000 27.7278
#
#
#
# Elastic Compliance Matrix: (Units=1/GPa)
#
#
# Indices 1 2 3 4 5 6 
#
# 1 0.022516 -0.009397 -0.010439 0.000000 -0.008736 0.000000
# 2 -0.009397 0.030949 -0.000646 0.000000 0.002270 0.000000
# 3 -0.010439 -0.000646 0.017705 0.000000 -0.003915 0.000000
# 4 0.000000 0.000000 0.000000 0.041538 0.000000 -0.002661
# 5 -0.008736 0.002270 -0.003915 0.000000 0.042622 0.000000
# 6 0.000000 0.000000 0.000000 -0.002661 0.000000 0.036235
#
#
# Mechanical properties :
#
#
# Convention : Reuss Voigt Hill
#
# Bulk Modulus (GPa) = 33.10801 49.93341 41.52071
# Shear Modulus (GPa) = 20.61014 24.60620 22.60817
#
# Velocity S-wave (km/s) = 3.47618 3.79825 3.64078
# Velocity P-wave (km/s) = 5.96013 6.96505 6.48209
#
# Compressibility (1/GPa) = 0.03020417
#
# Stress axis : x y z
#
# Youngs Moduli (GPa) = 44.41292 32.31125 56.48046
#
# Poissons Ratio (x) = 0.30364 0.58960
# Poissons Ratio (y) = 0.41737 0.03651
# Poissons Ratio (z) = 0.46363 0.02089
#
# Static dielectric constant tensor:
#      x y z
#    x 3.335400 0.000000 0.363270 
#    y 0.000000 3.249970 0.000000 
#    z 0.363270 0.000000 3.293130 
# 
# 
# High freq. dielectric constant tensor:
#      x y z
#    x 1.650960 0.000000 0.027200 
#    y 0.000000 1.663860 0.000000 
#    z 0.027200 0.000000 1.639180 
# 
# From -- ./inp_files/42918.got.cif
#   From: 2010.06.25/outbox.cif.g09.slc.cpg/sg11_22_cif.got.tgz:42918.got - 2010.06.27 23:14:04.
