data_PCOD8075792
_publ_section_title
;
Structure prediction by ZEFSAII (Michael W. Deem and Ramdas Pophale) SiO2 
 PCOD8075792
Probable space group: P 21/M
;
_chemical_formula_sum "Si O2"
_cell_formula_units_Z 24
_cell_length_a 16.137484
_cell_length_b 9.249400
_cell_length_c 16.137316
_cell_angle_alpha 90.000000
_cell_angle_beta 147.214654
_cell_angle_gamma 90.000000
_cell_volume 1304.288616
_symmetry_space_group_name_H-M "P 21/M"
_symmetry_group_IT_number 11
_symmetry_cell_setting 'monoclinic'
loop_
_space_group_symop_operation_xyz
x,y,z
-x,1/2+y,-z
-x,-y,-z
x,1/2-y,z
loop_
_atom_site_type_symbol
_atom_site_label
_atom_site_fract_x
_atom_site_fract_y
_atom_site_fract_z
Si Si1 0.457647 0.919455 0.881228
Si Si2 0.133730 0.413309 0.215966
Si Si3 0.118767 0.919453 0.542350
Si Si4 0.045331 0.917643 0.295475
Si Si5 0.295492 0.417642 0.045351
Si Si6 0.215971 0.586691 0.133741
O O1 0.473520 0.750000 0.911037
O O2 0.288228 0.963920 0.711768
O O3 0.572413 0.969060 0.905549
O O4 0.500000 0.000000 0.000000
O O5 0.195725 0.250000 0.275728
O O6 0.144987 0.490783 0.314264
O O7 0.238248 0.499997 0.238252
O O8 0.960402 0.414282 0.039590
O O9 0.088960 0.750000 0.526483
O O10 0.094436 0.969062 0.427575
O O11 0.000000 0.000000 0.500000
O O12 0.082981 0.750000 0.311667
O O13 0.865578 0.948706 0.134404
O O14 0.311682 0.250000 0.083002
O O15 0.314274 0.509222 0.145003
O O16 0.275733 0.750000 0.195737
#
# Coordination Sequence:
#
# PCOD8075792 Si02
#       6
#     4   4   4   4   4   4
#     4  10  21  36  54  76 102 133 169 209 254 304
#     4   9  16  26  43  69  99 129 162 201 244 290
#     4  10  21  36  54  76 102 133 169 209 254 304
#     4   9  17  30  48  70  98 131 165 203 248 295
#     4   9  17  30  48  70  98 131 165 203 248 295
#     4   9  16  26  43  69  99 129 162 201 244 290
#
# _framework density 18.400834
#
# number of rings (size 3 to 8) (size 9 to 14) (size 15 to 20)
#    0.000    2.667    0.000    2.000    0.000    7.333 
#    0.000    3.333    0.000    1.000    0.000    0.000 
#    0.000    0.000    0.000    0.000    0.000    0.000 
#
# Total GULP energy -297642.354022 kJ/mol
# GULP energy per Si atom -12401.764751 kJ/mol
# Density = 1.835895 g / cm^3
# Si number density = 18.400834 Si / 1000 Ang^3
#
#
#
# Elastic Constant Matrix: (Units=GPa)
#
#
# Indices 1 2 3 4 5 6 
#
# 1 189.3053 91.2293 74.9485 0.0000 -26.2245 0.0000
# 2 91.2293 104.7003 47.0222 0.0000 -18.5471 0.0000
# 3 74.9485 47.0222 82.6144 0.0000 -18.5346 0.0000
# 4 0.0000 0.0000 0.0000 20.2035 0.0000 -8.4779
# 5 -26.2245 -18.5471 -18.5346 0.0000 29.1445 0.0000
# 6 0.0000 0.0000 0.0000 -8.4779 0.0000 40.4115
#
#
#
# Elastic Compliance Matrix: (Units=1/GPa)
#
#
# Indices 1 2 3 4 5 6 
#
# 1 0.011083 -0.006698 -0.005786 0.000000 0.002030 0.000000
# 2 -0.006698 0.017315 -0.003101 0.000000 0.003020 0.000000
# 3 -0.005786 -0.003101 0.020422 0.000000 0.005807 0.000000
# 4 0.000000 0.000000 0.000000 0.054274 0.000000 0.011386
# 5 0.002030 0.003020 0.005807 0.000000 0.041753 0.000000
# 6 0.000000 0.000000 0.000000 0.011386 0.000000 0.027134
#
#
# Mechanical properties :
#
#
# Convention : Reuss Voigt Hill
#
# Bulk Modulus (GPa) = 56.66371 89.22444 72.94408
# Shear Modulus (GPa) = 23.91937 28.84656 26.38297
#
# Velocity S-wave (km/s) = 3.60933 3.96369 3.79065
# Velocity P-wave (km/s) = 6.94483 8.33921 7.67375
#
# Compressibility (1/GPa) = 0.01764798
#
# Stress axis : x y z
#
# Youngs Moduli (GPa) = 90.23151 57.75220 48.96743
#
# Poissons Ratio (x) = 0.38685 0.28334
# Poissons Ratio (y) = 0.60441 0.15185
# Poissons Ratio (z) = 0.52210 0.17910
#
# Static dielectric constant tensor:
#      x y z
#    x 3.533490 0.000000 -0.163610 
#    y 0.000000 3.477810 0.000000 
#    z -0.163610 0.000000 3.143300 
# 
# 
# High freq. dielectric constant tensor:
#      x y z
#    x 1.723670 0.000000 -0.017820 
#    y 0.000000 1.713960 0.000000 
#    z -0.017820 0.000000 1.681170 
# 
# From -- ./inp_files/25741.got.cif
#   From: 2010.06.25/outbox.cif.g09.slc.cpg/sg11_13_cif.got.tgz:25741.got - 2010.06.27 23:14:04.
