data_PCOD8075447
_publ_section_title
;
Structure prediction by ZEFSAII (Michael W. Deem and Ramdas Pophale) SiO2 
 PCOD8075447
Probable space group: P 21/M
;
_chemical_formula_sum "Si O2"
_cell_formula_units_Z 32
_cell_length_a 12.651981
_cell_length_b 8.748628
_cell_length_c 33.317491
_cell_angle_alpha 90.000000
_cell_angle_beta 25.382029
_cell_angle_gamma 90.000000
_cell_volume 1580.794442
_symmetry_space_group_name_H-M "P 21/M"
_symmetry_group_IT_number 11
_symmetry_cell_setting 'monoclinic'
loop_
_space_group_symop_operation_xyz
x,y,z
-x,1/2+y,-z
-x,-y,-z
x,1/2-y,z
loop_
_atom_site_type_symbol
_atom_site_label
_atom_site_fract_x
_atom_site_fract_y
_atom_site_fract_z
Si Si1 0.435397 0.429489 0.612694
Si Si2 0.262503 0.573491 0.904345
Si Si3 0.943671 0.575722 0.324084
Si Si4 0.458414 0.074353 0.271509
Si Si5 0.966363 0.069823 0.402169
Si Si6 0.472671 0.574295 0.115944
Si Si7 0.303395 0.929912 0.037440
Si Si8 0.772983 0.069014 0.236502
O O1 0.407736 0.250000 0.631932
O O2 0.294780 0.471620 0.619814
O O3 0.718182 0.480348 0.509972
O O4 0.322718 0.528380 0.686837
O O5 0.260426 0.750000 0.918265
O O6 0.335791 0.554420 0.833096
O O7 0.456917 0.480009 0.863862
O O8 0.000000 0.500000 0.000000
O O9 0.927026 0.750000 0.344258
O O10 0.961880 0.475220 0.357342
O O11 0.178252 0.552786 0.214081
O O12 0.401021 0.250000 0.299801
O O13 0.573781 0.003148 0.272555
O O14 0.199959 0.996298 0.346029
O O15 0.995641 0.250000 0.391784
O O16 0.550150 0.750000 0.082528
O O17 0.616519 0.470458 0.035005
O O18 0.300176 0.750000 0.044521
O O19 0.034776 0.992902 0.138972
O O20 0.500000 0.000000 0.000000
O O21 0.805007 0.250000 0.221022
#
# Coordination Sequence:
#
# PCOD8075447 Si02
#       8
#     4   4   4   4   4   4   4   4
#     4  10  22  39  60  88 122 161 205 256 313 369
#     4  11  21  36  58  84 117 156 202 252 310 371
#     4  10  21  37  58  88 124 156 195 254 311 367
#     4   9  20  38  59  85 120 159 202 257 310 361
#     4  10  20  38  63  88 119 160 205 254 311 372
#     4  11  22  37  58  87 123 160 200 249 305 367
#     4  12  25  42  64  91 123 162 208 254 306 368
#     4  11  23  41  63  88 122 164 209 256 308 368
#
# _framework density 20.242986999999999
#
# number of rings (size 3 to 8) (size 9 to 14) (size 15 to 20)
#    0.000    1.500    1.250    4.125    0.000    4.000 
#    0.000    3.125    0.000    0.000    0.000    0.000 
#    0.000    0.000    0.000    0.000    0.000    0.000 
#
# Total GULP energy -396865.286242 kJ/mol
# GULP energy per Si atom -12402.040195 kJ/mol
# Density = 2.019691 g / cm^3
# Si number density = 20.242987 Si / 1000 Ang^3
#
#
#
# Elastic Constant Matrix: (Units=GPa)
#
#
# Indices 1 2 3 4 5 6 
#
# 1 119.3380 30.6171 49.5902 0.0000 -16.3266 0.0000
# 2 30.6171 71.4950 44.7980 0.0000 -6.7455 0.0000
# 3 49.5902 44.7980 116.3532 -0.0001 -15.4038 0.0000
# 4 0.0000 0.0000 -0.0001 28.0668 0.0000 1.2418
# 5 -16.3266 -6.7455 -15.4038 0.0000 38.4466 0.0000
# 6 0.0000 0.0000 0.0000 1.2418 0.0000 28.0276
#
#
#
# Elastic Compliance Matrix: (Units=1/GPa)
#
#
# Indices 1 2 3 4 5 6 
#
# 1 0.010726 -0.002236 -0.003337 0.000000 0.002826 0.000000
# 2 -0.002236 0.018907 -0.006350 0.000000 -0.000176 0.000000
# 3 -0.003337 -0.006350 0.012805 0.000000 0.002600 0.000000
# 4 0.000000 0.000000 0.000000 0.035699 0.000000 -0.001582
# 5 0.002826 -0.000176 0.002600 0.000000 0.028221 0.000000
# 6 0.000000 0.000000 0.000000 -0.001582 0.000000 0.035749
#
#
# Mechanical properties :
#
#
# Convention : Reuss Voigt Hill
#
# Bulk Modulus (GPa) = 53.78184 61.91075 57.84629
# Shear Modulus (GPa) = 29.04439 31.05359 30.04899
#
# Velocity S-wave (km/s) = 3.79197 3.92093 3.85699
# Velocity P-wave (km/s) = 6.76741 7.15182 6.96227
#
# Compressibility (1/GPa) = 0.01859364
#
# Stress axis : x y z
#
# Youngs Moduli (GPa) = 93.22830 52.89163 78.09179
#
# Poissons Ratio (x) = 0.11828 0.26056
# Poissons Ratio (y) = 0.20848 0.49585
# Poissons Ratio (z) = 0.31106 0.33584
#
# Static dielectric constant tensor:
#      x y z
#    x 4.141750 0.000000 -0.384460 
#    y 0.000000 3.621160 0.000000 
#    z -0.384460 0.000000 3.959310 
# 
# 
# High freq. dielectric constant tensor:
#      x y z
#    x 1.803020 0.000000 -0.009710 
#    y 0.000000 1.777510 0.000000 
#    z -0.009710 0.000000 1.801220 
# 
# From -- ./inp_files/73064.got.cif
#   From: 2010.06.25/outbox.cif.g09.slc.cpg/sg11_37_cif.got.tgz:73064.got - 2010.06.27 23:14:04.
