data_PCOD8075337
_publ_section_title
;
Structure prediction by ZEFSAII (Michael W. Deem and Ramdas Pophale) SiO2 
 PCOD8075337
Probable space group: P 21/M
;
_chemical_formula_sum "Si O2"
_cell_formula_units_Z 28
_cell_length_a 28.711985
_cell_length_b 9.035685
_cell_length_c 12.559229
_cell_angle_alpha 90.000000
_cell_angle_beta 25.714838
_cell_angle_gamma 90.000000
_cell_volume 1413.739352
_symmetry_space_group_name_H-M "P 21/M"
_symmetry_group_IT_number 11
_symmetry_cell_setting 'monoclinic'
loop_
_space_group_symop_operation_xyz
x,y,z
-x,1/2+y,-z
-x,-y,-z
x,1/2-y,z
loop_
_atom_site_type_symbol
_atom_site_label
_atom_site_fract_x
_atom_site_fract_y
_atom_site_fract_z
Si Si1 0.013943 0.918549 0.793527
Si Si2 0.342000 0.078766 0.610754
Si Si3 0.294215 0.425303 0.950145
Si Si4 0.797869 0.076446 0.277762
Si Si5 0.926885 0.081091 0.566236
Si Si6 0.760266 0.424109 0.589901
Si Si7 0.412915 0.576415 0.886641
O O1 0.999839 0.750000 0.862386
O O2 0.010134 0.924810 0.674023
O O3 0.125427 0.988610 0.606590
O O4 0.917961 0.015133 0.037497
O O5 0.313856 0.250000 0.653500
O O6 0.316574 0.028011 0.782918
O O7 0.465429 0.045281 0.329074
O O8 0.267960 0.989035 0.683737
O O9 0.286927 0.250000 0.977626
O O10 0.390094 0.487632 0.825285
O O11 0.185469 0.498903 0.215211
O O12 0.805382 0.250000 0.245586
O O13 0.739239 0.035403 0.509861
O O14 0.906761 0.250000 0.643394
O O15 0.000000 0.000000 0.500000
O O16 0.765147 0.250000 0.597646
O O17 0.663072 0.486052 0.862253
O O18 0.394581 0.750000 0.901915
#
# Coordination Sequence:
#
# PCOD8075337 Si02
#       7
#     4   4   4   4   4   4   4
#     4  10  20  38  60  81 113 153 193 233 286 348
#     4  10  23  40  59  84 118 157 193 233 288 348
#     4  11  22  37  57  87 120 149 190 241 287 341
#     4  11  23  37  58  87 118 150 192 243 289 337
#     4  11  22  36  57  84 116 157 193 233 287 344
#     4   9  19  38  61  86 114 149 192 240 289 341
#     4  10  20  40  65  85 112 155 197 234 287 347
#
# _framework density 19.805631999999999
#
# number of rings (size 3 to 8) (size 9 to 14) (size 15 to 20)
#    0.000    1.714    1.429    3.000    0.000    6.857 
#    0.000    2.143    0.000    0.000    0.000    0.000 
#    0.000    0.000    0.000    0.000    0.000    0.000 
#
# Total GULP energy -347294.279589 kJ/mol
# GULP energy per Si atom -12403.367128 kJ/mol
# Density = 1.976055 g / cm^3
# Si number density = 19.805632 Si / 1000 Ang^3
#
#
#
# Elastic Constant Matrix: (Units=GPa)
#
#
# Indices 1 2 3 4 5 6 
#
# 1 77.3758 34.7731 37.0946 0.0000 11.3343 0.0000
# 2 34.7731 67.8905 34.0294 0.0000 4.9431 0.0000
# 3 37.0946 34.0294 102.9896 0.0000 3.8594 0.0000
# 4 0.0000 0.0000 0.0000 24.3286 0.0000 -1.0957
# 5 11.3343 4.9431 3.8594 0.0000 28.6147 0.0000
# 6 0.0000 0.0000 0.0000 -1.0957 0.0000 18.7431
#
#
#
# Elastic Compliance Matrix: (Units=1/GPa)
#
#
# Indices 1 2 3 4 5 6 
#
# 1 0.019042 -0.007199 -0.004266 0.000000 -0.005724 0.000000
# 2 -0.007199 0.020523 -0.004184 0.000000 -0.000130 0.000000
# 3 -0.004266 -0.004184 0.012602 0.000000 0.000713 0.000000
# 4 0.000000 0.000000 0.000000 0.041212 0.000000 0.002409
# 5 -0.005724 -0.000130 0.000713 0.000000 0.037141 0.000000
# 6 0.000000 0.000000 0.000000 0.002409 0.000000 0.053494
#
#
# Mechanical properties :
#
#
# Convention : Reuss Voigt Hill
#
# Bulk Modulus (GPa) = 47.91168 51.11668 49.51418
# Shear Modulus (GPa) = 22.49551 23.82789 23.16170
#
# Velocity S-wave (km/s) = 3.37384 3.47232 3.42343
# Velocity P-wave (km/s) = 6.27858 6.47620 6.37815
#
# Compressibility (1/GPa) = 0.02087174
#
# Stress axis : x y z
#
# Youngs Moduli (GPa) = 52.51429 48.72576 79.35427
#
# Poissons Ratio (x) = 0.35075 0.33850
# Poissons Ratio (y) = 0.37803 0.33198
# Poissons Ratio (z) = 0.22401 0.20385
#
# Static dielectric constant tensor:
#      x y z
#    x 3.391040 0.000000 0.085260 
#    y 0.000000 3.539170 0.000000 
#    z 0.085260 0.000000 3.830170 
# 
# 
# High freq. dielectric constant tensor:
#      x y z
#    x 1.780940 0.000000 0.002420 
#    y 0.000000 1.758010 0.000000 
#    z 0.002420 0.000000 1.781240 
# 
# From -- ./inp_files/44607.got.cif
#   From: 2010.06.25/outbox.cif.g09.slc.cpg/sg11_23_cif.got.tgz:44607.got - 2010.06.27 23:14:04.
