data_PCOD8075698
_publ_section_title
;
Structure prediction by ZEFSAII (Michael W. Deem and Ramdas Pophale) SiO2 
 PCOD8075698
Probable space group: P 21/M
;
_chemical_formula_sum "Si O2"
_cell_formula_units_Z 32
_cell_length_a 21.630891
_cell_length_b 9.194122
_cell_length_c 23.706755
_cell_angle_alpha 90.000000
_cell_angle_beta 22.509650
_cell_angle_gamma 90.000000
_cell_volume 1804.982479
_symmetry_space_group_name_H-M "P 21/M"
_symmetry_group_IT_number 11
_symmetry_cell_setting 'monoclinic'
loop_
_space_group_symop_operation_xyz
x,y,z
-x,1/2+y,-z
-x,-y,-z
x,1/2-y,z
loop_
_atom_site_type_symbol
_atom_site_label
_atom_site_fract_x
_atom_site_fract_y
_atom_site_fract_z
Si Si1 0.106904 0.585887 0.125234
Si Si2 0.383985 0.419733 0.831903
Si Si3 0.546735 0.081423 0.341494
Si Si4 0.023715 0.914798 0.537240
Si Si5 0.858496 0.079880 0.152343
Si Si6 0.207186 0.416780 0.678979
Si Si7 0.283387 0.586572 0.401265
Si Si8 0.991842 0.080975 0.670051
O O1 0.165609 0.750000 0.063595
O O2 0.118456 0.552059 0.182311
O O3 0.922466 0.566583 0.261559
O O4 0.219262 0.477824 0.996477
O O5 0.362166 0.250000 0.840899
O O6 0.421578 0.489471 0.740584
O O7 0.529229 0.457732 0.753069
O O8 0.539241 0.250000 0.330661
O O9 0.688552 0.049500 0.265852
O O10 0.379752 0.029857 0.510416
O O11 0.961112 0.750000 0.582608
O O12 0.214426 0.918619 0.394715
O O13 0.000000 0.000000 0.500000
O O14 0.923585 0.992479 0.672940
O O15 0.899438 0.250000 0.120100
O O16 0.849286 0.018506 0.222826
O O17 0.000000 0.000000 0.000000
O O18 0.217918 0.250000 0.691130
O O19 0.261010 0.750000 0.444492
O O20 0.173872 0.476328 0.530654
O O21 0.999541 0.250000 0.648174
#
# Coordination Sequence:
#
# PCOD8075698 Si02
#       8
#     4   4   4   4   4   4   4   4
#     4  10  21  35  52  77 107 139 175 218 266 318
#     4  11  22  35  53  78 107 141 177 217 267 316
#     4  10  22  39  57  77 104 138 176 222 270 320
#     4   9  17  31  52  80 112 139 175 219 259 305
#     4  11  23  38  56  79 107 139 177 219 269 323
#     4  10  21  38  58  78 104 137 177 223 270 316
#     4   8  18  33  49  74 107 136 169 215 259 302
#     4   9  17  31  53  78 104 138 177 213 259 311
#
# _framework density 17.728705000000001
#
# number of rings (size 3 to 8) (size 9 to 14) (size 15 to 20)
#    0.750    1.500    0.000    3.000    0.000    8.000 
#    0.000    0.000    0.000    0.750    0.000    0.000 
#    0.000    0.000    0.000    0.000    0.000    0.000 
#
# Total GULP energy -396622.638299 kJ/mol
# GULP energy per Si atom -12394.457447 kJ/mol
# Density = 1.768835 g / cm^3
# Si number density = 17.728705 Si / 1000 Ang^3
#
#
#
# Elastic Constant Matrix: (Units=GPa)
#
#
# Indices 1 2 3 4 5 6 
#
# 1 96.1444 52.2832 28.0644 0.0000 21.9788 0.0000
# 2 52.2832 102.3555 41.6045 0.0000 18.9563 0.0000
# 3 28.0644 41.6045 85.6756 0.0000 21.7251 0.0000
# 4 0.0000 0.0000 0.0000 26.3268 0.0000 2.0502
# 5 21.9788 18.9563 21.7251 0.0000 22.7585 0.0000
# 6 0.0000 0.0000 0.0000 2.0502 0.0000 31.0862
#
#
#
# Elastic Compliance Matrix: (Units=1/GPa)
#
#
# Indices 1 2 3 4 5 6 
#
# 1 0.016259 -0.006543 0.000595 0.000000 -0.010820 0.000000
# 2 -0.006543 0.015445 -0.004878 0.000000 -0.001889 0.000000
# 3 0.000595 -0.004878 0.017100 0.000000 -0.012836 0.000000
# 4 0.000000 0.000000 0.000000 0.038180 0.000000 -0.002518
# 5 -0.010820 -0.001889 -0.012836 0.000000 0.068216 0.000000
# 6 0.000000 0.000000 0.000000 -0.002518 0.000000 0.032335
#
#
# Mechanical properties :
#
#
# Convention : Reuss Voigt Hill
#
# Bulk Modulus (GPa) = 36.82849 58.67551 47.75200
# Shear Modulus (GPa) = 22.91091 26.84918 24.88004
#
# Velocity S-wave (km/s) = 3.59877 3.89581 3.75023
# Velocity P-wave (km/s) = 6.17144 7.30785 6.76355
#
# Compressibility (1/GPa) = 0.02715289
#
# Stress axis : x y z
#
# Youngs Moduli (GPa) = 61.50479 64.74759 58.47797
#
# Poissons Ratio (x) = 0.42365 -0.03481
# Poissons Ratio (y) = 0.40243 0.28523
# Poissons Ratio (z) = -0.03661 0.31581
#
# Static dielectric constant tensor:
#      x y z
#    x 3.245750 0.000000 -0.106250 
#    y 0.000000 3.392710 0.000000 
#    z -0.106250 0.000000 3.243100 
# 
# 
# High freq. dielectric constant tensor:
#      x y z
#    x 1.682030 0.000000 -0.000310 
#    y 0.000000 1.697260 0.000000 
#    z -0.000310 0.000000 1.668830 
# 
# From -- ./inp_files/72285.got.cif
#   From: 2010.06.25/outbox.cif.g09.slc.cpg/sg11_37_cif.got.tgz:72285.got - 2010.06.27 23:14:04.
