data_PCOD8075910
_publ_section_title
;
Structure prediction by ZEFSAII (Michael W. Deem and Ramdas Pophale) SiO2 
 PCOD8075910
Probable space group: P 21/M
;
_chemical_formula_sum "Si O2"
_cell_formula_units_Z 32
_cell_length_a 15.799964
_cell_length_b 14.114690
_cell_length_c 21.689524
_cell_angle_alpha 90.000000
_cell_angle_beta 18.985817
_cell_angle_gamma 90.000000
_cell_volume 1573.645980
_symmetry_space_group_name_H-M "P 21/M"
_symmetry_group_IT_number 11
_symmetry_cell_setting 'monoclinic'
loop_
_space_group_symop_operation_xyz
x,y,z
-x,1/2+y,-z
-x,-y,-z
x,1/2-y,z
loop_
_atom_site_type_symbol
_atom_site_label
_atom_site_fract_x
_atom_site_fract_y
_atom_site_fract_z
Si Si1 0.468775 0.471562 0.452147
Si Si2 0.440252 0.357992 0.693098
Si Si3 0.117179 0.648339 0.523939
Si Si4 0.048905 0.637369 0.202478
Si Si5 0.214451 0.967632 0.209501
Si Si6 0.003371 0.397324 0.524208
Si Si7 0.835162 0.361673 0.115284
Si Si8 0.404771 0.640951 0.847294
O O1 0.500000 0.500000 0.500000
O O2 0.412680 0.568944 0.453600
O O3 0.241635 0.394876 0.609008
O O4 0.720473 0.418153 0.252096
O O5 0.462793 0.250000 0.651987
O O6 0.582172 0.366708 0.662156
O O7 0.139276 0.387184 0.904513
O O8 0.019191 0.750000 0.619140
O O9 0.950933 0.562366 0.664867
O O10 0.097807 0.664733 0.463163
O O11 0.064857 0.750000 0.196724
O O12 0.124812 0.592098 0.214084
O O13 0.239796 0.596777 0.017462
O O14 0.192884 0.895740 0.282588
O O15 0.500000 0.000000 0.000000
O O16 0.289454 0.371456 0.351915
O O17 0.000000 0.500000 0.500000
O O18 0.789379 0.250000 0.155687
O O19 0.689003 0.400940 0.154015
O O20 0.329921 0.750000 0.896563
#
# Coordination Sequence:
#
# PCOD8075910 Si02
#       8
#     4   4   4   4   4   4   4   4
#     4  12  24  40  61  97 129 164 203 265 324 384
#     4  10  22  42  64  88 125 173 216 257 308 379
#     4  10  21  41  64  88 127 175 218 255 305 380
#     4  11  23  40  63  94 131 167 208 265 330 379
#     4  11  23  41  62  97 133 163 207 265 324 383
#     4  10  21  36  59  89 119 162 209 256 304 366
#     4  10  22  41  66  95 124 162 214 262 312 378
#     4  10  21  39  65  92 122 162 211 262 310 372
#
# _framework density 20.334942000000002
#
# number of rings (size 3 to 8) (size 9 to 14) (size 15 to 20)
#    0.000    1.500    1.250    4.125    1.750    5.500 
#    2.250    0.000    0.000    0.000    0.000    0.000 
#    0.000    0.000    0.000    0.000    0.000    0.000 
#
# Total GULP energy -396556.653366 kJ/mol
# GULP energy per Si atom -12392.395418 kJ/mol
# Density = 2.028866 g / cm^3
# Si number density = 20.334942 Si / 1000 Ang^3
#
#
#
# Elastic Constant Matrix: (Units=GPa)
#
#
# Indices 1 2 3 4 5 6 
#
# 1 172.4499 45.8188 76.9658 0.0000 -2.0510 0.0000
# 2 45.8188 86.2087 36.9142 0.0000 7.3411 0.0000
# 3 76.9658 36.9142 114.1385 0.0000 5.6680 0.0000
# 4 0.0000 0.0000 0.0000 35.4575 0.0000 -0.4539
# 5 -2.0510 7.3411 5.6680 0.0000 41.7541 0.0000
# 6 0.0000 0.0000 0.0000 -0.4539 0.0000 24.3951
#
#
#
# Elastic Compliance Matrix: (Units=1/GPa)
#
#
# Indices 1 2 3 4 5 6 
#
# 1 0.008825 -0.002605 -0.005188 0.000000 0.001596 0.000000
# 2 -0.002605 0.014367 -0.002777 0.000000 -0.002277 0.000000
# 3 -0.005188 -0.002777 0.013235 0.000000 -0.001563 0.000000
# 4 0.000000 0.000000 0.000000 0.028209 0.000000 0.000525
# 5 0.001596 -0.002277 -0.001563 0.000000 0.024641 0.000000
# 6 0.000000 0.000000 0.000000 0.000525 0.000000 0.041002
#
#
# Mechanical properties :
#
#
# Convention : Reuss Voigt Hill
#
# Bulk Modulus (GPa) = 65.40939 76.91055 71.15997
# Shear Modulus (GPa) = 31.94582 34.52790 33.23686
#
# Velocity S-wave (km/s) = 3.96786 4.12510 4.04724
# Velocity P-wave (km/s) = 7.29573 7.78412 7.54388
#
# Compressibility (1/GPa) = 0.01528833
#
# Stress axis : x y z
#
# Youngs Moduli (GPa) = 113.31132 69.60280 75.55592
#
# Poissons Ratio (x) = 0.18132 0.39197
# Poissons Ratio (y) = 0.29518 0.20981
# Poissons Ratio (z) = 0.58783 0.19328
#
# Static dielectric constant tensor:
#      x y z
#    x 3.992950 0.000000 -0.047600 
#    y 0.000000 4.060080 0.000000 
#    z -0.047600 0.000000 3.556140 
# 
# 
# High freq. dielectric constant tensor:
#      x y z
#    x 1.806470 0.000000 -0.006660 
#    y 0.000000 1.808540 0.000000 
#    z -0.006660 0.000000 1.784430 
# 
# From -- ./inp_files/65765.got.cif
#   From: 2010.06.25/outbox.cif.g09.slc.cpg/sg11_33_cif.got.tgz:65765.got - 2010.06.27 23:14:04.
