data_PCOD8075157
_publ_section_title
;
Structure prediction by ZEFSAII (Michael W. Deem and Ramdas Pophale) SiO2 
 PCOD8075157
Probable space group: P 21/M
;
_chemical_formula_sum "Si O2"
_cell_formula_units_Z 28
_cell_length_a 10.986050
_cell_length_b 8.627929
_cell_length_c 15.114087
_cell_angle_alpha 90.000000
_cell_angle_beta 66.587035
_cell_angle_gamma 90.000000
_cell_volume 1314.661952
_symmetry_space_group_name_H-M "P 21/M"
_symmetry_group_IT_number 11
_symmetry_cell_setting 'monoclinic'
loop_
_space_group_symop_operation_xyz
x,y,z
-x,1/2+y,-z
-x,-y,-z
x,1/2-y,z
loop_
_atom_site_type_symbol
_atom_site_label
_atom_site_fract_x
_atom_site_fract_y
_atom_site_fract_z
Si Si1 0.350931 0.932173 0.544425
Si Si2 0.415789 0.071045 0.846385
Si Si3 0.005569 0.422716 0.092799
Si Si4 0.219532 0.072883 0.748710
Si Si5 0.676868 0.568091 0.754073
Si Si6 0.149214 0.065169 0.456149
Si Si7 0.306520 0.423233 0.058168
O O1 0.360147 0.750000 0.523267
O O2 0.500000 0.000000 0.500000
O O3 0.291621 0.963541 0.657914
O O4 0.247165 0.005545 0.504719
O O5 0.456848 0.250000 0.841257
O O6 0.285042 0.053224 0.825886
O O7 0.530779 0.977097 0.761856
O O8 0.388117 0.999048 0.953019
O O9 0.944764 0.250000 0.104430
O O10 0.930523 0.518520 0.191360
O O11 0.154973 0.415994 0.078204
O O12 0.000000 0.500000 0.000000
O O13 0.223644 0.250000 0.713555
O O14 0.696450 0.750000 0.755061
O O15 0.787999 0.505682 0.654712
O O16 0.683354 0.488800 0.850190
O O17 0.143364 0.250000 0.464734
O O18 0.000000 0.000000 0.500000
O O19 0.362917 0.250000 0.052938
#
# Coordination Sequence:
#
# PCOD8075157 Si02
#       7
#     4   4   4   4   4   4   4
#     4  12  26  46  71  99 131 173 223 281 343 403
#     4  10  20  37  60  88 126 164 199 248 309 373
#     4  11  21  37  60  87 125 168 210 257 315 378
#     4  11  23  40  63  94 128 164 209 263 322 389
#     4  10  22  39  62  88 120 160 206 255 309 375
#     4  11  25  45  68  97 133 174 223 280 338 397
#     4   9  19  37  58  85 123 163 199 247 307 369
#
# _framework density 21.298249999999999
#
# number of rings (size 3 to 8) (size 9 to 14) (size 15 to 20)
#    0.000    1.429    1.429    3.857    2.000    4.571 
#    0.000    1.429    0.000    0.000    0.000    0.000 
#    0.000    0.000    0.000    0.000    0.000    0.000 
#
# Total GULP energy -347046.016201 kJ/mol
# GULP energy per Si atom -12394.500579 kJ/mol
# Density = 2.124977 g / cm^3
# Si number density = 21.298250 Si / 1000 Ang^3
#
#
#
# Elastic Constant Matrix: (Units=GPa)
#
#
# Indices 1 2 3 4 5 6 
#
# 1 95.3845 36.1539 51.2493 0.0000 -10.6206 0.0000
# 2 36.1539 74.9054 36.7462 0.0000 -1.0652 0.0000
# 3 51.2493 36.7462 160.1527 0.0000 -20.2818 0.0000
# 4 0.0000 0.0000 0.0000 31.2375 0.0000 -5.1526
# 5 -10.6206 -1.0652 -20.2818 0.0000 38.0256 0.0000
# 6 0.0000 0.0000 0.0000 -5.1526 0.0000 31.6558
#
#
#
# Elastic Compliance Matrix: (Units=1/GPa)
#
#
# Indices 1 2 3 4 5 6 
#
# 1 0.014453 -0.005424 -0.003098 0.000000 0.002233 0.000000
# 2 -0.005424 0.017162 -0.002502 0.000000 -0.002369 0.000000
# 3 -0.003098 -0.002502 0.008248 0.000000 0.003464 0.000000
# 4 0.000000 0.000000 0.000000 0.032896 0.000000 0.005354
# 5 0.002233 -0.002369 0.003464 0.000000 0.028703 0.000000
# 6 0.000000 0.000000 0.000000 0.005354 0.000000 0.032461
#
#
# Mechanical properties :
#
#
# Convention : Reuss Voigt Hill
#
# Bulk Modulus (GPa) = 56.13257 64.30459 60.21858
# Shear Modulus (GPa) = 30.88149 33.93666 32.40907
#
# Velocity S-wave (km/s) = 3.81196 3.99607 3.90510
# Velocity P-wave (km/s) = 6.76664 7.17979 6.97628
#
# Compressibility (1/GPa) = 0.01781497
#
# Stress axis : x y z
#
# Youngs Moduli (GPa) = 69.19054 58.26824 121.24153
#
# Poissons Ratio (x) = 0.31608 0.37556
# Poissons Ratio (y) = 0.37532 0.30333
# Poissons Ratio (z) = 0.21432 0.14578
#
# Static dielectric constant tensor:
#      x y z
#    x 3.717070 0.000000 -0.169510 
#    y 0.000000 4.304000 0.000000 
#    z -0.169510 0.000000 4.187670 
# 
# 
# High freq. dielectric constant tensor:
#      x y z
#    x 1.841620 0.000000 -0.005830 
#    y 0.000000 1.820200 0.000000 
#    z -0.005830 0.000000 1.854850 
# 
# From -- ./inp_files/37407.got.cif
#   From: 2010.06.25/outbox.cif.g09.slc.cpg/sg11_19_cif.got.tgz:37407.got - 2010.06.27 23:14:04.
