data_PCOD8075589
_publ_section_title
;
Structure prediction by ZEFSAII (Michael W. Deem and Ramdas Pophale) SiO2 
 PCOD8075589
Probable space group: P 21/M
;
_chemical_formula_sum "Si O2"
_cell_formula_units_Z 32
_cell_length_a 23.820278
_cell_length_b 8.973349
_cell_length_c 14.356999
_cell_angle_alpha 90.000000
_cell_angle_beta 147.240995
_cell_angle_gamma 90.000000
_cell_volume 1660.534583
_symmetry_space_group_name_H-M "P 21/M"
_symmetry_group_IT_number 11
_symmetry_cell_setting 'monoclinic'
loop_
_space_group_symop_operation_xyz
x,y,z
-x,1/2+y,-z
-x,-y,-z
x,1/2-y,z
loop_
_atom_site_type_symbol
_atom_site_label
_atom_site_fract_x
_atom_site_fract_y
_atom_site_fract_z
Si Si1 0.635996 0.925250 0.262118
Si Si2 0.402815 0.924751 0.978917
Si Si3 0.053219 0.425698 0.662263
Si Si4 0.393106 0.421453 0.330225
Si Si5 0.821787 0.926325 0.647363
Si Si6 0.295269 0.075488 0.000950
Si Si7 0.980180 0.073240 0.193405
Si Si8 0.194932 0.423922 0.166744
O O1 0.648248 0.750000 0.263638
O O2 0.722154 0.988787 0.453096
O O3 0.654793 0.001712 0.188997
O O4 0.524208 0.967547 0.147823
O O5 0.385678 0.750000 0.948910
O O6 0.354252 0.984621 0.005026
O O7 0.032454 0.250000 0.633132
O O8 0.001999 0.496631 0.682406
O O9 0.000000 0.500000 0.500000
O O10 0.174453 0.463785 0.829416
O O11 0.500000 0.500000 0.500000
O O12 0.419405 0.250000 0.354814
O O13 0.340529 0.480930 0.162312
O O14 0.314753 0.448319 0.306635
O O15 0.813725 0.750000 0.640550
O O16 0.821408 0.987829 0.752184
O O17 0.926134 0.979009 0.742377
O O18 0.313704 0.250000 0.010878
O O19 0.978106 0.250000 0.203724
O O20 0.873941 0.018361 0.999953
O O21 0.164192 0.250000 0.114331
#
# Coordination Sequence:
#
# PCOD8075589 Si02
#       8
#     4   4   4   4   4   4   4   4
#     4   9  19  38  58  81 116 155 190 234 292 352
#     4  10  21  35  58  87 114 149 195 241 285 338
#     4  11  24  43  64  88 120 159 199 244 298 358
#     4  10  22  39  61  88 118 156 197 240 295 351
#     4   9  20  36  60  86 111 151 197 237 288 349
#     4  10  22  41  61  84 119 161 194 234 299 359
#     4  11  22  38  60  89 119 151 195 243 293 349
#     4  10  20  40  63  83 115 157 197 238 292 352
#
# _framework density 19.270900999999999
#
# number of rings (size 3 to 8) (size 9 to 14) (size 15 to 20)
#    0.000    2.000    1.250    1.500    3.500    2.500 
#    0.000    1.875    0.000    0.000    0.000    0.000 
#    0.000    0.000    0.000    0.000    0.000    0.000 
#
# Total GULP energy -396914.863649 kJ/mol
# GULP energy per Si atom -12403.589489 kJ/mol
# Density = 1.922704 g / cm^3
# Si number density = 19.270901 Si / 1000 Ang^3
#
#
#
# Elastic Constant Matrix: (Units=GPa)
#
#
# Indices 1 2 3 4 5 6 
#
# 1 154.5096 52.9397 62.5167 0.0000 -11.8766 0.0000
# 2 52.9397 59.6760 45.8372 0.0000 -3.1069 0.0000
# 3 62.5167 45.8372 137.3157 0.0000 -16.3057 0.0000
# 4 0.0000 0.0000 0.0000 30.5012 0.0000 1.3728
# 5 -11.8766 -3.1069 -16.3057 0.0000 27.9294 0.0000
# 6 0.0000 0.0000 0.0000 1.3728 0.0000 28.7634
#
#
#
# Elastic Compliance Matrix: (Units=1/GPa)
#
#
# Indices 1 2 3 4 5 6 
#
# 1 0.009861 -0.007250 -0.001791 0.000000 0.002341 0.000000
# 2 -0.007250 0.027973 -0.006483 0.000000 -0.003756 0.000000
# 3 -0.001791 -0.006483 0.010837 0.000000 0.004844 0.000000
# 4 0.000000 0.000000 0.000000 0.032856 0.000000 -0.001568
# 5 0.002341 -0.003756 0.004844 0.000000 0.039210 0.000000
# 6 0.000000 0.000000 0.000000 -0.001568 0.000000 0.034841
#
#
# Mechanical properties :
#
#
# Convention : Reuss Voigt Hill
#
# Bulk Modulus (GPa) = 56.74540 74.89873 65.82207
# Shear Modulus (GPa) = 25.97392 30.11932 28.04662
#
# Velocity S-wave (km/s) = 3.67526 3.95770 3.81909
# Velocity P-wave (km/s) = 6.89349 7.73531 7.32650
#
# Compressibility (1/GPa) = 0.01762257
#
# Stress axis : x y z
#
# Youngs Moduli (GPa) = 101.41062 35.74925 92.27405
#
# Poissons Ratio (x) = 0.25918 0.16530
# Poissons Ratio (y) = 0.73522 0.59819
# Poissons Ratio (z) = 0.18166 0.23175
#
# Static dielectric constant tensor:
#      x y z
#    x 3.788990 0.000000 -0.128020 
#    y 0.000000 3.387370 0.000000 
#    z -0.128020 0.000000 3.657580 
# 
# 
# High freq. dielectric constant tensor:
#      x y z
#    x 1.764760 0.000000 -0.002870 
#    y 0.000000 1.735900 0.000000 
#    z -0.002870 0.000000 1.757910 
# 
# From -- ./inp_files/55579.got.cif
#   From: 2010.06.25/outbox.cif.g09.slc.cpg/sg11_28_cif.got.tgz:55579.got - 2010.06.27 23:14:04.
