data_PCOD8075841
_publ_section_title
;
Structure prediction by ZEFSAII (Michael W. Deem and Ramdas Pophale) SiO2 
 PCOD8075841
Probable space group: P 21/M
;
_chemical_formula_sum "Si O2"
_cell_formula_units_Z 32
_cell_length_a 12.510271
_cell_length_b 18.713451
_cell_length_c 16.478670
_cell_angle_alpha 90.000000
_cell_angle_beta 26.143962
_cell_angle_gamma 90.000000
_cell_volume 1699.866946
_symmetry_space_group_name_H-M "P 21/M"
_symmetry_group_IT_number 11
_symmetry_cell_setting 'monoclinic'
loop_
_space_group_symop_operation_xyz
x,y,z
-x,1/2+y,-z
-x,-y,-z
x,1/2-y,z
loop_
_atom_site_type_symbol
_atom_site_label
_atom_site_fract_x
_atom_site_fract_y
_atom_site_fract_z
Si Si1 0.777988 0.925402 0.601143
Si Si2 0.364122 0.413427 0.010813
Si Si3 0.544113 0.166385 0.289047
Si Si4 0.946084 0.166295 0.886887
Si Si5 0.760816 0.412845 0.615401
Si Si6 0.631126 0.424239 0.988067
Si Si7 0.873868 0.165299 0.376100
Si Si8 0.492075 0.334448 0.506893
O O1 0.683570 0.875011 0.593857
O O2 0.609466 0.920740 0.794432
O O3 0.042165 0.898711 0.448267
O O4 0.789768 0.006755 0.561140
O O5 0.495216 0.400790 0.835112
O O6 0.270149 0.494819 0.083655
O O7 0.558204 0.396119 0.949139
O O8 0.137313 0.361396 0.170807
O O9 0.483497 0.250000 0.324745
O O10 0.573276 0.140583 0.361761
O O11 0.792061 0.147638 0.072457
O O12 0.936140 0.250000 0.873756
O O13 0.220379 0.139252 0.713528
O O14 0.840439 0.126005 0.880692
O O15 0.796523 0.358178 0.518223
O O16 0.878793 0.250000 0.370672
O O17 0.678620 0.133433 0.445219
O O18 0.500414 0.250000 0.506152
#
# Coordination Sequence:
#
# PCOD8075841 Si02
#       8
#     4   4   4   4   4   4   4   4
#     4   9  18  35  57  83 117 147 180 227 276 337
#     4  10  21  36  56  82 112 153 187 217 279 340
#     4   9  18  33  55  82 108 141 183 232 282 324
#     4   9  18  33  55  82 108 141 183 232 282 324
#     4  10  21  36  56  82 112 153 187 217 279 340
#     4   9  18  35  57  83 117 147 180 227 276 337
#     4  11  24  41  57  79 114 147 189 237 274 327
#     4   9  20  37  55  77 107 147 188 229 280 333
#
# _framework density 18.825002999999999
#
# number of rings (size 3 to 8) (size 9 to 14) (size 15 to 20)
#    0.000    2.500    1.250    0.000    3.500    2.500 
#    0.000    5.000    0.000    4.500    0.000    0.000 
#    0.000    0.000    0.000    0.000    0.000    0.000 
#
# Total GULP energy -396836.012443 kJ/mol
# GULP energy per Si atom -12401.125389 kJ/mol
# Density = 1.878216 g / cm^3
# Si number density = 18.825003 Si / 1000 Ang^3
#
#
#
# Elastic Constant Matrix: (Units=GPa)
#
#
# Indices 1 2 3 4 5 6 
#
# 1 118.7494 52.9941 74.5176 0.0000 -20.2165 0.0000
# 2 52.9941 61.4298 41.2368 0.0000 -10.8156 0.0000
# 3 74.5176 41.2368 110.6133 0.0000 -3.1232 0.0000
# 4 0.0000 0.0000 0.0000 24.1804 0.0000 3.1596
# 5 -20.2165 -10.8156 -3.1232 0.0000 8.8806 0.0000
# 6 0.0000 0.0000 0.0000 3.1596 0.0000 6.7449
#
#
#
# Elastic Compliance Matrix: (Units=1/GPa)
#
#
# Indices 1 2 3 4 5 6 
#
# 1 0.032857 -0.004940 -0.018535 0.000000 0.062263 0.000000
# 2 -0.004940 0.028941 -0.006852 0.000000 0.021591 0.000000
# 3 -0.018535 -0.006852 0.022882 0.000000 -0.042492 0.000000
# 4 0.000000 0.000000 0.000000 0.044052 0.000000 -0.020636
# 5 0.062263 0.021591 -0.042492 0.000000 0.265697 0.000000
# 6 0.000000 0.000000 0.000000 -0.020636 0.000000 0.157926
#
#
# Mechanical properties :
#
#
# Convention : Reuss Voigt Hill
#
# Bulk Modulus (GPa) = 41.62171 69.80995 55.71583
# Shear Modulus (GPa) = 8.05130 16.09746 12.07438
#
# Velocity S-wave (km/s) = 2.07031 2.92740 2.53534
# Velocity P-wave (km/s) = 5.27946 6.97068 6.18317
#
# Compressibility (1/GPa) = 0.02402592
#
# Stress axis : x y z
#
# Youngs Moduli (GPa) = 30.43506 34.55247 43.70303
#
# Poissons Ratio (x) = 0.17070 0.81004
# Poissons Ratio (y) = 0.15036 0.29944
# Poissons Ratio (z) = 0.56412 0.23674
#
# Static dielectric constant tensor:
#      x y z
#    x 3.531720 0.000000 -0.022470 
#    y 0.000000 3.299900 0.000000 
#    z -0.022470 0.000000 3.520550 
# 
# 
# High freq. dielectric constant tensor:
#      x y z
#    x 1.725860 0.000000 0.003120 
#    y 0.000000 1.711100 0.000000 
#    z 0.003120 0.000000 1.742670 
# 
# From -- ./inp_files/50658.got.cif
#   From: 2010.06.25/outbox.cif.g09.slc.cpg/sg11_26_cif.got.tgz:50658.got - 2010.06.27 23:14:04.
