data_PCOD8075785
_publ_section_title
;
Structure prediction by ZEFSAII (Michael W. Deem and Ramdas Pophale) SiO2 
 PCOD8075785
Probable space group: P 21/M
;
_chemical_formula_sum "Si O2"
_cell_formula_units_Z 28
_cell_length_a 26.135750
_cell_length_b 10.301748
_cell_length_c 25.973465
_cell_angle_alpha 90.000000
_cell_angle_beta 11.369028
_cell_angle_gamma 90.000000
_cell_volume 1378.550887
_symmetry_space_group_name_H-M "P 21/M"
_symmetry_group_IT_number 11
_symmetry_cell_setting 'monoclinic'
loop_
_space_group_symop_operation_xyz
x,y,z
-x,1/2+y,-z
-x,-y,-z
x,1/2-y,z
loop_
_atom_site_type_symbol
_atom_site_label
_atom_site_fract_x
_atom_site_fract_y
_atom_site_fract_z
Si Si1 0.598719 0.607546 0.807620
Si Si2 0.796966 0.893417 0.716309
Si Si3 0.906742 0.896204 0.829927
Si Si4 0.426571 0.593047 0.367877
Si Si5 0.884681 0.978029 0.737732
Si Si6 0.983533 0.603447 0.061381
Si Si7 0.505692 0.602405 0.606502
O O1 0.703965 0.750000 0.691307
O O2 0.559236 0.588377 0.909310
O O3 0.820973 0.512591 0.566602
O O4 0.321227 0.595271 0.052611
O O5 0.914606 0.750000 0.590097
O O6 0.739220 0.899715 0.834542
O O7 0.000000 0.000000 0.500000
O O8 0.910946 0.750000 0.844179
O O9 0.888917 0.898644 0.785925
O O10 0.171352 0.958326 0.589867
O O11 0.658592 0.958536 0.102511
O O12 0.429801 0.750000 0.374774
O O13 0.439949 0.512240 0.406927
O O14 0.001916 0.750000 0.020555
O O15 0.709954 0.583096 0.359259
O O16 0.216316 0.579066 0.871488
O O17 0.000000 0.500000 0.000000
O O18 0.531368 0.750000 0.603981
#
# Coordination Sequence:
#
# PCOD8075785 Si02
#       7
#     4   4   4   4   4   4   4
#     4  10  21  36  53  77 110 141 176 221 270 334
#     4   9  19  35  56  82 109 142 180 219 270 337
#     4  10  21  37  56  80 108 136 181 242 285 323
#     4  10  21  38  59  82 109 146 190 234 281 328
#     4  11  20  36  57  79 105 142 179 223 280 336
#     4  10  21  36  57  87 122 155 189 230 274 321
#     4  10  21  38  58  83 117 154 191 233 276 321
#
# _framework density 20.311184000000001
#
# number of rings (size 3 to 8) (size 9 to 14) (size 15 to 20)
#    0.000    2.000    0.000    3.429    0.000    1.714 
#    0.000   13.571    0.000    0.000    0.000    0.000 
#    0.000    0.000    0.000    0.000    0.000    0.000 
#
# Total GULP energy -346897.325955 kJ/mol
# GULP energy per Si atom -12389.190213 kJ/mol
# Density = 2.026495 g / cm^3
# Si number density = 20.311184 Si / 1000 Ang^3
#
#
#
# Elastic Constant Matrix: (Units=GPa)
#
#
# Indices 1 2 3 4 5 6 
#
# 1 99.8599 49.3035 31.6646 0.0000 -0.3965 0.0000
# 2 49.3035 72.6866 14.6561 0.0000 0.9352 0.0000
# 3 31.6646 14.6561 105.8668 0.0000 -4.1894 0.0000
# 4 0.0000 0.0000 0.0000 14.0485 0.0000 -0.6055
# 5 -0.3965 0.9352 -4.1894 0.0000 31.8674 0.0000
# 6 0.0000 0.0000 0.0000 -0.6055 0.0000 28.7785
#
#
#
# Elastic Compliance Matrix: (Units=1/GPa)
#
#
# Indices 1 2 3 4 5 6 
#
# 1 0.016173 -0.010283 -0.003412 0.000000 0.000054 0.000000
# 2 -0.010283 0.020705 0.000181 0.000000 -0.000712 0.000000
# 3 -0.003412 0.000181 0.010494 0.000000 0.001332 0.000000
# 4 0.000000 0.000000 0.000000 0.071246 0.000000 0.001499
# 5 0.000054 -0.000712 0.001332 0.000000 0.031577 0.000000
# 6 0.000000 0.000000 0.000000 0.001499 0.000000 0.034780
#
#
# Mechanical properties :
#
#
# Convention : Reuss Voigt Hill
#
# Bulk Modulus (GPa) = 49.15187 52.18462 50.66825
# Shear Modulus (GPa) = 22.85360 27.12483 24.98922
#
# Velocity S-wave (km/s) = 3.35800 3.65836 3.51139
# Velocity P-wave (km/s) = 6.26792 6.60251 6.43739
#
# Compressibility (1/GPa) = 0.02034510
#
# Stress axis : x y z
#
# Youngs Moduli (GPa) = 61.83140 48.29679 95.29363
#
# Poissons Ratio (x) = 0.49664 0.32510
# Poissons Ratio (y) = 0.63581 -0.01725
# Poissons Ratio (z) = 0.21094 -0.00874
#
# Static dielectric constant tensor:
#      x y z
#    x 3.574550 0.000000 -0.135070 
#    y 0.000000 3.478970 0.000000 
#    z -0.135070 0.000000 3.935110 
# 
# 
# High freq. dielectric constant tensor:
#      x y z
#    x 1.782650 0.000000 -0.008080 
#    y 0.000000 1.787580 0.000000 
#    z -0.008080 0.000000 1.804940 
# 
# From -- ./inp_files/72386.got.cif
#   From: 2010.06.25/outbox.cif.g09.slc.cpg/sg11_37_cif.got.tgz:72386.got - 2010.06.27 23:14:04.
