data_PCOD8075345
_publ_section_title
;
Structure prediction by ZEFSAII (Michael W. Deem and Ramdas Pophale) SiO2 
 PCOD8075345
Probable space group: P 21/M
;
_chemical_formula_sum "Si O2"
_cell_formula_units_Z 32
_cell_length_a 15.166279
_cell_length_b 8.948319
_cell_length_c 22.629961
_cell_angle_alpha 90.000000
_cell_angle_beta 31.535169
_cell_angle_gamma 90.000000
_cell_volume 1606.290608
_symmetry_space_group_name_H-M "P 21/M"
_symmetry_group_IT_number 11
_symmetry_cell_setting 'monoclinic'
loop_
_space_group_symop_operation_xyz
x,y,z
-x,1/2+y,-z
-x,-y,-z
x,1/2-y,z
loop_
_atom_site_type_symbol
_atom_site_label
_atom_site_fract_x
_atom_site_fract_y
_atom_site_fract_z
Si Si1 0.001242 0.927014 0.753805
Si Si2 0.618848 0.576265 0.778428
Si Si3 0.723684 0.927829 0.002591
Si Si4 0.429619 0.420899 0.689531
Si Si5 0.717907 0.927096 0.590755
Si Si6 0.031673 0.074707 0.360931
Si Si7 0.341843 0.927952 0.622299
Si Si8 0.150846 0.418637 0.945104
O O1 0.997407 0.750000 0.756851
O O2 0.989929 0.985967 0.693448
O O3 0.173697 0.983788 0.685193
O O4 0.839440 0.986495 0.882687
O O5 0.575405 0.750000 0.803333
O O6 0.463894 0.490635 0.896848
O O7 0.652723 0.521510 0.692233
O O8 0.779436 0.540086 0.726878
O O9 0.711549 0.750000 0.011518
O O10 0.808544 0.989811 0.014396
O O11 0.460251 0.250000 0.651615
O O12 0.608642 0.495973 0.601553
O O13 0.333781 0.512189 0.693556
O O14 0.319431 0.430130 0.810974
O O15 0.709887 0.750000 0.588176
O O16 0.908464 0.983473 0.474283
O O17 0.989583 0.250000 0.390210
O O18 0.357263 0.750000 0.613424
O O19 0.500000 0.000000 0.500000
O O20 0.090363 0.250000 0.987992
O O21 0.000000 0.500000 0.000000
#
# Coordination Sequence:
#
# PCOD8075345 Si02
#       8
#     4   4   4   4   4   4   4   4
#     4   9  20  38  60  84 115 155 196 239 292 350
#     4  10  22  38  58  87 120 152 192 244 303 352
#     4  10  20  38  60  83 114 154 197 238 287 352
#     4  11  22  37  57  84 115 153 195 237 294 355
#     4  11  22  37  58  87 119 152 195 248 300 354
#     4  10  21  39  61  85 116 155 195 242 299 359
#     4  11  22  38  60  87 120 158 200 247 295 351
#     4  10  21  35  55  82 111 147 191 238 289 349
#
# _framework density 19.921673999999999
#
# number of rings (size 3 to 8) (size 9 to 14) (size 15 to 20)
#    0.000    1.750    1.250    3.000    0.000    5.000 
#    0.000    2.500    0.000    0.000    0.000    0.000 
#    0.000    0.000    0.000    0.000    0.000    0.000 
#
# Total GULP energy -396924.376619 kJ/mol
# GULP energy per Si atom -12403.886769 kJ/mol
# Density = 1.987633 g / cm^3
# Si number density = 19.921674 Si / 1000 Ang^3
#
#
#
# Elastic Constant Matrix: (Units=GPa)
#
#
# Indices 1 2 3 4 5 6 
#
# 1 120.6688 34.2284 45.8277 0.0000 -10.9282 0.0000
# 2 34.2284 63.1867 40.4459 0.0000 -6.9414 0.0000
# 3 45.8277 40.4459 135.2763 0.0000 -8.9409 0.0000
# 4 0.0000 0.0000 0.0000 33.8519 0.0000 -3.4925
# 5 -10.9282 -6.9414 -8.9409 0.0000 32.4011 0.0000
# 6 0.0000 0.0000 0.0000 -3.4925 0.0000 25.6743
#
#
#
# Elastic Compliance Matrix: (Units=1/GPa)
#
#
# Indices 1 2 3 4 5 6 
#
# 1 0.010451 -0.004027 -0.002201 0.000000 0.002055 0.000000
# 2 -0.004027 0.021345 -0.004895 0.000000 0.001864 0.000000
# 3 -0.002201 -0.004895 0.009659 0.000000 0.000875 0.000000
# 4 0.000000 0.000000 0.000000 0.029961 0.000000 0.004076
# 5 0.002055 0.001864 0.000875 0.000000 0.032197 0.000000
# 6 0.000000 0.000000 0.000000 0.004076 0.000000 0.039504
#
#
# Mechanical properties :
#
#
# Convention : Reuss Voigt Hill
#
# Bulk Modulus (GPa) = 52.05340 62.23732 57.14536
# Shear Modulus (GPa) = 29.10938 31.62743 30.36841
#
# Velocity S-wave (km/s) = 3.82670 3.98878 3.90858
# Velocity P-wave (km/s) = 6.76096 7.24725 7.00832
#
# Compressibility (1/GPa) = 0.01921104
#
# Stress axis : x y z
#
# Youngs Moduli (GPa) = 95.68136 46.84856 103.53003
#
# Poissons Ratio (x) = 0.18866 0.22784
# Poissons Ratio (y) = 0.38532 0.50673
# Poissons Ratio (z) = 0.21057 0.22930
#
# Static dielectric constant tensor:
#      x y z
#    x 3.825890 0.000000 0.096500 
#    y 0.000000 3.547830 0.000000 
#    z 0.096500 0.000000 3.759740 
# 
# 
# High freq. dielectric constant tensor:
#      x y z
#    x 1.786710 0.000000 -0.001300 
#    y 0.000000 1.759240 0.000000 
#    z -0.001300 0.000000 1.787720 
# 
# From -- ./inp_files/55702.got.cif
#   From: 2010.06.25/outbox.cif.g09.slc.cpg/sg11_28_cif.got.tgz:55702.got - 2010.06.27 23:14:04.
