data_PCOD8075091
_publ_section_title
;
Structure prediction by ZEFSAII (Michael W. Deem and Ramdas Pophale) SiO2 
 PCOD8075091
Probable space group: P 21/M
;
_chemical_formula_sum "Si O2"
_cell_formula_units_Z 32
_cell_length_a 11.824505
_cell_length_b 8.977433
_cell_length_c 15.159708
_cell_angle_alpha 90.000000
_cell_angle_beta 92.838925
_cell_angle_gamma 90.000000
_cell_volume 1607.284104
_symmetry_space_group_name_H-M "P 21/M"
_symmetry_group_IT_number 11
_symmetry_cell_setting 'monoclinic'
loop_
_space_group_symop_operation_xyz
x,y,z
-x,1/2+y,-z
-x,-y,-z
x,1/2-y,z
loop_
_atom_site_type_symbol
_atom_site_label
_atom_site_fract_x
_atom_site_fract_y
_atom_site_fract_z
Si Si1 0.328832 0.423142 0.895418
Si Si2 0.826440 0.424969 0.540178
Si Si3 0.913975 0.581302 0.187720
Si Si4 0.485325 0.574983 0.229326
Si Si5 0.312468 0.926220 0.072103
Si Si6 0.932726 0.579527 0.386825
Si Si7 0.423893 0.928242 0.420740
Si Si8 0.926597 0.575386 0.922251
O O1 0.357074 0.250000 0.914636
O O2 0.196216 0.449681 0.875306
O O3 0.396137 0.476694 0.810347
O O4 0.367151 0.517632 0.982154
O O5 0.818367 0.250000 0.533625
O O6 0.846839 0.486988 0.443301
O O7 0.706909 0.483230 0.574327
O O8 0.935536 0.474758 0.603096
O O9 0.957645 0.750000 0.173720
O O10 0.883819 0.556962 0.287943
O O11 0.012044 0.464873 0.167070
O O12 0.482026 0.750000 0.240760
O O13 0.388709 0.524708 0.157407
O O14 0.466799 0.509105 0.327025
O O15 0.294742 0.750000 0.066296
O O16 0.196701 0.009313 0.084317
O O17 0.926785 0.750000 0.417738
O O18 0.433697 0.750000 0.427670
O O19 0.500000 0.000000 0.500000
O O20 0.920276 0.750000 0.938048
O O21 0.000000 0.500000 0.000000
#
# Coordination Sequence:
#
# PCOD8075091 Si02
#       8
#     4   4   4   4   4   4   4   4
#     4  10  20  37  59  86 119 153 196 245 287 338
#     4   9  19  36  57  83 117 150 188 238 290 340
#     4  10  21  35  58  87 116 152 193 235 287 347
#     4   9  21  39  62  87 114 156 200 238 290 352
#     4  11  22  38  62  88 117 156 196 239 291 349
#     4   9  19  35  59  87 113 150 191 232 285 351
#     4  10  22  40  61  85 115 153 196 243 291 346
#     4  12  24  39  58  84 118 153 190 235 287 343
#
# _framework density 19.909362000000002
#
# number of rings (size 3 to 8) (size 9 to 14) (size 15 to 20)
#    0.000    2.000    1.250    1.875    3.500    1.000 
#    0.000    2.500    0.000    0.000    0.000    0.000 
#    0.000    0.000    0.000    0.000    0.000    0.000 
#
# Total GULP energy -396712.268477 kJ/mol
# GULP energy per Si atom -12397.258390 kJ/mol
# Density = 1.986405 g / cm^3
# Si number density = 19.909362 Si / 1000 Ang^3
#
#
#
# Elastic Constant Matrix: (Units=GPa)
#
#
# Indices 1 2 3 4 5 6 
#
# 1 94.9059 36.1271 47.0886 0.0000 -20.2390 0.0000
# 2 36.1271 54.2765 33.6457 0.0000 0.2483 0.0000
# 3 47.0886 33.6457 139.0501 0.0000 -7.1426 0.0000
# 4 0.0000 0.0000 0.0000 32.6691 0.0000 -2.5065
# 5 -20.2390 0.2483 -7.1426 0.0000 32.0149 0.0000
# 6 0.0000 0.0000 0.0000 -2.5065 0.0000 26.7228
#
#
#
# Elastic Compliance Matrix: (Units=1/GPa)
#
#
# Indices 1 2 3 4 5 6 
#
# 1 0.018380 -0.010325 -0.003161 0.000000 0.010994 0.000000
# 2 -0.010325 0.027533 -0.003553 0.000000 -0.007533 0.000000
# 3 -0.003161 -0.003553 0.009125 0.000000 0.000065 0.000000
# 4 0.000000 0.000000 0.000000 0.030832 0.000000 0.002892
# 5 0.010994 -0.007533 0.000065 0.000000 0.038259 0.000000
# 6 0.000000 0.000000 0.000000 0.002892 0.000000 0.037693
#
#
# Mechanical properties :
#
#
# Convention : Reuss Voigt Hill
#
# Bulk Modulus (GPa) = 47.70753 57.99505 52.85129
# Shear Modulus (GPa) = 24.64443 29.70608 27.17525
#
# Velocity S-wave (km/s) = 3.52210 3.86692 3.69853
# Velocity P-wave (km/s) = 6.36825 7.00929 6.69645
#
# Compressibility (1/GPa) = 0.02096105
#
# Stress axis : x y z
#
# Youngs Moduli (GPa) = 54.40701 36.31988 109.58653
#
# Poissons Ratio (x) = 0.37499 0.34644
# Poissons Ratio (y) = 0.56173 0.38933
# Poissons Ratio (z) = 0.17200 0.12904
#
# Static dielectric constant tensor:
#      x y z
#    x 3.884020 0.000000 -0.104880 
#    y 0.000000 3.673690 0.000000 
#    z -0.104880 0.000000 3.828500 
# 
# 
# High freq. dielectric constant tensor:
#      x y z
#    x 1.786100 0.000000 -0.006100 
#    y 0.000000 1.752550 0.000000 
#    z -0.006100 0.000000 1.784470 
# 
# From -- ./inp_files/49329.got.cif
#   From: 2010.06.25/outbox.cif.g09.slc.cpg/sg11_25_cif.got.tgz:49329.got - 2010.06.27 23:14:04.
