data_PCOD8075225
_publ_section_title
;
Structure prediction by ZEFSAII (Michael W. Deem and Ramdas Pophale) SiO2 
 PCOD8075225
Probable space group: P 21/M
;
_chemical_formula_sum "Si O2"
_cell_formula_units_Z 28
_cell_length_a 15.742035
_cell_length_b 15.065294
_cell_length_c 9.333963
_cell_angle_alpha 90.000000
_cell_angle_beta 143.699367
_cell_angle_gamma 90.000000
_cell_volume 1310.516419
_symmetry_space_group_name_H-M "P 21/M"
_symmetry_group_IT_number 11
_symmetry_cell_setting 'monoclinic'
loop_
_space_group_symop_operation_xyz
x,y,z
-x,1/2+y,-z
-x,-y,-z
x,1/2-y,z
loop_
_atom_site_type_symbol
_atom_site_label
_atom_site_fract_x
_atom_site_fract_y
_atom_site_fract_z
Si Si1 0.136293 0.349098 0.540646
Si Si2 0.469149 0.981359 0.792430
Si Si3 0.231844 0.466577 0.913780
Si Si4 0.338579 0.344504 0.556003
Si Si5 0.820384 0.150862 0.032837
Si Si6 0.883605 0.901872 0.945381
Si Si7 0.191269 0.914201 0.288628
O O1 0.146194 0.250000 0.624317
O O2 0.133519 0.428448 0.652370
O O3 0.267490 0.364973 0.612846
O O4 0.991795 0.356996 0.251912
O O5 0.446816 0.074468 0.676049
O O6 0.329518 0.917701 0.582487
O O7 0.500000 0.000000 0.000000
O O8 0.605265 0.936255 0.899955
O O9 0.230091 0.574194 0.924998
O O10 0.172552 0.418779 0.972508
O O11 0.422016 0.250000 0.676145
O O12 0.218991 0.330316 0.269501
O O13 0.774183 0.250000 0.023299
O O14 0.760590 0.136235 0.790906
O O15 0.859669 0.987217 0.813829
O O16 0.051169 0.870047 0.174912
#
# Coordination Sequence:
#
# PCOD8075225 Si02
#       7
#     4   4   4   4   4   4   4
#     4  10  20  37  61  90 120 160 212 263 316 371
#     4  11  23  39  58  85 126 166 202 242 313 386
#     4  11  23  37  61  94 128 163 201 262 317 370
#     4  10  20  37  64  86 114 163 215 256 306 379
#     4  10  21  38  63  92 123 161 212 265 317 368
#     4   9  19  35  61  89 111 146 206 258 306 359
#     4   9  19  36  58  84 116 152 199 249 302 370
#
# _framework density 21.365622999999999
#
# number of rings (size 3 to 8) (size 9 to 14) (size 15 to 20)
#    0.000    2.000    2.857    0.429    2.000    7.429 
#    0.000    1.429    0.000    0.000    0.000    0.000 
#    0.000    0.000    0.000    0.000    0.000    0.000 
#
# Total GULP energy -346959.895458 kJ/mol
# GULP energy per Si atom -12391.424838 kJ/mol
# Density = 2.131699 g / cm^3
# Si number density = 21.365623 Si / 1000 Ang^3
#
#
#
# Elastic Constant Matrix: (Units=GPa)
#
#
# Indices 1 2 3 4 5 6 
#
# 1 68.6378 14.9865 29.0305 0.0000 -2.4048 0.0000
# 2 14.9865 85.6958 25.6811 0.0000 -14.9016 0.0000
# 3 29.0305 25.6811 116.4141 0.0000 -5.7221 0.0000
# 4 0.0000 0.0000 0.0000 22.8168 0.0000 -2.6714
# 5 -2.4048 -14.9016 -5.7221 0.0000 32.4083 0.0000
# 6 0.0000 0.0000 0.0000 -2.6714 0.0000 20.6432
#
#
#
# Elastic Compliance Matrix: (Units=1/GPa)
#
#
# Indices 1 2 3 4 5 6 
#
# 1 0.016537 -0.001819 -0.003736 0.000000 -0.000269 0.000000
# 2 -0.001819 0.013670 -0.002279 0.000000 0.005748 0.000000
# 3 -0.003736 -0.002279 0.010047 0.000000 0.000449 0.000000
# 4 0.000000 0.000000 0.000000 0.044502 0.000000 0.005759
# 5 -0.000269 0.005748 0.000449 0.000000 0.033559 0.000000
# 6 0.000000 0.000000 0.000000 0.005759 0.000000 0.049187
#
#
# Mechanical properties :
#
#
# Convention : Reuss Voigt Hill
#
# Bulk Modulus (GPa) = 40.67575 45.57153 43.12364
# Shear Modulus (GPa) = 26.12812 28.57698 27.35255
#
# Velocity S-wave (km/s) = 3.50080 3.66118 3.58189
# Velocity P-wave (km/s) = 5.95148 6.26482 6.11016
#
# Compressibility (1/GPa) = 0.02458467
#
# Stress axis : x y z
#
# Youngs Moduli (GPa) = 60.47016 73.15312 99.53702
#
# Poissons Ratio (x) = 0.13308 0.37185
# Poissons Ratio (y) = 0.11001 0.22689
# Poissons Ratio (z) = 0.22590 0.16675
#
# Static dielectric constant tensor:
#      x y z
#    x 3.605520 0.000000 0.143460 
#    y 0.000000 3.973020 0.000000 
#    z 0.143460 0.000000 3.927900 
# 
# 
# High freq. dielectric constant tensor:
#      x y z
#    x 1.820720 0.000000 0.004740 
#    y 0.000000 1.824650 0.000000 
#    z 0.004740 0.000000 1.832400 
# 
# From -- ./inp_files/22766.got.cif
#   From: 2010.06.25/outbox.cif.g09.slc.cpg/sg11_12_cif.got.tgz:22766.got - 2010.06.27 23:14:04.
