data_PCOD8075371
_publ_section_title
;
Structure prediction by ZEFSAII (Michael W. Deem and Ramdas Pophale) SiO2 
 PCOD8075371
Probable space group: P 21/M
;
_chemical_formula_sum "Si O2"
_cell_formula_units_Z 24
_cell_length_a 19.338416
_cell_length_b 8.645657
_cell_length_c 27.226884
_cell_angle_alpha 90.000000
_cell_angle_beta 16.549622
_cell_angle_gamma 90.000000
_cell_volume 1296.660909
_symmetry_space_group_name_H-M "P 21/M"
_symmetry_group_IT_number 11
_symmetry_cell_setting 'monoclinic'
loop_
_space_group_symop_operation_xyz
x,y,z
-x,1/2+y,-z
-x,-y,-z
x,1/2-y,z
loop_
_atom_site_type_symbol
_atom_site_label
_atom_site_fract_x
_atom_site_fract_y
_atom_site_fract_z
Si Si1 0.466765 0.931016 0.469108
Si Si2 0.708155 0.571751 0.560716
Si Si3 0.742922 0.065502 0.190667
Si Si4 0.035136 0.933607 0.422805
Si Si5 0.028394 0.073774 0.716980
Si Si6 0.492415 0.431062 0.059137
O O1 0.517028 0.750000 0.435962
O O2 0.500000 0.000000 0.500000
O O3 0.662100 0.008107 0.299404
O O4 0.189939 0.962718 0.640889
O O5 0.659850 0.750000 0.603475
O O6 0.451919 0.500630 0.716852
O O7 0.911647 0.545754 0.380870
O O8 0.817737 0.498860 0.536095
O O9 0.748880 0.250000 0.187712
O O10 0.000000 0.000000 0.000000
O O11 0.026306 0.750000 0.429805
O O12 0.293445 0.984908 0.226948
O O13 0.000000 0.000000 0.500000
O O14 0.092181 0.250000 0.688265
O O15 0.744479 0.038220 0.916429
O O16 0.436945 0.250000 0.092945
O O17 0.500000 0.500000 0.000000
#
# Coordination Sequence:
#
# PCOD8075371 Si02
#       6
#     4   4   4   4   4   4
#     4  11  22  38  60  87 117 151 188 236 290 340
#     4   8  16  34  58  79 109 149 186 227 283 339
#     4  10  20  38  61  86 113 149 193 236 284 342
#     4  11  22  39  57  82 116 155 193 235 289 340
#     4   9  18  36  59  84 113 150 190 233 286 341
#     4  11  21  36  60  88 116 151 191 236 283 336
#
# _framework density 18.509080999999998
#
# number of rings (size 3 to 8) (size 9 to 14) (size 15 to 20)
#    0.000    2.000    1.667    4.000    0.000    1.333 
#    3.000    2.500    0.000    0.000    0.000    0.000 
#    0.000    0.000    0.000    0.000    0.000    0.000 
#
# Total GULP energy -297530.514902 kJ/mol
# GULP energy per Si atom -12397.104788 kJ/mol
# Density = 1.846695 g / cm^3
# Si number density = 18.509081 Si / 1000 Ang^3
#
#
#
# Elastic Constant Matrix: (Units=GPa)
#
#
# Indices 1 2 3 4 5 6 
#
# 1 134.0766 45.1612 82.3500 0.0000 2.7184 0.0000
# 2 45.1612 91.7826 44.9820 0.0000 -0.2391 0.0000
# 3 82.3500 44.9820 141.6050 0.0000 -1.8177 0.0000
# 4 0.0000 0.0000 0.0000 34.2404 0.0000 1.6486
# 5 2.7184 -0.2391 -1.8177 0.0000 25.8105 0.0000
# 6 0.0000 0.0000 0.0000 1.6486 0.0000 31.0646
#
#
#
# Elastic Compliance Matrix: (Units=1/GPa)
#
#
# Indices 1 2 3 4 5 6 
#
# 1 0.012346 -0.003020 -0.006243 0.000000 -0.001768 0.000000
# 2 -0.003020 0.013644 -0.002575 0.000000 0.000263 0.000000
# 3 -0.006243 -0.002575 0.011529 0.000000 0.001446 0.000000
# 4 0.000000 0.000000 0.000000 0.029280 0.000000 -0.001554
# 5 -0.001768 0.000263 0.001446 0.000000 0.039034 0.000000
# 6 0.000000 0.000000 0.000000 -0.001554 0.000000 0.032273
#
#
# Mechanical properties :
#
#
# Convention : Reuss Voigt Hill
#
# Bulk Modulus (GPa) = 72.23503 79.16120 75.69811
# Shear Modulus (GPa) = 30.04880 31.22115 30.63498
#
# Velocity S-wave (km/s) = 4.03359 4.11152 4.07275
# Velocity P-wave (km/s) = 7.79774 8.08710 7.94374
#
# Compressibility (1/GPa) = 0.01384370
#
# Stress axis : x y z
#
# Youngs Moduli (GPa) = 80.99798 73.29468 86.73747
#
# Poissons Ratio (x) = 0.22132 0.54153
# Poissons Ratio (y) = 0.24458 0.22331
# Poissons Ratio (z) = 0.50569 0.18870
#
# Static dielectric constant tensor:
#      x y z
#    x 3.682950 0.000000 -0.117180 
#    y 0.000000 3.427430 0.000000 
#    z -0.117180 0.000000 3.641600 
# 
# 
# High freq. dielectric constant tensor:
#      x y z
#    x 1.722450 0.000000 -0.013390 
#    y 0.000000 1.713150 0.000000 
#    z -0.013390 0.000000 1.715890 
# 
# From -- ./inp_files/69400.got.cif
#   From: 2010.06.25/outbox.cif.g09.slc.cpg/sg11_35_cif.got.tgz:69400.got - 2010.06.27 23:14:04.
