data_PCOD8075706
_publ_section_title
;
Structure prediction by ZEFSAII (Michael W. Deem and Ramdas Pophale) SiO2 
 PCOD8075706
Probable space group: P 21/M
;
_chemical_formula_sum "Si O2"
_cell_formula_units_Z 32
_cell_length_a 16.153049
_cell_length_b 9.378431
_cell_length_c 11.314769
_cell_angle_alpha 90.000000
_cell_angle_beta 92.526067
_cell_angle_gamma 90.000000
_cell_volume 1712.411632
_symmetry_space_group_name_H-M "P 21/M"
_symmetry_group_IT_number 11
_symmetry_cell_setting 'monoclinic'
loop_
_space_group_symop_operation_xyz
x,y,z
-x,1/2+y,-z
-x,-y,-z
x,1/2-y,z
loop_
_atom_site_type_symbol
_atom_site_label
_atom_site_fract_x
_atom_site_fract_y
_atom_site_fract_z
Si Si1 0.758188 0.086447 0.062615
Si Si2 0.150226 0.087700 0.264169
Si Si3 0.605664 0.914398 0.418362
Si Si4 0.317755 0.414728 0.144194
Si Si5 0.456808 0.083380 0.331382
Si Si6 0.915465 0.914327 0.486935
Si Si7 0.928047 0.413045 0.935545
Si Si8 0.226005 0.084077 0.697041
O O1 0.731150 0.250000 0.076764
O O2 0.759658 0.011202 0.188257
O O3 0.848443 0.073156 0.012697
O O4 0.691766 0.010047 0.973321
O O5 0.125248 0.250000 0.230514
O O6 0.244437 0.057026 0.233200
O O7 0.141287 0.058175 0.402125
O O8 0.088536 0.981277 0.193097
O O9 0.583354 0.750000 0.398898
O O10 0.593069 0.961184 0.553437
O O11 0.699994 0.946482 0.389835
O O12 0.543954 0.001824 0.329347
O O13 0.318879 0.250000 0.105114
O O14 0.402483 0.459523 0.214191
O O15 0.475752 0.250000 0.332637
O O16 0.940325 0.750000 0.478413
O O17 0.860294 0.960888 0.370840
O O18 0.000000 0.000000 0.500000
O O19 0.955452 0.250000 0.919105
O O20 0.000000 0.500000 0.000000
O O21 0.223830 0.250000 0.733582
#
# Coordination Sequence:
#
# PCOD8075706 Si02
#       8
#     4   4   4   4   4   4   4   4
#     4  10  22  37  53  77 106 138 178 226 271 312
#     4   9  18  34  54  76 103 134 172 216 263 313
#     4   9  18  33  54  82 112 143 177 215 262 316
#     4   9  17  33  57  80 104 139 178 217 264 320
#     4   9  17  31  55  85 113 138 174 220 265 315
#     4  10  22  37  54  78 106 138 176 219 265 316
#     4  10  21  35  53  76 102 133 173 221 269 314
#     4  10  21  38  57  76 106 147 183 214 260 325
#
# _framework density 18.687093999999998
#
# number of rings (size 3 to 8) (size 9 to 14) (size 15 to 20)
#    0.000    2.500    0.000    1.500    1.750    6.500 
#    0.000    0.625    0.000    4.500    0.000    0.000 
#    0.000    0.000    0.000    0.000    0.000    0.000 
#
# Total GULP energy -396845.466443 kJ/mol
# GULP energy per Si atom -12401.420826 kJ/mol
# Density = 1.864456 g / cm^3
# Si number density = 18.687094 Si / 1000 Ang^3
#
#
#
# Elastic Constant Matrix: (Units=GPa)
#
#
# Indices 1 2 3 4 5 6 
#
# 1 91.1588 49.7723 40.0160 0.0000 27.9449 0.0000
# 2 49.7723 93.1591 54.4959 0.0000 20.4708 0.0000
# 3 40.0160 54.4959 99.3871 0.0000 20.8196 0.0000
# 4 0.0000 0.0000 0.0000 30.3749 0.0000 3.4697
# 5 27.9449 20.4708 20.8196 0.0000 31.5973 0.0000
# 6 0.0000 0.0000 0.0000 3.4697 0.0000 32.5840
#
#
#
# Elastic Compliance Matrix: (Units=1/GPa)
#
#
# Indices 1 2 3 4 5 6 
#
# 1 0.018709 -0.006621 -0.001549 0.000000 -0.011237 0.000000
# 2 -0.006621 0.018936 -0.007394 0.000000 -0.001540 0.000000
# 3 -0.001549 -0.007394 0.015603 0.000000 -0.004120 0.000000
# 4 0.000000 0.000000 0.000000 0.033327 0.000000 -0.003549
# 5 -0.011237 -0.001540 -0.004120 0.000000 0.045299 0.000000
# 6 0.000000 0.000000 0.000000 -0.003549 0.000000 0.031068
#
#
# Mechanical properties :
#
#
# Convention : Reuss Voigt Hill
#
# Bulk Modulus (GPa) = 45.20791 63.58593 54.39692
# Shear Modulus (GPa) = 24.82094 28.20597 26.51345
#
# Velocity S-wave (km/s) = 3.64846 3.88929 3.77080
# Velocity P-wave (km/s) = 6.48019 7.36677 6.93766
#
# Compressibility (1/GPa) = 0.02212002
#
# Stress axis : x y z
#
# Youngs Moduli (GPa) = 53.44952 52.81070 64.09056
#
# Poissons Ratio (x) = 0.34964 0.09926
# Poissons Ratio (y) = 0.35387 0.47392
# Poissons Ratio (z) = 0.08278 0.39051
#
# Static dielectric constant tensor:
#      x y z
#    x 3.475420 0.000000 0.205360 
#    y 0.000000 3.121360 0.000000 
#    z 0.205360 0.000000 3.537030 
# 
# 
# High freq. dielectric constant tensor:
#      x y z
#    x 1.720130 0.000000 0.010680 
#    y 0.000000 1.722800 0.000000 
#    z 0.010680 0.000000 1.724060 
# 
# From -- ./inp_files/38079.got.cif
#   From: 2010.06.25/outbox.cif.g09.slc.cpg/sg11_20_cif.got.tgz:38079.got - 2010.06.27 23:14:04.
