data_PCOD8075442
_publ_section_title
;
Structure prediction by ZEFSAII (Michael W. Deem and Ramdas Pophale) SiO2 
 PCOD8075442
Probable space group: P 21/M
;
_chemical_formula_sum "Si O2"
_cell_formula_units_Z 32
_cell_length_a 11.682642
_cell_length_b 14.526573
_cell_length_c 18.471876
_cell_angle_alpha 90.000000
_cell_angle_beta 149.861376
_cell_angle_gamma 90.000000
_cell_volume 1573.983348
_symmetry_space_group_name_H-M "P 21/M"
_symmetry_group_IT_number 11
_symmetry_cell_setting 'monoclinic'
loop_
_space_group_symop_operation_xyz
x,y,z
-x,1/2+y,-z
-x,-y,-z
x,1/2-y,z
loop_
_atom_site_type_symbol
_atom_site_label
_atom_site_fract_x
_atom_site_fract_y
_atom_site_fract_z
Si Si1 0.671940 0.858023 0.138079
Si Si2 0.737947 0.859049 0.012441
Si Si3 0.048642 0.000017 0.110667
Si Si4 0.143362 0.858289 0.464770
Si Si5 0.183518 0.856993 0.916667
Si Si6 0.453432 0.501481 0.559179
Si Si7 0.917807 0.856771 0.623304
Si Si8 0.258318 0.859030 0.687718
O O1 0.636008 0.750000 0.108742
O O2 0.880692 0.882647 0.304737
O O3 0.717886 0.897570 0.083176
O O4 0.438510 0.897204 0.044276
O O5 0.777084 0.750000 0.030864
O O6 0.512804 0.890754 0.846209
O O7 0.955658 0.906486 0.095440
O O8 0.928989 0.089388 0.078888
O O9 0.317307 0.005246 0.269591
O O10 0.000000 0.000000 0.000000
O O11 0.190431 0.750000 0.482513
O O12 0.305497 0.908021 0.495881
O O13 0.194775 0.895141 0.573388
O O14 0.186092 0.750000 0.939461
O O15 0.040543 0.874438 0.766211
O O16 0.500000 0.500000 0.500000
O O17 0.319741 0.410028 0.509570
O O18 0.862968 0.750000 0.580940
O O19 0.079863 0.897836 0.648931
O O20 0.244285 0.750000 0.683771
#
# Coordination Sequence:
#
# PCOD8075442 Si02
#       8
#     4   4   4   4   4   4   4   4
#     4   9  18  35  62  94 117 143 192 248 306 362
#     4  10  20  38  63  87 118 154 194 248 299 352
#     4  12  27  41  58  89 124 163 210 245 285 355
#     4  10  22  38  60  91 125 154 189 251 311 353
#     4  10  21  41  66  89 119 156 197 250 305 357
#     4  12  25  41  59  85 122 166 216 241 278 360
#     4  10  21  40  66  90 117 156 200 252 303 355
#     4   9  18  37  64  92 118 151 196 244 309 371
#
# _framework density 20.330584000000002
#
# number of rings (size 3 to 8) (size 9 to 14) (size 15 to 20)
#    0.000    1.750    2.500    1.500    0.000    5.000 
#    0.000    1.250    0.000    0.000    0.000    0.000 
#    0.000    0.000    0.000    0.000    0.000    0.000 
#
# Total GULP energy -396934.925484 kJ/mol
# GULP energy per Si atom -12404.216421 kJ/mol
# Density = 2.028431 g / cm^3
# Si number density = 20.330584 Si / 1000 Ang^3
#
#
#
# Elastic Constant Matrix: (Units=GPa)
#
#
# Indices 1 2 3 4 5 6 
#
# 1 117.6319 50.7540 38.8783 0.0000 1.1986 0.0000
# 2 50.7540 76.1538 39.5373 0.0000 7.0858 0.0000
# 3 38.8783 39.5373 115.6332 0.0000 5.0688 0.0000
# 4 0.0000 0.0000 0.0000 23.1233 0.0000 7.4442
# 5 1.1986 7.0858 5.0688 0.0000 45.7891 0.0000
# 6 0.0000 0.0000 0.0000 7.4442 0.0000 39.6351
#
#
#
# Elastic Compliance Matrix: (Units=1/GPa)
#
#
# Indices 1 2 3 4 5 6 
#
# 1 0.012217 -0.007393 -0.001624 0.000000 0.001004 0.000000
# 2 -0.007393 0.020601 -0.004449 0.000000 -0.002502 0.000000
# 3 -0.001624 -0.004449 0.010735 0.000000 -0.000457 0.000000
# 4 0.000000 0.000000 0.000000 0.046029 0.000000 -0.008645
# 5 0.001004 -0.002502 -0.000457 0.000000 0.022251 0.000000
# 6 0.000000 0.000000 0.000000 -0.008645 0.000000 0.026854
#
#
# Mechanical properties :
#
#
# Convention : Reuss Voigt Hill
#
# Bulk Modulus (GPa) = 60.15883 63.08423 61.62153
# Shear Modulus (GPa) = 29.21265 33.72613 31.46939
#
# Velocity S-wave (km/s) = 3.79473 4.07736 3.93858
# Velocity P-wave (km/s) = 6.98960 7.29816 7.14555
#
# Compressibility (1/GPa) = 0.01662266
#
# Stress axis : x y z
#
# Youngs Moduli (GPa) = 81.85106 48.54201 93.15188
#
# Poissons Ratio (x) = 0.35886 0.15128
# Poissons Ratio (y) = 0.60510 0.41439
# Poissons Ratio (z) = 0.13293 0.21594
#
# Static dielectric constant tensor:
#      x y z
#    x 2.946670 0.000000 -1.070560 
#    y 0.000000 3.548280 0.000000 
#    z -1.070560 0.000000 2.367260 
# 
# 
# High freq. dielectric constant tensor:
#      x y z
#    x 1.796660 0.000000 0.001490 
#    y 0.000000 1.790710 0.000000 
#    z 0.001490 0.000000 1.802690 
# 
# From -- ./inp_files/59529.got.cif
#   From: 2010.06.25/outbox.cif.g09.slc.cpg/sg11_30_cif.got.tgz:59529.got - 2010.06.27 23:14:04.
