data_PCOD8075779
_publ_section_title
;
Structure prediction by ZEFSAII (Michael W. Deem and Ramdas Pophale) SiO2 
 PCOD8075779
Probable space group: P 21/M
;
_chemical_formula_sum "Si O2"
_cell_formula_units_Z 28
_cell_length_a 9.631176
_cell_length_b 9.180362
_cell_length_c 27.337672
_cell_angle_alpha 90.000000
_cell_angle_beta 140.999033
_cell_angle_gamma 90.000000
_cell_volume 1521.183162
_symmetry_space_group_name_H-M "P 21/M"
_symmetry_group_IT_number 11
_symmetry_cell_setting 'monoclinic'
loop_
_space_group_symop_operation_xyz
x,y,z
-x,1/2+y,-z
-x,-y,-z
x,1/2-y,z
loop_
_atom_site_type_symbol
_atom_site_label
_atom_site_fract_x
_atom_site_fract_y
_atom_site_fract_z
Si Si1 0.817713 0.923586 0.298693
Si Si2 0.715172 0.412373 0.547886
Si Si3 0.780988 0.413186 0.451484
Si Si4 0.474074 0.082337 0.691703
Si Si5 0.118596 0.580897 0.129839
Si Si6 0.334151 0.924370 0.992189
Si Si7 0.569185 0.422634 0.871695
O O1 0.822954 0.750000 0.300727
O O2 0.700879 0.975563 0.316370
O O3 0.670636 0.980156 0.212589
O O4 0.068984 0.983055 0.366201
O O5 0.500000 0.500000 0.500000
O O6 0.680173 0.250000 0.558537
O O7 0.750754 0.411281 0.500464
O O8 0.804013 0.250000 0.437271
O O9 0.566237 0.488144 0.368024
O O10 0.000000 0.500000 0.500000
O O11 0.430875 0.250000 0.666787
O O12 0.719825 0.061407 0.779734
O O13 0.046676 0.750000 0.105039
O O14 0.236889 0.524981 0.112158
O O15 0.911809 0.479289 0.085463
O O16 0.347875 0.750000 0.990607
O O17 0.394552 0.978410 0.063491
O O18 0.500000 0.000000 0.000000
O O19 0.568935 0.250000 0.869346
#
# Coordination Sequence:
#
# PCOD8075779 Si02
#       7
#     4   4   4   4   4   4   4
#     4   8  14  31  55  77 103 134 175 222 263 307
#     4  10  21  36  53  75 107 143 180 222 263 312
#     4  11  21  34  55  81 110 142 179 222 267 317
#     4   9  17  33  57  83 107 135 176 223 270 318
#     4   9  18  35  60  84 106 135 177 224 268 320
#     4  11  22  36  54  79 113 146 178 216 265 320
#     4   8  16  32  58  83 101 133 180 224 263 314
#
# _framework density 18.406725000000002
#
# number of rings (size 3 to 8) (size 9 to 14) (size 15 to 20)
#    0.000    2.571    1.429    3.000    0.000    1.714 
#    2.571    0.714    0.000    2.571    0.000    0.000 
#    0.000    0.000    0.000    0.000    0.000    0.000 
#
# Total GULP energy -347047.771833 kJ/mol
# GULP energy per Si atom -12394.563280 kJ/mol
# Density = 1.836483 g / cm^3
# Si number density = 18.406725 Si / 1000 Ang^3
#
#
#
# Elastic Constant Matrix: (Units=GPa)
#
#
# Indices 1 2 3 4 5 6 
#
# 1 77.6636 37.0586 49.6632 0.0000 19.7969 0.0000
# 2 37.0586 75.4751 49.3558 0.0000 5.8969 0.0000
# 3 49.6632 49.3558 130.3928 0.0000 16.9406 0.0000
# 4 0.0000 0.0000 0.0000 30.6786 0.0000 3.6565
# 5 19.7969 5.8969 16.9406 0.0000 30.6256 0.0000
# 6 0.0000 0.0000 0.0000 3.6565 0.0000 28.3884
#
#
#
# Elastic Compliance Matrix: (Units=1/GPa)
#
#
# Indices 1 2 3 4 5 6 
#
# 1 0.021526 -0.007014 -0.004214 0.000000 -0.010233 0.000000
# 2 -0.007014 0.019896 -0.005334 0.000000 0.003654 0.000000
# 3 -0.004214 -0.005334 0.011643 0.000000 -0.002689 0.000000
# 4 0.000000 0.000000 0.000000 0.033104 0.000000 -0.004264
# 5 -0.010233 0.003654 -0.002689 0.000000 0.040051 0.000000
# 6 0.000000 0.000000 0.000000 -0.004264 0.000000 0.035775
#
#
# Mechanical properties :
#
#
# Convention : Reuss Voigt Hill
#
# Bulk Modulus (GPa) = 50.15082 61.74296 55.94689
# Shear Modulus (GPa) = 24.78099 27.76879 26.27489
#
# Velocity S-wave (km/s) = 3.67318 3.88831 3.78227
# Velocity P-wave (km/s) = 6.73014 7.33315 7.03811
#
# Compressibility (1/GPa) = 0.01993985
#
# Stress axis : x y z
#
# Youngs Moduli (GPa) = 46.45449 50.26111 85.89075
#
# Poissons Ratio (x) = 0.35254 0.36198
# Poissons Ratio (y) = 0.32584 0.45816
# Poissons Ratio (z) = 0.19578 0.26810
#
# Static dielectric constant tensor:
#      x y z
#    x 3.160320 0.000000 -0.096300 
#    y 0.000000 3.251410 0.000000 
#    z -0.096300 0.000000 3.853960 
# 
# 
# High freq. dielectric constant tensor:
#      x y z
#    x 1.693660 0.000000 0.001440 
#    y 0.000000 1.685830 0.000000 
#    z 0.001440 0.000000 1.733820 
# 
# From -- ./inp_files/70729.got.cif
#   From: 2010.06.25/outbox.cif.g09.slc.cpg/sg11_36_cif.got.tgz:70729.got - 2010.06.27 23:14:04.
