data_PCOD8075088
_publ_section_title
;
Structure prediction by ZEFSAII (Michael W. Deem and Ramdas Pophale) SiO2 
 PCOD8075088
Probable space group: P 21/M
;
_chemical_formula_sum "Si O2"
_cell_formula_units_Z 28
_cell_length_a 9.417240
_cell_length_b 8.543010
_cell_length_c 29.380795
_cell_angle_alpha 90.000000
_cell_angle_beta 143.088889
_cell_angle_gamma 90.000000
_cell_volume 1419.598583
_symmetry_space_group_name_H-M "P 21/M"
_symmetry_group_IT_number 11
_symmetry_cell_setting 'monoclinic'
loop_
_space_group_symop_operation_xyz
x,y,z
-x,1/2+y,-z
-x,-y,-z
x,1/2-y,z
loop_
_atom_site_type_symbol
_atom_site_label
_atom_site_fract_x
_atom_site_fract_y
_atom_site_fract_z
Si Si1 0.188449 0.567317 0.133936
Si Si2 0.343110 0.434991 0.999429
Si Si3 0.415006 0.935171 0.430323
Si Si4 0.737388 0.065719 0.433799
Si Si5 0.094863 0.564102 0.697237
Si Si6 0.482700 0.066214 0.132637
Si Si7 0.387348 0.066567 0.692573
O O1 0.199893 0.750000 0.125889
O O2 0.261097 0.477891 0.106982
O O3 0.363535 0.524344 0.220060
O O4 0.925540 0.511316 0.078945
O O5 0.359367 0.250000 0.004492
O O6 0.500000 0.500000 0.000000
O O7 0.441124 0.506509 0.072004
O O8 0.394281 0.750000 0.427650
O O9 0.500000 0.000000 0.500000
O O10 0.599124 0.982089 0.438877
O O11 0.161865 0.008200 0.353301
O O12 0.740065 0.250000 0.443394
O O13 0.611179 0.028230 0.353870
O O14 0.000000 0.000000 0.500000
O O15 0.101587 0.750000 0.693137
O O16 0.274567 0.503719 0.782489
O O17 0.168866 0.487509 0.668141
O O18 0.496201 0.250000 0.131793
O O19 0.360284 0.250000 0.675590
#
# Coordination Sequence:
#
# PCOD8075088 Si02
#       7
#     4   4   4   4   4   4   4
#     4   9  19  35  57  82 111 145 187 231 276 330
#     4  10  21  36  52  78 112 148 187 232 280 330
#     4  12  25  42  62  86 115 150 188 231 279 333
#     4  12  25  42  62  86 115 150 188 231 279 333
#     4  10  20  37  59  86 116 149 187 232 281 335
#     4   9  19  35  57  82 111 145 187 231 276 330
#     4  10  20  37  59  86 116 149 187 232 281 335
#
# _framework density 19.723886
#
# number of rings (size 3 to 8) (size 9 to 14) (size 15 to 20)
#    0.000    1.714    0.000    4.714    0.000    3.429 
#    0.000    2.857    0.000    0.000    0.000    0.000 
#    0.000    0.000    0.000    0.000    0.000    0.000 
#
# Total GULP energy -347291.827728 kJ/mol
# GULP energy per Si atom -12403.279562 kJ/mol
# Density = 1.967899 g / cm^3
# Si number density = 19.723886 Si / 1000 Ang^3
#
#
#
# Elastic Constant Matrix: (Units=GPa)
#
#
# Indices 1 2 3 4 5 6 
#
# 1 131.3455 -0.0228 75.7108 0.0000 6.6856 0.0000
# 2 -0.0228 36.2957 20.1981 0.0000 2.5472 0.0000
# 3 75.7108 20.1981 123.4566 0.0000 1.4667 0.0000
# 4 0.0000 0.0000 0.0000 25.7885 0.0000 -0.1204
# 5 6.6856 2.5472 1.4667 0.0000 40.2502 0.0000
# 6 0.0000 0.0000 0.0000 -0.1204 0.0000 38.9103
#
#
#
# Elastic Compliance Matrix: (Units=1/GPa)
#
#
# Indices 1 2 3 4 5 6 
#
# 1 0.012635 0.004899 -0.008525 0.000000 -0.002098 0.000000
# 2 0.004899 0.032333 -0.008264 0.000000 -0.002559 0.000000
# 3 -0.008525 -0.008264 0.014664 0.000000 0.001405 0.000000
# 4 0.000000 0.000000 0.000000 0.038778 0.000000 0.000120
# 5 -0.002098 -0.002559 0.001405 0.000000 0.025304 0.000000
# 6 0.000000 0.000000 0.000000 0.000120 0.000000 0.025700
#
#
# Mechanical properties :
#
#
# Convention : Reuss Voigt Hill
#
# Bulk Modulus (GPa) = 27.89244 53.65223 40.77233
# Shear Modulus (GPa) = 27.00590 34.00391 30.50491
#
# Velocity S-wave (km/s) = 3.70428 4.15661 3.93695
# Velocity P-wave (km/s) = 5.69805 7.09205 6.43292
#
# Compressibility (1/GPa) = 0.03585201
#
# Stress axis : x y z
#
# Youngs Moduli (GPa) = 79.14256 30.92816 68.19581
#
# Poissons Ratio (x) = -0.15153 0.58140
# Poissons Ratio (y) = -0.38776 0.56358
# Poissons Ratio (z) = 0.67472 0.25559
#
# Static dielectric constant tensor:
#      x y z
#    x 3.506780 0.000000 0.060500 
#    y 0.000000 3.571770 0.000000 
#    z 0.060500 0.000000 3.927540 
# 
# 
# High freq. dielectric constant tensor:
#      x y z
#    x 1.768850 0.000000 0.000610 
#    y 0.000000 1.770620 0.000000 
#    z 0.000610 0.000000 1.785570 
# 
# From -- ./inp_files/70906.got.cif
#   From: 2010.06.25/outbox.cif.g09.slc.cpg/sg11_36_cif.got.tgz:70906.got - 2010.06.27 23:14:04.
