data_PCOD8075305
_publ_section_title
;
Structure prediction by ZEFSAII (Michael W. Deem and Ramdas Pophale) SiO2 
 PCOD8075305
Probable space group: P 21/M
;
_chemical_formula_sum "Si O2"
_cell_formula_units_Z 20
_cell_length_a 5.186586
_cell_length_b 18.814157
_cell_length_c 9.745066
_cell_angle_alpha 90.000000
_cell_angle_beta 75.007605
_cell_angle_gamma 90.000000
_cell_volume 918.565970
_symmetry_space_group_name_H-M "P 21/M"
_symmetry_group_IT_number 11
_symmetry_cell_setting 'monoclinic'
loop_
_space_group_symop_operation_xyz
x,y,z
-x,1/2+y,-z
-x,-y,-z
x,1/2-y,z
loop_
_atom_site_type_symbol
_atom_site_label
_atom_site_fract_x
_atom_site_fract_y
_atom_site_fract_z
Si Si1 0.759845 0.169708 0.228670
Si Si2 0.585416 0.088525 0.785363
Si Si3 0.847316 0.109525 0.489303
Si Si4 0.998955 0.582770 0.037094
Si Si5 0.406940 0.055236 0.374612
O O1 0.705246 0.250000 0.187361
O O2 0.876830 0.170200 0.369349
O O3 0.487739 0.123610 0.268539
O O4 0.973752 0.131175 0.101321
O O5 0.710756 0.139010 0.648150
O O6 0.276193 0.105741 0.852419
O O7 0.750984 0.100249 0.900578
O O8 0.622251 0.008059 0.728869
O O9 0.643191 0.047071 0.458410
O O10 0.127453 0.073114 0.486478
O O11 0.000000 0.500000 0.000000
#
# Coordination Sequence:
#
# PCOD8075305 Si02
#       5
#     4   4   4   4   4
#     4  10  25  43  64  89 128 172 213 257 316 387
#     4  12  22  39  66  96 128 158 209 269 315 362
#     4  10  22  39  63  94 120 164 205 259 314 371
#     4  12  24  40  64  98 130 167 210 262 318 376
#     4  10  20  37  65  93 122 157 208 257 313 368
#
# _framework density 21.773069
#
# number of rings (size 3 to 8) (size 9 to 14) (size 15 to 20)
#    1.200    0.000    2.000    5.400    2.800    0.800 
#    0.000    2.000    0.000    0.000    0.000    0.000 
#    0.000    0.000    0.000    0.000    0.000    0.000 
#
# Total GULP energy -247876.748661 kJ/mol
# GULP energy per Si atom -12393.837433 kJ/mol
# Density = 2.172351 g / cm^3
# Si number density = 21.773069 Si / 1000 Ang^3
#
#
#
# Elastic Constant Matrix: (Units=GPa)
#
#
# Indices 1 2 3 4 5 6 
#
# 1 127.9020 4.3286 36.4370 0.0000 -21.1819 0.0000
# 2 4.3286 65.2563 32.0274 0.0000 -2.5637 0.0000
# 3 36.4370 32.0274 144.4347 0.0000 -18.8035 0.0000
# 4 0.0000 0.0000 0.0000 13.1191 0.0000 -1.1683
# 5 -21.1819 -2.5637 -18.8035 0.0000 44.3642 0.0000
# 6 0.0000 0.0000 0.0000 -1.1683 0.0000 14.0292
#
#
#
# Elastic Compliance Matrix: (Units=1/GPa)
#
#
# Indices 1 2 3 4 5 6 
#
# 1 0.008921 0.000479 -0.001904 0.000000 0.003480 0.000000
# 2 0.000479 0.017240 -0.004005 0.000000 -0.000472 0.000000
# 3 -0.001904 -0.004005 0.008619 0.000000 0.002513 0.000000
# 4 0.000000 0.000000 0.000000 0.076794 0.000000 0.006395
# 5 0.003480 -0.000472 0.002513 0.000000 0.025240 0.000000
# 6 0.000000 0.000000 0.000000 0.006395 0.000000 0.071813
#
#
# Mechanical properties :
#
#
# Convention : Reuss Voigt Hill
#
# Bulk Modulus (GPa) = 41.80536 53.68654 47.74595
# Shear Modulus (GPa) = 21.98198 31.95585 26.96891
#
# Velocity S-wave (km/s) = 3.18086 3.83518 3.52324
# Velocity P-wave (km/s) = 5.72125 6.65750 6.20705
#
# Compressibility (1/GPa) = 0.02392038
#
# Stress axis : x y z
#
# Youngs Moduli (GPa) = 112.09566 58.00615 116.02213
#
# Poissons Ratio (x) = -0.02780 0.22087
# Poissons Ratio (y) = -0.05373 0.46469
# Poissons Ratio (z) = 0.21340 0.23232
#
# Static dielectric constant tensor:
#      x y z
#    x 3.864280 0.000000 -0.197970 
#    y 0.000000 3.552040 0.000000 
#    z -0.197970 0.000000 4.282940 
# 
# 
# High freq. dielectric constant tensor:
#      x y z
#    x 1.860230 0.000000 -0.011610 
#    y 0.000000 1.804790 0.000000 
#    z -0.011610 0.000000 1.876420 
# 
# From -- ./inp_files/10376.got.cif
#   From: 2010.06.25/outbox.cif.g09.slc.cpg/sg11_6_cif.got.tgz:10376.got - 2010.06.27 23:14:04.
