data_PCOD8075695
_publ_section_title
;
Structure prediction by ZEFSAII (Michael W. Deem and Ramdas Pophale) SiO2 
 PCOD8075695
Probable space group: P 21/M
;
_chemical_formula_sum "Si O2"
_cell_formula_units_Z 28
_cell_length_a 25.958668
_cell_length_b 9.721178
_cell_length_c 8.643799
_cell_angle_alpha 90.000000
_cell_angle_beta 42.367113
_cell_angle_gamma 90.000000
_cell_volume 1469.899030
_symmetry_space_group_name_H-M "P 21/M"
_symmetry_group_IT_number 11
_symmetry_cell_setting 'monoclinic'
loop_
_space_group_symop_operation_xyz
x,y,z
-x,1/2+y,-z
-x,-y,-z
x,1/2-y,z
loop_
_atom_site_type_symbol
_atom_site_label
_atom_site_fract_x
_atom_site_fract_y
_atom_site_fract_z
Si Si1 0.969855 0.905245 0.434317
Si Si2 0.291684 0.600973 0.163450
Si Si3 0.878347 0.097732 0.037923
Si Si4 0.239673 0.409413 0.546267
Si Si5 0.677949 0.901792 0.323856
Si Si6 0.574853 0.089386 0.359162
Si Si7 0.815719 0.486979 0.851304
O O1 0.973252 0.750000 0.487266
O O2 0.881525 0.943333 0.597669
O O3 0.000000 0.000000 0.500000
O O4 0.029083 0.924600 0.159235
O O5 0.290330 0.750000 0.251260
O O6 0.274125 0.476432 0.316496
O O7 0.230401 0.612802 0.160283
O O8 0.375426 0.575317 0.906570
O O9 0.857465 0.250000 0.146956
O O10 0.839255 0.984067 0.232190
O O11 0.851362 0.092512 0.918571
O O12 0.221075 0.250000 0.555599
O O13 0.302410 0.428212 0.540610
O O14 0.640770 0.750000 0.385682
O O15 0.620134 0.021981 0.402789
O O16 0.756031 0.900962 0.050305
O O17 0.557014 0.250000 0.436386
O O18 0.500000 0.000000 0.500000
#
# Coordination Sequence:
#
# PCOD8075695 Si02
#       7
#     4   4   4   4   4   4   4
#     4   9  17  28  46  73 102 134 173 218 266 310
#     4  10  21  36  55  79 105 134 169 210 255 304
#     4   9  17  31  51  73 101 136 174 218 264 309
#     4  10  21  35  52  76 105 139 177 213 253 303
#     4   9  18  33  54  78 105 137 172 211 253 300
#     4  10  21  37  59  85 109 133 164 203 249 301
#     4   9  17  30  52  78 101 131 175 221 261 307
#
# _framework density 19.048926999999999
#
# number of rings (size 3 to 8) (size 9 to 14) (size 15 to 20)
#    0.000    2.571    0.000    1.714    0.000   11.429 
#    0.000    1.429    0.000    0.000    0.000    0.000 
#    0.000    0.000    0.000    0.000    0.000    0.000 
#
# Total GULP energy -346962.628827 kJ/mol
# GULP energy per Si atom -12391.522458 kJ/mol
# Density = 1.900557 g / cm^3
# Si number density = 19.048927 Si / 1000 Ang^3
#
#
#
# Elastic Constant Matrix: (Units=GPa)
#
#
# Indices 1 2 3 4 5 6 
#
# 1 49.3242 27.6784 38.7441 0.0000 -10.6780 0.0000
# 2 27.6784 142.8329 59.3030 0.0000 -7.0276 0.0000
# 3 38.7441 59.3030 95.3566 0.0000 -12.0934 0.0000
# 4 0.0000 0.0000 0.0000 30.3866 0.0000 1.3517
# 5 -10.6780 -7.0276 -12.0934 0.0000 30.5102 0.0000
# 6 0.0000 0.0000 0.0000 1.3517 0.0000 21.2808
#
#
#
# Elastic Compliance Matrix: (Units=1/GPa)
#
#
# Indices 1 2 3 4 5 6 
#
# 1 0.030953 -0.001076 -0.011124 0.000000 0.006176 0.000000
# 2 -0.001076 0.009476 -0.005504 0.000000 -0.000375 0.000000
# 3 -0.011124 -0.005504 0.018716 0.000000 0.002258 0.000000
# 4 0.000000 0.000000 0.000000 0.033003 0.000000 -0.002096
# 5 0.006176 -0.000375 0.002258 0.000000 0.035746 0.000000
# 6 0.000000 0.000000 0.000000 -0.002096 0.000000 0.047124
#
#
# Mechanical properties :
#
#
# Convention : Reuss Voigt Hill
#
# Bulk Modulus (GPa) = 42.12727 59.88497 51.00612
# Shear Modulus (GPa) = 22.90035 27.22137 25.06086
#
# Velocity S-wave (km/s) = 3.47102 3.78434 3.63106
# Velocity P-wave (km/s) = 6.18282 7.11342 6.66438
#
# Compressibility (1/GPa) = 0.02373759
#
# Stress axis : x y z
#
# Youngs Moduli (GPa) = 32.30747 105.52568 53.42998
#
# Poissons Ratio (x) = 0.11350 0.59436
# Poissons Ratio (y) = 0.03475 0.29408
# Poissons Ratio (z) = 0.35939 0.58082
#
# Static dielectric constant tensor:
#      x y z
#    x 3.378550 0.000000 -0.216440 
#    y 0.000000 3.513770 0.000000 
#    z -0.216440 0.000000 3.675530 
# 
# 
# High freq. dielectric constant tensor:
#      x y z
#    x 1.711890 0.000000 -0.014550 
#    y 0.000000 1.753260 0.000000 
#    z -0.014550 0.000000 1.732390 
# 
# From -- ./inp_files/28410.got.cif
#   From: 2010.06.25/outbox.cif.g09.slc.cpg/sg11_15_cif.got.tgz:28410.got - 2010.06.27 23:14:04.
