data_PCOD8075920
_publ_section_title
;
Structure prediction by ZEFSAII (Michael W. Deem and Ramdas Pophale) SiO2 
 PCOD8075920
Probable space group: P 21/M
;
_chemical_formula_sum "Si O2"
_cell_formula_units_Z 32
_cell_length_a 23.669566
_cell_length_b 8.698873
_cell_length_c 14.166523
_cell_angle_alpha 90.000000
_cell_angle_beta 33.529850
_cell_angle_gamma 90.000000
_cell_volume 1611.193497
_symmetry_space_group_name_H-M "P 21/M"
_symmetry_group_IT_number 11
_symmetry_cell_setting 'monoclinic'
loop_
_space_group_symop_operation_xyz
x,y,z
-x,1/2+y,-z
-x,-y,-z
x,1/2-y,z
loop_
_atom_site_type_symbol
_atom_site_label
_atom_site_fract_x
_atom_site_fract_y
_atom_site_fract_z
Si Si1 0.187314 0.931439 0.635080
Si Si2 0.936063 0.428164 0.673611
Si Si3 0.607890 0.067427 0.318896
Si Si4 0.286451 0.430663 0.007527
Si Si5 0.000702 0.573240 0.207826
Si Si6 0.403101 0.928024 0.011848
Si Si7 0.202541 0.932545 0.824307
Si Si8 0.613121 0.429668 0.748023
O O1 0.191688 0.750000 0.634414
O O2 0.188271 0.001471 0.739257
O O3 0.286187 0.993774 0.442857
O O4 0.087250 0.976395 0.717857
O O5 0.914080 0.250000 0.682886
O O6 0.829149 0.511841 0.838742
O O7 0.003673 0.448453 0.673566
O O8 0.000000 0.500000 0.500000
O O9 0.600928 0.250000 0.326941
O O10 0.692061 0.007586 0.276820
O O11 0.500000 0.000000 0.500000
O O12 0.639872 0.010972 0.170893
O O13 0.288893 0.250000 0.987316
O O14 0.328282 0.470585 0.052624
O O15 0.985860 0.750000 0.199667
O O16 0.108844 0.509877 0.019043
O O17 0.389048 0.750000 0.005676
O O18 0.372762 0.964158 0.161426
O O19 0.520092 0.976435 0.832211
O O20 0.204747 0.750000 0.818737
O O21 0.593406 0.250000 0.756976
#
# Coordination Sequence:
#
# PCOD8075920 Si02
#       8
#     4   4   4   4   4   4   4   4
#     4  10  21  36  60  90 117 154 201 248 300 363
#     4  11  24  43  65  92 127 165 209 262 318 378
#     4  11  23  42  65  94 129 167 209 258 316 377
#     4  12  25  42  65  94 125 167 213 260 316 376
#     4  10  21  40  61  85 119 159 198 248 308 364
#     4  10  21  38  60  86 122 163 201 250 308 365
#     4   9  19  39  62  84 120 160 194 245 308 361
#     4   9  20  38  58  87 122 158 200 250 304 365
#
# _framework density 19.861053999999999
#
# number of rings (size 3 to 8) (size 9 to 14) (size 15 to 20)
#    0.000    1.750    1.250    2.625    3.500    2.000 
#    0.000    1.250    0.000    0.000    0.000    0.000 
#    0.000    0.000    0.000    0.000    0.000    0.000 
#
# Total GULP energy -396914.216064 kJ/mol
# GULP energy per Si atom -12403.569252 kJ/mol
# Density = 1.981585 g / cm^3
# Si number density = 19.861054 Si / 1000 Ang^3
#
#
#
# Elastic Constant Matrix: (Units=GPa)
#
#
# Indices 1 2 3 4 5 6 
#
# 1 98.9105 25.0564 30.1571 0.0000 3.0927 0.0000
# 2 25.0564 62.6569 25.3685 0.0000 1.1501 0.0000
# 3 30.1571 25.3685 123.0480 0.0000 8.4587 0.0000
# 4 0.0000 0.0000 0.0000 33.6609 0.0000 -5.5560
# 5 3.0927 1.1501 8.4587 0.0000 28.3956 0.0000
# 6 0.0000 0.0000 0.0000 -5.5560 0.0000 31.8855
#
#
#
# Elastic Compliance Matrix: (Units=1/GPa)
#
#
# Indices 1 2 3 4 5 6 
#
# 1 0.011725 -0.003852 -0.002044 0.000000 -0.000512 0.000000
# 2 -0.003852 0.018683 -0.002945 0.000000 0.000540 0.000000
# 3 -0.002044 -0.002945 0.009404 0.000000 -0.002459 0.000000
# 4 0.000000 0.000000 0.000000 0.030588 0.000000 0.005330
# 5 -0.000512 0.000540 -0.002459 0.000000 0.035983 0.000000
# 6 0.000000 0.000000 0.000000 0.005330 0.000000 0.032291
#
#
# Mechanical properties :
#
#
# Convention : Reuss Voigt Hill
#
# Bulk Modulus (GPa) = 45.18749 49.53105 47.35927
# Shear Modulus (GPa) = 30.53758 32.39063 31.46411
#
# Velocity S-wave (km/s) = 3.92543 4.04277 3.98453
# Velocity P-wave (km/s) = 6.58381 6.83995 6.71310
#
# Compressibility (1/GPa) = 0.02213002
#
# Stress axis : x y z
#
# Youngs Moduli (GPa) = 85.28626 53.52552 106.33597
#
# Poissons Ratio (x) = 0.20617 0.21739
# Poissons Ratio (y) = 0.32850 0.31315
# Poissons Ratio (z) = 0.17435 0.15763
#
# Static dielectric constant tensor:
#      x y z
#    x 3.746820 0.000000 0.082370 
#    y 0.000000 3.485190 0.000000 
#    z 0.082370 0.000000 3.778980 
# 
# 
# High freq. dielectric constant tensor:
#      x y z
#    x 1.787580 0.000000 0.001640 
#    y 0.000000 1.762450 0.000000 
#    z 0.001640 0.000000 1.784750 
# 
# From -- ./inp_files/55578.got.cif
#   From: 2010.06.25/outbox.cif.g09.slc.cpg/sg11_28_cif.got.tgz:55578.got - 2010.06.27 23:14:04.
