data_PCOD8075498
_publ_section_title
;
Structure prediction by ZEFSAII (Michael W. Deem and Ramdas Pophale) SiO2 
 PCOD8075498
Probable space group: P 21/M
;
_chemical_formula_sum "Si O2"
_cell_formula_units_Z 28
_cell_length_a 15.726128
_cell_length_b 10.619011
_cell_length_c 10.019352
_cell_angle_alpha 90.000000
_cell_angle_beta 122.710746
_cell_angle_gamma 90.000000
_cell_volume 1407.838681
_symmetry_space_group_name_H-M "P 21/M"
_symmetry_group_IT_number 11
_symmetry_cell_setting 'monoclinic'
loop_
_space_group_symop_operation_xyz
x,y,z
-x,1/2+y,-z
-x,-y,-z
x,1/2-y,z
loop_
_atom_site_type_symbol
_atom_site_label
_atom_site_fract_x
_atom_site_fract_y
_atom_site_fract_z
Si Si1 0.638502 0.389857 0.656169
Si Si2 0.936144 0.886376 0.808312
Si Si3 0.843658 0.457169 0.958103
Si Si4 0.217660 0.111507 0.843078
Si Si5 0.931930 0.603683 0.510812
Si Si6 0.421859 0.107378 0.585533
Si Si7 0.573710 0.891399 0.104933
O O1 0.628997 0.250000 0.581332
O O2 0.741198 0.385865 0.830581
O O3 0.640823 0.502178 0.549735
O O4 0.542462 0.413765 0.670906
O O5 0.889527 0.750000 0.752837
O O6 0.866935 0.944023 0.862904
O O7 0.919014 0.950792 0.649839
O O8 0.055134 0.873750 0.946971
O O9 0.828381 0.514958 0.091200
O O10 0.193762 0.250000 0.880647
O O11 0.172741 0.097735 0.656759
O O12 0.335994 0.092936 0.923344
O O13 0.974537 0.750000 0.546016
O O14 0.000000 0.500000 0.500000
O O15 0.392537 0.250000 0.513892
O O16 0.392188 0.087791 0.713864
O O17 0.526819 0.750000 0.051196
O O18 0.500000 0.000000 0.000000
#
# Coordination Sequence:
#
# PCOD8075498 Si02
#       7
#     4   4   4   4   4   4   4
#     4  10  21  37  58  85 117 152 191 240 289 338
#     4  10  22  37  57  83 115 153 194 237 287 344
#     4  11  21  36  58  84 117 149 195 236 292 338
#     4  10  21  36  59  86 117 152 194 237 284 346
#     4  10  20  39  60  84 114 151 192 238 288 342
#     4   9  20  38  59  84 115 155 195 234 285 347
#     4  10  21  38  60  86 117 152 192 239 289 340
#
# _framework density 19.888642999999998
#
# number of rings (size 3 to 8) (size 9 to 14) (size 15 to 20)
#    0.000    2.000    1.429    1.714    2.000    1.714 
#    0.000    5.000    0.000    0.000    0.000    0.000 
#    0.000    0.000    0.000    0.000    0.000    0.000 
#
# Total GULP energy -346907.795809 kJ/mol
# GULP energy per Si atom -12389.564136 kJ/mol
# Density = 1.984338 g / cm^3
# Si number density = 19.888643 Si / 1000 Ang^3
#
#
#
# Elastic Constant Matrix: (Units=GPa)
#
#
# Indices 1 2 3 4 5 6 
#
# 1 62.1715 22.9932 24.9806 0.0000 -8.6982 0.0000
# 2 22.9932 92.6825 33.8875 0.0000 -3.8602 0.0000
# 3 24.9806 33.8875 88.3264 0.0000 -8.7568 0.0000
# 4 0.0000 0.0000 0.0000 32.2630 0.0000 -4.7893
# 5 -8.6982 -3.8602 -8.7568 0.0000 39.0413 0.0000
# 6 0.0000 0.0000 0.0000 -4.7893 0.0000 5.6284
#
#
#
# Elastic Compliance Matrix: (Units=1/GPa)
#
#
# Indices 1 2 3 4 5 6 
#
# 1 0.019282 -0.003225 -0.003908 0.000000 0.003100 0.000000
# 2 -0.003225 0.013091 -0.004145 0.000000 -0.000354 0.000000
# 3 -0.003908 -0.004145 0.014206 0.000000 0.001906 0.000000
# 4 0.000000 0.000000 0.000000 0.035477 0.000000 0.030188
# 5 0.003100 -0.000354 0.001906 0.000000 0.026697 0.000000
# 6 0.000000 0.000000 0.000000 0.030188 0.000000 0.203359
#
#
# Mechanical properties :
#
#
# Convention : Reuss Voigt Hill
#
# Bulk Modulus (GPa) = 41.63120 45.21142 43.42131
# Shear Modulus (GPa) = 14.59106 26.14114 20.36610
#
# Velocity S-wave (km/s) = 2.71151 3.62936 3.20348
# Velocity P-wave (km/s) = 5.54803 6.35175 5.96344
#
# Compressibility (1/GPa) = 0.02402045
#
# Stress axis : x y z
#
# Youngs Moduli (GPa) = 51.86310 76.39090 70.39103
#
# Poissons Ratio (x) = 0.24638 0.27512
# Poissons Ratio (y) = 0.16727 0.29179
# Poissons Ratio (z) = 0.20270 0.31666
#
# Static dielectric constant tensor:
#      x y z
#    x 3.685380 0.000000 -0.022490 
#    y 0.000000 3.681900 0.000000 
#    z -0.022490 0.000000 3.724890 
# 
# 
# High freq. dielectric constant tensor:
#      x y z
#    x 1.774950 0.000000 -0.003700 
#    y 0.000000 1.776620 0.000000 
#    z -0.003700 0.000000 1.773200 
# 
# From -- ./inp_files/21610.got.cif
#   From: 2010.06.25/outbox.cif.g09.slc.cpg/sg11_11_cif.got.tgz:21610.got - 2010.06.27 23:14:04.
