data_PCOD8075184
_publ_section_title
;
Structure prediction by ZEFSAII (Michael W. Deem and Ramdas Pophale) SiO2 
 PCOD8075184
Probable space group: P 21/M
;
_chemical_formula_sum "Si O2"
_cell_formula_units_Z 32
_cell_length_a 28.794730
_cell_length_b 8.886151
_cell_length_c 12.560620
_cell_angle_alpha 90.000000
_cell_angle_beta 30.218624
_cell_angle_gamma 90.000000
_cell_volume 1617.578786
_symmetry_space_group_name_H-M "P 21/M"
_symmetry_group_IT_number 11
_symmetry_cell_setting 'monoclinic'
loop_
_space_group_symop_operation_xyz
x,y,z
-x,1/2+y,-z
-x,-y,-z
x,1/2-y,z
loop_
_atom_site_type_symbol
_atom_site_label
_atom_site_fract_x
_atom_site_fract_y
_atom_site_fract_z
Si Si1 0.494698 0.071800 0.331330
Si Si2 0.471175 0.921356 0.163665
Si Si3 0.781165 0.571786 0.613168
Si Si4 0.706137 0.573221 0.205701
Si Si5 0.273526 0.579806 0.480593
Si Si6 0.676990 0.573523 0.030598
Si Si7 0.970008 0.075823 0.169521
Si Si8 0.838526 0.923246 0.126308
O O1 0.498346 0.250000 0.329447
O O2 0.395246 0.007040 0.565172
O O3 0.514620 0.015618 0.172769
O O4 0.577378 0.005682 0.238054
O O5 0.507436 0.750000 0.097030
O O6 0.360597 0.929006 0.386277
O O7 0.500000 0.000000 0.000000
O O8 0.790472 0.750000 0.592230
O O9 0.712820 0.516924 0.654413
O O10 0.881158 0.500286 0.397750
O O11 0.738797 0.515864 0.809605
O O12 0.700549 0.750000 0.233358
O O13 0.730445 0.534174 0.034854
O O14 0.787255 0.510240 0.122481
O O15 0.252044 0.750000 0.488540
O O16 0.188389 0.514714 0.714997
O O17 0.657748 0.750000 0.058338
O O18 0.949062 0.250000 0.187447
O O19 0.050884 0.059806 0.098661
O O20 0.000000 0.000000 0.000000
O O21 0.809513 0.750000 0.201168
#
# Coordination Sequence:
#
# PCOD8075184 Si02
#       8
#     4   4   4   4   4   4   4   4
#     4  11  21  35  59  87 116 153 196 245 294 344
#     4  11  23  36  52  80 117 156 194 237 291 349
#     4  11  23  38  58  83 116 157 194 236 291 348
#     4   9  19  38  62  86 114 153 199 243 290 347
#     4  11  22  35  55  82 114 148 187 239 288 340
#     4  10  22  40  60  83 115 157 202 244 289 345
#     4  11  22  36  60  90 118 150 189 238 292 351
#     4  10  20  37  61  86 113 146 186 233 289 350
#
# _framework density 19.782653
#
# number of rings (size 3 to 8) (size 9 to 14) (size 15 to 20)
#    0.000    1.500    2.500    3.000    0.000    5.000 
#    0.000    1.875    0.000    0.000    0.000    0.000 
#    0.000    0.000    0.000    0.000    0.000    0.000 
#
# Total GULP energy -396759.831388 kJ/mol
# GULP energy per Si atom -12398.744731 kJ/mol
# Density = 1.973763 g / cm^3
# Si number density = 19.782653 Si / 1000 Ang^3
#
#
#
# Elastic Constant Matrix: (Units=GPa)
#
#
# Indices 1 2 3 4 5 6 
#
# 1 119.0794 26.9158 41.4298 0.0000 5.8784 0.0000
# 2 26.9158 69.4194 25.9376 0.0000 -1.2989 0.0000
# 3 41.4298 25.9376 74.0290 0.0000 4.1277 0.0000
# 4 0.0000 0.0000 0.0000 23.5651 0.0000 -6.5497
# 5 5.8784 -1.2989 4.1277 0.0000 33.8517 0.0000
# 6 0.0000 0.0000 0.0000 -6.5497 0.0000 23.6569
#
#
#
# Elastic Compliance Matrix: (Units=1/GPa)
#
#
# Indices 1 2 3 4 5 6 
#
# 1 0.010772 -0.002274 -0.005157 0.000000 -0.001329 0.000000
# 2 -0.002274 0.017117 -0.004816 0.000000 0.001639 0.000000
# 3 -0.005157 -0.004816 0.018166 0.000000 -0.001504 0.000000
# 4 0.000000 0.000000 0.000000 0.045973 0.000000 0.012728
# 5 -0.001329 0.001639 -0.001504 0.000000 0.030018 0.000000
# 6 0.000000 0.000000 0.000000 0.012728 0.000000 0.045795
#
#
# Mechanical properties :
#
#
# Convention : Reuss Voigt Hill
#
# Bulk Modulus (GPa) = 46.38362 50.12155 48.25258
# Shear Modulus (GPa) = 25.05988 27.43105 26.24546
#
# Velocity S-wave (km/s) = 3.56302 3.72778 3.64633
# Velocity P-wave (km/s) = 6.35801 6.62718 6.49399
#
# Compressibility (1/GPa) = 0.02155934
#
# Stress axis : x y z
#
# Youngs Moduli (GPa) = 92.83505 58.42114 55.04872
#
# Poissons Ratio (x) = 0.13287 0.28391
# Poissons Ratio (y) = 0.21114 0.26511
# Poissons Ratio (z) = 0.47879 0.28135
#
# Static dielectric constant tensor:
#      x y z
#    x 3.962930 0.000000 -0.131310 
#    y 0.000000 3.523780 0.000000 
#    z -0.131310 0.000000 3.587280 
# 
# 
# High freq. dielectric constant tensor:
#      x y z
#    x 1.781250 0.000000 -0.006010 
#    y 0.000000 1.763120 0.000000 
#    z -0.006010 0.000000 1.759710 
# 
# From -- ./inp_files/45117.got.cif
#   From: 2010.06.25/outbox.cif.g09.slc.cpg/sg11_23_cif.got.tgz:45117.got - 2010.06.27 23:14:04.
