data_PCOD8075606
_publ_section_title
;
Structure prediction by ZEFSAII (Michael W. Deem and Ramdas Pophale) SiO2 
 PCOD8075606
Probable space group: P 21/M
;
_chemical_formula_sum "Si O2"
_cell_formula_units_Z 24
_cell_length_a 13.159687
_cell_length_b 17.304721
_cell_length_c 7.211956
_cell_angle_alpha 90.000000
_cell_angle_beta 133.595245
_cell_angle_gamma 90.000000
_cell_volume 1189.430842
_symmetry_space_group_name_H-M "P 21/M"
_symmetry_group_IT_number 11
_symmetry_cell_setting 'monoclinic'
loop_
_space_group_symop_operation_xyz
x,y,z
-x,1/2+y,-z
-x,-y,-z
x,1/2-y,z
loop_
_atom_site_type_symbol
_atom_site_label
_atom_site_fract_x
_atom_site_fract_y
_atom_site_fract_z
Si Si1 0.296965 0.250000 0.908491
Si Si2 0.712546 0.376256 0.540822
Si Si3 0.033470 0.616274 0.917501
Si Si4 0.798307 0.523015 0.796211
Si Si5 0.418014 0.133029 0.342462
Si Si6 0.431677 0.250000 0.676477
Si Si7 0.704783 0.250000 0.232787
Si Si8 0.997165 0.250000 0.406695
O O1 0.342278 0.250000 0.751233
O O2 0.129098 0.250000 0.709792
O O3 0.355234 0.174933 0.084011
O O4 0.746089 0.468508 0.555957
O O5 0.583929 0.374161 0.523343
O O6 0.674957 0.328401 0.310773
O O7 0.852858 0.338390 0.809925
O O8 0.996180 0.671026 0.700853
O O9 0.888932 0.596390 0.842621
O O10 0.106425 0.533722 0.951837
O O11 0.663614 0.551818 0.742616
O O12 0.392192 0.175933 0.504486
O O13 0.597798 0.250000 0.927945
O O14 0.861688 0.250000 0.362126
#
# Coordination Sequence:
#
# PCOD8075606 Si02
#       8
#     2   4   4   4   4   2   2   2
#     4  11  25  38  59  98 122 159 215 262 293 377
#     4  10  20  40  65  90 122 160 208 251 310 365
#     4   9  21  41  63  92 117 161 208 253 303 375
#     4   9  21  38  67  88 122 165 203 251 319 366
#     4  11  21  41  65  88 126 168 204 255 316 364
#     4  11  22  41  62  88 127 160 210 260 301 359
#     4  12  23  39  61  96 123 160 212 263 297 364
#     4  12  24  38  64  92 122 161 209 251 317 362
#
# _framework density 20.177717000000001
#
# number of rings (size 3 to 8) (size 9 to 14) (size 15 to 20)
#    1.000    0.667    1.667    3.500    2.333    0.667 
#    0.000    5.833    0.000    0.000    0.000    0.000 
#    0.000    0.000    0.000    0.000    0.000    0.000 
#
# Total GULP energy -297338.316147 kJ/mol
# GULP energy per Si atom -12389.096506 kJ/mol
# Density = 2.013179 g / cm^3
# Si number density = 20.177717 Si / 1000 Ang^3
#
#
#
# Elastic Constant Matrix: (Units=GPa)
#
#
# Indices 1 2 3 4 5 6 
#
# 1 117.9780 44.1960 37.4743 0.0000 8.1808 0.0000
# 2 44.1960 95.0857 27.9875 0.0000 -1.5249 0.0000
# 3 37.4743 27.9875 84.7592 0.0000 6.4659 0.0000
# 4 0.0000 0.0000 0.0000 9.6700 0.0000 11.6072
# 5 8.1808 -1.5249 6.4659 0.0000 32.8443 0.0000
# 6 0.0000 0.0000 0.0000 11.6072 0.0000 20.2777
#
#
#
# Elastic Compliance Matrix: (Units=1/GPa)
#
#
# Indices 1 2 3 4 5 6 
#
# 1 0.011334 -0.004302 -0.003411 0.000000 -0.002351 0.000000
# 2 -0.004302 0.013338 -0.002671 0.000000 0.002217 0.000000
# 3 -0.003411 -0.002671 0.014349 0.000000 -0.002099 0.000000
# 4 0.000000 0.000000 0.000000 0.330477 0.000000 -0.189169
# 5 -0.002351 0.002217 -0.002099 0.000000 0.031548 0.000000
# 6 0.000000 0.000000 0.000000 -0.189169 0.000000 0.157598
#
#
# Mechanical properties :
#
#
# Convention : Reuss Voigt Hill
#
# Bulk Modulus (GPa) = 54.78886 57.45984 56.12435
# Shear Modulus (GPa) = 8.53974 25.10275 16.82124
#
# Velocity S-wave (km/s) = 2.05948 3.53098 2.89044
# Velocity P-wave (km/s) = 5.73301 6.72030 6.24619
#
# Compressibility (1/GPa) = 0.01825189
#
# Stress axis : x y z
#
# Youngs Moduli (GPa) = 88.22787 74.97274 69.69309
#
# Poissons Ratio (x) = 0.32252 0.23775
# Poissons Ratio (y) = 0.37954 0.18618
# Poissons Ratio (z) = 0.30098 0.20028
#
# Static dielectric constant tensor:
#      x y z
#    x 3.642190 0.000000 0.307700 
#    y 0.000000 3.614140 0.000000 
#    z 0.307700 0.000000 3.507240 
# 
# 
# High freq. dielectric constant tensor:
#      x y z
#    x 1.795700 0.000000 0.032440 
#    y 0.000000 1.787310 0.000000 
#    z 0.032440 0.000000 1.765940 
# 
# From -- ./inp_files/4971.got.cif
#   From: 2010.06.25/outbox.cif.g09.slc.cpg/sg11_3_cif.got.tgz:4971.got - 2010.06.27 23:14:04.
