data_PCOD8075831
_publ_section_title
;
Structure prediction by ZEFSAII (Michael W. Deem and Ramdas Pophale) SiO2 
 PCOD8075831
Probable space group: P 21/M
;
_chemical_formula_sum "Si O2"
_cell_formula_units_Z 32
_cell_length_a 22.307167
_cell_length_b 8.784659
_cell_length_c 27.947951
_cell_angle_alpha 90.000000
_cell_angle_beta 18.375219
_cell_angle_gamma 90.000000
_cell_volume 1726.468672
_symmetry_space_group_name_H-M "P 21/M"
_symmetry_group_IT_number 11
_symmetry_cell_setting 'monoclinic'
loop_
_space_group_symop_operation_xyz
x,y,z
-x,1/2+y,-z
-x,-y,-z
x,1/2-y,z
loop_
_atom_site_type_symbol
_atom_site_label
_atom_site_fract_x
_atom_site_fract_y
_atom_site_fract_z
Si Si1 0.980450 0.925871 0.212473
Si Si2 0.977851 0.929835 0.964971
Si Si3 0.705050 0.572981 0.843749
Si Si4 0.302574 0.571525 0.894046
Si Si5 0.290976 0.928311 0.401518
Si Si6 0.994589 0.923462 0.706365
Si Si7 0.703871 0.072759 0.351871
Si Si8 0.006683 0.429961 0.546864
O O1 0.930603 0.750000 0.245333
O O2 0.012591 0.966491 0.243088
O O3 0.171770 0.966121 0.038777
O O4 0.801309 0.015860 0.326843
O O5 0.942476 0.750000 0.994417
O O6 0.796332 0.010420 0.078924
O O7 0.165914 0.970046 0.792191
O O8 0.000000 0.000000 0.000000
O O9 0.693754 0.750000 0.838703
O O10 0.803175 0.550640 0.820955
O O11 0.823206 0.487572 0.713934
O O12 0.500000 0.500000 0.000000
O O13 0.344626 0.750000 0.856854
O O14 0.494351 0.479206 0.755407
O O15 0.277261 0.750000 0.400531
O O16 0.177358 0.966780 0.536088
O O17 0.200125 0.017849 0.426044
O O18 0.008009 0.750000 0.714156
O O19 0.674164 0.250000 0.379268
O O20 0.500000 0.000000 0.500000
O O21 0.002492 0.250000 0.546739
O O22 0.000000 0.500000 0.500000
#
# Coordination Sequence:
#
# PCOD8075831 Si02
#       8
#     4   4   4   4   4   4   4   4
#     4  10  21  36  56  81 109 141 180 223 268 318
#     4  10  21  37  57  81 108 142 181 224 272 324
#     4  10  21  38  58  83 114 148 187 230 277 331
#     4  10  21  37  56  81 111 144 182 225 271 323
#     4  10  21  38  58  82 111 144 183 227 274 327
#     4   9  20  37  56  79 109 143 180 222 269 320
#     4  10  21  37  57  80 108 141 179 220 267 320
#     4  11  22  38  59  83 112 147 186 231 280 331
#
# _framework density 18.534942999999998
#
# number of rings (size 3 to 8) (size 9 to 14) (size 15 to 20)
#    0.000    2.000    0.000    4.125    0.000    8.000 
#    0.000    2.500    0.000    0.000    0.000    0.000 
#    0.000    0.000    0.000    0.000    0.000    0.000 
#
# Total GULP energy -396940.237810 kJ/mol
# GULP energy per Si atom -12404.382432 kJ/mol
# Density = 1.849276 g / cm^3
# Si number density = 18.534943 Si / 1000 Ang^3
#
#
#
# Elastic Constant Matrix: (Units=GPa)
#
#
# Indices 1 2 3 4 5 6 
#
# 1 135.7427 59.3227 63.5356 0.0000 3.2231 0.0000
# 2 59.3227 108.9115 52.3541 0.0000 -2.8652 0.0000
# 3 63.5356 52.3541 115.7453 0.0000 -22.4652 0.0000
# 4 0.0000 0.0000 0.0000 36.2444 0.0000 -2.7247
# 5 3.2231 -2.8652 -22.4652 0.0000 22.7587 0.0000
# 6 0.0000 0.0000 0.0000 -2.7247 0.0000 39.2416
#
#
#
# Elastic Compliance Matrix: (Units=1/GPa)
#
#
# Indices 1 2 3 4 5 6 
#
# 1 0.012426 -0.003685 -0.006910 0.000000 -0.009044 0.000000
# 2 -0.003685 0.013238 -0.004379 0.000000 -0.002135 0.000000
# 3 -0.006910 -0.004379 0.017932 0.000000 0.018128 0.000000
# 4 0.000000 0.000000 0.000000 0.027735 0.000000 0.001926
# 5 -0.009044 -0.002135 0.018128 0.000000 0.062846 0.000000
# 6 0.000000 0.000000 0.000000 0.001926 0.000000 0.025617
#
#
# Mechanical properties :
#
#
# Convention : Reuss Voigt Hill
#
# Bulk Modulus (GPa) = 73.27008 78.98048 76.12528
# Shear Modulus (GPa) = 25.73461 31.99475 28.86468
#
# Velocity S-wave (km/s) = 3.73022 4.15925 3.95056
# Velocity P-wave (km/s) = 7.62688 8.10987 7.87208
#
# Compressibility (1/GPa) = 0.01364814
#
# Stress axis : x y z
#
# Youngs Moduli (GPa) = 80.47563 75.54106 55.76630
#
# Poissons Ratio (x) = 0.27835 0.38533
# Poissons Ratio (y) = 0.29653 0.24422
# Poissons Ratio (z) = 0.55607 0.33082
#
# Static dielectric constant tensor:
#      x y z
#    x 3.405830 0.000000 -0.051450 
#    y 0.000000 3.676420 0.000000 
#    z -0.051450 0.000000 3.412360 
# 
# 
# High freq. dielectric constant tensor:
#      x y z
#    x 1.723830 0.000000 -0.004370 
#    y 0.000000 1.736580 0.000000 
#    z -0.004370 0.000000 1.721180 
# 
# From -- ./inp_files/72109.got.cif
#   From: 2010.06.25/outbox.cif.g09.slc.cpg/sg11_37_cif.got.tgz:72109.got - 2010.06.27 23:14:04.
