data_PCOD8075892
_publ_section_title
;
Structure prediction by ZEFSAII (Michael W. Deem and Ramdas Pophale) SiO2 
 PCOD8075892
Probable space group: P 21/M
;
_chemical_formula_sum "Si O2"
_cell_formula_units_Z 32
_cell_length_a 14.692894
_cell_length_b 8.905300
_cell_length_c 11.779609
_cell_angle_alpha 90.000000
_cell_angle_beta 93.980207
_cell_angle_gamma 90.000000
_cell_volume 1537.581093
_symmetry_space_group_name_H-M "P 21/M"
_symmetry_group_IT_number 11
_symmetry_cell_setting 'monoclinic'
loop_
_space_group_symop_operation_xyz
x,y,z
-x,1/2+y,-z
-x,-y,-z
x,1/2-y,z
loop_
_atom_site_type_symbol
_atom_site_label
_atom_site_fract_x
_atom_site_fract_y
_atom_site_fract_z
Si Si1 0.981187 0.578819 0.314204
Si Si2 0.081782 0.420045 0.943668
Si Si3 0.714402 0.926208 0.023743
Si Si4 0.341050 0.924271 0.755107
Si Si5 0.830881 0.578278 0.643807
Si Si6 0.501747 0.572727 0.376413
Si Si7 0.824186 0.422896 0.419397
Si Si8 0.654982 0.920334 0.771085
O O1 0.984458 0.750000 0.356903
O O2 0.930310 0.565158 0.191049
O O3 0.925478 0.481181 0.400380
O O4 0.082671 0.517721 0.310780
O O5 0.078126 0.250000 0.986061
O O6 0.181726 0.487798 0.981404
O O7 0.000000 0.500000 0.000000
O O8 0.717882 0.750000 0.054458
O O9 0.660883 0.013190 0.117731
O O10 0.657020 0.957529 0.904908
O O11 0.369037 0.750000 0.759758
O O12 0.241896 0.949559 0.692257
O O13 0.412757 0.014048 0.686492
O O14 0.860076 0.750000 0.629268
O O15 0.786978 0.515151 0.523921
O O16 0.757490 0.560640 0.736202
O O17 0.500000 0.500000 0.500000
O O18 0.509048 0.750000 0.392123
O O19 0.410476 0.534332 0.299424
O O20 0.829848 0.250000 0.454465
O O21 0.620478 0.750000 0.747248
#
# Coordination Sequence:
#
# PCOD8075892 Si02
#       8
#     4   4   4   4   4   4   4   4
#     4  11  22  37  58  86 122 163 209 258 311 374
#     4  10  21  36  58  87 122 166 214 260 309 367
#     4  10  21  41  65  92 128 168 213 261 314 376
#     4  11  24  42  67  97 128 165 212 264 319 381
#     4  11  23  39  61  88 123 165 209 259 315 374
#     4  12  26  45  71  99 130 165 206 259 317 382
#     4  11  23  39  60  88 123 162 208 261 314 373
#     4  10  23  43  67  94 127 167 210 258 313 374
#
# _framework density 20.811910000000001
#
# number of rings (size 3 to 8) (size 9 to 14) (size 15 to 20)
#    0.000    1.250    1.250    4.500    0.000    8.000 
#    0.000    0.000    0.000    0.000    0.000    0.000 
#    0.000    0.000    0.000    0.000    0.000    0.000 
#
# Total GULP energy -396967.458188 kJ/mol
# GULP energy per Si atom -12405.233068 kJ/mol
# Density = 2.076454 g / cm^3
# Si number density = 20.811910 Si / 1000 Ang^3
#
#
#
# Elastic Constant Matrix: (Units=GPa)
#
#
# Indices 1 2 3 4 5 6 
#
# 1 97.4867 48.3266 45.3880 0.0000 -5.2773 0.0000
# 2 48.3266 113.4781 60.5219 0.0000 -5.7475 0.0000
# 3 45.3880 60.5219 119.0558 0.0000 -6.5785 0.0000
# 4 0.0000 0.0000 0.0000 34.3093 0.0000 -1.3584
# 5 -5.2773 -5.7475 -6.5785 0.0000 36.8565 0.0000
# 6 0.0000 0.0000 0.0000 -1.3584 0.0000 36.5602
#
#
#
# Elastic Compliance Matrix: (Units=1/GPa)
#
#
# Indices 1 2 3 4 5 6 
#
# 1 0.013820 -0.004197 -0.003092 0.000000 0.000772 0.000000
# 2 -0.004197 0.013388 -0.005175 0.000000 0.000563 0.000000
# 3 -0.003092 -0.005175 0.012261 0.000000 0.000939 0.000000
# 4 0.000000 0.000000 0.000000 0.029190 0.000000 0.001085
# 5 0.000772 0.000563 0.000939 0.000000 0.027498 0.000000
# 6 0.000000 0.000000 0.000000 0.001085 0.000000 0.027392
#
#
# Mechanical properties :
#
#
# Convention : Reuss Voigt Hill
#
# Bulk Modulus (GPa) = 68.77303 70.94374 69.85839
# Shear Modulus (GPa) = 32.61071 33.26413 32.93742
#
# Velocity S-wave (km/s) = 3.96274 4.00224 3.98254
# Velocity P-wave (km/s) = 7.35217 7.45113 7.40182
#
# Compressibility (1/GPa) = 0.01454058
#
# Stress axis : x y z
#
# Youngs Moduli (GPa) = 72.35903 74.69378 81.56146
#
# Poissons Ratio (x) = 0.31350 0.25222
# Poissons Ratio (y) = 0.30370 0.42205
# Poissons Ratio (z) = 0.22376 0.38651
#
# Static dielectric constant tensor:
#      x y z
#    x 3.708340 0.000000 0.043530 
#    y 0.000000 4.026250 0.000000 
#    z 0.043530 0.000000 3.883670 
# 
# 
# High freq. dielectric constant tensor:
#      x y z
#    x 1.817580 0.000000 0.000440 
#    y 0.000000 1.816000 0.000000 
#    z 0.000440 0.000000 1.828070 
# 
# From -- ./inp_files/38209.got.cif
#   From: 2010.06.25/outbox.cif.g09.slc.cpg/sg11_20_cif.got.tgz:38209.got - 2010.06.27 23:14:04.
