data_PCOD8075664
_publ_section_title
;
Structure prediction by ZEFSAII (Michael W. Deem and Ramdas Pophale) SiO2 
 PCOD8075664
Probable space group: P 21/M
;
_chemical_formula_sum "Si O2"
_cell_formula_units_Z 32
_cell_length_a 9.595462
_cell_length_b 13.496069
_cell_length_c 16.782528
_cell_angle_alpha 90.000000
_cell_angle_beta 55.288504
_cell_angle_gamma 90.000000
_cell_volume 1786.562128
_symmetry_space_group_name_H-M "P 21/M"
_symmetry_group_IT_number 11
_symmetry_cell_setting 'monoclinic'
loop_
_space_group_symop_operation_xyz
x,y,z
-x,1/2+y,-z
-x,-y,-z
x,1/2-y,z
loop_
_atom_site_type_symbol
_atom_site_label
_atom_site_fract_x
_atom_site_fract_y
_atom_site_fract_z
Si Si1 0.440354 0.632658 0.176466
Si Si2 0.861607 0.459064 0.818039
Si Si3 0.191725 0.138566 0.669472
Si Si4 0.897267 0.364292 0.092525
Si Si5 0.687343 0.470073 0.461176
Si Si6 0.916277 0.138322 0.269445
Si Si7 0.763095 0.981098 0.020859
Si Si8 0.539682 0.136269 0.646689
O O1 0.449516 0.750000 0.158652
O O2 0.262274 0.589900 0.205287
O O3 0.589436 0.579324 0.080106
O O4 0.457906 0.604271 0.262947
O O5 0.025587 0.388176 0.774521
O O6 0.922467 0.567170 0.767133
O O7 0.772181 0.466729 0.932238
O O8 0.185342 0.250000 0.640327
O O9 0.350917 0.118139 0.674941
O O10 0.198861 0.069055 0.587891
O O11 0.884048 0.250000 0.069451
O O12 0.850897 0.376162 0.200427
O O13 0.765960 0.431318 0.085482
O O14 0.086952 0.402548 0.013497
O O15 0.500000 0.500000 0.500000
O O16 0.758862 0.385840 0.378423
O O17 0.681298 0.428194 0.553097
O O18 0.978686 0.250000 0.264073
O O19 0.592496 0.250000 0.619104
#
# Coordination Sequence:
#
# PCOD8075664 Si02
#       8
#     4   4   4   4   4   4   4   4
#     4  11  23  37  55  78 110 146 182 225 270 317
#     4  10  21  37  54  79 103 146 181 224 265 320
#     4   9  18  33  54  81 109 138 178 221 268 318
#     4   9  19  33  53  83 108 136 175 221 271 322
#     4   9  17  29  54  80 108 136 175 218 269 314
#     4   9  18  34  55  78 108 142 177 218 272 326
#     4  10  21  34  55  76 110 141 180 223 272 320
#     4   9  19  33  53  81 107 139 177 220 269 320
#
# _framework density 17.911497000000001
#
# number of rings (size 3 to 8) (size 9 to 14) (size 15 to 20)
#    0.000    2.500    0.000    1.500    8.750    2.000 
#    0.000    3.125    0.000    2.250    0.000    0.000 
#    0.000    0.000    0.000    0.000    0.000    0.000 
#
# Total GULP energy -396714.782553 kJ/mol
# GULP energy per Si atom -12397.336955 kJ/mol
# Density = 1.787073 g / cm^3
# Si number density = 17.911497 Si / 1000 Ang^3
#
#
#
# Elastic Constant Matrix: (Units=GPa)
#
#
# Indices 1 2 3 4 5 6 
#
# 1 68.1987 46.5251 41.0114 0.0000 -0.5707 0.0000
# 2 46.5251 125.3156 52.3662 0.0000 -2.9855 0.0000
# 3 41.0114 52.3662 119.3075 0.0000 -5.1532 0.0000
# 4 0.0000 0.0000 0.0000 28.2376 0.0000 -0.1106
# 5 -0.5707 -2.9855 -5.1532 0.0000 12.3513 0.0000
# 6 0.0000 0.0000 0.0000 -0.1106 0.0000 28.8854
#
#
#
# Elastic Compliance Matrix: (Units=1/GPa)
#
#
# Indices 1 2 3 4 5 6 
#
# 1 0.021745 -0.006079 -0.004915 0.000000 -0.002515 0.000000
# 2 -0.006079 0.011476 -0.002892 0.000000 0.001286 0.000000
# 3 -0.004915 -0.002892 0.011508 0.000000 0.003875 0.000000
# 4 0.000000 0.000000 0.000000 0.035414 0.000000 0.000136
# 5 -0.002515 0.001286 0.003875 0.000000 0.082775 0.000000
# 6 0.000000 0.000000 0.000000 0.000136 0.000000 0.034620
#
#
# Mechanical properties :
#
#
# Convention : Reuss Voigt Hill
#
# Bulk Modulus (GPa) = 58.97379 65.84746 62.41062
# Shear Modulus (GPa) = 21.64860 25.42281 23.53570
#
# Velocity S-wave (km/s) = 3.48033 3.77152 3.62885
# Velocity P-wave (km/s) = 7.01048 7.47050 7.24414
#
# Compressibility (1/GPa) = 0.01695669
#
# Stress axis : x y z
#
# Youngs Moduli (GPa) = 45.98799 87.13986 86.89720
#
# Poissons Ratio (x) = 0.52973 0.42711
# Poissons Ratio (y) = 0.27956 0.25128
# Poissons Ratio (z) = 0.22604 0.25198
#
# Static dielectric constant tensor:
#      x y z
#    x 3.055690 0.000000 -0.050670 
#    y 0.000000 3.620000 0.000000 
#    z -0.050670 0.000000 3.531540 
# 
# 
# High freq. dielectric constant tensor:
#      x y z
#    x 1.658150 0.000000 -0.008060 
#    y 0.000000 1.706610 0.000000 
#    z -0.008060 0.000000 1.700140 
# 
# From -- ./inp_files/47614.got.cif
#   From: 2010.06.25/outbox.cif.g09.slc.cpg/sg11_24_cif.got.tgz:47614.got - 2010.06.27 23:14:04.
