data_PCOD8075220
_publ_section_title
;
Structure prediction by ZEFSAII (Michael W. Deem and Ramdas Pophale) SiO2 
 PCOD8075220
Probable space group: P 21/M
;
_chemical_formula_sum "Si O2"
_cell_formula_units_Z 28
_cell_length_a 21.591347
_cell_length_b 8.821952
_cell_length_c 14.631571
_cell_angle_alpha 90.000000
_cell_angle_beta 30.996777
_cell_angle_gamma 90.000000
_cell_volume 1435.271502
_symmetry_space_group_name_H-M "P 21/M"
_symmetry_group_IT_number 11
_symmetry_cell_setting 'monoclinic'
loop_
_space_group_symop_operation_xyz
x,y,z
-x,1/2+y,-z
-x,-y,-z
x,1/2-y,z
loop_
_atom_site_type_symbol
_atom_site_label
_atom_site_fract_x
_atom_site_fract_y
_atom_site_fract_z
Si Si1 0.478993 0.428353 0.428950
Si Si2 0.232450 0.574969 0.724341
Si Si3 0.304712 0.075375 0.947238
Si Si4 0.131846 0.924411 0.659093
Si Si5 0.885712 0.071802 0.936355
Si Si6 0.649700 0.574534 0.717197
Si Si7 0.597183 0.577548 0.986861
O O1 0.500000 0.500000 0.500000
O O2 0.489288 0.250000 0.424253
O O3 0.348993 0.474563 0.555479
O O4 0.579446 0.486805 0.233800
O O5 0.271909 0.750000 0.682632
O O6 0.140468 0.550728 0.757362
O O7 0.170811 0.518320 0.895769
O O8 0.314223 0.250000 0.905511
O O9 0.304400 0.056027 0.057494
O O10 0.183128 0.006598 0.060175
O O11 0.105734 0.750000 0.669283
O O12 0.254934 0.972482 0.455857
O O13 0.024177 0.024821 0.756080
O O14 0.874910 0.250000 0.937994
O O15 0.672838 0.750000 0.664924
O O16 0.516213 0.531474 0.852657
O O17 0.662686 0.539510 0.808733
O O18 0.548280 0.750000 0.047068
#
# Coordination Sequence:
#
# PCOD8075220 Si02
#       7
#     4   4   4   4   4   4   4
#     4  12  23  35  55  83 116 151 188 231 279 332
#     4  10  22  39  58  82 114 151 191 237 286 336
#     4  11  22  38  59  84 116 153 190 232 286 341
#     4  11  23  39  59  83 114 152 192 235 286 339
#     4  11  23  39  58  81 113 152 195 238 280 337
#     4  10  20  37  61  89 117 146 187 236 284 337
#     4   9  20  38  61  88 118 149 183 231 289 342
#
# _framework density 19.508505
#
# number of rings (size 3 to 8) (size 9 to 14) (size 15 to 20)
#    0.000    1.429    1.429    4.286    0.000    6.857 
#    0.000    0.714    0.000    0.000    0.000    0.000 
#    0.000    0.000    0.000    0.000    0.000    0.000 
#
# Total GULP energy -347344.002854 kJ/mol
# GULP energy per Si atom -12405.142959 kJ/mol
# Density = 1.946410 g / cm^3
# Si number density = 19.508505 Si / 1000 Ang^3
#
#
#
# Elastic Constant Matrix: (Units=GPa)
#
#
# Indices 1 2 3 4 5 6 
#
# 1 125.3414 43.9285 33.1967 0.0000 -2.5299 0.0000
# 2 43.9285 97.3586 20.5842 0.0000 -4.1683 0.0000
# 3 33.1967 20.5842 52.1484 0.0000 -4.8376 0.0000
# 4 0.0000 0.0000 0.0000 32.3062 0.0000 -3.7773
# 5 -2.5299 -4.1683 -4.8376 0.0000 25.9090 0.0000
# 6 0.0000 0.0000 0.0000 -3.7773 0.0000 29.0980
#
#
#
# Elastic Compliance Matrix: (Units=1/GPa)
#
#
# Indices 1 2 3 4 5 6 
#
# 1 0.010696 -0.003709 -0.005397 0.000000 -0.000560 0.000000
# 2 -0.003709 0.012518 -0.002470 0.000000 0.001191 0.000000
# 3 -0.005397 -0.002470 0.023915 0.000000 0.003541 0.000000
# 4 0.000000 0.000000 0.000000 0.031431 0.000000 0.004080
# 5 -0.000560 0.001191 0.003541 0.000000 0.039395 0.000000
# 6 0.000000 0.000000 0.000000 0.004080 0.000000 0.034896
#
#
# Mechanical properties :
#
#
# Convention : Reuss Voigt Hill
#
# Bulk Modulus (GPa) = 41.70491 52.25191 46.97841
# Shear Modulus (GPa) = 27.17472 29.27190 28.22331
#
# Velocity S-wave (km/s) = 3.73630 3.87779 3.80770
# Velocity P-wave (km/s) = 6.32751 6.84777 6.59278
#
# Compressibility (1/GPa) = 0.02397799
#
# Stress axis : x y z
#
# Youngs Moduli (GPa) = 93.49114 79.88515 41.81501
#
# Poissons Ratio (x) = 0.29630 0.22567
# Poissons Ratio (y) = 0.34677 0.10326
# Poissons Ratio (z) = 0.50456 0.19728
#
# Static dielectric constant tensor:
#      x y z
#    x 3.793710 0.000000 0.146140 
#    y 0.000000 3.692170 0.000000 
#    z 0.146140 0.000000 3.426770 
# 
# 
# High freq. dielectric constant tensor:
#      x y z
#    x 1.768960 0.000000 0.001890 
#    y 0.000000 1.770130 0.000000 
#    z 0.001890 0.000000 1.742720 
# 
# From -- ./inp_files/37907.got.cif
#   From: 2010.06.25/outbox.cif.g09.slc.cpg/sg11_19_cif.got.tgz:37907.got - 2010.06.27 23:14:04.
