data_PCOD8075967
_publ_section_title
;
Structure prediction by ZEFSAII (Michael W. Deem and Ramdas Pophale) SiO2 
 PCOD8075967
Probable space group: P 21/M
;
_chemical_formula_sum "Si O2"
_cell_formula_units_Z 24
_cell_length_a 12.507478
_cell_length_b 9.265667
_cell_length_c 25.005830
_cell_angle_alpha 90.000000
_cell_angle_beta 25.499516
_cell_angle_gamma 90.000000
_cell_volume 1247.568408
_symmetry_space_group_name_H-M "P 21/M"
_symmetry_group_IT_number 11
_symmetry_cell_setting 'monoclinic'
loop_
_space_group_symop_operation_xyz
x,y,z
-x,1/2+y,-z
-x,-y,-z
x,1/2-y,z
loop_
_atom_site_type_symbol
_atom_site_label
_atom_site_fract_x
_atom_site_fract_y
_atom_site_fract_z
Si Si1 0.258956 0.080418 0.124652
Si Si2 0.197747 0.923539 0.871750
Si Si3 0.408477 0.088456 0.490552
Si Si4 0.117446 0.589238 0.790902
Si Si5 0.051265 0.085555 0.331342
Si Si6 0.229808 0.416955 0.367511
O O1 0.287608 0.250000 0.104222
O O2 0.210495 0.041648 0.207939
O O3 0.048815 0.013989 0.179958
O O4 0.500000 0.000000 0.000000
O O5 0.180416 0.750000 0.886125
O O6 0.112383 0.981906 0.851855
O O7 0.488581 0.971986 0.747064
O O8 0.000000 0.000000 0.000000
O O9 0.346352 0.250000 0.538377
O O10 0.604209 0.091133 0.355007
O O11 0.500000 0.000000 0.500000
O O12 0.181052 0.018604 0.562580
O O13 0.014046 0.750000 0.844873
O O14 0.956586 0.250000 0.368741
O O15 0.210808 0.062116 0.312364
O O16 0.201657 0.250000 0.396915
O O17 0.000000 0.500000 0.500000
#
# Coordination Sequence:
#
# PCOD8075967 Si02
#       6
#     4   4   4   4   4   4
#     4  10  21  37  55  79 112 149 187 234 285 338
#     4  10  22  40  61  86 115 154 198 242 294 350
#     4  11  20  35  59  87 117 150 187 231 286 347
#     4   9  19  37  58  79 112 149 182 229 286 342
#     4  10  21  38  58  83 118 151 186 237 291 343
#     4  10  22  40  62  87 119 157 198 247 298 352
#
# _framework density 19.237421999999999
#
# number of rings (size 3 to 8) (size 9 to 14) (size 15 to 20)
#    0.000    2.000    1.667    1.500    2.333    3.333 
#    0.000    1.667    0.000    0.000    0.000    0.000 
#    0.000    0.000    0.000    0.000    0.000    0.000 
#
# Total GULP energy -297392.110501 kJ/mol
# GULP energy per Si atom -12391.337938 kJ/mol
# Density = 1.919364 g / cm^3
# Si number density = 19.237422 Si / 1000 Ang^3
#
#
#
# Elastic Constant Matrix: (Units=GPa)
#
#
# Indices 1 2 3 4 5 6 
#
# 1 135.7070 39.5566 69.7762 0.0000 17.0126 0.0000
# 2 39.5566 45.6075 39.8580 0.0000 -3.9766 0.0000
# 3 69.7762 39.8580 134.9354 0.0000 -4.3572 0.0000
# 4 0.0000 0.0000 0.0000 38.6721 0.0000 -1.0400
# 5 17.0126 -3.9766 -4.3572 0.0000 33.8818 0.0000
# 6 0.0000 0.0000 0.0000 -1.0400 0.0000 22.1615
#
#
#
# Elastic Compliance Matrix: (Units=1/GPa)
#
#
# Indices 1 2 3 4 5 6 
#
# 1 0.013132 -0.008000 -0.004690 0.000000 -0.008136 0.000000
# 2 -0.008000 0.034618 -0.005852 0.000000 0.007328 0.000000
# 3 -0.004690 -0.005852 0.011667 0.000000 0.003169 0.000000
# 4 0.000000 0.000000 0.000000 0.025891 0.000000 0.001215
# 5 -0.008136 0.007328 0.003169 0.000000 0.034867 0.000000
# 6 0.000000 0.000000 0.000000 0.001215 0.000000 0.045180
#
#
# Mechanical properties :
#
#
# Convention : Reuss Voigt Hill
#
# Bulk Modulus (GPa) = 44.77802 68.29238 56.53520
# Shear Modulus (GPa) = 23.82237 30.08035 26.95136
#
# Velocity S-wave (km/s) = 3.52282 3.95858 3.74704
# Velocity P-wave (km/s) = 6.31459 7.51469 6.94063
#
# Compressibility (1/GPa) = 0.02233239
#
# Stress axis : x y z
#
# Youngs Moduli (GPa) = 76.14730 28.88639 85.70922
#
# Poissons Ratio (x) = 0.23110 0.40201
# Poissons Ratio (y) = 0.60921 0.50158
# Poissons Ratio (z) = 0.35716 0.16905
#
# Static dielectric constant tensor:
#      x y z
#    x 4.792450 0.000000 -0.032560 
#    y 0.000000 3.294390 0.000000 
#    z -0.032560 0.000000 3.511340 
# 
# 
# High freq. dielectric constant tensor:
#      x y z
#    x 1.770000 0.000000 0.003890 
#    y 0.000000 1.725880 0.000000 
#    z 0.003890 0.000000 1.750570 
# 
# From -- ./inp_files/68366.got.cif
#   From: 2010.06.25/outbox.cif.g09.slc.cpg/sg11_35_cif.got.tgz:68366.got - 2010.06.27 23:14:04.
