data_PCOD8075145
_publ_section_title
;
Structure prediction by ZEFSAII (Michael W. Deem and Ramdas Pophale) SiO2 
 PCOD8075145
Probable space group: P 21/M
;
_chemical_formula_sum "Si O2"
_cell_formula_units_Z 28
_cell_length_a 20.070201
_cell_length_b 8.714439
_cell_length_c 23.005722
_cell_angle_alpha 90.000000
_cell_angle_beta 160.566092
_cell_angle_gamma 90.000000
_cell_volume 1338.766972
_symmetry_space_group_name_H-M "P 21/M"
_symmetry_group_IT_number 11
_symmetry_cell_setting 'monoclinic'
loop_
_space_group_symop_operation_xyz
x,y,z
-x,1/2+y,-z
-x,-y,-z
x,1/2-y,z
loop_
_atom_site_type_symbol
_atom_site_label
_atom_site_fract_x
_atom_site_fract_y
_atom_site_fract_z
Si Si1 0.888003 0.069471 0.462378
Si Si2 0.899213 0.930189 0.242407
Si Si3 0.153353 0.919460 0.083692
Si Si4 0.251692 0.066836 0.464809
Si Si5 0.551961 0.068083 0.894311
Si Si6 0.370415 0.068514 0.161410
Si Si7 0.551431 0.915555 0.484069
O O1 0.858174 0.250000 0.430123
O O2 0.023116 0.030710 0.629472
O O3 0.673480 0.991686 0.291698
O O4 0.000000 0.000000 0.500000
O O5 0.904172 0.750000 0.234104
O O6 0.033294 0.017486 0.305102
O O7 0.674275 0.995810 0.049374
O O8 0.073057 0.750000 0.000673
O O9 0.359327 0.902868 0.286143
O O10 0.189719 0.018467 0.055488
O O11 0.000000 0.000000 0.000000
O O12 0.283985 0.250000 0.497029
O O13 0.279237 0.013287 0.419551
O O14 0.412127 0.980404 0.636746
O O15 0.550727 0.250000 0.898656
O O16 0.665000 0.014469 0.928988
O O17 0.365956 0.250000 0.149141
O O18 0.625520 0.750000 0.565947
O O19 0.500000 0.000000 0.500000
#
# Coordination Sequence:
#
# PCOD8075145 Si02
#       7
#     4   4   4   4   4   4   4
#     4  11  25  46  72 101 136 176 217 266 327 391
#     4  11  24  42  67  99 133 171 219 269 322 387
#     4  10  21  37  55  81 116 158 207 261 321 384
#     4  10  20  37  60  87 121 163 212 264 324 389
#     4  12  25  42  68  99 133 173 219 271 326 389
#     4  11  21  37  61  88 120 163 213 267 326 390
#     4   9  20  35  53  79 113 154 201 253 309 373
#
# _framework density 20.914767000000001
#
# number of rings (size 3 to 8) (size 9 to 14) (size 15 to 20)
#    0.000    1.429    1.429    5.143    0.000    6.857 
#    0.000    2.857    0.000    0.000    0.000    0.000 
#    0.000    0.000    0.000    0.000    0.000    0.000 
#
# Total GULP energy -347161.488570 kJ/mol
# GULP energy per Si atom -12398.624592 kJ/mol
# Density = 2.086716 g / cm^3
# Si number density = 20.914767 Si / 1000 Ang^3
#
#
#
# Elastic Constant Matrix: (Units=GPa)
#
#
# Indices 1 2 3 4 5 6 
#
# 1 147.7868 59.7352 45.3868 0.0000 -2.4391 0.0000
# 2 59.7352 130.1455 41.3980 0.0000 -9.1172 0.0000
# 3 45.3868 41.3980 82.0483 0.0000 -11.5703 0.0000
# 4 0.0000 0.0000 0.0000 34.2981 0.0000 3.0840
# 5 -2.4391 -9.1172 -11.5703 0.0000 26.7516 0.0000
# 6 0.0000 0.0000 0.0000 3.0840 0.0000 36.5445
#
#
#
# Elastic Compliance Matrix: (Units=1/GPa)
#
#
# Indices 1 2 3 4 5 6 
#
# 1 0.009155 -0.003142 -0.003740 0.000000 -0.001854 0.000000
# 2 -0.003142 0.010267 -0.003183 0.000000 0.001836 0.000000
# 3 -0.003740 -0.003183 0.016679 0.000000 0.005788 0.000000
# 4 0.000000 0.000000 0.000000 0.029379 0.000000 -0.002479
# 5 -0.001854 0.001836 0.005788 0.000000 0.040341 0.000000
# 6 0.000000 0.000000 0.000000 -0.002479 0.000000 0.027573
#
#
# Mechanical properties :
#
#
# Convention : Reuss Voigt Hill
#
# Bulk Modulus (GPa) = 62.61786 72.55784 67.58785
# Shear Modulus (GPa) = 31.47660 33.74956 32.61308
#
# Velocity S-wave (km/s) = 3.88363 4.02141 3.95312
# Velocity P-wave (km/s) = 7.07917 7.50532 7.29536
#
# Compressibility (1/GPa) = 0.01596988
#
# Stress axis : x y z
#
# Youngs Moduli (GPa) = 109.23561 97.39901 59.95459
#
# Poissons Ratio (x) = 0.30603 0.22424
# Poissons Ratio (y) = 0.34322 0.19086
# Poissons Ratio (z) = 0.40856 0.31006
#
# Static dielectric constant tensor:
#      x y z
#    x 3.368250 0.000000 0.106190 
#    y 0.000000 3.838130 0.000000 
#    z 0.106190 0.000000 3.714850 
# 
# 
# High freq. dielectric constant tensor:
#      x y z
#    x 1.827580 0.000000 0.001820 
#    y 0.000000 1.829570 0.000000 
#    z 0.001820 0.000000 1.814670 
# 
# From -- ./inp_files/69822.got.cif
#   From: 2010.06.25/outbox.cif.g09.slc.cpg/sg11_35_cif.got.tgz:69822.got - 2010.06.27 23:14:04.
