data_PCOD8075727
_publ_section_title
;
Structure prediction by ZEFSAII (Michael W. Deem and Ramdas Pophale) SiO2 
 PCOD8075727
Probable space group: P 21/M
;
_chemical_formula_sum "Si O2"
_cell_formula_units_Z 28
_cell_length_a 14.188812
_cell_length_b 9.141962
_cell_length_c 16.333160
_cell_angle_alpha 90.000000
_cell_angle_beta 41.560412
_cell_angle_gamma 90.000000
_cell_volume 1405.520757
_symmetry_space_group_name_H-M "P 21/M"
_symmetry_group_IT_number 11
_symmetry_cell_setting 'monoclinic'
loop_
_space_group_symop_operation_xyz
x,y,z
-x,1/2+y,-z
-x,-y,-z
x,1/2-y,z
loop_
_atom_site_type_symbol
_atom_site_label
_atom_site_fract_x
_atom_site_fract_y
_atom_site_fract_z
Si Si1 0.816246 0.419786 0.948250
Si Si2 0.647886 0.418444 0.398193
Si Si3 0.426448 0.085466 0.976312
Si Si4 0.647767 0.082982 0.215078
Si Si5 0.104336 0.082357 0.681045
Si Si6 0.398693 0.584124 0.301735
Si Si7 0.895916 0.579628 0.504927
O O1 0.790059 0.250000 0.945980
O O2 0.979757 0.461232 0.825399
O O3 0.723237 0.511609 0.945690
O O4 0.772806 0.459614 0.069887
O O5 0.500000 0.500000 0.500000
O O6 0.623675 0.250000 0.436166
O O7 0.709189 0.438029 0.266252
O O8 0.759210 0.483140 0.390299
O O9 0.395949 0.250000 0.024641
O O10 0.530147 0.080267 0.832456
O O11 0.500000 0.000000 0.000000
O O12 0.598960 0.250000 0.231758
O O13 0.508748 0.982195 0.295803
O O14 0.150763 0.250000 0.663576
O O15 0.050312 0.057052 0.623288
O O16 0.361087 0.750000 0.352377
O O17 0.260002 0.486241 0.386462
O O18 0.891003 0.750000 0.531413
O O19 0.000000 0.500000 0.500000
#
# Coordination Sequence:
#
# PCOD8075727 Si02
#       7
#     4   4   4   4   4   4   4
#     4   9  19  38  60  82 115 154 190 235 291 344
#     4  11  23  38  60  89 119 153 195 240 286 343
#     4  10  21  35  55  83 113 147 191 240 287 341
#     4   9  19  37  60  86 116 151 191 235 287 343
#     4  10  23  41  60  85 118 153 191 239 292 347
#     4  10  21  37  57  83 113 147 191 238 285 342
#     4  11  24  40  58  82 114 152 193 239 292 348
#
# _framework density 19.921443
#
# number of rings (size 3 to 8) (size 9 to 14) (size 15 to 20)
#    0.000    2.000    0.000    2.571    2.000    8.571 
#    0.000    0.000    0.000    0.000    0.000    0.000 
#    0.000    0.000    0.000    0.000    0.000    0.000 
#
# Total GULP energy -347267.077724 kJ/mol
# GULP energy per Si atom -12402.395633 kJ/mol
# Density = 1.987610 g / cm^3
# Si number density = 19.921443 Si / 1000 Ang^3
#
#
#
# Elastic Constant Matrix: (Units=GPa)
#
#
# Indices 1 2 3 4 5 6 
#
# 1 103.1948 57.0046 41.0402 0.0000 2.3041 0.0000
# 2 57.0046 122.7838 49.0096 0.0000 -8.2183 0.0000
# 3 41.0402 49.0096 84.0848 0.0000 -19.5515 0.0000
# 4 0.0000 0.0000 0.0000 29.6210 0.0000 -3.7157
# 5 2.3041 -8.2183 -19.5515 0.0000 23.9159 0.0000
# 6 0.0000 0.0000 0.0000 -3.7157 0.0000 38.5462
#
#
#
# Elastic Compliance Matrix: (Units=1/GPa)
#
#
# Indices 1 2 3 4 5 6 
#
# 1 0.015251 -0.005069 -0.006465 0.000000 -0.008496 0.000000
# 2 -0.005069 0.012357 -0.004479 0.000000 0.001073 0.000000
# 3 -0.006465 -0.004479 0.021540 0.000000 0.016693 0.000000
# 4 0.000000 0.000000 0.000000 0.034173 0.000000 0.003294
# 5 -0.008496 0.001073 0.016693 0.000000 0.056647 0.000000
# 6 0.000000 0.000000 0.000000 0.003294 0.000000 0.026260
#
#
# Mechanical properties :
#
#
# Convention : Reuss Voigt Hill
#
# Bulk Modulus (GPa) = 58.40051 67.13024 62.76538
# Shear Modulus (GPa) = 24.51419 29.28387 26.89903
#
# Velocity S-wave (km/s) = 3.51172 3.83817 3.67857
# Velocity P-wave (km/s) = 6.76919 7.30840 7.04396
#
# Compressibility (1/GPa) = 0.01712314
#
# Stress axis : x y z
#
# Youngs Moduli (GPa) = 65.56848 80.92347 46.42435
#
# Poissons Ratio (x) = 0.41019 0.30013
# Poissons Ratio (y) = 0.33235 0.20794
# Poissons Ratio (z) = 0.42390 0.36246
#
# Static dielectric constant tensor:
#      x y z
#    x 3.556300 0.000000 0.382960 
#    y 0.000000 3.837960 0.000000 
#    z 0.382960 0.000000 4.009290 
# 
# 
# High freq. dielectric constant tensor:
#      x y z
#    x 1.772760 0.000000 0.010000 
#    y 0.000000 1.785640 0.000000 
#    z 0.010000 0.000000 1.782900 
# 
# From -- ./inp_files/60079.got.cif
#   From: 2010.06.25/outbox.cif.g09.slc.cpg/sg11_31_cif.got.tgz:60079.got - 2010.06.27 23:14:04.
