data_PCOD8075452
_publ_section_title
;
Structure prediction by ZEFSAII (Michael W. Deem and Ramdas Pophale) SiO2 
 PCOD8075452
Probable space group: P 21/M
;
_chemical_formula_sum "Si O2"
_cell_formula_units_Z 32
_cell_length_a 11.535772
_cell_length_b 16.457796
_cell_length_c 14.549725
_cell_angle_alpha 90.000000
_cell_angle_beta 31.177043
_cell_angle_gamma 90.000000
_cell_volume 1430.006696
_symmetry_space_group_name_H-M "P 21/M"
_symmetry_group_IT_number 11
_symmetry_cell_setting 'monoclinic'
loop_
_space_group_symop_operation_xyz
x,y,z
-x,1/2+y,-z
-x,-y,-z
x,1/2-y,z
loop_
_atom_site_type_symbol
_atom_site_label
_atom_site_fract_x
_atom_site_fract_y
_atom_site_fract_z
Si Si1 0.028846 0.598180 0.293164
Si Si2 0.407042 0.343905 0.898818
Si Si3 0.237133 0.343492 0.820656
Si Si4 0.117793 0.911965 0.428339
Si Si5 0.053269 0.414424 0.264381
Si Si6 0.184696 0.844155 0.998906
Si Si7 0.547255 0.656180 0.617921
Si Si8 0.611432 0.084614 0.450559
O O1 0.765005 0.601337 0.450895
O O2 0.059963 0.638185 0.373782
O O3 0.123889 0.507355 0.233863
O O4 0.171234 0.643018 0.117412
O O5 0.491420 0.250000 0.844876
O O6 0.233233 0.356871 0.932683
O O7 0.611869 0.407612 0.749245
O O8 0.267884 0.364212 0.084955
O O9 0.234692 0.250000 0.794220
O O10 0.469218 0.379482 0.629773
O O11 0.025099 0.385594 0.912687
O O12 0.024793 0.872877 0.586319
O O13 0.000000 0.000000 0.500000
O O14 0.863826 0.418736 0.314965
O O15 0.184229 0.750000 0.975032
O O16 0.417870 0.876891 0.796972
O O17 0.620723 0.750000 0.576474
O O18 0.386555 0.644048 0.639234
O O19 0.500000 0.000000 0.500000
#
# Coordination Sequence:
#
# PCOD8075452 Si02
#       8
#     4   4   4   4   4   4   4   4
#     4  11  23  41  64  91 127 171 216 269 321 387
#     4  11  25  44  69  99 130 169 219 270 325 392
#     4  10  20  38  63  90 128 172 208 262 333 388
#     4  10  25  46  68  92 129 176 219 274 328 383
#     4  11  24  43  67  97 130 170 216 270 331 385
#     4  10  21  38  61  93 130 171 214 266 330 390
#     4  11  23  39  63  93 130 174 213 263 331 396
#     4  12  21  37  65  99 131 168 215 267 325 393
#
# _framework density 22.377517999999998
#
# number of rings (size 3 to 8) (size 9 to 14) (size 15 to 20)
#    0.000    1.250    3.750    1.500    0.000    9.500 
#    0.000    3.750    0.000    0.000    0.000    0.000 
#    0.000    0.000    0.000    0.000    0.000    0.000 
#
# Total GULP energy -396602.802787 kJ/mol
# GULP energy per Si atom -12393.837587 kJ/mol
# Density = 2.232659 g / cm^3
# Si number density = 22.377518 Si / 1000 Ang^3
#
#
#
# Elastic Constant Matrix: (Units=GPa)
#
#
# Indices 1 2 3 4 5 6 
#
# 1 101.1420 20.6111 31.7814 0.0000 28.3788 0.0000
# 2 20.6111 50.9418 31.7176 0.0000 -0.3575 0.0000
# 3 31.7814 31.7176 146.7934 0.0000 35.5134 0.0000
# 4 0.0000 0.0000 0.0000 27.0649 0.0000 3.2465
# 5 28.3788 -0.3575 35.5134 0.0000 34.0318 0.0000
# 6 0.0000 0.0000 0.0000 3.2465 0.0000 26.8196
#
#
#
# Elastic Compliance Matrix: (Units=1/GPa)
#
#
# Indices 1 2 3 4 5 6 
#
# 1 0.014806 -0.007224 0.001820 0.000000 -0.014322 0.000000
# 2 -0.007224 0.027590 -0.007926 0.000000 0.014585 0.000000
# 3 0.001820 -0.007926 0.011395 0.000000 -0.013492 0.000000
# 4 0.000000 0.000000 0.000000 0.037493 0.000000 -0.004539
# 5 -0.014322 0.014585 -0.013492 0.000000 0.055560 0.000000
# 6 0.000000 0.000000 0.000000 -0.004539 0.000000 0.037836
#
#
# Mechanical properties :
#
#
# Convention : Reuss Voigt Hill
#
# Bulk Modulus (GPa) = 36.85785 51.89970 44.37877
# Shear Modulus (GPa) = 22.68781 31.90107 27.29444
#
# Velocity S-wave (km/s) = 3.18758 3.77979 3.49625
# Velocity P-wave (km/s) = 5.48218 6.50325 6.01442
#
# Compressibility (1/GPa) = 0.02713126
#
# Stress axis : x y z
#
# Youngs Moduli (GPa) = 67.54115 36.24445 87.75882
#
# Poissons Ratio (x) = 0.26184 -0.15975
# Poissons Ratio (y) = 0.48794 0.69557
# Poissons Ratio (z) = -0.12294 0.28727
#
# Static dielectric constant tensor:
#      x y z
#    x 4.257210 0.000000 0.388040 
#    y 0.000000 3.696320 0.000000 
#    z 0.388040 0.000000 3.756940 
# 
# 
# High freq. dielectric constant tensor:
#      x y z
#    x 1.888000 0.000000 0.016720 
#    y 0.000000 1.851320 0.000000 
#    z 0.016720 0.000000 1.889090 
# 
# From -- ./inp_files/50638.got.cif
#   From: 2010.06.25/outbox.cif.g09.slc.cpg/sg11_26_cif.got.tgz:50638.got - 2010.06.27 23:14:04.
