data_PCOD8075719
_publ_section_title
;
Structure prediction by ZEFSAII (Michael W. Deem and Ramdas Pophale) SiO2 
 PCOD8075719
Probable space group: P 21/M
;
_chemical_formula_sum "Si O2"
_cell_formula_units_Z 32
_cell_length_a 15.280029
_cell_length_b 8.973281
_cell_length_c 22.208052
_cell_angle_alpha 90.000000
_cell_angle_beta 147.161291
_cell_angle_gamma 90.000000
_cell_volume 1651.225073
_symmetry_space_group_name_H-M "P 21/M"
_symmetry_group_IT_number 11
_symmetry_cell_setting 'monoclinic'
loop_
_space_group_symop_operation_xyz
x,y,z
-x,1/2+y,-z
-x,-y,-z
x,1/2-y,z
loop_
_atom_site_type_symbol
_atom_site_label
_atom_site_fract_x
_atom_site_fract_y
_atom_site_fract_z
Si Si1 0.865063 0.926619 0.293444
Si Si2 0.012206 0.073620 0.886984
Si Si3 0.626840 0.427174 0.235802
Si Si4 0.330910 0.575930 0.259248
Si Si5 0.674463 0.426333 0.881766
Si Si6 0.950453 0.073531 0.716887
Si Si7 0.816635 0.074063 0.460059
Si Si8 0.365027 0.574164 0.527817
O O1 0.836449 0.750000 0.278283
O O2 0.922611 0.981364 0.260558
O O3 0.001062 0.978344 0.420618
O O4 0.698864 0.010292 0.214667
O O5 0.045114 0.250000 0.910909
O O6 0.846331 0.026629 0.822768
O O7 0.007816 0.019230 0.815108
O O8 0.148558 0.981765 0.999349
O O9 0.612380 0.250000 0.224752
O O10 0.450838 0.494122 0.145946
O O11 0.748715 0.487514 0.357939
O O12 0.351678 0.750000 0.279432
O O13 0.359074 0.526184 0.206507
O O14 0.460099 0.500505 0.379037
O O15 0.663486 0.250000 0.883880
O O16 0.943798 0.250000 0.709077
O O17 0.766947 0.017716 0.597519
O O18 0.813714 0.250000 0.458000
O O19 0.699074 0.018291 0.444634
O O20 0.388038 0.750000 0.537718
#
# Coordination Sequence:
#
# PCOD8075719 Si02
#       8
#     4   4   4   4   4   4   4   4
#     4   9  17  32  53  78 108 141 174 214 261 314
#     4  10  21  39  59  78 103 142 184 224 268 317
#     4  11  20  32  52  80 108 140 178 217 264 321
#     4  10  21  35  54  82 113 138 172 223 276 319
#     4  11  23  38  54  78 109 141 179 226 273 315
#     4   8  17  35  58  80 108 144 181 217 261 315
#     4   8  15  28  48  75 108 141 172 206 254 314
#     4   9  16  31  55  81 110 145 177 210 258 322
#
# _framework density 19.379550999999999
#
# number of rings (size 3 to 8) (size 9 to 14) (size 15 to 20)
#    0.000    2.500    1.250    3.000    0.000    1.500 
#    0.000    5.000    0.000    0.000    0.000    0.000 
#    0.000    0.000    0.000    0.000    0.000    0.000 
#
# Total GULP energy -396680.174927 kJ/mol
# GULP energy per Si atom -12396.255466 kJ/mol
# Density = 1.933544 g / cm^3
# Si number density = 19.379551 Si / 1000 Ang^3
#
#
#
# Elastic Constant Matrix: (Units=GPa)
#
#
# Indices 1 2 3 4 5 6 
#
# 1 70.3484 26.1286 22.2945 0.0000 19.0944 0.0000
# 2 26.1286 43.4494 16.2988 0.0000 7.9151 0.0000
# 3 22.2945 16.2988 33.3772 0.0000 12.2968 0.0000
# 4 0.0000 0.0000 0.0000 25.3786 0.0000 6.2146
# 5 19.0944 7.9151 12.2968 0.0000 31.3657 0.0000
# 6 0.0000 0.0000 0.0000 6.2146 0.0000 19.5207
#
#
#
# Elastic Compliance Matrix: (Units=1/GPa)
#
#
# Indices 1 2 3 4 5 6 
#
# 1 0.022161 -0.009068 -0.007302 0.000000 -0.008340 0.000000
# 2 -0.009068 0.031996 -0.010083 0.000000 0.001399 0.000000
# 3 -0.007302 -0.010083 0.043464 0.000000 -0.010051 0.000000
# 4 0.000000 0.000000 0.000000 0.042735 0.000000 -0.013605
# 5 -0.008340 0.001399 -0.010051 0.000000 0.040546 0.000000
# 6 0.000000 0.000000 0.000000 -0.013605 0.000000 0.055559
#
#
# Mechanical properties :
#
#
# Convention : Reuss Voigt Hill
#
# Bulk Modulus (GPa) = 22.36346 30.73544 26.54945
# Shear Modulus (GPa) = 16.43276 20.74988 18.59132
#
# Velocity S-wave (km/s) = 2.91511 3.27572 3.10066
# Velocity P-wave (km/s) = 4.78490 5.49557 5.15250
#
# Compressibility (1/GPa) = 0.04471579
#
# Stress axis : x y z
#
# Youngs Moduli (GPa) = 45.12502 31.25409 23.00752
#
# Poissons Ratio (x) = 0.28342 0.16799
# Poissons Ratio (y) = 0.40920 0.23197
# Poissons Ratio (z) = 0.32949 0.31512
#
# Static dielectric constant tensor:
#      x y z
#    x 3.753970 0.000000 -0.074380 
#    y 0.000000 3.129590 0.000000 
#    z -0.074380 0.000000 3.625820 
# 
# 
# High freq. dielectric constant tensor:
#      x y z
#    x 1.756210 0.000000 0.010850 
#    y 0.000000 1.723890 0.000000 
#    z 0.010850 0.000000 1.749710 
# 
# From -- ./inp_files/69164.got.cif
#   From: 2010.06.25/outbox.cif.g09.slc.cpg/sg11_35_cif.got.tgz:69164.got - 2010.06.27 23:14:04.
