data_PCOD8075342
_publ_section_title
;
Structure prediction by ZEFSAII (Michael W. Deem and Ramdas Pophale) SiO2 
 PCOD8075342
Probable space group: P 21/M
;
_chemical_formula_sum "Si O2"
_cell_formula_units_Z 24
_cell_length_a 14.495278
_cell_length_b 13.330587
_cell_length_c 13.209469
_cell_angle_alpha 90.000000
_cell_angle_beta 29.766710
_cell_angle_gamma 90.000000
_cell_volume 1267.225549
_symmetry_space_group_name_H-M "P 21/M"
_symmetry_group_IT_number 11
_symmetry_cell_setting 'monoclinic'
loop_
_space_group_symop_operation_xyz
x,y,z
-x,1/2+y,-z
-x,-y,-z
x,1/2-y,z
loop_
_atom_site_type_symbol
_atom_site_label
_atom_site_fract_x
_atom_site_fract_y
_atom_site_fract_z
Si Si1 0.239613 0.483245 0.670396
Si Si2 0.632016 0.010497 0.235496
Si Si3 0.069379 0.862538 0.133777
Si Si4 0.369445 0.630349 0.395137
Si Si5 0.307362 0.529168 0.236732
Si Si6 0.016192 0.137836 0.556171
O O1 0.232123 0.503376 0.797424
O O2 0.440829 0.433748 0.451397
O O3 0.219823 0.584988 0.619490
O O4 0.077592 0.405398 0.805337
O O5 0.575334 0.902346 0.239959
O O6 0.738769 0.075285 0.049939
O O7 0.117836 0.750000 0.055418
O O8 0.976592 0.869159 0.330704
O O9 0.351015 0.750000 0.404791
O O10 0.338459 0.577123 0.317059
O O11 0.182548 0.429425 0.356184
O O12 0.190636 0.609020 0.283145
O O13 0.500000 0.500000 0.000000
O O14 0.056849 0.250000 0.479177
#
# Coordination Sequence:
#
# PCOD8075342 Si02
#       6
#     4   4   4   4   4   4
#     4   9  20  39  57  83 121 148 192 240 284 337
#     4   9  20  38  58  83 121 149 191 238 281 344
#     4  11  21  36  60  86 114 151 191 231 289 346
#     4  10  20  38  60  82 114 154 193 237 292 342
#     4  11  22  39  61  82 119 153 195 249 292 347
#     4  10  22  38  58  86 116 151 194 241 294 349
#
# _framework density 18.939011000000001
#
# number of rings (size 3 to 8) (size 9 to 14) (size 15 to 20)
#    1.000    1.000    1.667    2.000    0.000    3.333 
#    0.000    5.000    0.000    0.000    0.000    0.000 
#    0.000    0.000    0.000    0.000    0.000    0.000 
#
# Total GULP energy -297381.867404 kJ/mol
# GULP energy per Si atom -12390.911142 kJ/mol
# Density = 1.889590 g / cm^3
# Si number density = 18.939011 Si / 1000 Ang^3
#
#
#
# Elastic Constant Matrix: (Units=GPa)
#
#
# Indices 1 2 3 4 5 6 
#
# 1 97.8098 43.8128 20.9678 0.0000 -6.0127 0.0000
# 2 43.8128 100.9714 21.7417 0.0000 0.7646 0.0000
# 3 20.9678 21.7417 59.8534 0.0000 -7.1038 0.0000
# 4 0.0000 0.0000 0.0000 24.5442 0.0000 -4.3863
# 5 -6.0127 0.7646 -7.1038 0.0000 19.6928 0.0000
# 6 0.0000 0.0000 0.0000 -4.3863 0.0000 19.6197
#
#
#
# Elastic Compliance Matrix: (Units=1/GPa)
#
#
# Indices 1 2 3 4 5 6 
#
# 1 0.013308 -0.005299 -0.002330 0.000000 0.003428 0.000000
# 2 -0.005299 0.012923 -0.003228 0.000000 -0.003284 0.000000
# 3 -0.002330 -0.003228 0.019460 0.000000 0.006434 0.000000
# 4 0.000000 0.000000 0.000000 0.042438 0.000000 0.009488
# 5 0.003428 -0.003284 0.006434 0.000000 0.054275 0.000000
# 6 0.000000 0.000000 0.000000 0.009488 0.000000 0.053090
#
#
# Mechanical properties :
#
#
# Convention : Reuss Voigt Hill
#
# Bulk Modulus (GPa) = 41.70653 47.96436 44.83545
# Shear Modulus (GPa) = 22.20251 24.24548 23.22400
#
# Velocity S-wave (km/s) = 3.42762 3.58185 3.50559
# Velocity P-wave (km/s) = 6.14281 6.51820 6.33329
#
# Compressibility (1/GPa) = 0.02397706
#
# Stress axis : x y z
#
# Youngs Moduli (GPa) = 75.14465 77.38274 51.38763
#
# Poissons Ratio (x) = 0.41002 0.11975
# Poissons Ratio (y) = 0.39816 0.16587
# Poissons Ratio (z) = 0.17511 0.24977
#
# Static dielectric constant tensor:
#      x y z
#    x 3.554850 0.000000 0.001650 
#    y 0.000000 3.367810 0.000000 
#    z 0.001650 0.000000 3.323060 
# 
# 
# High freq. dielectric constant tensor:
#      x y z
#    x 1.751480 0.000000 0.000500 
#    y 0.000000 1.718340 0.000000 
#    z 0.000500 0.000000 1.729120 
# 
# From -- ./inp_files/52217.got.cif
#   From: 2010.06.25/outbox.cif.g09.slc.cpg/sg11_27_cif.got.tgz:52217.got - 2010.06.27 23:14:04.
