data_PCOD8075095
_publ_section_title
;
Structure prediction by ZEFSAII (Michael W. Deem and Ramdas Pophale) SiO2 
 PCOD8075095
Probable space group: P 21/M
;
_chemical_formula_sum "Si O2"
_cell_formula_units_Z 32
_cell_length_a 9.898593
_cell_length_b 18.355880
_cell_length_c 16.113659
_cell_angle_alpha 90.000000
_cell_angle_beta 144.109120
_cell_angle_gamma 90.000000
_cell_volume 1716.409152
_symmetry_space_group_name_H-M "P 21/M"
_symmetry_group_IT_number 11
_symmetry_cell_setting 'monoclinic'
loop_
_space_group_symop_operation_xyz
x,y,z
-x,1/2+y,-z
-x,-y,-z
x,1/2-y,z
loop_
_atom_site_type_symbol
_atom_site_label
_atom_site_fract_x
_atom_site_fract_y
_atom_site_fract_z
Si Si1 0.931324 0.091366 0.773057
Si Si2 0.561216 0.561158 0.409998
Si Si3 0.893202 0.165895 0.583921
Si Si4 0.422703 0.400771 0.299591
Si Si5 0.227854 0.832775 0.784224
Si Si6 0.860387 0.666794 0.460181
Si Si7 0.079078 0.068184 0.264903
Si Si8 0.697366 0.664545 0.933672
O O1 0.661417 0.097862 0.659599
O O2 0.976011 0.119735 0.703049
O O3 0.016071 0.007583 0.819710
O O4 0.067115 0.140012 0.906400
O O5 0.503310 0.484555 0.338934
O O6 0.652507 0.615053 0.384357
O O7 0.749364 0.548236 0.574702
O O8 0.915780 0.250000 0.618331
O O9 0.631444 0.151571 0.427466
O O10 0.064609 0.144637 0.594698
O O11 0.217855 0.387871 0.263631
O O12 0.328123 0.380986 0.162652
O O13 0.208488 0.750000 0.806161
O O14 0.489557 0.853572 0.893376
O O15 0.081193 0.844505 0.628232
O O16 0.135883 0.883645 0.812391
O O17 0.773586 0.750000 0.421299
O O18 0.703715 0.750000 0.915616
#
# Coordination Sequence:
#
# PCOD8075095 Si02
#       8
#     4   4   4   4   4   4   4   4
#     4  11  22  39  58  83 119 152 186 236 291 334
#     4  10  20  37  59  88 119 146 185 243 293 334
#     4  11  20  34  57  85 110 146 195 237 278 332
#     4  11  20  37  60  84 114 149 190 237 278 337
#     4   9  19  36  56  82 117 152 185 235 289 335
#     4   9  19  34  56  86 116 145 189 241 286 335
#     4  10  20  37  60  88 118 142 193 244 281 340
#     4  11  24  40  56  82 118 154 193 232 280 347
#
# _framework density 18.643571999999999
#
# number of rings (size 3 to 8) (size 9 to 14) (size 15 to 20)
#    0.000    1.750    3.750    1.500    0.000    6.000 
#    0.000    1.250    0.000    0.000    0.000    0.000 
#    0.000    0.000    0.000    0.000    0.000    0.000 
#
# Total GULP energy -396927.631407 kJ/mol
# GULP energy per Si atom -12403.988481 kJ/mol
# Density = 1.860114 g / cm^3
# Si number density = 18.643572 Si / 1000 Ang^3
#
#
#
# Elastic Constant Matrix: (Units=GPa)
#
#
# Indices 1 2 3 4 5 6 
#
# 1 107.8568 57.8667 16.9559 0.0000 -1.8485 0.0000
# 2 57.8667 73.7651 14.2897 0.0000 6.3651 0.0000
# 3 16.9559 14.2897 49.9491 0.0000 -6.9468 0.0000
# 4 0.0000 0.0000 0.0000 23.7951 0.0000 0.6919
# 5 -1.8485 6.3651 -6.9468 0.0000 17.8220 0.0000
# 6 0.0000 0.0000 0.0000 0.6919 0.0000 36.4229
#
#
#
# Elastic Compliance Matrix: (Units=1/GPa)
#
#
# Indices 1 2 3 4 5 6 
#
# 1 0.016777 -0.013506 -0.000971 0.000000 0.006186 0.000000
# 2 -0.013506 0.026132 -0.004635 0.000000 -0.012541 0.000000
# 3 -0.000971 -0.004635 0.023147 0.000000 0.010577 0.000000
# 4 0.000000 0.000000 0.000000 0.042049 0.000000 -0.000799
# 5 0.006186 -0.012541 0.010577 0.000000 0.065354 0.000000
# 6 0.000000 0.000000 0.000000 -0.000799 0.000000 0.027470
#
#
# Mechanical properties :
#
#
# Convention : Reuss Voigt Hill
#
# Bulk Modulus (GPa) = 35.93134 45.53284 40.73209
# Shear Modulus (GPa) = 20.12638 25.10524 22.61581
#
# Velocity S-wave (km/s) = 3.28919 3.67357 3.48668
# Velocity P-wave (km/s) = 5.80858 6.51685 6.17288
#
# Compressibility (1/GPa) = 0.02783085
#
# Stress axis : x y z
#
# Youngs Moduli (GPa) = 59.60691 38.26725 43.20214
#
# Poissons Ratio (x) = 0.51685 0.04194
# Poissons Ratio (y) = 0.80508 0.20025
# Poissons Ratio (z) = 0.05787 0.17737
#
# Static dielectric constant tensor:
#      x y z
#    x 3.567450 0.000000 0.010460 
#    y 0.000000 3.477760 0.000000 
#    z 0.010460 0.000000 3.170940 
# 
# 
# High freq. dielectric constant tensor:
#      x y z
#    x 1.734210 0.000000 -0.000600 
#    y 0.000000 1.730800 0.000000 
#    z -0.000600 0.000000 1.698240 
# 
# From -- ./inp_files/32858.got.cif
#   From: 2010.06.25/outbox.cif.g09.slc.cpg/sg11_17_cif.got.tgz:32858.got - 2010.06.27 23:14:04.
