data_PCOD8075291
_publ_section_title
;
Structure prediction by ZEFSAII (Michael W. Deem and Ramdas Pophale) SiO2 
 PCOD8075291
Probable space group: P 21/M
;
_chemical_formula_sum "Si O2"
_cell_formula_units_Z 32
_cell_length_a 11.631885
_cell_length_b 19.040019
_cell_length_c 14.706183
_cell_angle_alpha 90.000000
_cell_angle_beta 151.949521
_cell_angle_gamma 90.000000
_cell_volume 1531.600790
_symmetry_space_group_name_H-M "P 21/M"
_symmetry_group_IT_number 11
_symmetry_cell_setting 'monoclinic'
loop_
_space_group_symop_operation_xyz
x,y,z
-x,1/2+y,-z
-x,-y,-z
x,1/2-y,z
loop_
_atom_site_type_symbol
_atom_site_label
_atom_site_fract_x
_atom_site_fract_y
_atom_site_fract_z
Si Si1 0.261230 0.328769 0.965506
Si Si2 0.182367 0.610017 0.422098
Si Si3 0.515797 0.167210 0.850238
Si Si4 0.975877 0.916898 0.472572
Si Si5 0.876333 0.100576 0.963886
Si Si6 0.218369 0.517235 0.283691
Si Si7 0.722881 0.169485 0.183433
Si Si8 0.316937 0.329783 0.201253
O O1 0.335324 0.250000 0.038944
O O2 0.998221 0.327867 0.734012
O O3 0.463912 0.360154 0.039658
O O4 0.269354 0.366355 0.069544
O O5 0.141960 0.598053 0.500544
O O6 0.110746 0.546997 0.303828
O O7 0.463736 0.627978 0.598304
O O8 0.438136 0.250000 0.780827
O O9 0.640176 0.132963 0.848661
O O10 0.293252 0.116459 0.725621
O O11 0.717781 0.163746 0.071029
O O12 0.071952 0.880001 0.631107
O O13 0.000000 0.000000 0.500000
O O14 0.782245 0.070111 0.802458
O O15 0.065977 0.164226 0.081286
O O16 0.031122 0.045237 0.131013
O O17 0.500000 0.500000 0.500000
O O18 0.773757 0.250000 0.248376
O O19 0.400940 0.250000 0.255317
#
# Coordination Sequence:
#
# PCOD8075291 Si02
#       8
#     4   4   4   4   4   4   4   4
#     4  10  20  37  63  94 125 157 206 270 328 381
#     4  12  23  41  66  95 128 167 215 272 335 388
#     4  11  26  47  69  95 138 187 229 277 342 416
#     4  12  28  41  67 102 136 174 226 284 340 408
#     4  11  25  44  68  94 131 179 223 270 332 405
#     4  11  25  43  67  95 132 175 220 275 336 400
#     4  10  22  43  67  93 130 177 223 272 336 404
#     4  11  22  39  65  96 125 161 215 272 324 385
#
# _framework density 20.893172
#
# number of rings (size 3 to 8) (size 9 to 14) (size 15 to 20)
#    0.000    1.000    5.000    1.125    3.500    2.500 
#    0.000    0.000    0.000    0.000    0.000    0.000 
#    0.000    0.000    0.000    0.000    0.000    0.000 
#
# Total GULP energy -396516.369115 kJ/mol
# GULP energy per Si atom -12391.136535 kJ/mol
# Density = 2.084562 g / cm^3
# Si number density = 20.893172 Si / 1000 Ang^3
#
#
#
# Elastic Constant Matrix: (Units=GPa)
#
#
# Indices 1 2 3 4 5 6 
#
# 1 93.9709 30.7649 19.2016 0.0000 0.7242 0.0000
# 2 30.7649 105.7911 40.2397 0.0000 -4.6157 0.0000
# 3 19.2016 40.2397 108.6889 0.0000 -4.4117 0.0000
# 4 0.0000 0.0000 0.0000 32.5180 0.0000 -0.7088
# 5 0.7242 -4.6157 -4.4117 0.0000 32.6636 0.0000
# 6 0.0000 0.0000 0.0000 -0.7088 0.0000 28.0365
#
#
#
# Elastic Compliance Matrix: (Units=1/GPa)
#
#
# Indices 1 2 3 4 5 6 
#
# 1 0.011868 -0.003116 -0.000977 0.000000 -0.000835 0.000000
# 2 -0.003116 0.011853 -0.003788 0.000000 0.001232 0.000000
# 3 -0.000977 -0.003788 0.010814 0.000000 0.000947 0.000000
# 4 0.000000 0.000000 0.000000 0.030769 0.000000 0.000778
# 5 -0.000835 0.001232 0.000947 0.000000 0.030936 0.000000
# 6 0.000000 0.000000 0.000000 0.000778 0.000000 0.035687
#
#
# Mechanical properties :
#
#
# Convention : Reuss Voigt Hill
#
# Bulk Modulus (GPa) = 53.26702 54.31815 53.79259
# Shear Modulus (GPa) = 32.47870 33.19328 32.83599
#
# Velocity S-wave (km/s) = 3.94701 3.99019 3.96866
# Velocity P-wave (km/s) = 6.80604 6.87629 6.84125
#
# Compressibility (1/GPa) = 0.01877334
#
# Stress axis : x y z
#
# Youngs Moduli (GPa) = 84.26144 84.36418 92.47285
#
# Poissons Ratio (x) = 0.26289 0.09033
# Poissons Ratio (y) = 0.26257 0.35028
# Poissons Ratio (z) = 0.08231 0.31956
#
# Static dielectric constant tensor:
#      x y z
#    x 3.865950 0.000000 -0.105700 
#    y 0.000000 3.738040 0.000000 
#    z -0.105700 0.000000 3.754670 
# 
# 
# High freq. dielectric constant tensor:
#      x y z
#    x 1.820730 0.000000 -0.007460 
#    y 0.000000 1.806520 0.000000 
#    z -0.007460 0.000000 1.829130 
# 
# From -- ./inp_files/50734.got.cif
#   From: 2010.06.25/outbox.cif.g09.slc.cpg/sg11_26_cif.got.tgz:50734.got - 2010.06.27 23:14:04.
