data_PCOD8075898
_publ_section_title
;
Structure prediction by ZEFSAII (Michael W. Deem and Ramdas Pophale) SiO2 
 PCOD8075898
Probable space group: P 21/M
;
_chemical_formula_sum "Si O2"
_cell_formula_units_Z 28
_cell_length_a 12.466858
_cell_length_b 8.779436
_cell_length_c 14.860411
_cell_angle_alpha 90.000000
_cell_angle_beta 57.788583
_cell_angle_gamma 90.000000
_cell_volume 1376.161666
_symmetry_space_group_name_H-M "P 21/M"
_symmetry_group_IT_number 11
_symmetry_cell_setting 'monoclinic'
loop_
_space_group_symop_operation_xyz
x,y,z
-x,1/2+y,-z
-x,-y,-z
x,1/2-y,z
loop_
_atom_site_type_symbol
_atom_site_label
_atom_site_fract_x
_atom_site_fract_y
_atom_site_fract_z
Si Si1 0.217564 0.415140 0.069915
Si Si2 0.876331 0.576679 0.698378
Si Si3 0.999844 0.078781 0.905806
Si Si4 0.495076 0.079303 0.906717
Si Si5 0.119817 0.431057 0.671013
Si Si6 0.350916 0.429811 0.317475
Si Si7 0.384970 0.930764 0.493572
O O1 0.148251 0.250000 0.085953
O O2 0.226464 0.440086 0.174091
O O3 0.141862 0.559116 0.066691
O O4 0.345765 0.408016 0.956447
O O5 0.922513 0.750000 0.667241
O O6 0.794573 0.527308 0.646675
O O7 0.003109 0.477252 0.657189
O O8 0.036889 0.250000 0.906646
O O9 0.091752 0.014200 0.786163
O O10 0.000000 0.000000 0.000000
O O11 0.555818 0.250000 0.880691
O O12 0.553302 0.975346 0.803838
O O13 0.500000 0.000000 0.000000
O O14 0.135275 0.250000 0.656611
O O15 0.249833 0.511424 0.588340
O O16 0.361001 0.250000 0.330905
O O17 0.395522 0.520321 0.385215
O O18 0.392678 0.750000 0.497871
O O19 0.500000 0.000000 0.500000
#
# Coordination Sequence:
#
# PCOD8075898 Si02
#       7
#     4   4   4   4   4   4   4
#     4   9  18  34  54  81 120 162 199 246 300 355
#     4   9  18  36  61  91 125 161 202 249 308 372
#     4  10  21  36  58  88 119 156 201 250 302 362
#     4  11  21  35  57  89 128 169 208 253 308 370
#     4  10  22  41  65  93 124 161 204 258 315 371
#     4  11  23  41  64  94 129 168 213 265 317 378
#     4  12  27  48  70  92 120 163 212 264 318 376
#
# _framework density 20.346447000000001
#
# number of rings (size 3 to 8) (size 9 to 14) (size 15 to 20)
#    0.000    1.714    1.429    3.000    0.000    5.714 
#    0.000    1.429    0.000    0.000    0.000    0.000 
#    0.000    0.000    0.000    0.000    0.000    0.000 
#
# Total GULP energy -346927.489261 kJ/mol
# GULP energy per Si atom -12390.267474 kJ/mol
# Density = 2.030014 g / cm^3
# Si number density = 20.346447 Si / 1000 Ang^3
#
#
#
# Elastic Constant Matrix: (Units=GPa)
#
#
# Indices 1 2 3 4 5 6 
#
# 1 122.7464 51.3757 66.0394 0.0000 5.5135 0.0000
# 2 51.3757 100.4363 45.1087 0.0000 1.2669 0.0000
# 3 66.0394 45.1087 113.0846 0.0000 3.1217 0.0000
# 4 0.0000 0.0000 0.0000 35.3813 0.0000 1.6493
# 5 5.5135 1.2669 3.1217 0.0000 34.8156 0.0000
# 6 0.0000 0.0000 0.0000 1.6493 0.0000 36.2739
#
#
#
# Elastic Compliance Matrix: (Units=1/GPa)
#
#
# Indices 1 2 3 4 5 6 
#
# 1 0.013125 -0.003985 -0.006037 0.000000 -0.001392 0.000000
# 2 -0.003985 0.013340 -0.003005 0.000000 0.000415 0.000000
# 3 -0.006037 -0.003005 0.013571 0.000000 -0.000151 0.000000
# 4 0.000000 0.000000 0.000000 0.028324 0.000000 -0.001288
# 5 -0.001392 0.000415 -0.000151 0.000000 0.028942 0.000000
# 6 0.000000 0.000000 0.000000 -0.001288 0.000000 0.027627
#
#
# Mechanical properties :
#
#
# Convention : Reuss Voigt Hill
#
# Bulk Modulus (GPa) = 71.52212 73.47943 72.50078
# Shear Modulus (GPa) = 32.12477 32.87706 32.50092
#
# Velocity S-wave (km/s) = 3.97783 4.02414 4.00105
# Velocity P-wave (km/s) = 7.50507 7.60159 7.55348
#
# Compressibility (1/GPa) = 0.01398169
#
# Stress axis : x y z
#
# Youngs Moduli (GPa) = 76.18881 74.96514 73.68454
#
# Poissons Ratio (x) = 0.29874 0.44483
# Poissons Ratio (y) = 0.30361 0.22145
# Poissons Ratio (z) = 0.45994 0.22530
#
# Static dielectric constant tensor:
#      x y z
#    x 3.729730 0.000000 -0.034360 
#    y 0.000000 3.945470 0.000000 
#    z -0.034360 0.000000 4.021030 
# 
# 
# High freq. dielectric constant tensor:
#      x y z
#    x 1.788560 0.000000 0.000940 
#    y 0.000000 1.803000 0.000000 
#    z 0.000940 0.000000 1.796820 
# 
# From -- ./inp_files/48861.got.cif
#   From: 2010.06.25/outbox.cif.g09.slc.cpg/sg11_25_cif.got.tgz:48861.got - 2010.06.27 23:14:04.
