data_PCOD8075932
_publ_section_title
;
Structure prediction by ZEFSAII (Michael W. Deem and Ramdas Pophale) SiO2 
 PCOD8075932
Probable space group: P 21/M
;
_chemical_formula_sum "Si O2"
_cell_formula_units_Z 32
_cell_length_a 21.175761
_cell_length_b 12.790735
_cell_length_c 15.038053
_cell_angle_alpha 90.000000
_cell_angle_beta 21.312850
_cell_angle_gamma 90.000000
_cell_volume 1480.413279
_symmetry_space_group_name_H-M "P 21/M"
_symmetry_group_IT_number 11
_symmetry_cell_setting 'monoclinic'
loop_
_space_group_symop_operation_xyz
x,y,z
-x,1/2+y,-z
-x,-y,-z
x,1/2-y,z
loop_
_atom_site_type_symbol
_atom_site_label
_atom_site_fract_x
_atom_site_fract_y
_atom_site_fract_z
Si Si1 0.969981 0.008873 0.395423
Si Si2 0.557601 0.567081 0.683509
Si Si3 0.196126 0.627657 0.230207
Si Si4 0.880632 0.868935 0.364905
Si Si5 0.436164 0.125613 0.527007
Si Si6 0.745815 0.130884 0.422825
Si Si7 0.905113 0.627875 0.928183
Si Si8 0.223546 0.873357 0.819901
O O1 0.852656 0.084489 0.608970
O O2 0.096137 0.079414 0.168860
O O3 0.840634 0.937835 0.504919
O O4 0.089244 0.931721 0.295367
O O5 0.729518 0.627503 0.490184
O O6 0.525509 0.588950 0.622566
O O7 0.586131 0.442836 0.662272
O O8 0.399305 0.607800 0.949758
O O9 0.153455 0.750000 0.281042
O O10 0.909782 0.750000 0.356112
O O11 0.058871 0.919519 0.090342
O O12 0.430304 0.250000 0.535820
O O13 0.591522 0.083702 0.386649
O O14 0.251227 0.079941 0.805731
O O15 0.681307 0.250000 0.514576
O O16 0.799434 0.099145 0.252989
O O17 0.909249 0.107427 0.270426
O O18 0.868288 0.750000 0.965839
O O19 0.215885 0.750000 0.843831
#
# Coordination Sequence:
#
# PCOD8075932 Si02
#       8
#     4   4   4   4   4   4   4   4
#     4  11  24  44  70  95 122 171 217 261 337 382
#     4  12  24  40  67  95 131 176 221 261 325 386
#     4  11  26  48  70  96 131 166 215 272 322 388
#     4  11  22  39  64  96 133 170 220 270 320 387
#     4  10  21  36  61  96 134 174 220 267 320 385
#     4  10  22  40  59  91 136 178 218 264 318 380
#     4  10  21  40  64  95 133 172 218 271 325 385
#     4   9  20  37  59  92 136 179 213 260 318 376
#
# _framework density 21.615586
#
# number of rings (size 3 to 8) (size 9 to 14) (size 15 to 20)
#    0.000    1.500    1.250    3.375    3.500    5.000 
#    0.000    3.125    0.000    0.000    0.000    0.000 
#    0.000    0.000    0.000    0.000    0.000    0.000 
#
# Total GULP energy -396963.351286 kJ/mol
# GULP energy per Si atom -12405.104728 kJ/mol
# Density = 2.156639 g / cm^3
# Si number density = 21.615586 Si / 1000 Ang^3
#
#
#
# Elastic Constant Matrix: (Units=GPa)
#
#
# Indices 1 2 3 4 5 6 
#
# 1 94.3547 52.7334 34.7247 0.0000 7.1348 0.0000
# 2 52.7334 85.6182 52.6825 0.0000 3.7396 0.0000
# 3 34.7247 52.6825 112.8618 0.0000 9.2527 0.0000
# 4 0.0000 0.0000 0.0000 37.7315 0.0000 2.0364
# 5 7.1348 3.7396 9.2527 0.0000 28.2185 0.0000
# 6 0.0000 0.0000 0.0000 2.0364 0.0000 36.1508
#
#
#
# Elastic Compliance Matrix: (Units=1/GPa)
#
#
# Indices 1 2 3 4 5 6 
#
# 1 0.016386 -0.009833 -0.000225 0.000000 -0.002766 0.000000
# 2 -0.009833 0.022290 -0.007544 0.000000 0.002006 0.000000
# 3 -0.000225 -0.007544 0.012706 0.000000 -0.003110 0.000000
# 4 0.000000 0.000000 0.000000 0.026584 0.000000 -0.001497
# 5 -0.002766 0.002006 -0.003110 0.000000 0.036891 0.000000
# 6 0.000000 0.000000 0.000000 -0.001497 0.000000 0.027746
#
#
# Mechanical properties :
#
#
# Convention : Reuss Voigt Hill
#
# Bulk Modulus (GPa) = 61.81036 63.67954 62.74495
# Shear Modulus (GPa) = 27.29265 30.59976 28.94621
#
# Velocity S-wave (km/s) = 3.55722 3.76657 3.66339
# Velocity P-wave (km/s) = 6.74752 6.95989 6.85453
#
# Compressibility (1/GPa) = 0.01617852
#
# Stress axis : x y z
#
# Youngs Moduli (GPa) = 61.02868 44.86234 78.70367
#
# Poissons Ratio (x) = 0.44114 0.01769
# Poissons Ratio (y) = 0.60010 0.59374
# Poissons Ratio (z) = 0.01372 0.33844
#
# Static dielectric constant tensor:
#      x y z
#    x 3.869060 0.000000 -0.026130 
#    y 0.000000 4.249360 0.000000 
#    z -0.026130 0.000000 3.825860 
# 
# 
# High freq. dielectric constant tensor:
#      x y z
#    x 1.850010 0.000000 -0.007270 
#    y 0.000000 1.889560 0.000000 
#    z -0.007270 0.000000 1.829070 
# 
# From -- ./inp_files/55000.got.cif
#   From: 2010.06.25/outbox.cif.g09.slc.cpg/sg11_28_cif.got.tgz:55000.got - 2010.06.27 23:14:04.
