data_PCOD8075923
_publ_section_title
;
Structure prediction by ZEFSAII (Michael W. Deem and Ramdas Pophale) SiO2 
 PCOD8075923
Probable space group: P 21/M
;
_chemical_formula_sum "Si O2"
_cell_formula_units_Z 28
_cell_length_a 14.556517
_cell_length_b 8.753481
_cell_length_c 12.601960
_cell_angle_alpha 90.000000
_cell_angle_beta 58.964231
_cell_angle_gamma 90.000000
_cell_volume 1375.874856
_symmetry_space_group_name_H-M "P 21/M"
_symmetry_group_IT_number 11
_symmetry_cell_setting 'monoclinic'
loop_
_space_group_symop_operation_xyz
x,y,z
-x,1/2+y,-z
-x,-y,-z
x,1/2-y,z
loop_
_atom_site_type_symbol
_atom_site_label
_atom_site_fract_x
_atom_site_fract_y
_atom_site_fract_z
Si Si1 0.384129 0.069779 0.083948
Si Si2 0.782425 0.430353 0.216034
Si Si3 0.009528 0.430901 0.816430
Si Si4 0.926839 0.929665 0.455108
Si Si5 0.689511 0.569200 0.641556
Si Si6 0.780048 0.568972 0.000123
Si Si7 0.603843 0.070485 0.489643
O O1 0.395187 0.250000 0.074272
O O2 0.338616 0.013277 0.223724
O O3 0.303537 0.013987 0.039875
O O4 0.500000 0.000000 0.000000
O O5 0.781460 0.250000 0.197147
O O6 0.734515 0.515099 0.140952
O O7 0.708775 0.477943 0.359635
O O8 0.903811 0.486627 0.160800
O O9 0.020951 0.250000 0.824698
O O10 0.030984 0.483542 0.683627
O O11 0.891968 0.484222 0.916841
O O12 0.929914 0.750000 0.465713
O O13 0.807479 0.991600 0.543772
O O14 0.000000 0.000000 0.500000
O O15 0.679784 0.750000 0.636261
O O16 0.609587 0.492651 0.605493
O O17 0.797290 0.750000 0.986154
O O18 0.590634 0.250000 0.500858
O O19 0.500000 0.000000 0.500000
#
# Coordination Sequence:
#
# PCOD8075923 Si02
#       7
#     4   4   4   4   4   4   4
#     4  10  24  43  65  91 123 164 208 257 309 364
#     4  11  24  42  64  93 127 165 208 256 310 369
#     4  11  22  39  63  93 126 164 207 254 310 370
#     4  10  21  36  60  90 124 162 203 252 305 365
#     4  10  21  42  65  90 125 162 204 254 308 366
#     4  11  24  42  64  91 127 168 209 256 309 370
#     4  11  25  42  65  95 126 163 207 257 312 370
#
# _framework density 20.350686
#
# number of rings (size 3 to 8) (size 9 to 14) (size 15 to 20)
#    0.000    1.429    1.429    3.000    2.000    6.286 
#    0.000    0.000    0.000    0.000    0.000    0.000 
#    0.000    0.000    0.000    0.000    0.000    0.000 
#
# Total GULP energy -347352.131984 kJ/mol
# GULP energy per Si atom -12405.433285 kJ/mol
# Density = 2.030437 g / cm^3
# Si number density = 20.350686 Si / 1000 Ang^3
#
#
#
# Elastic Constant Matrix: (Units=GPa)
#
#
# Indices 1 2 3 4 5 6 
#
# 1 144.6135 32.8181 43.2179 0.0000 21.6215 0.0000
# 2 32.8181 43.1353 31.5022 0.0000 7.8555 0.0000
# 3 43.2179 31.5022 104.7689 0.0000 23.1223 0.0000
# 4 0.0000 0.0000 0.0000 34.6230 0.0000 2.4870
# 5 21.6215 7.8555 23.1223 0.0000 43.1154 0.0000
# 6 0.0000 0.0000 0.0000 2.4870 0.0000 38.6568
#
#
#
# Elastic Compliance Matrix: (Units=1/GPa)
#
#
# Indices 1 2 3 4 5 6 
#
# 1 0.008961 -0.005204 -0.001530 0.000000 -0.002725 0.000000
# 2 -0.005204 0.032747 -0.007893 0.000000 0.000876 0.000000
# 3 -0.001530 -0.007893 0.013682 0.000000 -0.005132 0.000000
# 4 0.000000 0.000000 0.000000 0.029017 0.000000 -0.001867
# 5 -0.002725 0.000876 -0.005132 0.000000 0.027153 0.000000
# 6 0.000000 0.000000 0.000000 -0.001867 0.000000 0.025989
#
#
# Mechanical properties :
#
#
# Convention : Reuss Voigt Hill
#
# Bulk Modulus (GPa) = 38.26259 56.39935 47.33097
# Shear Modulus (GPa) = 28.48784 35.61100 32.04942
#
# Velocity S-wave (km/s) = 3.74551 4.18768 3.97275
# Velocity P-wave (km/s) = 6.12761 7.15235 6.65972
#
# Compressibility (1/GPa) = 0.02613519
#
# Stress axis : x y z
#
# Youngs Moduli (GPa) = 111.59983 30.53734 73.08825
#
# Poissons Ratio (x) = 0.15890 0.11185
# Poissons Ratio (y) = 0.58071 0.57691
# Poissons Ratio (z) = 0.17079 0.24104
#
# Static dielectric constant tensor:
#      x y z
#    x 3.843770 0.000000 0.134810 
#    y 0.000000 3.691040 0.000000 
#    z 0.134810 0.000000 3.947240 
# 
# 
# High freq. dielectric constant tensor:
#      x y z
#    x 1.806710 0.000000 0.007490 
#    y 0.000000 1.792510 0.000000 
#    z 0.007490 0.000000 1.811190 
# 
# From -- ./inp_files/37874.got.cif
#   From: 2010.06.25/outbox.cif.g09.slc.cpg/sg11_19_cif.got.tgz:37874.got - 2010.06.27 23:14:04.
