data_PCOD8075519
_publ_section_title
;
Structure prediction by ZEFSAII (Michael W. Deem and Ramdas Pophale) SiO2 
 PCOD8075519
Probable space group: P 21/M
;
_chemical_formula_sum "Si O2"
_cell_formula_units_Z 32
_cell_length_a 12.633258
_cell_length_b 8.471949
_cell_length_c 29.394996
_cell_angle_alpha 90.000000
_cell_angle_beta 29.687524
_cell_angle_gamma 90.000000
_cell_volume 1558.165916
_symmetry_space_group_name_H-M "P 21/M"
_symmetry_group_IT_number 11
_symmetry_cell_setting 'monoclinic'
loop_
_space_group_symop_operation_xyz
x,y,z
-x,1/2+y,-z
-x,-y,-z
x,1/2-y,z
loop_
_atom_site_type_symbol
_atom_site_label
_atom_site_fract_x
_atom_site_fract_y
_atom_site_fract_z
Si Si1 0.762030 0.064234 0.779648
Si Si2 0.531774 0.432589 0.537541
Si Si3 0.257526 0.562378 0.315662
Si Si4 0.981948 0.931949 0.162483
Si Si5 0.205622 0.432787 0.485850
Si Si6 0.536404 0.935057 0.291432
Si Si7 0.897885 0.068529 0.284049
Si Si8 0.449109 0.568054 0.969427
O O1 0.804323 0.250000 0.763624
O O2 0.718906 0.998207 0.744706
O O3 0.564136 0.026699 0.886318
O O4 0.974547 0.978272 0.718322
O O5 0.500000 0.500000 0.500000
O O6 0.595833 0.250000 0.513346
O O7 0.716652 0.534715 0.491879
O O8 0.309521 0.459766 0.646753
O O9 0.254192 0.750000 0.314675
O O10 0.454619 0.498920 0.272991
O O11 0.039831 0.507735 0.422709
O O12 0.943289 0.750000 0.190533
O O13 0.771678 0.004518 0.215614
O O14 0.036821 0.033253 0.187302
O O15 0.195906 0.947358 0.052485
O O16 0.226384 0.250000 0.465435
O O17 0.355201 0.531180 0.396371
O O18 0.562118 0.750000 0.277847
O O19 0.829526 0.250000 0.313250
O O20 0.524335 0.750000 0.939882
O O21 0.500000 0.500000 0.000000
#
# Coordination Sequence:
#
# PCOD8075519 Si02
#       8
#     4   4   4   4   4   4   4   4
#     4  11  22  39  61  86 120 160 201 248 300 361
#     4  12  24  38  55  81 119 160 200 243 298 358
#     4   9  21  39  60  85 117 158 202 247 300 356
#     4  10  21  37  60  86 117 152 193 242 299 356
#     4  11  21  36  58  88 120 155 200 250 297 352
#     4  10  20  39  63  86 115 158 205 248 297 354
#     4  12  23  36  58  86 119 154 195 243 297 358
#     4  11  22  37  59  89 120 155 195 246 306 365
#
# _framework density 20.536964000000001
#
# number of rings (size 3 to 8) (size 9 to 14) (size 15 to 20)
#    0.000    1.250    2.500    4.500    0.000    1.500 
#    0.000    4.375    0.000    0.000    0.000    0.000 
#    0.000    0.000    0.000    0.000    0.000    0.000 
#
# Total GULP energy -396752.329865 kJ/mol
# GULP energy per Si atom -12398.510308 kJ/mol
# Density = 2.049022 g / cm^3
# Si number density = 20.536964 Si / 1000 Ang^3
#
#
#
# Elastic Constant Matrix: (Units=GPa)
#
#
# Indices 1 2 3 4 5 6 
#
# 1 125.5299 11.8061 27.6146 0.0000 -12.9329 0.0000
# 2 11.8061 46.0933 8.3809 0.0000 -4.7965 0.0000
# 3 27.6146 8.3809 75.6500 0.0000 -10.3996 0.0000
# 4 0.0000 0.0000 0.0000 30.6633 0.0000 1.7885
# 5 -12.9329 -4.7965 -10.3996 0.0000 26.7214 0.0000
# 6 0.0000 0.0000 0.0000 1.7885 0.0000 19.1357
#
#
#
# Elastic Compliance Matrix: (Units=1/GPa)
#
#
# Indices 1 2 3 4 5 6 
#
# 1 0.009016 -0.001501 -0.002707 0.000000 0.003041 0.000000
# 2 -0.001501 0.022651 -0.001587 0.000000 0.002722 0.000000
# 3 -0.002707 -0.001587 0.014964 0.000000 0.004229 0.000000
# 4 0.000000 0.000000 0.000000 0.032791 0.000000 -0.003065
# 5 0.003041 0.002722 0.004229 0.000000 0.041029 0.000000
# 6 0.000000 0.000000 0.000000 -0.003065 0.000000 0.052545
#
#
# Mechanical properties :
#
#
# Convention : Reuss Voigt Hill
#
# Bulk Modulus (GPa) = 28.53766 38.09736 33.31751
# Shear Modulus (GPa) = 25.47547 28.60219 27.03883
#
# Velocity S-wave (km/s) = 3.52585 3.73596 3.63243
# Velocity P-wave (km/s) = 5.52281 6.09924 5.81817
#
# Compressibility (1/GPa) = 0.03504142
#
# Stress axis : x y z
#
# Youngs Moduli (GPa) = 110.91220 44.14741 66.82684
#
# Poissons Ratio (x) = 0.06625 0.18089
# Poissons Ratio (y) = 0.16645 0.10608
# Poissons Ratio (z) = 0.30023 0.07008
#
# Static dielectric constant tensor:
#      x y z
#    x 4.052290 0.000000 -0.199120 
#    y 0.000000 3.540950 0.000000 
#    z -0.199120 0.000000 3.923340 
# 
# 
# High freq. dielectric constant tensor:
#      x y z
#    x 1.804190 0.000000 -0.009130 
#    y 0.000000 1.789050 0.000000 
#    z -0.009130 0.000000 1.803530 
# 
# From -- ./inp_files/49389.got.cif
#   From: 2010.06.25/outbox.cif.g09.slc.cpg/sg11_25_cif.got.tgz:49389.got - 2010.06.27 23:14:04.
