data_PCOD8075957
_publ_section_title
;
Structure prediction by ZEFSAII (Michael W. Deem and Ramdas Pophale) SiO2 
 PCOD8075957
Probable space group: P 21/M
;
_chemical_formula_sum "Si O2"
_cell_formula_units_Z 32
_cell_length_a 11.443259
_cell_length_b 8.961908
_cell_length_c 21.582742
_cell_angle_alpha 90.000000
_cell_angle_beta 124.642151
_cell_angle_gamma 90.000000
_cell_volume 1820.991998
_symmetry_space_group_name_H-M "P 21/M"
_symmetry_group_IT_number 11
_symmetry_cell_setting 'monoclinic'
loop_
_space_group_symop_operation_xyz
x,y,z
-x,1/2+y,-z
-x,-y,-z
x,1/2-y,z
loop_
_atom_site_type_symbol
_atom_site_label
_atom_site_fract_x
_atom_site_fract_y
_atom_site_fract_z
Si Si1 0.089035 0.917764 0.939892
Si Si2 0.638573 0.921480 0.375463
Si Si3 0.074300 0.923941 0.357025
Si Si4 0.087028 0.927055 0.581822
Si Si5 0.213732 0.418109 0.085439
Si Si6 0.356870 0.076978 0.477745
Si Si7 0.953448 0.421497 0.792660
Si Si8 0.336379 0.574561 0.233922
O O1 0.142814 0.750000 0.947755
O O2 0.938853 0.925877 0.928638
O O3 0.072811 0.989997 0.867130
O O4 0.206525 0.003496 0.016167
O O5 0.662289 0.750000 0.362486
O O6 0.664462 0.940469 0.455762
O O7 0.480876 0.976728 0.310841
O O8 0.748789 0.026271 0.372640
O O9 0.078634 0.750000 0.377211
O O10 0.015486 0.945962 0.270114
O O11 0.231767 0.990025 0.405907
O O12 0.971599 0.015236 0.370749
O O13 0.069832 0.750000 0.572967
O O14 0.000000 0.000000 0.500000
O O15 0.265110 0.250000 0.090670
O O16 0.327467 0.499717 0.163615
O O17 0.357568 0.250000 0.458234
O O18 0.500000 0.000000 0.500000
O O19 0.967418 0.250000 0.816200
O O20 0.794248 0.477249 0.761807
O O21 0.334173 0.750000 0.223028
#
# Coordination Sequence:
#
# PCOD8075957 Si02
#       8
#     4   4   4   4   4   4   4   4
#     4   9  16  26  43  68  99 136 173 207 245 295
#     4  10  21  37  55  75 101 135 173 215 261 308
#     4  11  22  37  56  77 102 134 173 216 263 311
#     4  12  24  39  58  77  98 130 173 222 267 309
#     4   9  16  26  42  67 100 136 172 207 246 296
#     4  11  22  35  53  76 105 138 172 209 255 311
#     4   9  18  32  50  74 105 138 168 206 256 307
#     4   9  17  31  50  73 104 137 169 207 253 305
#
# _framework density 17.572839999999999
#
# number of rings (size 3 to 8) (size 9 to 14) (size 15 to 20)
#    0.000    2.000    1.250    3.375    0.000    7.000 
#    0.000    2.500    0.000    0.000    0.000    0.875 
#    0.000    0.000    0.000    0.000    0.000    0.000 
#
# Total GULP energy -396862.517946 kJ/mol
# GULP energy per Si atom -12401.953686 kJ/mol
# Density = 1.753284 g / cm^3
# Si number density = 17.572840 Si / 1000 Ang^3
#
#
#
# Elastic Constant Matrix: (Units=GPa)
#
#
# Indices 1 2 3 4 5 6 
#
# 1 64.0736 33.4716 10.7392 0.0000 -12.0416 0.0000
# 2 33.4716 103.6650 40.9093 0.0000 -11.3952 0.0000
# 3 10.7392 40.9093 82.8079 0.0000 -17.5899 0.0000
# 4 0.0000 0.0000 0.0000 33.7190 0.0000 -0.8498
# 5 -12.0416 -11.3952 -17.5899 0.0000 14.8933 0.0000
# 6 0.0000 0.0000 0.0000 -0.8498 0.0000 25.3074
#
#
#
# Elastic Compliance Matrix: (Units=1/GPa)
#
#
# Indices 1 2 3 4 5 6 
#
# 1 0.021690 -0.006759 0.004209 0.000000 0.017337 0.000000
# 2 -0.006759 0.014183 -0.006656 0.000000 -0.002473 0.000000
# 3 0.004209 -0.006656 0.019302 0.000000 0.021107 0.000000
# 4 0.000000 0.000000 0.000000 0.029682 0.000000 0.000997
# 5 0.017337 -0.002473 0.021107 0.000000 0.104197 0.000000
# 6 0.000000 0.000000 0.000000 0.000997 0.000000 0.039548
#
#
# Mechanical properties :
#
#
# Convention : Reuss Voigt Hill
#
# Bulk Modulus (GPa) = 27.20048 46.75405 36.97727
# Shear Modulus (GPa) = 19.28497 25.81237 22.54867
#
# Velocity S-wave (km/s) = 3.31634 3.83675 3.58600
# Velocity P-wave (km/s) = 5.49331 6.80376 6.18335
#
# Compressibility (1/GPa) = 0.03676406
#
# Stress axis : x y z
#
# Youngs Moduli (GPa) = 46.10330 70.50490 51.80794
#
# Poissons Ratio (x) = 0.47651 -0.21804
# Poissons Ratio (y) = 0.31159 0.34483
# Poissons Ratio (z) = -0.19403 0.46927
#
# Static dielectric constant tensor:
#      x y z
#    x 2.975400 0.000000 -0.068230 
#    y 0.000000 3.402940 0.000000 
#    z -0.068230 0.000000 3.352690 
# 
# 
# High freq. dielectric constant tensor:
#      x y z
#    x 1.638750 0.000000 -0.008290 
#    y 0.000000 1.689690 0.000000 
#    z -0.008290 0.000000 1.684490 
# 
# From -- ./inp_files/40607.got.cif
#   From: 2010.06.25/outbox.cif.g09.slc.cpg/sg11_21_cif.got.tgz:40607.got - 2010.06.27 23:14:04.
