data_PCOD8075026
_publ_section_title
;
Structure prediction by ZEFSAII (Michael W. Deem and Ramdas Pophale) SiO2 
 PCOD8075026
Probable space group: P 21/M
;
_chemical_formula_sum "Si O2"
_cell_formula_units_Z 32
_cell_length_a 21.232808
_cell_length_b 8.759106
_cell_length_c 27.228762
_cell_angle_alpha 90.000000
_cell_angle_beta 18.894241
_cell_angle_gamma 90.000000
_cell_volume 1639.841577
_symmetry_space_group_name_H-M "P 21/M"
_symmetry_group_IT_number 11
_symmetry_cell_setting 'monoclinic'
loop_
_space_group_symop_operation_xyz
x,y,z
-x,1/2+y,-z
-x,-y,-z
x,1/2-y,z
loop_
_atom_site_type_symbol
_atom_site_label
_atom_site_fract_x
_atom_site_fract_y
_atom_site_fract_z
Si Si1 0.309821 0.427805 0.118651
Si Si2 0.991840 0.930030 0.930868
Si Si3 0.739526 0.930569 0.457945
Si Si4 0.701045 0.430166 0.216128
Si Si5 0.021834 0.068566 0.169734
Si Si6 0.599229 0.573749 0.059382
Si Si7 0.819123 0.431177 0.603949
Si Si8 0.086970 0.069984 0.566184
O O1 0.291217 0.250000 0.146272
O O2 0.137229 0.523506 0.269700
O O3 0.500000 0.500000 0.000000
O O4 0.310790 0.454373 0.060120
O O5 0.967368 0.750000 0.950658
O O6 0.176913 0.984713 0.826301
O O7 0.024894 0.986753 0.850917
O O8 0.794108 0.000794 0.098213
O O9 0.755065 0.750000 0.441901
O O10 0.518480 0.989301 0.615904
O O11 0.818053 0.985292 0.452880
O O12 0.860566 0.002520 0.324727
O O13 0.705241 0.250000 0.207331
O O14 0.016020 0.250000 0.179360
O O15 0.238103 0.005835 0.023629
O O16 0.571147 0.750000 0.092045
O O17 0.383514 0.502184 0.223942
O O18 0.835669 0.250000 0.595989
O O19 0.810634 0.482011 0.553720
O O20 0.000000 0.500000 0.500000
O O21 0.108338 0.250000 0.542446
#
# Coordination Sequence:
#
# PCOD8075026 Si02
#       8
#     4   4   4   4   4   4   4   4
#     4  11  21  37  61  85 111 148 187 233 287 340
#     4   9  19  35  59  87 114 148 190 233 278 334
#     4  10  22  38  56  81 117 155 190 233 282 333
#     4   9  19  37  57  83 119 153 186 229 282 334
#     4  10  20  37  58  83 113 146 189 238 282 335
#     4   9  20  37  56  80 111 143 181 232 285 331
#     4  11  23  40  61  85 113 148 187 238 294 346
#     4  11  23  39  56  82 116 152 193 235 277 337
#
# _framework density 19.51408
#
# number of rings (size 3 to 8) (size 9 to 14) (size 15 to 20)
#    0.000    2.000    1.250    1.875    1.750    3.000 
#    0.000    3.125    0.000    0.000    0.000    0.000 
#    0.000    0.000    0.000    0.000    0.000    0.000 
#
# Total GULP energy -396806.892516 kJ/mol
# GULP energy per Si atom -12400.215391 kJ/mol
# Density = 1.946967 g / cm^3
# Si number density = 19.514080 Si / 1000 Ang^3
#
#
#
# Elastic Constant Matrix: (Units=GPa)
#
#
# Indices 1 2 3 4 5 6 
#
# 1 109.9300 28.3135 45.1682 0.0000 -1.1938 0.0000
# 2 28.3135 36.4495 23.8519 0.0000 3.4769 0.0000
# 3 45.1682 23.8519 131.6797 0.0000 -5.0637 0.0000
# 4 0.0000 0.0000 0.0000 29.5674 0.0000 4.6389
# 5 -1.1938 3.4769 -5.0637 0.0000 30.3204 0.0000
# 6 0.0000 0.0000 0.0000 4.6389 0.0000 26.7983
#
#
#
# Elastic Compliance Matrix: (Units=1/GPa)
#
#
# Indices 1 2 3 4 5 6 
#
# 1 0.012246 -0.007799 -0.002753 0.000000 0.000917 0.000000
# 2 -0.007799 0.036725 -0.004178 0.000000 -0.005216 0.000000
# 3 -0.002753 -0.004178 0.009370 0.000000 0.001935 0.000000
# 4 0.000000 0.000000 0.000000 0.034765 0.000000 -0.006018
# 5 0.000917 -0.005216 0.001935 0.000000 0.033939 0.000000
# 6 0.000000 0.000000 0.000000 -0.006018 0.000000 0.038358
#
#
# Mechanical properties :
#
#
# Convention : Reuss Voigt Hill
#
# Bulk Modulus (GPa) = 34.62359 52.52515 43.57437
# Shear Modulus (GPa) = 24.45133 29.38560 26.91847
#
# Velocity S-wave (km/s) = 3.54363 3.88476 3.71811
# Velocity P-wave (km/s) = 5.87575 6.86271 6.38832
#
# Compressibility (1/GPa) = 0.02888204
#
# Stress axis : x y z
#
# Youngs Moduli (GPa) = 81.65657 27.22965 106.72843
#
# Poissons Ratio (x) = 0.21236 0.29380
# Poissons Ratio (y) = 0.63683 0.44587
# Poissons Ratio (z) = 0.22478 0.11375
#
# Static dielectric constant tensor:
#      x y z
#    x 4.181770 0.000000 0.253140 
#    y 0.000000 3.453150 0.000000 
#    z 0.253140 0.000000 4.047810 
# 
# 
# High freq. dielectric constant tensor:
#      x y z
#    x 1.770670 0.000000 -0.002490 
#    y 0.000000 1.743200 0.000000 
#    z -0.002490 0.000000 1.771560 
# 
# From -- ./inp_files/72007.got.cif
#   From: 2010.06.25/outbox.cif.g09.slc.cpg/sg11_37_cif.got.tgz:72007.got - 2010.06.27 23:14:04.
