data_PCOD8075587
_publ_section_title
;
Structure prediction by ZEFSAII (Michael W. Deem and Ramdas Pophale) SiO2 
 PCOD8075587
Probable space group: P 21/M
;
_chemical_formula_sum "Si O2"
_cell_formula_units_Z 24
_cell_length_a 12.875527
_cell_length_b 9.554763
_cell_length_c 9.987223
_cell_angle_alpha 90.000000
_cell_angle_beta 100.888831
_cell_angle_gamma 90.000000
_cell_volume 1206.532993
_symmetry_space_group_name_H-M "P 21/M"
_symmetry_group_IT_number 11
_symmetry_cell_setting 'monoclinic'
loop_
_space_group_symop_operation_xyz
x,y,z
-x,1/2+y,-z
-x,-y,-z
x,1/2-y,z
loop_
_atom_site_type_symbol
_atom_site_label
_atom_site_fract_x
_atom_site_fract_y
_atom_site_fract_z
Si Si1 0.735663 0.540838 0.961175
Si Si2 0.737860 0.960091 0.655105
Si Si3 0.359583 0.750000 0.366235
Si Si4 0.556167 0.750000 0.916589
Si Si5 0.037385 0.087541 0.382948
Si Si6 0.641467 0.250000 0.938058
Si Si7 0.957131 0.911669 0.113440
Si Si8 0.441334 0.250000 0.393201
O O1 0.766744 0.575404 0.815709
O O2 0.625447 0.614732 0.970546
O O3 0.719398 0.378087 0.982269
O O4 0.829735 0.595210 0.077873
O O5 0.834961 0.908896 0.588483
O O6 0.629067 0.884636 0.588327
O O7 0.718608 0.122423 0.626287
O O8 0.404232 0.750000 0.224813
O O9 0.456694 0.750000 0.490169
O O10 0.522032 0.750000 0.752658
O O11 0.453340 0.750000 0.981450
O O12 0.997039 0.250000 0.375015
O O13 0.000000 0.000000 0.500000
O O14 0.992925 0.998875 0.249410
O O15 0.999945 0.750000 0.126446
O O16 0.000000 0.000000 0.000000
#
# Coordination Sequence:
#
# PCOD8075587 Si02
#       8
#     4   4   2   2   4   2   4   2
#     4  10  21  39  64  93 129 167 211 259 326 386
#     4  10  21  40  66  88 128 170 210 263 326 386
#     4  10  22  38  62  92 120 166 220 262 305 394
#     4  10  20  40  62  87 130 166 204 265 329 376
#     4  12  27  47  68  96 137 175 218 275 340 391
#     4  10  22  38  60  91 128 166 206 267 321 378
#     4  12  25  41  72 102 131 171 227 274 320 401
#     4  10  20  40  64  88 120 168 218 258 319 386
#
# _framework density 19.891708000000001
#
# number of rings (size 3 to 8) (size 9 to 14) (size 15 to 20)
#    0.000    1.333    3.333    2.000    4.667    0.000 
#    6.000    0.000    0.000    0.000    0.000    0.000 
#    0.000    0.000    0.000    0.000    0.000    0.000 
#
# Total GULP energy -297586.996422 kJ/mol
# GULP energy per Si atom -12399.458184 kJ/mol
# Density = 1.984643 g / cm^3
# Si number density = 19.891708 Si / 1000 Ang^3
#
#
#
# Elastic Constant Matrix: (Units=GPa)
#
#
# Indices 1 2 3 4 5 6 
#
# 1 84.1677 22.1818 44.1149 0.0000 -7.8921 0.0000
# 2 22.1818 170.6249 47.6596 0.0000 -3.9804 0.0000
# 3 44.1149 47.6596 107.2204 0.0000 -0.6078 0.0000
# 4 0.0000 0.0000 0.0000 3.8971 0.0000 -89.0729
# 5 -7.8921 -3.9804 -0.6078 0.0000 39.6780 0.0000
# 6 0.0000 0.0000 0.0000 -89.0729 0.0000 -626.7019
#
#
#
# Elastic Compliance Matrix: (Units=1/GPa)
#
#
# Indices 1 2 3 4 5 6 
#
# 1 0.015499 -0.000193 -0.006274 0.000000 0.002967 0.000000
# 2 -0.000193 0.006710 -0.002900 0.000000 0.000590 0.000000
# 3 -0.006274 -0.002900 0.013189 0.000000 -0.001337 0.000000
# 4 0.000000 0.000000 0.000000 0.060397 0.000000 -0.008584
# 5 0.002967 0.000590 -0.001337 0.000000 0.025832 0.000000
# 6 0.000000 0.000000 0.000000 -0.008584 0.000000 -0.000376
#
#
# Mechanical properties :
#
#
# Convention : Reuss Voigt Hill
#
# Bulk Modulus (GPa) = 60.01023 65.54729 62.77876
# Shear Modulus (GPa) = 34.35496 -100.08825 -32.86664
#
# Velocity S-wave (km/s) = 4.16035 -7.10111 -4.06923
# Velocity P-wave (km/s) = 7.30150 5.84900 3.09040
#
# Compressibility (1/GPa) = 0.01666383
#
# Stress axis : x y z
#
# Youngs Moduli (GPa) = 64.52192 149.03967 75.81898
#
# Poissons Ratio (x) = 0.02879 0.47570
# Poissons Ratio (y) = 0.01246 0.21985
# Poissons Ratio (z) = 0.40482 0.43216
#
# Static dielectric constant tensor:
#      x y z
#    x 3.529910 0.000000 0.049430 
#    y 0.000000 3.553610 0.000000 
#    z 0.049430 0.000000 3.381590 
# 
# 
# High freq. dielectric constant tensor:
#      x y z
#    x 1.774190 0.000000 0.005220 
#    y 0.000000 1.804170 0.000000 
#    z 0.005220 0.000000 1.756510 
# 
# From -- ./inp_files/20666.got.cif
#   From: 2010.06.25/outbox.cif.g09.slc.cpg/sg11_11_cif.got.tgz:20666.got - 2010.06.27 23:14:04.
