data_PCOD8075592
_publ_section_title
;
Structure prediction by ZEFSAII (Michael W. Deem and Ramdas Pophale) SiO2 
 PCOD8075592
Probable space group: P 21/M
;
_chemical_formula_sum "Si O2"
_cell_formula_units_Z 28
_cell_length_a 12.460718
_cell_length_b 8.827389
_cell_length_c 14.411155
_cell_angle_alpha 90.000000
_cell_angle_beta 61.395927
_cell_angle_gamma 90.000000
_cell_volume 1391.692808
_symmetry_space_group_name_H-M "P 21/M"
_symmetry_group_IT_number 11
_symmetry_cell_setting 'monoclinic'
loop_
_space_group_symop_operation_xyz
x,y,z
-x,1/2+y,-z
-x,-y,-z
x,1/2-y,z
loop_
_atom_site_type_symbol
_atom_site_label
_atom_site_fract_x
_atom_site_fract_y
_atom_site_fract_z
Si Si1 0.954891 0.928550 0.792356
Si Si2 0.642192 0.070665 0.694027
Si Si3 0.454642 0.071974 0.612481
Si Si4 0.103250 0.069600 0.393296
Si Si5 0.227640 0.072875 0.972445
Si Si6 0.519729 0.429066 0.090385
Si Si7 0.187739 0.426344 0.780948
O O1 0.961983 0.750000 0.796101
O O2 0.915461 0.981224 0.706066
O O3 0.088424 0.990759 0.759484
O O4 0.857770 0.988641 0.908967
O O5 0.649709 0.250000 0.705772
O O6 0.551446 0.024414 0.649741
O O7 0.773804 0.002217 0.617004
O O8 0.595076 0.989331 0.805191
O O9 0.449663 0.250000 0.602197
O O10 0.321036 0.010564 0.696777
O O11 0.500000 0.000000 0.500000
O O12 0.105099 0.250000 0.401826
O O13 0.000000 0.000000 0.500000
O O14 0.258781 0.250000 0.971882
O O15 0.162769 0.042717 0.900415
O O16 0.353242 0.981709 0.918294
O O17 0.514765 0.250000 0.086885
O O18 0.500000 0.500000 0.000000
O O19 0.178342 0.250000 0.762787
#
# Coordination Sequence:
#
# PCOD8075592 Si02
#       7
#     4   4   4   4   4   4   4
#     4  10  23  40  62  90 123 163 208 258 309 370
#     4  11  23  44  68  93 127 163 207 264 319 373
#     4  10  23  41  63  93 126 164 206 258 316 374
#     4  11  25  44  64  92 125 165 215 262 316 374
#     4  10  20  40  63  89 127 163 202 259 316 369
#     4  12  24  38  62  94 127 167 210 256 311 376
#     4  10  21  39  63  92 127 164 202 252 316 376
#
# _framework density 20.119381000000001
#
# number of rings (size 3 to 8) (size 9 to 14) (size 15 to 20)
#    0.000    1.429    1.429    3.429    2.000    5.143 
#    0.000    0.000    0.000    0.000    0.000    0.000 
#    0.000    0.000    0.000    0.000    0.000    0.000 
#
# Total GULP energy -347313.348976 kJ/mol
# GULP energy per Si atom -12404.048178 kJ/mol
# Density = 2.007359 g / cm^3
# Si number density = 20.119381 Si / 1000 Ang^3
#
#
#
# Elastic Constant Matrix: (Units=GPa)
#
#
# Indices 1 2 3 4 5 6 
#
# 1 103.6870 32.0401 36.0066 0.0000 -21.0523 0.0000
# 2 32.0401 59.3143 34.3182 0.0000 -3.2393 0.0000
# 3 36.0066 34.3182 136.1777 0.0000 -12.2637 0.0000
# 4 0.0000 0.0000 0.0000 36.2315 0.0000 -1.5239
# 5 -21.0523 -3.2393 -12.2637 0.0000 37.0516 0.0000
# 6 0.0000 0.0000 0.0000 -1.5239 0.0000 38.8357
#
#
#
# Elastic Compliance Matrix: (Units=1/GPa)
#
#
# Indices 1 2 3 4 5 6 
#
# 1 0.013333 -0.006025 -0.001415 0.000000 0.006581 0.000000
# 2 -0.006025 0.022460 -0.004328 0.000000 -0.002892 0.000000
# 3 -0.001415 -0.004328 0.008969 0.000000 0.001787 0.000000
# 4 0.000000 0.000000 0.000000 0.027646 0.000000 0.001085
# 5 0.006581 -0.002892 0.001787 0.000000 0.031067 0.000000
# 6 0.000000 0.000000 0.000000 0.001085 0.000000 0.025792
#
#
# Mechanical properties :
#
#
# Convention : Reuss Voigt Hill
#
# Bulk Modulus (GPa) = 47.10635 55.98984 51.54810
# Shear Modulus (GPa) = 31.27418 35.54472 33.40945
#
# Velocity S-wave (km/s) = 3.94690 4.20776 4.07942
# Velocity P-wave (km/s) = 6.65094 7.17609 6.91850
#
# Compressibility (1/GPa) = 0.02122856
#
# Stress axis : x y z
#
# Youngs Moduli (GPa) = 74.99941 44.52454 111.49717
#
# Poissons Ratio (x) = 0.26824 0.15772
# Poissons Ratio (y) = 0.45184 0.48251
# Poissons Ratio (z) = 0.10609 0.19268
#
# Static dielectric constant tensor:
#      x y z
#    x 3.765140 0.000000 0.032660 
#    y 0.000000 3.672250 0.000000 
#    z 0.032660 0.000000 3.839160 
# 
# 
# High freq. dielectric constant tensor:
#      x y z
#    x 1.797920 0.000000 -0.001400 
#    y 0.000000 1.780110 0.000000 
#    z -0.001400 0.000000 1.800060 
# 
# From -- ./inp_files/37889.got.cif
#   From: 2010.06.25/outbox.cif.g09.slc.cpg/sg11_19_cif.got.tgz:37889.got - 2010.06.27 23:14:04.
