data_PCOD8075585
_publ_section_title
;
Structure prediction by ZEFSAII (Michael W. Deem and Ramdas Pophale) SiO2 
 PCOD8075585
Probable space group: P 21/M
;
_chemical_formula_sum "Si O2"
_cell_formula_units_Z 28
_cell_length_a 28.761136
_cell_length_b 9.264454
_cell_length_c 9.528342
_cell_angle_alpha 90.000000
_cell_angle_beta 34.134873
_cell_angle_gamma 90.000000
_cell_volume 1424.677827
_symmetry_space_group_name_H-M "P 21/M"
_symmetry_group_IT_number 11
_symmetry_cell_setting 'monoclinic'
loop_
_space_group_symop_operation_xyz
x,y,z
-x,1/2+y,-z
-x,-y,-z
x,1/2-y,z
loop_
_atom_site_type_symbol
_atom_site_label
_atom_site_fract_x
_atom_site_fract_y
_atom_site_fract_z
Si Si1 0.689423 0.081621 0.464726
Si Si2 0.393000 0.583049 0.036910
Si Si3 0.139060 0.417530 0.318774
Si Si4 0.854455 0.916876 0.017485
Si Si5 0.683464 0.588558 0.008816
Si Si6 0.009339 0.919765 0.829186
Si Si7 0.422511 0.415378 0.466350
O O1 0.701354 0.250000 0.406855
O O2 0.633936 0.050181 0.738642
O O3 0.779066 0.012149 0.261296
O O4 0.642747 0.012214 0.451721
O O5 0.393048 0.750000 0.999502
O O6 0.326358 0.512046 0.100767
O O7 0.485454 0.520438 0.783773
O O8 0.117534 0.250000 0.401513
O O9 0.087735 0.517750 0.551238
O O10 0.119634 0.459148 0.205994
O O11 0.235291 0.452451 0.105522
O O12 0.827253 0.750000 0.089118
O O13 0.929485 0.949979 0.933831
O O14 0.692310 0.750000 0.928295
O O15 0.602358 0.574495 0.308767
O O16 0.022444 0.750000 0.823158
O O17 0.000000 0.000000 0.000000
O O18 0.417095 0.250000 0.425619
#
# Coordination Sequence:
#
# PCOD8075585 Si02
#       7
#     4   4   4   4   4   4   4
#     4  11  23  37  58  91 122 154 201 252 298 349
#     4  10  23  38  56  86 124 160 200 252 302 351
#     4  10  21  41  65  90 120 155 202 249 293 355
#     4  10  22  43  66  87 118 161 202 240 296 361
#     4  10  21  37  61  88 116 158 204 246 298 356
#     4  11  25  42  65  95 125 159 195 240 298 356
#     4  10  20  40  62  83 118 162 203 247 301 357
#
# _framework density 19.653566999999999
#
# number of rings (size 3 to 8) (size 9 to 14) (size 15 to 20)
#    0.000    1.714    1.429    2.143    2.000    4.571 
#    0.000    0.000    0.000    0.000    0.000    0.000 
#    0.000    0.000    0.000    0.000    0.000    0.000 
#
# Total GULP energy -347319.752698 kJ/mol
# GULP energy per Si atom -12404.276882 kJ/mol
# Density = 1.960884 g / cm^3
# Si number density = 19.653567 Si / 1000 Ang^3
#
#
#
# Elastic Constant Matrix: (Units=GPa)
#
#
# Indices 1 2 3 4 5 6 
#
# 1 86.5535 37.0892 30.3838 0.0000 0.3541 0.0000
# 2 37.0892 71.7481 52.8024 0.0000 1.8217 0.0000
# 3 30.3838 52.8024 97.6835 0.0000 -11.3698 0.0000
# 4 0.0000 0.0000 0.0000 36.2148 0.0000 0.2965
# 5 0.3541 1.8217 -11.3698 0.0000 18.9135 0.0000
# 6 0.0000 0.0000 0.0000 0.2965 0.0000 30.5319
#
#
#
# Elastic Compliance Matrix: (Units=1/GPa)
#
#
# Indices 1 2 3 4 5 6 
#
# 1 0.014877 -0.007102 -0.000797 0.000000 -0.000074 0.000000
# 2 -0.007102 0.028645 -0.014602 0.000000 -0.011404 0.000000
# 3 -0.000797 -0.014602 0.019939 0.000000 0.013407 0.000000
# 4 0.000000 0.000000 0.000000 0.027615 0.000000 -0.000268
# 5 -0.000074 -0.011404 0.013407 0.000000 0.062032 0.000000
# 6 0.000000 0.000000 0.000000 -0.000268 0.000000 0.032755
#
#
# Mechanical properties :
#
#
# Convention : Reuss Voigt Hill
#
# Bulk Modulus (GPa) = 54.17660 55.17065 54.67362
# Shear Modulus (GPa) = 21.09543 26.17934 23.63738
#
# Velocity S-wave (km/s) = 3.27978 3.65367 3.47176
# Velocity P-wave (km/s) = 6.47829 6.77729 6.62947
#
# Compressibility (1/GPa) = 0.01845815
#
# Stress axis : x y z
#
# Youngs Moduli (GPa) = 67.21818 34.91022 50.15362
#
# Poissons Ratio (x) = 0.24793 0.03997
# Poissons Ratio (y) = 0.47739 0.73235
# Poissons Ratio (z) = 0.05357 0.50977
#
# Static dielectric constant tensor:
#      x y z
#    x 3.552790 0.000000 -0.061780 
#    y 0.000000 3.571690 0.000000 
#    z -0.061780 0.000000 3.664960 
# 
# 
# High freq. dielectric constant tensor:
#      x y z
#    x 1.771370 0.000000 -0.000650 
#    y 0.000000 1.763190 0.000000 
#    z -0.000650 0.000000 1.775380 
# 
# From -- ./inp_files/26179.got.cif
#   From: 2010.06.25/outbox.cif.g09.slc.cpg/sg11_14_cif.got.tgz:26179.got - 2010.06.27 23:14:04.
