data_PCOD8075268
_publ_section_title
;
Structure prediction by ZEFSAII (Michael W. Deem and Ramdas Pophale) SiO2 
 PCOD8075268
Probable space group: P 21/M
;
_chemical_formula_sum "Si O2"
_cell_formula_units_Z 32
_cell_length_a 12.656628
_cell_length_b 14.123762
_cell_length_c 18.628406
_cell_angle_alpha 90.000000
_cell_angle_beta 27.629657
_cell_angle_gamma 90.000000
_cell_volume 1544.302623
_symmetry_space_group_name_H-M "P 21/M"
_symmetry_group_IT_number 11
_symmetry_cell_setting 'monoclinic'
loop_
_space_group_symop_operation_xyz
x,y,z
-x,1/2+y,-z
-x,-y,-z
x,1/2-y,z
loop_
_atom_site_type_symbol
_atom_site_label
_atom_site_fract_x
_atom_site_fract_y
_atom_site_fract_z
Si Si1 0.666282 0.142000 0.537951
Si Si2 0.928598 0.859750 0.459462
Si Si3 0.371051 0.640913 0.277154
Si Si4 0.580041 0.643794 0.452307
Si Si5 0.834549 0.142405 0.197636
Si Si6 0.050940 0.022263 0.690511
Si Si7 0.421326 0.639703 0.794703
Si Si8 0.238474 0.015566 0.004283
O O1 0.756109 0.250000 0.483745
O O2 0.588946 0.112001 0.664108
O O3 0.447284 0.130557 0.617233
O O4 0.874474 0.077940 0.386758
O O5 0.905574 0.750000 0.454323
O O6 0.013118 0.909107 0.335910
O O7 0.682450 0.897306 0.633790
O O8 0.109094 0.879499 0.413855
O O9 0.432162 0.750000 0.226769
O O10 0.534635 0.578454 0.129224
O O11 0.667292 0.750000 0.418468
O O12 0.328183 0.628467 0.636017
O O13 0.750714 0.566526 0.379650
O O14 0.927203 0.250000 0.138094
O O15 0.688621 0.117372 0.215660
O O16 0.045172 0.071880 0.077090
O O17 0.830404 0.006182 0.872486
O O18 0.408380 0.750000 0.822655
O O19 0.284825 0.584062 0.937779
#
# Coordination Sequence:
#
# PCOD8075268 Si02
#       8
#     4   4   4   4   4   4   4   4
#     4  10  22  39  61  88 122 164 210 253 292 355
#     4  10  22  45  71  88 114 161 215 258 295 356
#     4  10  24  45  66  90 119 160 210 255 304 361
#     4  10  20  37  62  92 125 161 208 254 299 359
#     4  10  20  38  62  89 126 166 204 248 306 365
#     4  12  23  36  64  94 124 160 204 251 310 366
#     4  10  22  40  62  90 124 166 209 254 302 356
#     4  12  25  36  59  93 134 163 191 250 316 376
#
# _framework density 20.721326000000001
#
# number of rings (size 3 to 8) (size 9 to 14) (size 15 to 20)
#    0.000    1.500    2.500    2.250    0.000    5.000 
#    0.000    2.500    0.000    3.000    0.000    0.000 
#    0.000    0.000    0.000    0.000    0.000    0.000 
#
# Total GULP energy -396956.974074 kJ/mol
# GULP energy per Si atom -12404.905440 kJ/mol
# Density = 2.067416 g / cm^3
# Si number density = 20.721326 Si / 1000 Ang^3
#
#
#
# Elastic Constant Matrix: (Units=GPa)
#
#
# Indices 1 2 3 4 5 6 
#
# 1 79.1940 33.5079 31.7767 0.0000 5.5436 0.0000
# 2 33.5079 88.4639 51.8318 0.0000 5.0657 0.0000
# 3 31.7767 51.8318 106.9975 0.0000 10.7031 0.0000
# 4 0.0000 0.0000 0.0000 38.2572 0.0000 1.6775
# 5 5.5436 5.0657 10.7031 0.0000 30.9936 0.0000
# 6 0.0000 0.0000 0.0000 1.6775 0.0000 24.0654
#
#
#
# Elastic Compliance Matrix: (Units=1/GPa)
#
#
# Indices 1 2 3 4 5 6 
#
# 1 0.015532 -0.004443 -0.002336 0.000000 -0.001245 0.000000
# 2 -0.004443 0.017055 -0.006984 0.000000 0.000419 0.000000
# 3 -0.002336 -0.006984 0.013742 0.000000 -0.003186 0.000000
# 4 0.000000 0.000000 0.000000 0.026219 0.000000 -0.001828
# 5 -0.001245 0.000419 -0.003186 0.000000 0.033519 0.000000
# 6 0.000000 0.000000 0.000000 -0.001828 0.000000 0.041681
#
#
# Mechanical properties :
#
#
# Convention : Reuss Voigt Hill
#
# Bulk Modulus (GPa) = 53.18529 56.54312 54.86420
# Shear Modulus (GPa) = 27.54199 29.16585 28.35392
#
# Velocity S-wave (km/s) = 3.64972 3.75577 3.70313
# Velocity P-wave (km/s) = 6.59419 6.79370 6.69469
#
# Compressibility (1/GPa) = 0.01880219
#
# Stress axis : x y z
#
# Youngs Moduli (GPa) = 64.38512 58.63342 72.77117
#
# Poissons Ratio (x) = 0.26052 0.16997
# Poissons Ratio (y) = 0.28607 0.50825
# Poissons Ratio (z) = 0.15039 0.40951
#
# Static dielectric constant tensor:
#      x y z
#    x 3.727170 0.000000 0.105450 
#    y 0.000000 3.941150 0.000000 
#    z 0.105450 0.000000 3.609590 
# 
# 
# High freq. dielectric constant tensor:
#      x y z
#    x 1.804990 0.000000 0.008000 
#    y 0.000000 1.832020 0.000000 
#    z 0.008000 0.000000 1.791600 
# 
# From -- ./inp_files/59443.got.cif
#   From: 2010.06.25/outbox.cif.g09.slc.cpg/sg11_30_cif.got.tgz:59443.got - 2010.06.27 23:14:04.
