data_PCOD8075398
_publ_section_title
;
Structure prediction by ZEFSAII (Michael W. Deem and Ramdas Pophale) SiO2 
 PCOD8075398
Probable space group: P 21/M
;
_chemical_formula_sum "Si O2"
_cell_formula_units_Z 28
_cell_length_a 14.055743
_cell_length_b 20.024099
_cell_length_c 9.331921
_cell_angle_alpha 90.000000
_cell_angle_beta 147.912339
_cell_angle_gamma 90.000000
_cell_volume 1395.240590
_symmetry_space_group_name_H-M "P 21/M"
_symmetry_group_IT_number 11
_symmetry_cell_setting 'monoclinic'
loop_
_space_group_symop_operation_xyz
x,y,z
-x,1/2+y,-z
-x,-y,-z
x,1/2-y,z
loop_
_atom_site_type_symbol
_atom_site_label
_atom_site_fract_x
_atom_site_fract_y
_atom_site_fract_z
Si Si1 0.277242 0.823639 0.631109
Si Si2 0.511741 0.498256 0.683204
Si Si3 0.233093 0.936672 0.785652
Si Si4 0.112223 0.174780 0.980639
Si Si5 0.859901 0.575277 0.446759
Si Si6 0.864881 0.943887 0.770025
Si Si7 0.373649 0.359485 0.062948
O O1 0.257017 0.750000 0.673688
O O2 0.324104 0.876947 0.813092
O O3 0.090836 0.844218 0.319287
O O4 0.439717 0.820730 0.723085
O O5 0.500000 0.500000 0.500000
O O6 0.318554 0.481677 0.498984
O O7 0.653303 0.443997 0.922959
O O8 0.582214 0.568366 0.823211
O O9 0.030337 0.918673 0.561724
O O10 0.236509 0.003450 0.693644
O O11 0.118187 0.250000 0.054708
O O12 0.245842 0.176135 0.015360
O O13 0.168930 0.117924 0.166029
O O14 0.924373 0.586193 0.692559
O O15 0.727919 0.633374 0.220316
O O16 0.000000 0.000000 0.000000
#
# Coordination Sequence:
#
# PCOD8075398 Si02
#       7
#     4   4   4   4   4   4   4
#     4  11  23  40  63  90 122 166 212 252 302 376
#     4  11  21  35  61  93 125 156 204 260 317 371
#     4  10  20  38  61  93 126 153 206 261 312 361
#     4  11  24  43  63  89 128 168 209 260 319 378
#     4  10  21  36  66  93 118 160 204 262 313 364
#     4  12  23  38  61  96 130 167 206 264 319 376
#     4  11  21  41  67  92 119 165 212 256 312 377
#
# _framework density 20.068225000000002
#
# number of rings (size 3 to 8) (size 9 to 14) (size 15 to 20)
#    0.000    1.143    2.857    4.714    2.000    2.286 
#    0.000    4.286    0.000    0.000    0.000    0.000 
#    0.000    0.000    0.000    0.000    0.000    0.000 
#
# Total GULP energy -347144.225796 kJ/mol
# GULP energy per Si atom -12398.008064 kJ/mol
# Density = 2.002255 g / cm^3
# Si number density = 20.068225 Si / 1000 Ang^3
#
#
#
# Elastic Constant Matrix: (Units=GPa)
#
#
# Indices 1 2 3 4 5 6 
#
# 1 95.3419 24.9449 34.0674 0.0000 -2.8858 0.0000
# 2 24.9449 63.9091 19.4449 0.0000 -5.9006 0.0000
# 3 34.0674 19.4449 99.2598 0.0000 1.4330 0.0000
# 4 0.0000 0.0000 0.0000 14.7009 0.0000 5.5909
# 5 -2.8858 -5.9006 1.4330 0.0000 44.9666 0.0000
# 6 0.0000 0.0000 0.0000 5.5909 0.0000 6.5389
#
#
#
# Elastic Compliance Matrix: (Units=1/GPa)
#
#
# Indices 1 2 3 4 5 6 
#
# 1 0.012813 -0.003851 -0.003650 0.000000 0.000433 0.000000
# 2 -0.003851 0.018035 -0.002243 0.000000 0.002191 0.000000
# 3 -0.003650 -0.002243 0.011780 0.000000 -0.000904 0.000000
# 4 0.000000 0.000000 0.000000 0.100801 0.000000 -0.086187
# 5 0.000433 0.002191 -0.000904 0.000000 0.022583 0.000000
# 6 0.000000 0.000000 0.000000 -0.086187 0.000000 0.226623
#
#
# Mechanical properties :
#
#
# Convention : Reuss Voigt Hill
#
# Bulk Modulus (GPa) = 43.21326 46.15836 44.68581
# Shear Modulus (GPa) = 11.90944 25.24485 18.57715
#
# Velocity S-wave (km/s) = 2.43872 3.55061 3.04583
# Velocity P-wave (km/s) = 5.43229 6.31346 5.88938
#
# Compressibility (1/GPa) = 0.02314105
#
# Stress axis : x y z
#
# Youngs Moduli (GPa) = 78.04412 55.44766 84.89239
#
# Poissons Ratio (x) = 0.21352 0.30982
# Poissons Ratio (y) = 0.30053 0.19042
# Poissons Ratio (z) = 0.28483 0.12437
#
# Static dielectric constant tensor:
#      x y z
#    x 3.805670 0.000000 -0.066580 
#    y 0.000000 3.581720 0.000000 
#    z -0.066580 0.000000 3.138320 
# 
# 
# High freq. dielectric constant tensor:
#      x y z
#    x 1.787270 0.000000 0.014560 
#    y 0.000000 1.770650 0.000000 
#    z 0.014560 0.000000 1.788130 
# 
# From -- ./inp_files/23232.got.cif
#   From: 2010.06.25/outbox.cif.g09.slc.cpg/sg11_12_cif.got.tgz:23232.got - 2010.06.27 23:14:04.
