data_PCOD8075774
_publ_section_title
;
Structure prediction by ZEFSAII (Michael W. Deem and Ramdas Pophale) SiO2 
 PCOD8075774
Probable space group: P 21/M
;
_chemical_formula_sum "Si O2"
_cell_formula_units_Z 32
_cell_length_a 21.440396
_cell_length_b 9.033108
_cell_length_c 21.403628
_cell_angle_alpha 90.000000
_cell_angle_beta 153.886002
_cell_angle_gamma 90.000000
_cell_volume 1824.595278
_symmetry_space_group_name_H-M "P 21/M"
_symmetry_group_IT_number 11
_symmetry_cell_setting 'monoclinic'
loop_
_space_group_symop_operation_xyz
x,y,z
-x,1/2+y,-z
-x,-y,-z
x,1/2-y,z
loop_
_atom_site_type_symbol
_atom_site_label
_atom_site_fract_x
_atom_site_fract_y
_atom_site_fract_z
Si Si1 0.681332 0.076622 0.496488
Si Si2 0.451164 0.578414 0.748666
Si Si3 0.597258 0.420672 0.161105
Si Si4 0.383762 0.423258 0.437650
Si Si5 0.063127 0.423085 0.117051
Si Si6 0.238457 0.075143 0.935575
Si Si7 0.000825 0.577548 0.185407
Si Si8 0.691260 0.080416 0.118351
O O1 0.648855 0.250000 0.475769
O O2 0.621810 0.007896 0.378024
O O3 0.848623 0.046375 0.647221
O O4 0.603576 0.989653 0.481770
O O5 0.465711 0.750000 0.746884
O O6 0.352833 0.551868 0.722121
O O7 0.609659 0.515389 0.902994
O O8 0.541189 0.250000 0.105320
O O9 0.721155 0.445872 0.220205
O O10 0.471786 0.535420 0.036366
O O11 0.500000 0.500000 0.500000
O O12 0.414489 0.250000 0.468480
O O13 0.230006 0.457911 0.270493
O O14 0.032219 0.250000 0.085811
O O15 0.983968 0.487860 0.106269
O O16 0.000000 0.500000 0.000000
O O17 0.234927 0.250000 0.927228
O O18 0.117650 0.017670 0.873521
O O19 0.209763 0.013279 0.839555
O O20 0.979412 0.750000 0.150697
O O21 0.712800 0.250000 0.119345
#
# Coordination Sequence:
#
# PCOD8075774 Si02
#       8
#     4   4   4   4   4   4   4   4
#     4   9  17  31  50  69  90 120 156 190 227 275
#     4   8  14  26  45  66  87 114 150 188 225 268
#     4   8  14  25  40  60  88 119 148 183 229 275
#     4  10  21  36  53  74  99 127 158 193 235 282
#     4  10  21  36  54  75  99 127 159 196 238 283
#     4   9  17  29  44  64  91 120 150 187 230 274
#     4   9  18  32  49  68  92 123 156 189 229 278
#     4   9  15  23  39  63  88 115 149 188 228 270
#
# _framework density 17.538136000000002
#
# number of rings (size 3 to 8) (size 9 to 14) (size 15 to 20)
#    0.000    3.000    0.000    1.875    0.000    3.500 
#    0.000    5.000    0.000    0.750    0.000    0.000 
#    0.000    0.000    0.000    0.000    0.000    1.125 
#
# Total GULP energy -396531.507911 kJ/mol
# GULP energy per Si atom -12391.609622 kJ/mol
# Density = 1.749822 g / cm^3
# Si number density = 17.538136 Si / 1000 Ang^3
#
#
#
# Elastic Constant Matrix: (Units=GPa)
#
#
# Indices 1 2 3 4 5 6 
#
# 1 203.4853 60.6165 75.8156 0.0000 -15.4382 0.0000
# 2 60.6165 53.3380 29.4447 0.0000 -5.5737 0.0000
# 3 75.8156 29.4447 63.9329 0.0000 -17.2442 0.0000
# 4 0.0000 0.0000 0.0000 16.3189 0.0000 -2.1899
# 5 -15.4382 -5.5737 -17.2442 0.0000 26.0955 0.0000
# 6 0.0000 0.0000 0.0000 -2.1899 0.0000 31.9910
#
#
#
# Elastic Compliance Matrix: (Units=1/GPa)
#
#
# Indices 1 2 3 4 5 6 
#
# 1 0.010373 -0.006601 -0.009718 0.000000 -0.001695 0.000000
# 2 -0.006601 0.029507 -0.006225 0.000000 -0.001716 0.000000
# 3 -0.009718 -0.006225 0.034223 0.000000 0.015536 0.000000
# 4 0.000000 0.000000 0.000000 0.061847 0.000000 0.004234
# 5 -0.001695 -0.001716 0.015536 0.000000 0.047218 0.000000
# 6 0.000000 0.000000 0.000000 0.004234 0.000000 0.031549
#
#
# Mechanical properties :
#
#
# Convention : Reuss Voigt Hill
#
# Bulk Modulus (GPa) = 34.46432 72.50109 53.48271
# Shear Modulus (GPa) = 18.55461 25.20637 21.88049
#
# Velocity S-wave (km/s) = 3.25616 3.79520 3.53596
# Velocity P-wave (km/s) = 5.81640 7.78675 6.87255
#
# Compressibility (1/GPa) = 0.02901551
#
# Stress axis : x y z
#
# Youngs Moduli (GPa) = 96.40592 33.89039 29.22029
#
# Poissons Ratio (x) = 0.22370 0.28396
# Poissons Ratio (y) = 0.63635 0.18189
# Poissons Ratio (z) = 0.93686 0.21096
#
# Static dielectric constant tensor:
#      x y z
#    x 3.708400 0.000000 -0.212060 
#    y 0.000000 3.168930 0.000000 
#    z -0.212060 0.000000 3.106860 
# 
# 
# High freq. dielectric constant tensor:
#      x y z
#    x 1.698520 0.000000 -0.016330 
#    y 0.000000 1.667190 0.000000 
#    z -0.016330 0.000000 1.637030 
# 
# From -- ./inp_files/66437.got.cif
#   From: 2010.06.25/outbox.cif.g09.slc.cpg/sg11_34_cif.got.tgz:66437.got - 2010.06.27 23:14:04.
