data_PCOD8075006
_publ_section_title
;
Structure prediction by ZEFSAII (Michael W. Deem and Ramdas Pophale) SiO2 
 PCOD8075006
Probable space group: P 21/M
;
_chemical_formula_sum "Si O2"
_cell_formula_units_Z 28
_cell_length_a 8.274032
_cell_length_b 23.109200
_cell_length_c 14.111946
_cell_angle_alpha 90.000000
_cell_angle_beta 149.081251
_cell_angle_gamma 90.000000
_cell_volume 1386.442037
_symmetry_space_group_name_H-M "P 21/M"
_symmetry_group_IT_number 11
_symmetry_cell_setting 'monoclinic'
loop_
_space_group_symop_operation_xyz
x,y,z
-x,1/2+y,-z
-x,-y,-z
x,1/2-y,z
loop_
_atom_site_type_symbol
_atom_site_label
_atom_site_fract_x
_atom_site_fract_y
_atom_site_fract_z
Si Si1 0.298767 0.184863 0.184965
Si Si2 0.704512 0.620525 0.449052
Si Si3 0.405142 0.684795 0.145392
Si Si4 0.426258 0.904725 0.816538
Si Si5 0.616815 0.182915 0.541215
Si Si6 0.305182 0.474292 0.698533
Si Si7 0.250773 0.117530 0.826708
O O1 0.372206 0.250000 0.185745
O O2 0.511585 0.140038 0.235842
O O3 0.368532 0.180304 0.331421
O O4 0.935716 0.169022 0.983384
O O5 0.678576 0.673633 0.361370
O O6 0.505257 0.638475 0.440304
O O7 0.543476 0.567816 0.306126
O O8 0.058144 0.603901 0.657202
O O9 0.416450 0.750000 0.117932
O O10 0.457842 0.649163 0.076345
O O11 0.518149 0.970133 0.830979
O O12 0.654180 0.893335 0.018235
O O13 0.650431 0.250000 0.593954
O O14 0.948629 0.159069 0.671273
O O15 0.199830 0.441570 0.742118
O O16 0.000000 0.500000 0.500000
#
# Coordination Sequence:
#
# PCOD8075006 Si02
#       7
#     4   4   4   4   4   4   4
#     4  10  22  38  59  85 117 152 192 237 287 343
#     4  10  21  37  59  84 113 150 189 235 286 338
#     4  10  20  37  57  83 115 149 189 237 287 342
#     4  11  22  39  59  84 116 151 191 236 286 342
#     4  11  22  38  58  86 118 151 190 235 284 341
#     4   9  20  40  60  82 113 150 193 239 284 338
#     4  11  22  37  60  86 115 153 192 235 287 340
#
# _framework density 20.195578000000001
#
# number of rings (size 3 to 8) (size 9 to 14) (size 15 to 20)
#    0.000    1.714    0.000    5.571    0.000    4.571 
#    0.000   14.286    0.000    0.000    0.000    0.000 
#    0.000    0.000    0.000    0.000    0.000    0.000 
#
# Total GULP energy -347023.118010 kJ/mol
# GULP energy per Si atom -12393.682786 kJ/mol
# Density = 2.014961 g / cm^3
# Si number density = 20.195578 Si / 1000 Ang^3
#
#
#
# Elastic Constant Matrix: (Units=GPa)
#
#
# Indices 1 2 3 4 5 6 
#
# 1 89.3327 58.6919 10.7689 0.0000 -9.0452 0.0000
# 2 58.6919 120.3856 31.6081 0.0000 4.1310 0.0000
# 3 10.7689 31.6081 76.7846 0.0000 -10.7421 0.0000
# 4 0.0000 0.0000 0.0000 22.9981 0.0000 -0.6014
# 5 -9.0452 4.1310 -10.7421 0.0000 28.3079 0.0000
# 6 0.0000 0.0000 0.0000 -0.6014 0.0000 34.9891
#
#
#
# Elastic Compliance Matrix: (Units=1/GPa)
#
#
# Indices 1 2 3 4 5 6 
#
# 1 0.018176 -0.009842 0.002657 0.000000 0.008252 0.000000
# 2 -0.009842 0.014885 -0.005799 0.000000 -0.007518 0.000000
# 3 0.002657 -0.005799 0.016131 0.000000 0.007817 0.000000
# 4 0.000000 0.000000 0.000000 0.043501 0.000000 0.000748
# 5 0.008252 -0.007518 0.007817 0.000000 0.042026 0.000000
# 6 0.000000 0.000000 0.000000 0.000748 0.000000 0.028593
#
#
# Mechanical properties :
#
#
# Convention : Reuss Voigt Hill
#
# Bulk Modulus (GPa) = 43.05831 54.29340 48.67585
# Shear Modulus (GPa) = 25.37780 29.62128 27.49954
#
# Velocity S-wave (km/s) = 3.54870 3.83393 3.69407
# Velocity P-wave (km/s) = 6.17722 6.82209 6.50765
#
# Compressibility (1/GPa) = 0.02322432
#
# Stress axis : x y z
#
# Youngs Moduli (GPa) = 55.01892 67.17987 61.99058
#
# Poissons Ratio (x) = 0.66118 -0.16469
# Poissons Ratio (y) = 0.54149 0.35948
# Poissons Ratio (z) = -0.14617 0.38957
#
# Static dielectric constant tensor:
#      x y z
#    x 3.537690 0.000000 -0.144270 
#    y 0.000000 3.845850 0.000000 
#    z -0.144270 0.000000 3.584010 
# 
# 
# High freq. dielectric constant tensor:
#      x y z
#    x 1.775910 0.000000 -0.014490 
#    y 0.000000 1.801260 0.000000 
#    z -0.014490 0.000000 1.792090 
# 
# From -- ./inp_files/23220.got.cif
#   From: 2010.06.25/outbox.cif.g09.slc.cpg/sg11_12_cif.got.tgz:23220.got - 2010.06.27 23:14:04.
