data_PCOD8075985
_publ_section_title
;
Structure prediction by ZEFSAII (Michael W. Deem and Ramdas Pophale) SiO2 
 PCOD8075985
Probable space group: P 21/M
;
_chemical_formula_sum "Si O2"
_cell_formula_units_Z 24
_cell_length_a 11.507365
_cell_length_b 8.936217
_cell_length_c 12.386447
_cell_angle_alpha 90.000000
_cell_angle_beta 91.734526
_cell_angle_gamma 90.000000
_cell_volume 1273.143348
_symmetry_space_group_name_H-M "P 21/M"
_symmetry_group_IT_number 11
_symmetry_cell_setting 'monoclinic'
loop_
_space_group_symop_operation_xyz
x,y,z
-x,1/2+y,-z
-x,-y,-z
x,1/2-y,z
loop_
_atom_site_type_symbol
_atom_site_label
_atom_site_fract_x
_atom_site_fract_y
_atom_site_fract_z
Si Si1 0.264784 0.927226 0.719351
Si Si2 0.153190 0.075188 0.910984
Si Si3 0.119023 0.422833 0.533554
Si Si4 0.112997 0.575880 0.127628
Si Si5 0.246928 0.420662 0.317093
Si Si6 0.499488 0.075377 0.384522
O O1 0.251172 0.750000 0.718453
O O2 0.392201 0.979403 0.684256
O O3 0.245240 0.989311 0.838835
O O4 0.167366 0.997168 0.640338
O O5 0.180301 0.250000 0.907896
O O6 0.023182 0.037438 0.866951
O O7 0.171405 0.017545 0.033012
O O8 0.096370 0.250000 0.560684
O O9 0.210040 0.442786 0.439679
O O10 0.000000 0.500000 0.500000
O O11 0.132139 0.750000 0.104815
O O12 0.173713 0.531516 0.240748
O O13 0.224537 0.250000 0.279123
O O14 0.382831 0.463750 0.314596
O O15 0.507075 0.250000 0.407921
O O16 0.500000 0.000000 0.500000
#
# Coordination Sequence:
#
# PCOD8075985 Si02
#       6
#     4   4   4   4   4   4
#     4  11  22  36  57  84 114 147 189 236 281 334
#     4  10  21  38  60  84 114 150 186 229 284 341
#     4  11  22  35  54  81 115 149 185 231 283 339
#     4  10  21  37  59  86 113 145 187 233 282 336
#     4  10  21  37  56  80 112 149 188 230 280 335
#     4  10  21  38  58  81 111 151 193 235 280 332
#
# _framework density 18.850978999999999
#
# number of rings (size 3 to 8) (size 9 to 14) (size 15 to 20)
#    0.000    1.667    1.667    3.000    0.000    7.333 
#    0.000    0.833    0.000    0.000    0.000    0.000 
#    0.000    0.000    0.000    0.000    0.000    0.000 
#
# Total GULP energy -297729.757562 kJ/mol
# GULP energy per Si atom -12405.406565 kJ/mol
# Density = 1.880807 g / cm^3
# Si number density = 18.850979 Si / 1000 Ang^3
#
#
#
# Elastic Constant Matrix: (Units=GPa)
#
#
# Indices 1 2 3 4 5 6 
#
# 1 68.7172 26.9499 9.5527 0.0000 -17.4521 0.0000
# 2 26.9499 78.6381 28.7635 0.0000 -12.7017 0.0000
# 3 9.5527 28.7635 69.2770 0.0000 -15.9143 0.0000
# 4 0.0000 0.0000 0.0000 40.2854 0.0000 -0.0229
# 5 -17.4521 -12.7017 -15.9143 0.0000 31.1551 0.0000
# 6 0.0000 0.0000 0.0000 -0.0229 0.0000 26.7290
#
#
#
# Elastic Compliance Matrix: (Units=1/GPa)
#
#
# Indices 1 2 3 4 5 6 
#
# 1 0.018849 -0.005654 0.001863 0.000000 0.009205 0.000000
# 2 -0.005654 0.017000 -0.006134 0.000000 0.000630 0.000000
# 3 0.001863 -0.006134 0.018569 0.000000 0.008028 0.000000
# 4 0.000000 0.000000 0.000000 0.024823 0.000000 0.000021
# 5 0.009205 0.000630 0.008028 0.000000 0.041612 0.000000
# 6 0.000000 0.000000 0.000000 0.000021 0.000000 0.037413
#
#
# Mechanical properties :
#
#
# Convention : Reuss Voigt Hill
#
# Bulk Modulus (GPa) = 28.92908 38.57383 33.75146
# Shear Modulus (GPa) = 26.36626 29.72498 28.04562
#
# Velocity S-wave (km/s) = 3.74393 3.97525 3.86133
# Velocity P-wave (km/s) = 5.83686 6.44803 6.15004
#
# Compressibility (1/GPa) = 0.03456730
#
# Stress axis : x y z
#
# Youngs Moduli (GPa) = 53.05400 58.82512 53.85377
#
# Poissons Ratio (x) = 0.33261 -0.10034
# Poissons Ratio (y) = 0.29998 0.33032
# Poissons Ratio (z) = -0.09885 0.36082
#
# Static dielectric constant tensor:
#      x y z
#    x 3.592240 0.000000 -0.181430 
#    y 0.000000 3.515410 0.000000 
#    z -0.181430 0.000000 3.387230 
# 
# 
# High freq. dielectric constant tensor:
#      x y z
#    x 1.730220 0.000000 -0.008150 
#    y 0.000000 1.741090 0.000000 
#    z -0.008150 0.000000 1.730830 
# 
# From -- ./inp_files/33775.got.cif
#   From: 2010.06.25/outbox.cif.g09.slc.cpg/sg11_17_cif.got.tgz:33775.got - 2010.06.27 23:14:04.
