data_PCOD8075270
_publ_section_title
;
Structure prediction by ZEFSAII (Michael W. Deem and Ramdas Pophale) SiO2 
 PCOD8075270
Probable space group: P 21/M
;
_chemical_formula_sum "Si O2"
_cell_formula_units_Z 28
_cell_length_a 12.449415
_cell_length_b 13.877027
_cell_length_c 8.876431
_cell_angle_alpha 90.000000
_cell_angle_beta 114.980922
_cell_angle_gamma 90.000000
_cell_volume 1390.038642
_symmetry_space_group_name_H-M "P 21/M"
_symmetry_group_IT_number 11
_symmetry_cell_setting 'monoclinic'
loop_
_space_group_symop_operation_xyz
x,y,z
-x,1/2+y,-z
-x,-y,-z
x,1/2-y,z
loop_
_atom_site_type_symbol
_atom_site_label
_atom_site_fract_x
_atom_site_fract_y
_atom_site_fract_z
Si Si1 0.216799 0.444812 0.268912
Si Si2 0.689521 0.353045 0.765720
Si Si3 0.013832 0.984037 0.684367
Si Si4 0.556338 0.586079 0.440783
Si Si5 0.232970 0.641683 0.850578
Si Si6 0.377593 0.476143 0.848877
Si Si7 0.181615 0.365118 0.917900
O O1 0.251696 0.557466 0.282259
O O2 0.108043 0.446656 0.318198
O O3 0.326152 0.380548 0.398919
O O4 0.183756 0.396725 0.092490
O O5 0.750324 0.250000 0.757920
O O6 0.550412 0.338549 0.641423
O O7 0.703140 0.369878 0.951394
O O8 0.063988 0.084654 0.780663
O O9 0.000000 0.000000 0.500000
O O10 0.099534 0.896020 0.777906
O O11 0.500000 0.500000 0.500000
O O12 0.601908 0.563411 0.302570
O O13 0.234482 0.750000 0.790440
O O14 0.306502 0.575420 0.779696
O O15 0.300227 0.401874 0.903864
O O16 0.500000 0.500000 0.000000
O O17 0.171279 0.250000 0.895966
#
# Coordination Sequence:
#
# PCOD8075270 Si02
#       7
#     4   4   4   4   4   4   4
#     4  11  21  42  64  92 127 169 209 257 313 375
#     4  10  20  37  62  94 124 159 205 253 308 370
#     4  11  24  44  66  89 126 167 212 264 319 377
#     4  10  21  38  62  91 126 164 205 252 314 373
#     4  10  21  38  62  93 121 156 205 254 309 369
#     4  11  19  39  63  89 126 166 207 255 310 372
#     4  11  25  41  62  94 127 166 215 264 317 376
#
# _framework density 20.143325000000001
#
# number of rings (size 3 to 8) (size 9 to 14) (size 15 to 20)
#    0.000    1.429    4.286    3.000    0.000    3.429 
#    0.000    7.143    0.000    0.000    0.000    0.000 
#    0.000    0.000    0.000    0.000    0.000    0.000 
#
# Total GULP energy -346966.744445 kJ/mol
# GULP energy per Si atom -12391.669444 kJ/mol
# Density = 2.009748 g / cm^3
# Si number density = 20.143325 Si / 1000 Ang^3
#
#
#
# Elastic Constant Matrix: (Units=GPa)
#
#
# Indices 1 2 3 4 5 6 
#
# 1 95.2342 17.0048 26.0958 0.0000 -1.1903 0.0000
# 2 17.0048 113.1100 18.3403 0.0000 5.2621 0.0000
# 3 26.0958 18.3403 127.0774 0.0000 3.2561 0.0000
# 4 0.0000 0.0000 0.0000 0.3345 0.0000 0.1144
# 5 -1.1903 5.2621 3.2561 0.0000 43.1165 0.0000
# 6 0.0000 0.0000 0.0000 0.1144 0.0000 16.6677
#
#
#
# Elastic Compliance Matrix: (Units=1/GPa)
#
#
# Indices 1 2 3 4 5 6 
#
# 1 0.011344 -0.001388 -0.002146 0.000000 0.000645 0.000000
# 2 -0.001388 0.009266 -0.001024 0.000000 -0.001092 0.000000
# 3 -0.002146 -0.001024 0.008472 0.000000 -0.000574 0.000000
# 4 0.000000 0.000000 0.000000 2.996368 0.000000 -0.020564
# 5 0.000645 -0.001092 -0.000574 0.000000 0.023387 0.000000
# 6 0.000000 0.000000 0.000000 -0.020564 0.000000 0.060138
#
#
# Mechanical properties :
#
#
# Convention : Reuss Voigt Hill
#
# Bulk Modulus (GPa) = 50.08141 50.92257 50.50199
# Shear Modulus (GPa) = 1.60013 30.28912 15.94463
#
# Velocity S-wave (km/s) = 0.89224 3.88194 2.81652
# Velocity P-wave (km/s) = 5.09686 6.74000 5.97518
#
# Compressibility (1/GPa) = 0.01996749
#
# Stress axis : x y z
#
# Youngs Moduli (GPa) = 88.15053 107.91607 118.02974
#
# Poissons Ratio (x) = 0.14974 0.25327
# Poissons Ratio (y) = 0.12231 0.12092
# Poissons Ratio (z) = 0.18916 0.11056
#
# Static dielectric constant tensor:
#      x y z
#    x 3.781240 0.000000 0.311290 
#    y 0.000000 3.810740 0.000000 
#    z 0.311290 0.000000 3.895060 
# 
# 
# High freq. dielectric constant tensor:
#      x y z
#    x 1.791010 0.000000 0.011130 
#    y 0.000000 1.776770 0.000000 
#    z 0.011130 0.000000 1.800030 
# 
# From -- ./inp_files/18171.got.cif
#   From: 2010.06.25/outbox.cif.g09.slc.cpg/sg11_10_cif.got.tgz:18171.got - 2010.06.27 23:14:04.
