data_PCOD8075487
_publ_section_title
;
Structure prediction by ZEFSAII (Michael W. Deem and Ramdas Pophale) SiO2 
 PCOD8075487
Probable space group: P 21/M
;
_chemical_formula_sum "Si O2"
_cell_formula_units_Z 26
_cell_length_a 8.556958
_cell_length_b 12.758758
_cell_length_c 17.962418
_cell_angle_alpha 90.000000
_cell_angle_beta 137.515754
_cell_angle_gamma 90.000000
_cell_volume 1324.480572
_symmetry_space_group_name_H-M "P 21/M"
_symmetry_group_IT_number 11
_symmetry_cell_setting 'monoclinic'
loop_
_space_group_symop_operation_xyz
x,y,z
-x,1/2+y,-z
-x,-y,-z
x,1/2-y,z
loop_
_atom_site_type_symbol
_atom_site_label
_atom_site_fract_x
_atom_site_fract_y
_atom_site_fract_z
Si Si1 0.908485 0.250000 0.260908
Si Si2 0.178610 0.962590 0.688221
Si Si3 0.354142 0.063550 0.891422
Si Si4 0.463362 0.444640 0.315131
Si Si5 0.832958 0.750000 0.792046
Si Si6 0.339085 0.750000 0.975729
Si Si7 0.217782 0.629962 0.449875
Si Si8 0.835076 0.130928 0.738872
O O1 0.921603 0.351111 0.318997
O O2 0.685353 0.250000 0.124592
O O3 0.134808 0.250000 0.287057
O O4 0.317903 0.949713 0.661542
O O5 0.346579 0.002487 0.811585
O O6 0.985727 0.049008 0.602299
O O7 0.098327 0.089681 0.832201
O O8 0.512521 0.161362 0.934326
O O9 0.500000 0.000000 0.000000
O O10 0.295747 0.354003 0.225917
O O11 0.552497 0.409484 0.427712
O O12 0.324736 0.554401 0.267958
O O13 0.082266 0.750000 0.920109
O O14 0.152886 0.750000 0.451347
O O15 0.268397 0.628081 0.380189
O O16 0.825138 0.250000 0.767007
#
# Coordination Sequence:
#
# PCOD8075487 Si02
#       8
#     2   4   4   4   2   2   4   4
#     4  10  21  41  62  91 116 162 215 244 297 373
#     4  11  24  38  64  94 125 162 205 256 309 369
#     4  11  19  40  66  87 116 163 216 249 295 371
#     4  12  22  41  61  91 135 156 196 266 319 354
#     4  10  21  39  65  89 116 162 208 254 300 368
#     4  10  20  38  67  86 110 162 217 246 293 355
#     4  10  22  42  63  87 121 171 211 243 300 378
#     4  10  22  38  60  92 123 159 212 255 301 369
#
# _framework density 19.630337000000001
#
# number of rings (size 3 to 8) (size 9 to 14) (size 15 to 20)
#    0.462    0.923    3.077    4.154    1.077    0.615 
#    1.385    3.077    0.000    0.000    0.000    0.000 
#    0.000    0.000    0.000    0.000    0.000    0.000 
#
# Total GULP energy -322209.565475 kJ/mol
# GULP energy per Si atom -12392.675595 kJ/mol
# Density = 1.958566 g / cm^3
# Si number density = 19.630337 Si / 1000 Ang^3
#
#
#
# Elastic Constant Matrix: (Units=GPa)
#
#
# Indices 1 2 3 4 5 6 
#
# 1 49.7659 24.7104 -14.5481 0.0000 8.4692 0.0000
# 2 24.7104 153.3452 24.0495 0.0000 8.4108 0.0000
# 3 -14.5481 24.0495 73.2661 0.0000 5.6133 0.0000
# 4 0.0000 0.0000 0.0000 33.3225 0.0000 10.6402
# 5 8.4692 8.4108 5.6133 0.0000 18.9459 0.0000
# 6 0.0000 0.0000 0.0000 10.6402 0.0000 29.9003
#
#
#
# Elastic Compliance Matrix: (Units=1/GPa)
#
#
# Indices 1 2 3 4 5 6 
#
# 1 0.026909 -0.004905 0.007887 0.000000 -0.012188 0.000000
# 2 -0.004905 0.007881 -0.003541 0.000000 -0.000257 0.000000
# 3 0.007887 -0.003541 0.016911 0.000000 -0.006964 0.000000
# 4 0.000000 0.000000 0.000000 0.033857 0.000000 -0.012048
# 5 -0.012188 -0.000257 -0.006964 0.000000 0.060408 0.000000
# 6 0.000000 0.000000 0.000000 -0.012048 0.000000 0.037732
#
#
# Mechanical properties :
#
#
# Convention : Reuss Voigt Hill
#
# Bulk Modulus (GPa) = 19.76923 38.31119 29.04021
# Shear Modulus (GPa) = 24.79218 32.57810 28.68514
#
# Velocity S-wave (km/s) = 3.55766 4.07821 3.82680
# Velocity P-wave (km/s) = 5.19312 6.46022 5.86101
#
# Compressibility (1/GPa) = 0.05058366
#
# Stress axis : x y z
#
# Youngs Moduli (GPa) = 37.16190 126.88673 59.13351
#
# Poissons Ratio (x) = 0.62233 -0.46639
# Poissons Ratio (y) = 0.18227 0.20940
# Poissons Ratio (z) = -0.29310 0.44932
#
# Static dielectric constant tensor:
#      x y z
#    x 3.299480 0.000000 -0.065400 
#    y 0.000000 3.819010 0.000000 
#    z -0.065400 0.000000 3.735400 
# 
# 
# High freq. dielectric constant tensor:
#      x y z
#    x 1.732330 0.000000 0.010890 
#    y 0.000000 1.791190 0.000000 
#    z 0.010890 0.000000 1.767140 
# 
# From -- ./inp_files/47096.got.cif
#   From: 2010.06.25/outbox.cif.g09.slc.cpg/sg11_24_cif.got.tgz:47096.got - 2010.06.27 23:14:04.
