data_PCOD8075015
_publ_section_title
;
Structure prediction by ZEFSAII (Michael W. Deem and Ramdas Pophale) SiO2 
 PCOD8075015
Probable space group: P 21/M
;
_chemical_formula_sum "Si O2"
_cell_formula_units_Z 32
_cell_length_a 13.073139
_cell_length_b 18.483192
_cell_length_c 14.737655
_cell_angle_alpha 90.000000
_cell_angle_beta 27.489178
_cell_angle_gamma 90.000000
_cell_volume 1643.740387
_symmetry_space_group_name_H-M "P 21/M"
_symmetry_group_IT_number 11
_symmetry_cell_setting 'monoclinic'
loop_
_space_group_symop_operation_xyz
x,y,z
-x,1/2+y,-z
-x,-y,-z
x,1/2-y,z
loop_
_atom_site_type_symbol
_atom_site_label
_atom_site_fract_x
_atom_site_fract_y
_atom_site_fract_z
Si Si1 0.175849 0.583383 0.819336
Si Si2 0.314503 0.083396 0.180649
Si Si3 0.961658 0.949095 0.170455
Si Si4 0.967417 0.333568 0.569916
Si Si5 0.802609 0.050916 0.829496
Si Si6 0.735209 0.832615 0.129629
Si Si7 0.494398 0.167383 0.870409
Si Si8 0.607288 0.833567 0.430060
O O1 0.383892 0.635832 0.648823
O O2 0.205528 0.511547 0.734325
O O3 0.956845 0.621455 0.954564
O O4 0.149352 0.563776 0.946249
O O5 0.181536 0.135852 0.351136
O O6 0.174195 0.011542 0.265667
O O7 0.541890 0.063825 0.053683
O O8 0.365841 0.121453 0.045499
O O9 0.081730 0.972711 0.168276
O O10 0.819433 0.876838 0.300930
O O11 0.008885 0.250000 0.562897
O O12 0.921452 0.376848 0.698926
O O13 0.758109 0.342933 0.668023
O O14 0.808200 0.750000 0.059516
O O15 0.578837 0.859353 0.171175
O O16 0.594095 0.842913 0.332037
O O17 0.427174 0.250000 0.940510
O O18 0.634708 0.750000 0.437101
#
# Coordination Sequence:
#
# PCOD8075015 Si02
#       8
#     4   4   4   4   4   4   4   4
#     4  10  20  37  58  80 108 146 187 228 276 327
#     4  10  20  37  58  80 108 146 187 228 276 327
#     4  10  22  38  56  81 111 143 183 230 276 325
#     4  10  21  37  56  81 113 146 183 226 273 328
#     4  10  22  38  56  81 111 143 183 230 276 325
#     4   9  18  32  52  81 113 143 181 231 281 328
#     4   9  18  32  52  81 113 143 181 231 281 328
#     4  10  21  37  56  81 113 146 183 226 273 328
#
# _framework density 19.467794999999999
#
# number of rings (size 3 to 8) (size 9 to 14) (size 15 to 20)
#    0.000    2.250    0.000    2.250    0.000    4.500 
#    0.000    2.500    0.000    0.000    0.000    0.000 
#    0.000    0.000    0.000    0.000    0.000    0.000 
#
# Total GULP energy -396866.819059 kJ/mol
# GULP energy per Si atom -12402.088096 kJ/mol
# Density = 1.942349 g / cm^3
# Si number density = 19.467795 Si / 1000 Ang^3
#
#
#
# Elastic Constant Matrix: (Units=GPa)
#
#
# Indices 1 2 3 4 5 6 
#
# 1 81.2807 18.1772 21.8670 0.0000 -2.5918 0.0000
# 2 18.1772 105.9495 42.5001 0.0000 1.7778 0.0000
# 3 21.8670 42.5001 79.1514 0.0000 2.4799 0.0000
# 4 0.0000 0.0000 0.0000 42.0652 0.0000 1.3426
# 5 -2.5918 1.7778 2.4799 0.0000 11.9979 0.0000
# 6 0.0000 0.0000 0.0000 1.3426 0.0000 23.5703
#
#
#
# Elastic Compliance Matrix: (Units=1/GPa)
#
#
# Indices 1 2 3 4 5 6 
#
# 1 0.013546 -0.001069 -0.003286 0.000000 0.003764 0.000000
# 2 -0.001069 0.012116 -0.006187 0.000000 -0.000747 0.000000
# 3 -0.003286 -0.006187 0.016967 0.000000 -0.003300 0.000000
# 4 0.000000 0.000000 0.000000 0.023816 0.000000 -0.001357
# 5 0.003764 -0.000747 -0.003300 0.000000 0.084954 0.000000
# 6 0.000000 0.000000 0.000000 -0.001357 0.000000 0.042504
#
#
# Mechanical properties :
#
#
# Convention : Reuss Voigt Hill
#
# Bulk Modulus (GPa) = 46.41397 47.94114 47.17756
# Shear Modulus (GPa) = 22.50528 27.78247 25.14388
#
# Velocity S-wave (km/s) = 3.40373 3.78179 3.59773
# Velocity P-wave (km/s) = 6.27219 6.61427 6.44550
#
# Compressibility (1/GPa) = 0.02154524
#
# Stress axis : x y z
#
# Youngs Moduli (GPa) = 73.82117 82.53387 58.93640
#
# Poissons Ratio (x) = 0.08822 0.19369
# Poissons Ratio (y) = 0.07891 0.36464
# Poissons Ratio (z) = 0.24260 0.51064
#
# Static dielectric constant tensor:
#      x y z
#    x 3.404580 0.000000 -0.002300 
#    y 0.000000 3.792050 0.000000 
#    z -0.002300 0.000000 3.369490 
# 
# 
# High freq. dielectric constant tensor:
#      x y z
#    x 1.747210 0.000000 0.000010 
#    y 0.000000 1.775200 0.000000 
#    z 0.000010 0.000000 1.747210 
# 
# From -- ./inp_files/50663.got.cif
#   From: 2010.06.25/outbox.cif.g09.slc.cpg/sg11_26_cif.got.tgz:50663.got - 2010.06.27 23:14:04.
