data_PCOD8075057
_publ_section_title
;
Structure prediction by ZEFSAII (Michael W. Deem and Ramdas Pophale) SiO2 
 PCOD8075057
Probable space group: P 21/M
;
_chemical_formula_sum "Si O2"
_cell_formula_units_Z 20
_cell_length_a 13.849347
_cell_length_b 9.619106
_cell_length_c 18.458477
_cell_angle_alpha 90.000000
_cell_angle_beta 24.115128
_cell_angle_gamma 90.000000
_cell_volume 1004.680340
_symmetry_space_group_name_H-M "P 21/M"
_symmetry_group_IT_number 11
_symmetry_cell_setting 'monoclinic'
loop_
_space_group_symop_operation_xyz
x,y,z
-x,1/2+y,-z
-x,-y,-z
x,1/2-y,z
loop_
_atom_site_type_symbol
_atom_site_label
_atom_site_fract_x
_atom_site_fract_y
_atom_site_fract_z
Si Si1 0.337168 0.750000 0.999324
Si Si2 0.455303 0.522473 0.378598
Si Si3 0.669220 0.250000 0.163446
Si Si4 0.198600 0.250000 0.841831
Si Si5 0.048719 0.474200 0.222336
Si Si6 0.687784 0.250000 0.635022
Si Si7 0.206832 0.250000 0.008786
Si Si8 0.172112 0.250000 0.255685
O O1 0.409730 0.750000 0.865694
O O2 0.577174 0.750000 0.879509
O O3 0.188896 0.616746 0.123729
O O4 0.569358 0.381543 0.273404
O O5 0.655613 0.612918 0.282885
O O6 0.362784 0.610620 0.374640
O O7 0.230901 0.492854 0.583527
O O8 0.952315 0.250000 0.969406
O O9 0.163831 0.250000 0.952515
O O10 0.140459 0.386274 0.228019
O O11 0.090210 0.388302 0.120457
O O12 0.492534 0.250000 0.833207
O O13 0.969054 0.250000 0.458932
#
# Coordination Sequence:
#
# PCOD8075057 Si02
#       8
#     2   4   2   2   4   2   2   2
#     4  12  22  35  54  85 113 142 181 228 270 314
#     4   9  19  37  56  77 109 144 177 224 274 318
#     4  12  23  36  53  82 115 144 180 228 270 314
#     4  10  20  38  59  78 107 150 185 216 266 330
#     4  10  20  37  59  83 110 140 179 228 275 321
#     4   8  16  35  58  77 102 144 186 214 258 330
#     4   9  17  36  60  81 101 141 190 223 260 330
#     4   9  20  38  58  79 110 147 180 217 272 330
#
# _framework density 19.906829999999999
#
# number of rings (size 3 to 8) (size 9 to 14) (size 15 to 20)
#    0.000    2.400    0.000    6.000    0.000    0.000 
#    0.000   19.000    0.000    0.000    0.000    0.000 
#    0.000    0.000    0.000    0.000    0.000    0.000 
#
# Total GULP energy -247876.046346 kJ/mol
# GULP energy per Si atom -12393.802317 kJ/mol
# Density = 1.986152 g / cm^3
# Si number density = 19.906830 Si / 1000 Ang^3
#
#
#
# Elastic Constant Matrix: (Units=GPa)
#
#
# Indices 1 2 3 4 5 6 
#
# 1 30.6508 -4.3541 3.2917 0.0000 -4.2321 0.0000
# 2 -4.3541 133.4224 36.0572 0.0000 -5.4979 0.0000
# 3 3.2917 36.0572 126.6719 0.0000 -0.3951 0.0000
# 4 0.0000 0.0000 0.0000 78.7806 0.0000 3.2656
# 5 -4.2321 -5.4979 -0.3951 0.0000 24.0815 0.0000
# 6 0.0000 0.0000 0.0000 3.2656 0.0000 1.7049
#
#
#
# Elastic Compliance Matrix: (Units=1/GPa)
#
#
# Indices 1 2 3 4 5 6 
#
# 1 0.033891 0.001733 -0.001354 0.000000 0.006329 0.000000
# 2 0.001733 0.008288 -0.002398 0.000000 0.002157 0.000000
# 3 -0.001354 -0.002398 0.008610 0.000000 -0.000644 0.000000
# 4 0.000000 0.000000 0.000000 0.013788 0.000000 -0.026410
# 5 0.006329 0.002157 -0.000644 0.000000 0.043120 0.000000
# 6 0.000000 0.000000 0.000000 -0.026410 0.000000 0.637134
#
#
# Mechanical properties :
#
#
# Convention : Reuss Voigt Hill
#
# Bulk Modulus (GPa) = 21.38963 40.08163 30.73563
# Shear Modulus (GPa) = 6.54062 37.96341 22.25201
#
# Velocity S-wave (km/s) = 1.81459 4.37172 3.34699
# Velocity P-wave (km/s) = 3.89340 6.75729 5.51450
#
# Compressibility (1/GPa) = 0.04675162
#
# Stress axis : x y z
#
# Youngs Moduli (GPa) = 29.50624 120.65070 116.14309
#
# Poissons Ratio (x) = -0.20906 0.15728
# Poissons Ratio (y) = -0.05113 0.27846
# Poissons Ratio (z) = 0.03996 0.28927
#
# Static dielectric constant tensor:
#      x y z
#    x 3.160400 0.000000 0.038330 
#    y 0.000000 4.092030 0.000000 
#    z 0.038330 0.000000 4.272780 
# 
# 
# High freq. dielectric constant tensor:
#      x y z
#    x 1.728030 0.000000 0.002610 
#    y 0.000000 1.791250 0.000000 
#    z 0.002610 0.000000 1.806270 
# 
# From -- ./inp_files/15994.got.cif
#   From: 2010.06.25/outbox.cif.g09.slc.cpg/sg11_8_cif.got.tgz:15994.got - 2010.06.27 23:14:04.
