data_PCOD8075045
_publ_section_title
;
Structure prediction by ZEFSAII (Michael W. Deem and Ramdas Pophale) SiO2 
 PCOD8075045
Probable space group: P 21/M
;
_chemical_formula_sum "Si O2"
_cell_formula_units_Z 32
_cell_length_a 21.248832
_cell_length_b 9.337785
_cell_length_c 26.718021
_cell_angle_alpha 90.000000
_cell_angle_beta 19.206605
_cell_angle_gamma 90.000000
_cell_volume 1744.001245
_symmetry_space_group_name_H-M "P 21/M"
_symmetry_group_IT_number 11
_symmetry_cell_setting 'monoclinic'
loop_
_space_group_symop_operation_xyz
x,y,z
-x,1/2+y,-z
-x,-y,-z
x,1/2-y,z
loop_
_atom_site_type_symbol
_atom_site_label
_atom_site_fract_x
_atom_site_fract_y
_atom_site_fract_z
Si Si1 0.403004 0.418745 0.797707
Si Si2 0.006093 0.087474 0.263444
Si Si3 0.564624 0.913946 0.874379
Si Si4 0.630249 0.580640 0.544944
Si Si5 0.743985 0.587845 0.836387
Si Si6 0.403974 0.416574 0.911310
Si Si7 0.010201 0.414671 0.042928
Si Si8 0.405935 0.585687 0.614823
O O1 0.439138 0.250000 0.763671
O O2 0.558563 0.504875 0.649164
O O3 0.422534 0.467334 0.840374
O O4 0.190209 0.462987 0.940591
O O5 0.942167 0.250000 0.298669
O O6 0.051762 0.073203 0.288927
O O7 0.193516 0.045770 0.090464
O O8 0.839411 0.978386 0.373871
O O9 0.532604 0.750000 0.883334
O O10 0.753691 0.932749 0.768321
O O11 0.390739 0.966884 0.039352
O O12 0.569073 0.004009 0.819673
O O13 0.639721 0.750000 0.546406
O O14 0.487058 0.537695 0.607770
O O15 0.664858 0.750000 0.907046
O O16 0.444736 0.250000 0.885743
O O17 0.024762 0.250000 0.016521
O O18 0.820225 0.443794 0.217841
O O19 0.000000 0.500000 0.000000
O O20 0.500000 0.500000 0.500000
O O21 0.456549 0.750000 0.567629
#
# Coordination Sequence:
#
# PCOD8075045 Si02
#       8
#     4   4   4   4   4   4   4   4
#     4  10  21  37  58  78 100 140 182 212 254 314
#     4   9  18  33  54  77 105 141 176 211 254 310
#     4   9  15  25  46  75 105 135 169 212 262 308
#     4  11  23  38  53  77 110 138 169 217 266 308
#     4   8  15  28  46  71 103 138 174 212 254 304
#     4   9  19  34  52  78 107 136 175 219 257 303
#     4  10  20  37  59  80 103 134 175 217 257 306
#     4  10  23  39  56  80 108 136 170 214 261 308
#
# _framework density 18.348610999999998
#
# number of rings (size 3 to 8) (size 9 to 14) (size 15 to 20)
#    0.000    2.500    1.250    1.500    1.750    4.500 
#    0.000    0.000    0.000    0.750    0.000    0.000 
#    0.000    0.000    0.000    0.000    0.000    0.000 
#
# Total GULP energy -396635.584096 kJ/mol
# GULP energy per Si atom -12394.862003 kJ/mol
# Density = 1.830685 g / cm^3
# Si number density = 18.348611 Si / 1000 Ang^3
#
#
#
# Elastic Constant Matrix: (Units=GPa)
#
#
# Indices 1 2 3 4 5 6 
#
# 1 109.6580 39.7716 15.7244 0.0000 20.8187 0.0000
# 2 39.7716 56.6583 20.5108 0.0000 8.6794 0.0000
# 3 15.7244 20.5108 39.9564 0.0000 11.3483 0.0000
# 4 0.0000 0.0000 0.0000 26.5338 0.0000 0.9634
# 5 20.8187 8.6794 11.3483 0.0000 22.0641 0.0000
# 6 0.0000 0.0000 0.0000 0.9634 0.0000 34.2822
#
#
#
# Elastic Compliance Matrix: (Units=1/GPa)
#
#
# Indices 1 2 3 4 5 6 
#
# 1 0.014166 -0.009059 0.002178 0.000000 -0.010923 0.000000
# 2 -0.009059 0.027676 -0.011684 0.000000 0.003670 0.000000
# 3 0.002178 -0.011684 0.034484 0.000000 -0.015195 0.000000
# 4 0.000000 0.000000 0.000000 0.037726 0.000000 -0.001060
# 5 -0.010923 0.003670 -0.015195 0.000000 0.062001 0.000000
# 6 0.000000 0.000000 0.000000 -0.001060 0.000000 0.029199
#
#
# Mechanical properties :
#
#
# Convention : Reuss Voigt Hill
#
# Bulk Modulus (GPa) = 25.51367 39.80957 32.66162
# Shear Modulus (GPa) = 19.57332 25.26041 22.41686
#
# Velocity S-wave (km/s) = 3.26965 3.71441 3.49910
# Velocity P-wave (km/s) = 5.30936 6.33554 5.84502
#
# Compressibility (1/GPa) = 0.03919468
#
# Stress axis : x y z
#
# Youngs Moduli (GPa) = 70.58925 36.13177 28.99919
#
# Poissons Ratio (x) = 0.32733 -0.06315
# Poissons Ratio (y) = 0.63949 0.33884
# Poissons Ratio (z) = -0.15372 0.42218
#
# Static dielectric constant tensor:
#      x y z
#    x 3.884450 0.000000 -0.244210 
#    y 0.000000 3.365700 0.000000 
#    z -0.244210 0.000000 3.108190 
# 
# 
# High freq. dielectric constant tensor:
#      x y z
#    x 1.726730 0.000000 -0.011200 
#    y 0.000000 1.711070 0.000000 
#    z -0.011200 0.000000 1.673760 
# 
# From -- ./inp_files/72002.got.cif
#   From: 2010.06.25/outbox.cif.g09.slc.cpg/sg11_37_cif.got.tgz:72002.got - 2010.06.27 23:14:04.
