data_PCOD8075290
_publ_section_title
;
Structure prediction by ZEFSAII (Michael W. Deem and Ramdas Pophale) SiO2 
 PCOD8075290
Probable space group: P 21/M
;
_chemical_formula_sum "Si O2"
_cell_formula_units_Z 28
_cell_length_a 8.562443
_cell_length_b 13.770521
_cell_length_c 11.614470
_cell_angle_alpha 90.000000
_cell_angle_beta 67.727962
_cell_angle_gamma 90.000000
_cell_volume 1267.285640
_symmetry_space_group_name_H-M "P 21/M"
_symmetry_group_IT_number 11
_symmetry_cell_setting 'monoclinic'
loop_
_space_group_symop_operation_xyz
x,y,z
-x,1/2+y,-z
-x,-y,-z
x,1/2-y,z
loop_
_atom_site_type_symbol
_atom_site_label
_atom_site_fract_x
_atom_site_fract_y
_atom_site_fract_z
Si Si1 0.304431 0.518100 0.579458
Si Si2 0.947147 0.861833 0.295291
Si Si3 0.873663 0.636595 0.058794
Si Si4 0.822382 0.357248 0.176595
Si Si5 0.757610 0.137009 0.618966
Si Si6 0.504609 0.935972 0.149062
Si Si7 0.460157 0.644340 0.921711
O O1 0.500000 0.500000 0.500000
O O2 0.216269 0.414089 0.606666
O O3 0.272499 0.570815 0.710324
O O4 0.211205 0.581689 0.508666
O O5 0.913740 0.750000 0.329229
O O6 0.966826 0.883989 0.154132
O O7 0.112691 0.897372 0.318149
O O8 0.823690 0.750000 0.063392
O O9 0.707567 0.570127 0.096431
O O10 0.993588 0.605824 0.917878
O O11 0.837530 0.250000 0.229358
O O12 0.720039 0.348082 0.087190
O O13 0.770819 0.250000 0.588874
O O14 0.569699 0.108704 0.713565
O O15 0.443436 0.049054 0.154792
O O16 0.431428 0.871994 0.065230
O O17 0.554455 0.750000 0.876997
#
# Coordination Sequence:
#
# PCOD8075290 Si02
#       7
#     4   4   4   4   4   4   4
#     4  12  25  41  63  91 124 165 214 260 309 368
#     4  10  23  42  65  91 122 162 208 258 312 374
#     4  10  20  37  63  94 123 154 200 255 311 373
#     4  10  22  40  61  88 124 162 198 248 316 378
#     4  11  23  42  65  90 124 165 208 254 308 374
#     4  11  22  37  63  94 122 159 204 255 312 369
#     4  10  21  37  56  84 122 158 198 248 306 368
#
# _framework density 22.094467000000002
#
# number of rings (size 3 to 8) (size 9 to 14) (size 15 to 20)
#    0.000    1.429    0.000    5.571    0.000    9.143 
#    0.000    2.143    0.000    2.571    0.000    0.000 
#    0.000    0.000    0.000    0.000    0.000    0.000 
#
# Total GULP energy -347113.391501 kJ/mol
# GULP energy per Si atom -12396.906839 kJ/mol
# Density = 2.204418 g / cm^3
# Si number density = 22.094467 Si / 1000 Ang^3
#
#
#
# Elastic Constant Matrix: (Units=GPa)
#
#
# Indices 1 2 3 4 5 6 
#
# 1 93.8512 44.5938 53.0416 0.0000 -0.2571 0.0000
# 2 44.5938 125.8146 53.4120 0.0000 0.6943 0.0000
# 3 53.0416 53.4120 116.8355 0.0000 -4.8946 0.0000
# 4 0.0000 0.0000 0.0000 38.6683 0.0000 2.4093
# 5 -0.2571 0.6943 -4.8946 0.0000 40.6961 0.0000
# 6 0.0000 0.0000 0.0000 2.4093 0.0000 27.8749
#
#
#
# Elastic Compliance Matrix: (Units=1/GPa)
#
#
# Indices 1 2 3 4 5 6 
#
# 1 0.015234 -0.003042 -0.005547 0.000000 -0.000519 0.000000
# 2 -0.003042 0.010490 -0.003440 0.000000 -0.000612 0.000000
# 3 -0.005547 -0.003440 0.012715 0.000000 0.001553 0.000000
# 4 0.000000 0.000000 0.000000 0.026001 0.000000 -0.002247
# 5 -0.000519 -0.000612 0.001553 0.000000 0.024766 0.000000
# 6 0.000000 0.000000 0.000000 -0.002247 0.000000 0.036069
#
#
# Mechanical properties :
#
#
# Convention : Reuss Voigt Hill
#
# Bulk Modulus (GPa) = 69.53701 70.95513 70.24607
# Shear Modulus (GPa) = 32.44048 33.81144 33.12596
#
# Velocity S-wave (km/s) = 3.83595 3.91617 3.87626
# Velocity P-wave (km/s) = 7.15264 7.25483 7.20392
#
# Compressibility (1/GPa) = 0.01438083
#
# Stress axis : x y z
#
# Youngs Moduli (GPa) = 65.64181 95.32651 78.64551
#
# Poissons Ratio (x) = 0.28996 0.43627
# Poissons Ratio (y) = 0.19967 0.27057
# Poissons Ratio (z) = 0.36413 0.32796
#
# Static dielectric constant tensor:
#      x y z
#    x 3.942480 0.000000 0.242770 
#    y 0.000000 4.283990 0.000000 
#    z 0.242770 0.000000 3.797530 
# 
# 
# High freq. dielectric constant tensor:
#      x y z
#    x 1.863950 0.000000 0.017460 
#    y 0.000000 1.889520 0.000000 
#    z 0.017460 0.000000 1.852870 
# 
# From -- ./inp_files/31665.got.cif
#   From: 2010.06.25/outbox.cif.g09.slc.cpg/sg11_16_cif.got.tgz:31665.got - 2010.06.27 23:14:04.
