data_PCOD8075207
_publ_section_title
;
Structure prediction by ZEFSAII (Michael W. Deem and Ramdas Pophale) SiO2 
 PCOD8075207
Probable space group: P 21/M
;
_chemical_formula_sum "Si O2"
_cell_formula_units_Z 28
_cell_length_a 15.183617
_cell_length_b 11.477702
_cell_length_c 10.313287
_cell_angle_alpha 90.000000
_cell_angle_beta 126.377995
_cell_angle_gamma 90.000000
_cell_volume 1447.067507
_symmetry_space_group_name_H-M "P 21/M"
_symmetry_group_IT_number 11
_symmetry_cell_setting 'monoclinic'
loop_
_space_group_symop_operation_xyz
x,y,z
-x,1/2+y,-z
-x,-y,-z
x,1/2-y,z
loop_
_atom_site_type_symbol
_atom_site_label
_atom_site_fract_x
_atom_site_fract_y
_atom_site_fract_z
Si Si1 0.221349 0.112387 0.556237
Si Si2 0.376874 0.617861 0.309107
Si Si3 0.420344 0.977386 0.619190
Si Si4 0.219441 0.381829 0.842634
Si Si5 0.526838 0.619694 0.945678
Si Si6 0.153230 0.970227 0.021346
Si Si7 0.917405 0.881751 0.801378
O O1 0.231095 0.250000 0.573894
O O2 0.338896 0.069046 0.612297
O O3 0.195428 0.065340 0.678225
O O4 0.126484 0.069741 0.375137
O O5 0.415916 0.750000 0.334893
O O6 0.467968 0.540749 0.321089
O O7 0.362220 0.582191 0.446147
O O8 0.262237 0.605363 0.133577
O O9 0.452330 0.879428 0.751935
O O10 0.175487 0.250000 0.815028
O O11 0.347508 0.387256 0.985512
O O12 0.154379 0.457086 0.890171
O O13 0.506413 0.750000 0.994607
O O14 0.500000 0.500000 0.000000
O O15 0.142705 0.053138 0.135479
O O16 0.048092 0.887342 0.921979
O O17 0.878687 0.750000 0.782005
#
# Coordination Sequence:
#
# PCOD8075207 Si02
#       7
#     4   4   4   4   4   4   4
#     4  10  20  37  61  87 118 157 199 243 297 364
#     4  11  23  36  56  87 120 154 197 249 301 354
#     4  11  21  38  56  85 120 161 195 244 294 358
#     4  10  21  37  59  87 120 154 194 245 299 361
#     4  11  22  37  59  88 124 163 203 244 296 362
#     4  11  21  39  60  86 114 150 196 251 302 356
#     4  10  22  39  61  83 111 152 200 251 301 361
#
# _framework density 19.349478000000001
#
# number of rings (size 3 to 8) (size 9 to 14) (size 15 to 20)
#    0.000    1.429    4.286    1.714    0.000    1.143 
#    0.000    0.000    0.000    0.000    0.000    0.000 
#    0.000    0.000    0.000    0.000    0.000    0.000 
#
# Total GULP energy -347101.885024 kJ/mol
# GULP energy per Si atom -12396.495894 kJ/mol
# Density = 1.930544 g / cm^3
# Si number density = 19.349478 Si / 1000 Ang^3
#
#
#
# Elastic Constant Matrix: (Units=GPa)
#
#
# Indices 1 2 3 4 5 6 
#
# 1 45.2020 19.6756 27.5362 0.0000 -0.9457 0.0000
# 2 19.6756 79.2490 22.1972 0.0000 -10.3199 0.0000
# 3 27.5362 22.1972 130.9786 0.0000 -9.0157 0.0000
# 4 0.0000 0.0000 0.0000 20.6102 0.0000 -10.7749
# 5 -0.9457 -10.3199 -9.0157 0.0000 31.9849 0.0000
# 6 0.0000 0.0000 0.0000 -10.7749 0.0000 2.9311
#
#
#
# Elastic Compliance Matrix: (Units=1/GPa)
#
#
# Indices 1 2 3 4 5 6 
#
# 1 0.027633 -0.005780 -0.004999 0.000000 -0.002457 0.000000
# 2 -0.005780 0.014904 -0.001011 0.000000 0.004353 0.000000
# 3 -0.004999 -0.001011 0.008999 0.000000 0.002063 0.000000
# 4 0.000000 0.000000 0.000000 -0.052636 0.000000 -0.193492
# 5 -0.002457 0.004353 0.002063 0.000000 0.033178 0.000000
# 6 0.000000 0.000000 0.000000 -0.193492 0.000000 -0.370112
#
#
# Mechanical properties :
#
#
# Convention : Reuss Voigt Hill
#
# Bulk Modulus (GPa) = 35.77157 43.80529 39.78843
# Shear Modulus (GPa) = -16.38614 23.50662 3.56024
#
# Velocity S-wave (km/s) = -2.91323 3.48924 1.35793
# Velocity P-wave (km/s) = 2.68540 6.23869 4.80274
#
# Compressibility (1/GPa) = 0.02795516
#
# Stress axis : x y z
#
# Youngs Moduli (GPa) = 36.18890 67.09820 111.12261
#
# Poissons Ratio (x) = 0.38785 0.55549
# Poissons Ratio (y) = 0.20918 0.11233
# Poissons Ratio (z) = 0.18090 0.06783
#
# Static dielectric constant tensor:
#      x y z
#    x 3.308660 0.000000 -0.083600 
#    y 0.000000 3.472360 0.000000 
#    z -0.083600 0.000000 3.920020 
# 
# 
# High freq. dielectric constant tensor:
#      x y z
#    x 1.738900 0.000000 -0.001860 
#    y 0.000000 1.745380 0.000000 
#    z -0.001860 0.000000 1.772460 
# 
# From -- ./inp_files/21616.got.cif
#   From: 2010.06.25/outbox.cif.g09.slc.cpg/sg11_11_cif.got.tgz:21616.got - 2010.06.27 23:14:04.
