data_PCOD8075130
_publ_section_title
;
Structure prediction by ZEFSAII (Michael W. Deem and Ramdas Pophale) SiO2 
 PCOD8075130
Probable space group: P 21/M
;
_chemical_formula_sum "Si O2"
_cell_formula_units_Z 28
_cell_length_a 9.239787
_cell_length_b 8.598711
_cell_length_c 29.398999
_cell_angle_alpha 90.000000
_cell_angle_beta 37.698985
_cell_angle_gamma 90.000000
_cell_volume 1428.346473
_symmetry_space_group_name_H-M "P 21/M"
_symmetry_group_IT_number 11
_symmetry_cell_setting 'monoclinic'
loop_
_space_group_symop_operation_xyz
x,y,z
-x,1/2+y,-z
-x,-y,-z
x,1/2-y,z
loop_
_atom_site_type_symbol
_atom_site_label
_atom_site_fract_x
_atom_site_fract_y
_atom_site_fract_z
Si Si1 0.239215 0.565676 0.068480
Si Si2 0.679960 0.432194 0.364254
Si Si3 0.924065 0.432692 0.066893
Si Si4 0.064029 0.566888 0.209000
Si Si5 0.027262 0.066615 0.357298
Si Si6 0.586290 0.432777 0.798696
Si Si7 0.855219 0.564741 0.494220
O O1 0.251719 0.750000 0.065373
O O2 0.122667 0.503370 0.144279
O O3 0.084652 0.508925 0.065224
O O4 0.500000 0.500000 0.000000
O O5 0.680954 0.250000 0.357436
O O6 0.413516 0.495097 0.433455
O O7 0.810341 0.502403 0.287842
O O8 0.812866 0.482025 0.377365
O O9 0.967366 0.250000 0.056359
O O10 0.652948 0.470571 0.144068
O O11 0.000000 0.500000 0.000000
O O12 0.046016 0.750000 0.213859
O O13 0.270889 0.512733 0.191967
O O14 0.074515 0.250000 0.344506
O O15 0.263326 0.976761 0.283211
O O16 0.965799 0.011298 0.422440
O O17 0.529591 0.250000 0.813327
O O18 0.870091 0.750000 0.487434
O O19 0.000000 0.500000 0.500000
#
# Coordination Sequence:
#
# PCOD8075130 Si02
#       7
#     4   4   4   4   4   4   4
#     4  11  23  40  61  88 120 156 196 242 292 347
#     4   9  20  37  59  84 112 146 189 235 284 340
#     4  12  25  41  61  87 118 156 198 243 293 349
#     4   9  20  37  60  87 115 146 186 233 286 344
#     4  10  20  37  60  86 113 148 191 236 286 345
#     4  10  20  38  62  89 118 150 189 237 289 346
#     4  11  23  38  55  81 115 152 191 238 289 341
#
# _framework density 19.603088
#
# number of rings (size 3 to 8) (size 9 to 14) (size 15 to 20)
#    0.000    1.714    0.000    4.286    0.000    5.714 
#    0.000    2.857    0.000    0.000    0.000    0.000 
#    0.000    0.000    0.000    0.000    0.000    0.000 
#
# Total GULP energy -347321.208894 kJ/mol
# GULP energy per Si atom -12404.328889 kJ/mol
# Density = 1.955847 g / cm^3
# Si number density = 19.603088 Si / 1000 Ang^3
#
#
#
# Elastic Constant Matrix: (Units=GPa)
#
#
# Indices 1 2 3 4 5 6 
#
# 1 118.7293 20.0621 83.4457 0.0000 10.5226 0.0000
# 2 20.0621 51.0382 25.1485 0.0000 7.3285 0.0000
# 3 83.4457 25.1485 157.6956 0.0000 14.0113 0.0000
# 4 0.0000 0.0000 0.0000 38.6900 0.0000 -0.7412
# 5 10.5226 7.3285 14.0113 0.0000 38.2509 0.0000
# 6 0.0000 0.0000 0.0000 -0.7412 0.0000 32.9126
#
#
#
# Elastic Compliance Matrix: (Units=1/GPa)
#
#
# Indices 1 2 3 4 5 6 
#
# 1 0.013615 -0.001859 -0.006829 0.000000 -0.000888 0.000000
# 2 -0.001859 0.021840 -0.002246 0.000000 -0.002850 0.000000
# 3 -0.006829 -0.002246 0.010448 0.000000 -0.001518 0.000000
# 4 0.000000 0.000000 0.000000 0.025858 0.000000 0.000582
# 5 -0.000888 -0.002850 -0.001518 0.000000 0.027490 0.000000
# 6 0.000000 0.000000 0.000000 0.000582 0.000000 0.030397
#
#
# Mechanical properties :
#
#
# Convention : Reuss Voigt Hill
#
# Bulk Modulus (GPa) = 41.60694 64.97509 53.29101
# Shear Modulus (GPa) = 31.34273 35.22450 33.28362
#
# Velocity S-wave (km/s) = 4.00292 4.24357 4.12500
# Velocity P-wave (km/s) = 6.52957 7.56490 7.06622
#
# Compressibility (1/GPa) = 0.02403445
#
# Stress axis : x y z
#
# Youngs Moduli (GPa) = 73.44835 45.78781 95.71186
#
# Poissons Ratio (x) = 0.08514 0.65362
# Poissons Ratio (y) = 0.13657 0.21495
# Poissons Ratio (z) = 0.50158 0.10283
#
# Static dielectric constant tensor:
#      x y z
#    x 3.798690 0.000000 -0.008340 
#    y 0.000000 3.504310 0.000000 
#    z -0.008340 0.000000 3.866300 
# 
# 
# High freq. dielectric constant tensor:
#      x y z
#    x 1.764960 0.000000 0.000270 
#    y 0.000000 1.769830 0.000000 
#    z 0.000270 0.000000 1.781650 
# 
# From -- ./inp_files/28178.got.cif
#   From: 2010.06.25/outbox.cif.g09.slc.cpg/sg11_15_cif.got.tgz:28178.got - 2010.06.27 23:14:04.
