data_PCOD8075249
_publ_section_title
;
Structure prediction by ZEFSAII (Michael W. Deem and Ramdas Pophale) SiO2 
 PCOD8075249
Probable space group: P 21/M
;
_chemical_formula_sum "Si O2"
_cell_formula_units_Z 32
_cell_length_a 12.137648
_cell_length_b 8.760281
_cell_length_c 15.091242
_cell_angle_alpha 90.000000
_cell_angle_beta 86.877766
_cell_angle_gamma 90.000000
_cell_volume 1602.257885
_symmetry_space_group_name_H-M "P 21/M"
_symmetry_group_IT_number 11
_symmetry_cell_setting 'monoclinic'
loop_
_space_group_symop_operation_xyz
x,y,z
-x,1/2+y,-z
-x,-y,-z
x,1/2-y,z
loop_
_atom_site_type_symbol
_atom_site_label
_atom_site_fract_x
_atom_site_fract_y
_atom_site_fract_z
Si Si1 0.538344 0.927116 0.862641
Si Si2 0.296402 0.073737 0.446511
Si Si3 0.908621 0.929334 0.066604
Si Si4 0.913134 0.073284 0.253757
Si Si5 0.528453 0.071751 0.683548
Si Si6 0.948482 0.573814 0.588225
Si Si7 0.306912 0.925918 0.633032
Si Si8 0.337453 0.071804 0.965382
O O1 0.535178 0.750000 0.837604
O O2 0.578986 0.022714 0.775841
O O3 0.415955 0.977792 0.896461
O O4 0.627258 0.961092 0.935193
O O5 0.332814 0.250000 0.438389
O O6 0.181841 0.045274 0.400915
O O7 0.387663 0.967083 0.398573
O O8 0.283017 0.029643 0.549147
O O9 0.915405 0.750000 0.056436
O O10 0.787174 0.986880 0.042501
O O11 0.933949 0.975660 0.165686
O O12 0.000000 0.000000 0.000000
O O13 0.937022 0.250000 0.231264
O O14 0.788959 0.047814 0.291875
O O15 0.996931 0.008658 0.324653
O O16 0.501901 0.250000 0.682198
O O17 0.417925 0.975914 0.675886
O O18 0.979493 0.750000 0.579653
O O19 0.000000 0.500000 0.500000
O O20 0.313755 0.750000 0.602875
O O21 0.350325 0.250000 0.941387
#
# Coordination Sequence:
#
# PCOD8075249 Si02
#       8
#     4   4   4   4   4   4   4   4
#     4  10  20  37  62  89 116 150 194 244 298 357
#     4  11  23  39  60  86 118 157 199 245 299 354
#     4  11  24  41  61  87 121 159 199 246 298 354
#     4  10  22  40  63  91 121 156 197 245 299 355
#     4  12  25  39  56  83 122 159 198 244 296 357
#     4  10  21  39  63  89 119 155 198 248 297 351
#     4  11  22  39  63  88 119 155 197 245 296 356
#     4   9  20  39  62  87 117 153 194 242 298 356
#
# _framework density 19.971817999999999
#
# number of rings (size 3 to 8) (size 9 to 14) (size 15 to 20)
#    0.000    1.500    1.250    3.750    0.000    6.500 
#    0.000    5.000    0.000    0.000    0.000    0.000 
#    0.000    0.000    0.000    0.000    0.000    0.000 
#
# Total GULP energy -396984.247674 kJ/mol
# GULP energy per Si atom -12405.757740 kJ/mol
# Density = 1.992636 g / cm^3
# Si number density = 19.971818 Si / 1000 Ang^3
#
#
#
# Elastic Constant Matrix: (Units=GPa)
#
#
# Indices 1 2 3 4 5 6 
#
# 1 85.8461 33.4478 51.6397 0.0000 10.8629 0.0000
# 2 33.4478 47.6512 32.5384 0.0000 -3.4685 0.0000
# 3 51.6397 32.5384 121.0050 0.0000 3.4038 0.0000
# 4 0.0000 0.0000 0.0000 39.8438 0.0000 -1.6756
# 5 10.8629 -3.4685 3.4038 0.0000 30.0536 0.0000
# 6 0.0000 0.0000 0.0000 -1.6756 0.0000 26.3548
#
#
#
# Elastic Compliance Matrix: (Units=1/GPa)
#
#
# Indices 1 2 3 4 5 6 
#
# 1 0.020246 -0.011080 -0.005436 0.000000 -0.007981 0.000000
# 2 -0.011080 0.032201 -0.004161 0.000000 0.008192 0.000000
# 3 -0.005436 -0.004161 0.011698 0.000000 0.000160 0.000000
# 4 0.000000 0.000000 0.000000 0.025165 0.000000 0.001600
# 5 -0.007981 0.008192 0.000160 0.000000 0.037086 0.000000
# 6 0.000000 0.000000 0.000000 0.001600 0.000000 0.038045
#
#
# Mechanical properties :
#
#
# Convention : Reuss Voigt Hill
#
# Bulk Modulus (GPa) = 43.87691 54.41713 49.14702
# Shear Modulus (GPa) = 23.43103 28.37553 25.90328
#
# Velocity S-wave (km/s) = 3.42892 3.77341 3.60528
# Velocity P-wave (km/s) = 6.13953 6.80374 6.48015
#
# Compressibility (1/GPa) = 0.02279103
#
# Stress axis : x y z
#
# Youngs Moduli (GPa) = 49.39320 31.05524 85.48212
#
# Poissons Ratio (x) = 0.34409 0.46469
# Poissons Ratio (y) = 0.54728 0.35567
# Poissons Ratio (z) = 0.26850 0.12921
#
# Static dielectric constant tensor:
#      x y z
#    x 3.797850 0.000000 0.152300 
#    y 0.000000 3.529680 0.000000 
#    z 0.152300 0.000000 3.683630 
# 
# 
# High freq. dielectric constant tensor:
#      x y z
#    x 1.783170 0.000000 0.007960 
#    y 0.000000 1.781020 0.000000 
#    z 0.007960 0.000000 1.788010 
# 
# From -- ./inp_files/49364.got.cif
#   From: 2010.06.25/outbox.cif.g09.slc.cpg/sg11_25_cif.got.tgz:49364.got - 2010.06.27 23:14:04.
