data_PCOD8075868
_publ_section_title
;
Structure prediction by ZEFSAII (Michael W. Deem and Ramdas Pophale) SiO2 
 PCOD8075868
Probable space group: P 21/M
;
_chemical_formula_sum "Si O2"
_cell_formula_units_Z 28
_cell_length_a 9.508359
_cell_length_b 8.816422
_cell_length_c 26.354371
_cell_angle_alpha 90.000000
_cell_angle_beta 39.404072
_cell_angle_gamma 90.000000
_cell_volume 1402.418220
_symmetry_space_group_name_H-M "P 21/M"
_symmetry_group_IT_number 11
_symmetry_cell_setting 'monoclinic'
loop_
_space_group_symop_operation_xyz
x,y,z
-x,1/2+y,-z
-x,-y,-z
x,1/2-y,z
loop_
_atom_site_type_symbol
_atom_site_label
_atom_site_fract_x
_atom_site_fract_y
_atom_site_fract_z
Si Si1 0.291345 0.071680 0.585072
Si Si2 0.814716 0.074244 0.685642
Si Si3 0.060702 0.429288 0.929094
Si Si4 0.262206 0.578513 0.179285
Si Si5 0.594436 0.428042 0.238057
Si Si6 0.349659 0.423961 0.000381
Si Si7 0.166856 0.572113 0.725463
O O1 0.323288 0.250000 0.580237
O O2 0.075497 0.032590 0.610715
O O3 0.500000 0.000000 0.500000
O O4 0.268997 0.009560 0.648109
O O5 0.775789 0.250000 0.683996
O O6 0.730612 0.028573 0.764779
O O7 0.665855 0.975272 0.688504
O O8 0.071318 0.250000 0.932253
O O9 0.290980 0.488106 0.841630
O O10 0.000000 0.500000 0.000000
O O11 0.872941 0.479549 0.941577
O O12 0.171225 0.750000 0.199746
O O13 0.513325 0.565936 0.090070
O O14 0.091660 0.472895 0.195391
O O15 0.621087 0.250000 0.222734
O O16 0.700186 0.480598 0.261765
O O17 0.291669 0.250000 0.030371
O O18 0.500000 0.500000 0.000000
O O19 0.188153 0.750000 0.711161
#
# Coordination Sequence:
#
# PCOD8075868 Si02
#       7
#     4   4   4   4   4   4   4
#     4  10  21  39  64  91 118 147 183 225 273 332
#     4   9  19  36  58  83 110 144 184 227 275 330
#     4  12  25  40  58  80 111 153 198 247 300 350
#     4   9  19  35  54  76 104 142 188 234 281 334
#     4  11  23  38  57  84 116 150 192 238 283 340
#     4  11  22  36  54  79 111 147 191 242 293 344
#     4  10  21  36  57  85 116 149 187 231 278 332
#
# _framework density 19.965513999999999
#
# number of rings (size 3 to 8) (size 9 to 14) (size 15 to 20)
#    0.000    1.714    0.000    5.571    0.000    9.714 
#    0.000    0.714    0.000    0.000    0.000    0.000 
#    0.000    0.000    0.000    0.000    0.000    0.000 
#
# Total GULP energy -347237.713220 kJ/mol
# GULP energy per Si atom -12401.346901 kJ/mol
# Density = 1.992007 g / cm^3
# Si number density = 19.965514 Si / 1000 Ang^3
#
#
#
# Elastic Constant Matrix: (Units=GPa)
#
#
# Indices 1 2 3 4 5 6 
#
# 1 105.5357 45.7837 28.3306 0.0000 -18.5945 0.0000
# 2 45.7837 107.1040 36.9661 0.0000 -6.8432 0.0000
# 3 28.3306 36.9661 76.0179 0.0000 -15.1488 0.0000
# 4 0.0000 0.0000 0.0000 33.5721 0.0000 -3.6801
# 5 -18.5945 -6.8432 -15.1488 0.0000 26.1677 0.0000
# 6 0.0000 0.0000 0.0000 -3.6801 0.0000 37.1823
#
#
#
# Elastic Compliance Matrix: (Units=1/GPa)
#
#
# Indices 1 2 3 4 5 6 
#
# 1 0.013153 -0.004767 -0.001096 0.000000 0.007465 0.000000
# 2 -0.004767 0.012949 -0.005110 0.000000 -0.002959 0.000000
# 3 -0.001096 -0.005110 0.017665 0.000000 0.008111 0.000000
# 4 0.000000 0.000000 0.000000 0.030113 0.000000 0.002980
# 5 0.007465 -0.002959 0.008111 0.000000 0.047441 0.000000
# 6 0.000000 0.000000 0.000000 0.002980 0.000000 0.027190
#
#
# Mechanical properties :
#
#
# Convention : Reuss Voigt Hill
#
# Bulk Modulus (GPa) = 45.82919 56.75761 51.29340
# Shear Modulus (GPa) = 28.13236 31.22290 29.67763
#
# Velocity S-wave (km/s) = 3.75780 3.95883 3.85963
# Velocity P-wave (km/s) = 6.46777 7.02752 6.75345
#
# Compressibility (1/GPa) = 0.02182016
#
# Stress axis : x y z
#
# Youngs Moduli (GPa) = 76.02727 77.22490 56.61067
#
# Poissons Ratio (x) = 0.36816 0.06205
# Poissons Ratio (y) = 0.36245 0.28928
# Poissons Ratio (z) = 0.08333 0.39462
#
# Static dielectric constant tensor:
#      x y z
#    x 3.692320 0.000000 -0.198490 
#    y 0.000000 3.773330 0.000000 
#    z -0.198490 0.000000 3.732060 
# 
# 
# High freq. dielectric constant tensor:
#      x y z
#    x 1.785030 0.000000 -0.012320 
#    y 0.000000 1.784340 0.000000 
#    z -0.012320 0.000000 1.767090 
# 
# From -- ./inp_files/70840.got.cif
#   From: 2010.06.25/outbox.cif.g09.slc.cpg/sg11_36_cif.got.tgz:70840.got - 2010.06.27 23:14:04.
