data_PCOD8075731
_publ_section_title
;
Structure prediction by ZEFSAII (Michael W. Deem and Ramdas Pophale) SiO2 
 PCOD8075731
Probable space group: P 21/M
;
_chemical_formula_sum "Si O2"
_cell_formula_units_Z 28
_cell_length_a 25.983232
_cell_length_b 9.094912
_cell_length_c 9.543168
_cell_angle_alpha 90.000000
_cell_angle_beta 140.606296
_cell_angle_gamma 90.000000
_cell_volume 1431.250044
_symmetry_space_group_name_H-M "P 21/M"
_symmetry_group_IT_number 11
_symmetry_cell_setting 'monoclinic'
loop_
_space_group_symop_operation_xyz
x,y,z
-x,1/2+y,-z
-x,-y,-z
x,1/2-y,z
loop_
_atom_site_type_symbol
_atom_site_label
_atom_site_fract_x
_atom_site_fract_y
_atom_site_fract_z
Si Si1 0.435317 0.577916 0.463152
Si Si2 0.748935 0.079608 0.910513
Si Si3 0.768795 0.578415 0.662523
Si Si4 0.500723 0.081326 0.856396
Si Si5 0.318281 0.584711 0.746161
Si Si6 0.174656 0.578690 0.642851
Si Si7 0.919189 0.922590 0.780571
O O1 0.500000 0.500000 0.500000
O O2 0.455938 0.750000 0.508803
O O3 0.342153 0.548272 0.224039
O O4 0.442705 0.508475 0.632267
O O5 0.756380 0.250000 0.886074
O O6 0.773675 0.987597 0.827323
O O7 0.812527 0.037398 0.167206
O O8 0.756382 0.750000 0.652279
O O9 0.691973 0.516169 0.413807
O O10 0.850073 0.537802 0.748232
O O11 0.470919 0.250000 0.805464
O O12 0.593394 0.073484 0.997901
O O13 0.500000 0.000000 0.000000
O O14 0.300549 0.750000 0.657508
O O15 0.257770 0.536075 0.740471
O O16 0.153393 0.750000 0.581146
O O17 0.103399 0.483853 0.421641
O O18 0.933653 0.750000 0.798710
O O19 0.000000 0.000000 0.000000
#
# Coordination Sequence:
#
# PCOD8075731 Si02
#       7
#     4   4   4   4   4   4   4
#     4  11  23  38  55  78 109 148 192 237 283 332
#     4  10  21  37  56  79 110 147 186 223 270 331
#     4  10  21  35  55  84 113 140 178 226 271 317
#     4  11  22  35  51  75 106 142 186 235 283 331
#     4   9  18  34  54  73 100 140 183 224 271 326
#     4   9  18  35  58  80 103 137 178 219 262 314
#     4  10  21  38  60  87 114 140 173 214 261 319
#
# _framework density 19.563317999999999
#
# number of rings (size 3 to 8) (size 9 to 14) (size 15 to 20)
#    0.000    2.000    0.000    3.429    0.000   10.286 
#    0.000    3.571    0.000    0.000    0.000    0.000 
#    0.000    0.000    0.000    0.000    0.000    0.000 
#
# Total GULP energy -347212.339160 kJ/mol
# GULP energy per Si atom -12400.440684 kJ/mol
# Density = 1.951879 g / cm^3
# Si number density = 19.563318 Si / 1000 Ang^3
#
#
#
# Elastic Constant Matrix: (Units=GPa)
#
#
# Indices 1 2 3 4 5 6 
#
# 1 44.7685 34.5923 23.0562 0.0000 -14.9887 0.0000
# 2 34.5923 109.3780 56.3238 0.0000 -8.7180 0.0000
# 3 23.0562 56.3238 114.4622 0.0000 -9.8693 0.0000
# 4 0.0000 0.0000 0.0000 34.2319 0.0000 -4.3709
# 5 -14.9887 -8.7180 -9.8693 0.0000 31.7616 0.0000
# 6 0.0000 0.0000 0.0000 -4.3709 0.0000 34.0264
#
#
#
# Elastic Compliance Matrix: (Units=1/GPa)
#
#
# Indices 1 2 3 4 5 6 
#
# 1 0.034606 -0.009217 -0.001279 0.000000 0.013403 0.000000
# 2 -0.009217 0.014773 -0.005588 0.000000 -0.002031 0.000000
# 3 -0.001279 -0.005588 0.011878 0.000000 0.001553 0.000000
# 4 0.000000 0.000000 0.000000 0.029700 0.000000 0.003815
# 5 0.013403 -0.002031 0.001553 0.000000 0.037735 0.000000
# 6 0.000000 0.000000 0.000000 0.003815 0.000000 0.029879
#
#
# Mechanical properties :
#
#
# Convention : Reuss Voigt Hill
#
# Bulk Modulus (GPa) = 34.37922 55.17260 44.77591
# Shear Modulus (GPa) = 24.94563 30.31307 27.62935
#
# Velocity S-wave (km/s) = 3.57476 3.94062 3.76214
# Velocity P-wave (km/s) = 5.88643 6.99771 6.46599
#
# Compressibility (1/GPa) = 0.02908734
#
# Stress axis : x y z
#
# Youngs Moduli (GPa) = 28.89698 67.68929 84.19016
#
# Poissons Ratio (x) = 0.62392 0.10771
# Poissons Ratio (y) = 0.26636 0.47046
# Poissons Ratio (z) = 0.03697 0.37825
#
# Static dielectric constant tensor:
#      x y z
#    x 3.463240 0.000000 0.029620 
#    y 0.000000 3.580250 0.000000 
#    z 0.029620 0.000000 3.763740 
# 
# 
# High freq. dielectric constant tensor:
#      x y z
#    x 1.749570 0.000000 -0.007680 
#    y 0.000000 1.766220 0.000000 
#    z -0.007680 0.000000 1.766290 
# 
# From -- ./inp_files/28158.got.cif
#   From: 2010.06.25/outbox.cif.g09.slc.cpg/sg11_15_cif.got.tgz:28158.got - 2010.06.27 23:14:04.
