data_PCOD8075013
_publ_section_title
;
Structure prediction by ZEFSAII (Michael W. Deem and Ramdas Pophale) SiO2 
 PCOD8075013
Probable space group: P 21/M
;
_chemical_formula_sum "Si O2"
_cell_formula_units_Z 28
_cell_length_a 22.722519
_cell_length_b 9.155290
_cell_length_c 21.430383
_cell_angle_alpha 90.000000
_cell_angle_beta 19.805471
_cell_angle_gamma 90.000000
_cell_volume 1510.558325
_symmetry_space_group_name_H-M "P 21/M"
_symmetry_group_IT_number 11
_symmetry_cell_setting 'monoclinic'
loop_
_space_group_symop_operation_xyz
x,y,z
-x,1/2+y,-z
-x,-y,-z
x,1/2-y,z
loop_
_atom_site_type_symbol
_atom_site_label
_atom_site_fract_x
_atom_site_fract_y
_atom_site_fract_z
Si Si1 0.802299 0.079385 0.760432
Si Si2 0.804029 0.920514 0.631906
Si Si3 0.498044 0.921781 0.847257
Si Si4 0.801068 0.919505 0.076617
Si Si5 0.683963 0.423818 0.313777
Si Si6 0.813137 0.080676 0.317229
Si Si7 0.491428 0.577843 0.294111
O O1 0.782526 0.250000 0.767272
O O2 0.999074 0.038678 0.584548
O O3 0.749658 0.000316 0.749365
O O4 0.670988 0.028091 0.945207
O O5 0.784266 0.750000 0.664936
O O6 0.673669 0.970454 0.707512
O O7 0.495950 0.750000 0.837229
O O8 0.490611 0.002096 0.789591
O O9 0.781397 0.750000 0.115952
O O10 0.658742 0.964438 0.168074
O O11 0.788440 0.018931 0.150139
O O12 0.989884 0.950112 0.857852
O O13 0.500000 0.500000 0.500000
O O14 0.662787 0.250000 0.330721
O O15 0.785659 0.476341 0.274235
O O16 0.767239 0.250000 0.362186
O O17 0.677899 0.011483 0.501578
O O18 0.478909 0.750000 0.295504
#
# Coordination Sequence:
#
# PCOD8075013 Si02
#       7
#     4   4   4   4   4   4   4
#     4   9  18  33  53  77 105 133 165 211 259 303
#     4   9  18  33  53  77 104 133 167 209 257 306
#     4  10  21  35  51  74 105 139 172 210 257 303
#     4  10  20  37  58  78 105 138 174 221 270 313
#     4  11  20  34  57  83 110 138 172 217 269 320
#     4   9  19  36  56  78 105 137 174 218 267 315
#     4  10  21  37  53  74 104 140 178 216 257 307
#
# _framework density 18.536193999999998
#
# number of rings (size 3 to 8) (size 9 to 14) (size 15 to 20)
#    0.000    2.286    1.429    1.286    0.000    2.857 
#    0.000    1.429    0.000    0.000    0.000    0.000 
#    0.000    0.000    0.000    0.000    0.000    0.000 
#
# Total GULP energy -347195.861276 kJ/mol
# GULP energy per Si atom -12399.852188 kJ/mol
# Density = 1.849400 g / cm^3
# Si number density = 18.536194 Si / 1000 Ang^3
#
#
#
# Elastic Constant Matrix: (Units=GPa)
#
#
# Indices 1 2 3 4 5 6 
#
# 1 127.3926 40.2651 93.4295 0.0000 14.9713 0.0000
# 2 40.2651 40.1230 41.0886 0.0000 6.7100 0.0000
# 3 93.4295 41.0886 152.8800 0.0000 0.3085 0.0000
# 4 0.0000 0.0000 0.0000 22.4537 0.0000 9.1187
# 5 14.9713 6.7100 0.3085 0.0000 29.4143 0.0000
# 6 0.0000 0.0000 0.0000 9.1187 0.0000 28.8747
#
#
#
# Elastic Compliance Matrix: (Units=1/GPa)
#
#
# Indices 1 2 3 4 5 6 
#
# 1 0.017302 -0.007416 -0.008566 0.000000 -0.007025 0.000000
# 2 -0.007416 0.039428 -0.006054 0.000000 -0.005156 0.000000
# 3 -0.008566 -0.006054 0.013392 0.000000 0.005601 0.000000
# 4 0.000000 0.000000 0.000000 0.051088 0.000000 -0.016134
# 5 -0.007025 -0.005156 0.005601 0.000000 0.038690 0.000000
# 6 0.000000 0.000000 0.000000 -0.016134 0.000000 0.039727
#
#
# Mechanical properties :
#
#
# Convention : Reuss Voigt Hill
#
# Bulk Modulus (GPa) = 38.38960 74.44024 56.41492
# Shear Modulus (GPa) = 19.81114 25.85604 22.83359
#
# Velocity S-wave (km/s) = 3.27277 3.73888 3.51356
# Velocity P-wave (km/s) = 5.91920 7.67369 6.85283
#
# Compressibility (1/GPa) = 0.02604872
#
# Stress axis : x y z
#
# Youngs Moduli (GPa) = 57.79760 25.36280 74.67076
#
# Poissons Ratio (x) = 0.18808 0.63966
# Poissons Ratio (y) = 0.42861 0.45209
# Poissons Ratio (z) = 0.49511 0.15356
#
# Static dielectric constant tensor:
#      x y z
#    x 3.432280 0.000000 -0.068030 
#    y 0.000000 3.271450 0.000000 
#    z -0.068030 0.000000 3.727150 
# 
# 
# High freq. dielectric constant tensor:
#      x y z
#    x 1.716790 0.000000 -0.008960 
#    y 0.000000 1.699610 0.000000 
#    z -0.008960 0.000000 1.735030 
# 
# From -- ./inp_files/66675.got.cif
#   From: 2010.06.25/outbox.cif.g09.slc.cpg/sg11_34_cif.got.tgz:66675.got - 2010.06.27 23:14:04.
