data_PCOD8075743
_publ_section_title
;
Structure prediction by ZEFSAII (Michael W. Deem and Ramdas Pophale) SiO2 
 PCOD8075743
Probable space group: P 21/M
;
_chemical_formula_sum "Si O2"
_cell_formula_units_Z 20
_cell_length_a 6.462713
_cell_length_b 23.210244
_cell_length_c 8.550589
_cell_angle_alpha 90.000000
_cell_angle_beta 50.488536
_cell_angle_gamma 90.000000
_cell_volume 989.521005
_symmetry_space_group_name_H-M "P 21/M"
_symmetry_group_IT_number 11
_symmetry_cell_setting 'monoclinic'
loop_
_space_group_symop_operation_xyz
x,y,z
-x,1/2+y,-z
-x,-y,-z
x,1/2-y,z
loop_
_atom_site_type_symbol
_atom_site_label
_atom_site_fract_x
_atom_site_fract_y
_atom_site_fract_z
Si Si1 0.320701 0.597798 0.359884
Si Si2 0.584659 0.105864 0.326632
Si Si3 0.836576 0.618517 0.901990
Si Si4 0.149076 0.316403 0.397350
Si Si5 0.683489 0.980262 0.770203
O O1 0.430379 0.594445 0.482154
O O2 0.120819 0.650175 0.422706
O O3 0.179490 0.537368 0.371891
O O4 0.583781 0.607915 0.129762
O O5 0.498966 0.048957 0.275206
O O6 0.890794 0.121519 0.128713
O O7 0.400991 0.160518 0.374453
O O8 0.886717 0.567291 0.745602
O O9 0.797788 0.675645 0.814643
O O10 0.107811 0.250000 0.457656
O O11 0.500000 0.000000 0.000000
#
# Coordination Sequence:
#
# PCOD8075743 Si02
#       5
#     4   4   4   4   4
#     4  10  21  37  60  86 113 146 188 230 280 337
#     4  10  21  35  58  87 115 148 186 231 280 332
#     4   9  21  39  59  83 113 149 186 229 281 339
#     4  10  23  41  56  77 112 149 190 238 282 327
#     4   9  19  35  57  87 121 150 179 223 282 342
#
# _framework density 20.211801000000001
#
# number of rings (size 3 to 8) (size 9 to 14) (size 15 to 20)
#    0.000    2.400    0.000    0.600    0.000   20.800 
#    0.000    0.000    0.000    0.000    0.000    0.000 
#    0.000    0.000    0.000    0.000    0.000    0.000 
#
# Total GULP energy -247942.606736 kJ/mol
# GULP energy per Si atom -12397.130337 kJ/mol
# Density = 2.016580 g / cm^3
# Si number density = 20.211801 Si / 1000 Ang^3
#
#
#
# Elastic Constant Matrix: (Units=GPa)
#
#
# Indices 1 2 3 4 5 6 
#
# 1 141.6429 65.5978 43.0565 0.0000 -4.2233 0.0000
# 2 65.5978 160.3881 44.1319 0.0000 -1.9404 0.0000
# 3 43.0565 44.1319 73.8491 0.0000 -4.9460 0.0000
# 4 0.0000 0.0000 0.0000 23.3927 0.0000 -0.4269
# 5 -4.2233 -1.9404 -4.9460 0.0000 21.1448 0.0000
# 6 0.0000 0.0000 0.0000 -0.4269 0.0000 21.1595
#
#
#
# Elastic Compliance Matrix: (Units=1/GPa)
#
#
# Indices 1 2 3 4 5 6 
#
# 1 0.009565 -0.002851 -0.003822 0.000000 0.000755 0.000000
# 2 -0.002851 0.008314 -0.003346 0.000000 -0.000589 0.000000
# 3 -0.003822 -0.003346 0.017979 0.000000 0.003135 0.000000
# 4 0.000000 0.000000 0.000000 0.042764 0.000000 0.000863
# 5 0.000755 -0.000589 0.003135 0.000000 0.048123 0.000000
# 6 0.000000 0.000000 0.000000 0.000863 0.000000 0.047278
#
#
# Mechanical properties :
#
#
# Convention : Reuss Voigt Hill
#
# Bulk Modulus (GPa) = 63.21146 75.71694 69.46420
# Shear Modulus (GPa) = 25.08344 28.01232 26.54788
#
# Velocity S-wave (km/s) = 3.52665 3.72686 3.62813
# Velocity P-wave (km/s) = 6.92282 7.48748 7.21068
#
# Compressibility (1/GPa) = 0.01581992
#
# Stress axis : x y z
#
# Youngs Moduli (GPa) = 104.55006 120.27227 55.62024
#
# Poissons Ratio (x) = 0.34291 0.21259
# Poissons Ratio (y) = 0.29808 0.18610
# Poissons Ratio (z) = 0.39962 0.40241
#
# Static dielectric constant tensor:
#      x y z
#    x 3.734990 0.000000 0.015200 
#    y 0.000000 3.723100 0.000000 
#    z 0.015200 0.000000 3.705600 
# 
# 
# High freq. dielectric constant tensor:
#      x y z
#    x 1.794290 0.000000 -0.003770 
#    y 0.000000 1.777520 0.000000 
#    z -0.003770 0.000000 1.802320 
# 
# From -- ./inp_files/2280.got.cif
#   From: 2010.06.25/outbox.cif.g09.slc.cpg/sg11_2_cif.got.tgz:2280.got - 2010.06.27 23:14:04.
