data_PCOD8075814
_publ_section_title
;
Structure prediction by ZEFSAII (Michael W. Deem and Ramdas Pophale) SiO2 
 PCOD8075814
Probable space group: P 21/M
;
_chemical_formula_sum "Si O2"
_cell_formula_units_Z 32
_cell_length_a 17.078329
_cell_length_b 16.824564
_cell_length_c 11.150232
_cell_angle_alpha 90.000000
_cell_angle_beta 150.210035
_cell_angle_gamma 90.000000
_cell_volume 1591.746451
_symmetry_space_group_name_H-M "P 21/M"
_symmetry_group_IT_number 11
_symmetry_cell_setting 'monoclinic'
loop_
_space_group_symop_operation_xyz
x,y,z
-x,1/2+y,-z
-x,-y,-z
x,1/2-y,z
loop_
_atom_site_type_symbol
_atom_site_label
_atom_site_fract_x
_atom_site_fract_y
_atom_site_fract_z
Si Si1 0.945007 0.842763 0.202422
Si Si2 0.003854 0.656917 0.788517
Si Si3 0.540708 0.591081 0.035449
Si Si4 0.843815 0.842520 0.331918
Si Si5 0.633378 0.656022 0.644465
Si Si6 0.689514 0.158577 0.680895
Si Si7 0.699767 0.914389 0.481802
Si Si8 0.742356 0.401378 0.492929
O O1 0.984086 0.750000 0.237073
O O2 0.925982 0.864778 0.316543
O O3 0.085970 0.895312 0.337357
O O4 0.786683 0.867565 0.923634
O O5 0.996380 0.750000 0.805539
O O6 0.969802 0.637973 0.603952
O O7 0.877037 0.616877 0.707117
O O8 0.173827 0.621039 0.052587
O O9 0.687808 0.604063 0.140878
O O10 0.591548 0.625734 0.233129
O O11 0.500000 0.500000 0.000000
O O12 0.386430 0.632860 0.773466
O O13 0.792847 0.750000 0.266390
O O14 0.628946 0.750000 0.615402
O O15 0.481983 0.622917 0.516282
O O16 0.628377 0.610123 0.512938
O O17 0.679831 0.250000 0.700729
O O18 0.733915 0.149991 0.601412
O O19 0.700825 0.008883 0.471539
#
# Coordination Sequence:
#
# PCOD8075814 Si02
#       8
#     4   4   4   4   4   4   4   4
#     4  10  21  36  56  83 112 141 177 222 267 313
#     4   9  18  35  57  80 108 139 175 221 267 313
#     4   9  20  38  55  78 111 143 177 221 271 317
#     4   9  18  35  59  82 106 142 183 220 264 319
#     4  10  21  37  56  79 108 140 176 221 270 317
#     4  10  21  36  55  80 109 141 177 222 272 316
#     4  10  21  37  55  78 107 142 181 217 265 322
#     4  11  22  36  55  79 109 143 181 221 264 320
#
# _framework density 20.103705000000001
#
# number of rings (size 3 to 8) (size 9 to 14) (size 15 to 20)
#    0.000    2.250    0.000    2.250    0.000    8.000 
#    0.000    9.375    0.000    0.000    0.000    0.000 
#    0.000    0.000    0.000    0.000    0.000    0.000 
#
# Total GULP energy -396769.485296 kJ/mol
# GULP energy per Si atom -12399.046415 kJ/mol
# Density = 2.005795 g / cm^3
# Si number density = 20.103705 Si / 1000 Ang^3
#
#
#
# Elastic Constant Matrix: (Units=GPa)
#
#
# Indices 1 2 3 4 5 6 
#
# 1 148.1987 19.4773 72.5889 0.0000 7.6124 0.0000
# 2 19.4773 27.6742 22.0343 0.0000 3.7817 0.0000
# 3 72.5889 22.0343 179.9081 0.0000 1.4393 0.0000
# 4 0.0000 0.0000 0.0000 21.7970 0.0000 -1.0879
# 5 7.6124 3.7817 1.4393 0.0000 30.9648 0.0000
# 6 0.0000 0.0000 0.0000 -1.0879 0.0000 23.5612
#
#
#
# Elastic Compliance Matrix: (Units=1/GPa)
#
#
# Indices 1 2 3 4 5 6 
#
# 1 0.008816 -0.003507 -0.003115 0.000000 -0.001594 0.000000
# 2 -0.003507 0.042119 -0.003711 0.000000 -0.004109 0.000000
# 3 -0.003115 -0.003711 0.007263 0.000000 0.000881 0.000000
# 4 0.000000 0.000000 0.000000 0.045984 0.000000 0.002123
# 5 -0.001594 -0.004109 0.000881 0.000000 0.033148 0.000000
# 6 0.000000 0.000000 0.000000 0.002123 0.000000 0.042541
#
#
# Mechanical properties :
#
#
# Convention : Reuss Voigt Hill
#
# Bulk Modulus (GPa) = 26.64343 64.88688 45.76515
# Shear Modulus (GPa) = 23.46914 31.37663 27.42289
#
# Velocity S-wave (km/s) = 3.42044 3.95490 3.69734
# Velocity P-wave (km/s) = 5.37410 7.29391 6.40633
#
# Compressibility (1/GPa) = 0.03753271
#
# Stress axis : x y z
#
# Youngs Moduli (GPa) = 113.42776 23.74229 137.69199
#
# Poissons Ratio (x) = 0.08326 0.42889
# Poissons Ratio (y) = 0.39779 0.51093
# Poissons Ratio (z) = 0.35331 0.08810
#
# Static dielectric constant tensor:
#      x y z
#    x 3.656580 0.000000 -0.186630 
#    y 0.000000 3.371510 0.000000 
#    z -0.186630 0.000000 4.150830 
# 
# 
# High freq. dielectric constant tensor:
#      x y z
#    x 1.787420 0.000000 -0.008800 
#    y 0.000000 1.760050 0.000000 
#    z -0.008800 0.000000 1.800790 
# 
# From -- ./inp_files/40020.got.cif
#   From: 2010.06.25/outbox.cif.g09.slc.cpg/sg11_21_cif.got.tgz:40020.got - 2010.06.27 23:14:04.
