data_PCOD8075016
_publ_section_title
;
Structure prediction by ZEFSAII (Michael W. Deem and Ramdas Pophale) SiO2 
 PCOD8075016
Probable space group: P 21/M
;
_chemical_formula_sum "Si O2"
_cell_formula_units_Z 24
_cell_length_a 13.684355
_cell_length_b 17.469126
_cell_length_c 15.565002
_cell_angle_alpha 90.000000
_cell_angle_beta 161.508549
_cell_angle_gamma 90.000000
_cell_volume 1180.123395
_symmetry_space_group_name_H-M "P 21/M"
_symmetry_group_IT_number 11
_symmetry_cell_setting 'monoclinic'
loop_
_space_group_symop_operation_xyz
x,y,z
-x,1/2+y,-z
-x,-y,-z
x,1/2-y,z
loop_
_atom_site_type_symbol
_atom_site_label
_atom_site_fract_x
_atom_site_fract_y
_atom_site_fract_z
Si Si1 0.116297 0.339925 0.603584
Si Si2 0.174841 0.580002 0.139144
Si Si3 0.765831 0.338521 0.477524
Si Si4 0.903031 0.928141 0.739961
Si Si5 0.094548 0.101759 0.913336
Si Si6 0.198796 0.840261 0.834304
O O1 0.153196 0.250000 0.646443
O O2 0.963205 0.372675 0.562655
O O3 0.906013 0.362349 0.348397
O O4 0.456384 0.373429 0.870502
O O5 0.538095 0.568768 0.446591
O O6 0.068853 0.628821 0.133811
O O7 0.000000 0.500000 0.000000
O O8 0.062800 0.615520 0.954697
O O9 0.679671 0.250000 0.390219
O O10 0.966665 0.345311 0.730964
O O11 0.458346 0.388169 0.228006
O O12 0.977862 0.881013 0.717571
O O13 0.031974 0.013569 0.838836
O O14 0.175397 0.750000 0.831718
#
# Coordination Sequence:
#
# PCOD8075016 Si02
#       6
#     4   4   4   4   4   4
#     4   9  19  36  57  77 108 151 186 216 273 345
#     4  10  20  37  58  80 111 151 185 216 272 344
#     4  11  22  38  58  82 111 147 187 229 274 327
#     4  11  21  37  60  84 111 146 187 228 272 328
#     4  11  21  37  58  83 110 146 188 228 272 327
#     4  10  20  37  58  82 110 145 185 227 274 329
#
# _framework density 20.336856000000001
#
# number of rings (size 3 to 8) (size 9 to 14) (size 15 to 20)
#    0.000    1.667    0.000    7.500    0.000    2.667 
#    0.000   10.000    0.000    0.000    0.000    0.000 
#    0.000    0.000    0.000    0.000    0.000    0.000 
#
# Total GULP energy -297620.756331 kJ/mol
# GULP energy per Si atom -12400.864847 kJ/mol
# Density = 2.029057 g / cm^3
# Si number density = 20.336856 Si / 1000 Ang^3
#
#
#
# Elastic Constant Matrix: (Units=GPa)
#
#
# Indices 1 2 3 4 5 6 
#
# 1 123.2107 38.8173 16.9537 0.0000 14.3917 0.0000
# 2 38.8173 35.0010 23.4842 0.0000 3.3616 0.0000
# 3 16.9537 23.4842 94.6921 0.0000 10.8257 0.0000
# 4 0.0000 0.0000 0.0000 497.0092 0.0000 -167.0695
# 5 14.3917 3.3616 10.8257 0.0000 37.2710 0.0000
# 6 0.0000 0.0000 0.0000 -167.0695 0.0000 83.4394
#
#
#
# Elastic Compliance Matrix: (Units=1/GPa)
#
#
# Indices 1 2 3 4 5 6 
#
# 1 0.013272 -0.015645 0.001995 0.000000 -0.004293 0.000000
# 2 -0.015645 0.052732 -0.010782 0.000000 0.004417 0.000000
# 3 0.001995 -0.010782 0.013296 0.000000 -0.003660 0.000000
# 4 0.000000 0.000000 0.000000 0.006154 0.000000 0.012323
# 5 -0.004293 0.004417 -0.003660 0.000000 0.029153 0.000000
# 6 0.000000 0.000000 0.000000 0.012323 0.000000 0.036658
#
#
# Mechanical properties :
#
#
# Convention : Reuss Voigt Hill
#
# Bulk Modulus (GPa) = 32.85681 45.71269 39.28475
# Shear Modulus (GPa) = 23.77843 135.12047 79.44945
#
# Velocity S-wave (km/s) = 3.42311 8.15999 6.25712
# Velocity P-wave (km/s) = 5.64047 10.55022 8.45937
#
# Compressibility (1/GPa) = 0.03043509
#
# Stress axis : x y z
#
# Youngs Moduli (GPa) = 75.34536 18.96393 75.21225
#
# Poissons Ratio (x) = 0.29670 -0.15003
# Poissons Ratio (y) = 1.17881 0.81091
# Poissons Ratio (z) = -0.15029 0.20446
#
# Static dielectric constant tensor:
#      x y z
#    x 4.326540 0.000000 -0.122630 
#    y 0.000000 3.232020 0.000000 
#    z -0.122630 0.000000 3.841940 
# 
# 
# High freq. dielectric constant tensor:
#      x y z
#    x 1.818820 0.000000 -0.002880 
#    y 0.000000 1.748570 0.000000 
#    z -0.002880 0.000000 1.815450 
# 
# From -- ./inp_files/50808.got.cif
#   From: 2010.06.25/outbox.cif.g09.slc.cpg/sg11_26_cif.got.tgz:50808.got - 2010.06.27 23:14:04.
