data_PCOD8075913
_publ_section_title
;
Structure prediction by ZEFSAII (Michael W. Deem and Ramdas Pophale) SiO2 
 PCOD8075913
Probable space group: P 21/M
;
_chemical_formula_sum "Si O2"
_cell_formula_units_Z 32
_cell_length_a 11.966135
_cell_length_b 14.210967
_cell_length_c 18.577807
_cell_angle_alpha 90.000000
_cell_angle_beta 26.862845
_cell_angle_gamma 90.000000
_cell_volume 1427.487525
_symmetry_space_group_name_H-M "P 21/M"
_symmetry_group_IT_number 11
_symmetry_cell_setting 'monoclinic'
loop_
_space_group_symop_operation_xyz
x,y,z
-x,1/2+y,-z
-x,-y,-z
x,1/2-y,z
loop_
_atom_site_type_symbol
_atom_site_label
_atom_site_fract_x
_atom_site_fract_y
_atom_site_fract_z
Si Si1 0.036501 0.107689 0.964936
Si Si2 0.036604 0.946992 0.146794
Si Si3 0.395481 0.413727 0.513320
Si Si4 0.503249 0.854543 0.696607
Si Si5 0.551663 0.145987 0.739020
Si Si6 0.579525 0.958078 0.800754
Si Si7 0.024312 0.858073 0.616602
Si Si8 0.117365 0.647910 0.727460
O O1 0.275986 0.148226 0.865617
O O2 0.060878 0.114121 0.864631
O O3 0.793221 0.159876 0.134197
O O4 0.000000 0.000000 0.000000
O O5 0.889678 0.900926 0.298584
O O6 0.329531 0.931878 0.987430
O O7 0.990599 0.060937 0.163295
O O8 0.500000 0.500000 0.500000
O O9 0.400414 0.421543 0.423646
O O10 0.592956 0.332692 0.420143
O O11 0.622150 0.750000 0.622586
O O12 0.593888 0.904064 0.716936
O O13 0.608364 0.250000 0.737980
O O14 0.736462 0.120974 0.568399
O O15 0.585404 0.070207 0.783058
O O16 0.805964 0.928211 0.719900
O O17 0.936680 0.750000 0.658958
O O18 0.092119 0.883173 0.659164
O O19 0.984461 0.750000 0.817931
#
# Coordination Sequence:
#
# PCOD8075913 Si02
#       8
#     4   4   4   4   4   4   4   4
#     4  11  19  38  61  96 133 161 203 265 331 384
#     4  10  22  37  62  93 128 169 208 256 332 388
#     4  10  21  36  59  91 129 164 207 259 317 392
#     4  11  23  39  65  94 129 173 211 260 327 389
#     4  11  23  39  65  97 126 164 218 270 318 380
#     4  11  24  42  67  95 130 172 214 274 327 374
#     4  10  23  43  64  92 125 171 226 270 321 379
#     4  10  21  37  63  92 126 170 218 265 313 385
#
# _framework density 22.417007000000002
#
# number of rings (size 3 to 8) (size 9 to 14) (size 15 to 20)
#    0.000    1.500    2.500    3.750    3.500    1.000 
#    0.000    6.875    0.000    0.000    0.000    0.000 
#    0.000    0.000    0.000    0.000    0.000    0.000 
#
# Total GULP energy -396580.202658 kJ/mol
# GULP energy per Si atom -12393.131333 kJ/mol
# Density = 2.236599 g / cm^3
# Si number density = 22.417007 Si / 1000 Ang^3
#
#
#
# Elastic Constant Matrix: (Units=GPa)
#
#
# Indices 1 2 3 4 5 6 
#
# 1 63.2332 8.7867 33.2995 0.0000 1.7390 0.0000
# 2 8.7867 81.2297 15.3524 0.0000 6.9177 0.0000
# 3 33.2995 15.3524 116.8283 0.0000 18.1064 0.0000
# 4 0.0000 0.0000 0.0000 8.7120 0.0000 -17.5649
# 5 1.7390 6.9177 18.1064 0.0000 28.5891 0.0000
# 6 0.0000 0.0000 0.0000 -17.5649 0.0000 5.8028
#
#
#
# Elastic Compliance Matrix: (Units=1/GPa)
#
#
# Indices 1 2 3 4 5 6 
#
# 1 0.018880 -0.001207 -0.005644 0.000000 0.002718 0.000000
# 2 -0.001207 0.012830 -0.000967 0.000000 -0.002419 0.000000
# 3 -0.005644 -0.000967 0.011317 0.000000 -0.006590 0.000000
# 4 0.000000 0.000000 0.000000 -0.022494 0.000000 -0.068088
# 5 0.002718 -0.002419 -0.006590 0.000000 0.039572 0.000000
# 6 0.000000 0.000000 0.000000 -0.068088 0.000000 -0.033771
#
#
# Mechanical properties :
#
#
# Convention : Reuss Voigt Hill
#
# Bulk Modulus (GPa) = 36.50931 41.79649 39.15290
# Shear Modulus (GPa) = 97.84863 22.21096 60.02979
#
# Velocity S-wave (km/s) = 6.61393 3.15113 5.18043
# Velocity P-wave (km/s) = 8.63986 5.65021 7.29973
#
# Compressibility (1/GPa) = 0.02739027
#
# Stress axis : x y z
#
# Youngs Moduli (GPa) = 52.96722 77.94174 88.36532
#
# Poissons Ratio (x) = 0.09408 0.49872
# Poissons Ratio (y) = 0.06393 0.08546
# Poissons Ratio (z) = 0.29894 0.07538
#
# Static dielectric constant tensor:
#      x y z
#    x 3.636190 0.000000 0.224100 
#    y 0.000000 3.646420 0.000000 
#    z 0.224100 0.000000 4.420160 
# 
# 
# High freq. dielectric constant tensor:
#      x y z
#    x 1.860470 0.000000 0.008060 
#    y 0.000000 1.886370 0.000000 
#    z 0.008060 0.000000 1.884540 
# 
# From -- ./inp_files/59449.got.cif
#   From: 2010.06.25/outbox.cif.g09.slc.cpg/sg11_30_cif.got.tgz:59449.got - 2010.06.27 23:14:04.
