data_PCOD8075241
_publ_section_title
;
Structure prediction by ZEFSAII (Michael W. Deem and Ramdas Pophale) SiO2 
 PCOD8075241
Probable space group: P 21/M
;
_chemical_formula_sum "Si O2"
_cell_formula_units_Z 32
_cell_length_a 24.768326
_cell_length_b 8.563119
_cell_length_c 20.882826
_cell_angle_alpha 90.000000
_cell_angle_beta 21.581809
_cell_angle_gamma 90.000000
_cell_volume 1629.161988
_symmetry_space_group_name_H-M "P 21/M"
_symmetry_group_IT_number 11
_symmetry_cell_setting 'monoclinic'
loop_
_space_group_symop_operation_xyz
x,y,z
-x,1/2+y,-z
-x,-y,-z
x,1/2-y,z
loop_
_atom_site_type_symbol
_atom_site_label
_atom_site_fract_x
_atom_site_fract_y
_atom_site_fract_z
Si Si1 0.945084 0.430198 0.869386
Si Si2 0.372351 0.569017 0.562892
Si Si3 0.297188 0.430012 0.776327
Si Si4 0.499839 0.067827 0.197294
Si Si5 0.554998 0.935546 0.005721
Si Si6 0.744076 0.431312 0.446982
Si Si7 0.876519 0.931234 0.680369
Si Si8 0.192997 0.067804 0.102806
O O1 0.990455 0.250000 0.822732
O O2 0.880037 0.466256 0.871573
O O3 0.086356 0.535685 0.726619
O O4 0.823308 0.463739 0.057025
O O5 0.351487 0.750000 0.603748
O O6 0.297708 0.465863 0.700286
O O7 0.545008 0.529226 0.366807
O O8 0.292559 0.523301 0.585478
O O9 0.256206 0.250000 0.832618
O O10 0.537160 0.250000 0.156219
O O11 0.354785 0.036322 0.398043
O O12 0.464064 0.009046 0.164843
O O13 0.636302 0.974245 0.076883
O O14 0.541123 0.750000 0.024235
O O15 0.720667 0.997765 0.829841
O O16 0.500000 0.000000 0.000000
O O17 0.710072 0.250000 0.497319
O O18 0.877786 0.750000 0.667100
O O19 0.897853 0.969553 0.732024
O O20 0.000000 0.000000 0.500000
O O21 0.184583 0.250000 0.094047
#
# Coordination Sequence:
#
# PCOD8075241 Si02
#       8
#     4   4   4   4   4   4   4   4
#     4  12  25  39  57  85 118 151 192 242 291 342
#     4   9  20  38  61  87 113 146 191 236 280 339
#     4  10  20  37  62  88 115 149 188 233 287 346
#     4  11  22  38  61  88 115 149 194 241 288 343
#     4  10  21  38  58  84 116 152 193 238 289 345
#     4  11  23  40  60  83 116 156 193 236 291 345
#     4   9  20  36  57  83 112 145 184 230 279 335
#     4  10  21  40  61  83 113 152 195 236 285 345
#
# _framework density 19.641999999999999
#
# number of rings (size 3 to 8) (size 9 to 14) (size 15 to 20)
#    0.000    1.750    0.000    5.250    0.000    7.000 
#    0.000    2.500    0.000    0.000    0.000    0.000 
#    0.000    0.000    0.000    0.000    0.000    0.000 
#
# Total GULP energy -396933.628678 kJ/mol
# GULP energy per Si atom -12404.175896 kJ/mol
# Density = 1.959729 g / cm^3
# Si number density = 19.642000 Si / 1000 Ang^3
#
#
#
# Elastic Constant Matrix: (Units=GPa)
#
#
# Indices 1 2 3 4 5 6 
#
# 1 119.7640 22.6566 38.8451 0.0000 6.9751 0.0000
# 2 22.6566 66.9342 22.7192 0.0000 9.5474 0.0000
# 3 38.8451 22.7192 97.1989 0.0000 10.2215 0.0000
# 4 0.0000 0.0000 0.0000 36.5342 0.0000 3.3495
# 5 6.9751 9.5474 10.2215 0.0000 21.8448 0.0000
# 6 0.0000 0.0000 0.0000 3.3495 0.0000 33.3532
#
#
#
# Elastic Compliance Matrix: (Units=1/GPa)
#
#
# Indices 1 2 3 4 5 6 
#
# 1 0.009885 -0.002102 -0.003391 0.000000 -0.000651 0.000000
# 2 -0.002102 0.017351 -0.002617 0.000000 -0.005688 0.000000
# 3 -0.003391 -0.002617 0.012643 0.000000 -0.003689 0.000000
# 4 0.000000 0.000000 0.000000 0.027626 0.000000 -0.002774
# 5 -0.000651 -0.005688 -0.003689 0.000000 0.050197 0.000000
# 6 0.000000 0.000000 0.000000 -0.002774 0.000000 0.030261
#
#
# Mechanical properties :
#
#
# Convention : Reuss Voigt Hill
#
# Bulk Modulus (GPa) = 42.26779 50.25987 46.26383
# Shear Modulus (GPa) = 29.05785 31.65820 30.35802
#
# Velocity S-wave (km/s) = 3.85043 4.01903 3.93563
# Velocity P-wave (km/s) = 6.42912 6.86879 6.65259
#
# Compressibility (1/GPa) = 0.02365868
#
# Stress axis : x y z
#
# Youngs Moduli (GPa) = 101.16202 57.63248 79.09501
#
# Poissons Ratio (x) = 0.12116 0.26819
# Poissons Ratio (y) = 0.21267 0.20702
# Poissons Ratio (z) = 0.34301 0.15085
#
# Static dielectric constant tensor:
#      x y z
#    x 3.626060 0.000000 0.135460 
#    y 0.000000 3.771020 0.000000 
#    z 0.135460 0.000000 3.394100 
# 
# 
# High freq. dielectric constant tensor:
#      x y z
#    x 1.771320 0.000000 0.010090 
#    y 0.000000 1.772040 0.000000 
#    z 0.010090 0.000000 1.765410 
# 
# From -- ./inp_files/67041.got.cif
#   From: 2010.06.25/outbox.cif.g09.slc.cpg/sg11_34_cif.got.tgz:67041.got - 2010.06.27 23:14:04.
