data_PCOD8075735
_publ_section_title
;
Structure prediction by ZEFSAII (Michael W. Deem and Ramdas Pophale) SiO2 
 PCOD8075735
Probable space group: P 21/M
;
_chemical_formula_sum "Si O2"
_cell_formula_units_Z 32
_cell_length_a 9.042712
_cell_length_b 14.323701
_cell_length_c 12.243157
_cell_angle_alpha 90.000000
_cell_angle_beta 98.922147
_cell_angle_gamma 90.000000
_cell_volume 1566.608022
_symmetry_space_group_name_H-M "P 21/M"
_symmetry_group_IT_number 11
_symmetry_cell_setting 'monoclinic'
loop_
_space_group_symop_operation_xyz
x,y,z
-x,1/2+y,-z
-x,-y,-z
x,1/2-y,z
loop_
_atom_site_type_symbol
_atom_site_label
_atom_site_fract_x
_atom_site_fract_y
_atom_site_fract_z
Si Si1 0.221364 0.859787 0.890632
Si Si2 0.834521 0.498869 0.298769
Si Si3 0.888696 0.144034 0.885491
Si Si4 0.645095 0.855416 0.681879
Si Si5 0.170055 0.966214 0.333649
Si Si6 0.232776 0.144612 0.876234
Si Si7 0.379470 0.569538 0.535599
Si Si8 0.439560 0.139701 0.089337
O O1 0.199876 0.750000 0.867234
O O2 0.137819 0.913909 0.783388
O O3 0.392005 0.893135 0.908925
O O4 0.156529 0.891160 0.999727
O O5 0.750331 0.584760 0.231024
O O6 0.729854 0.474695 0.387215
O O7 0.999248 0.531353 0.356566
O O8 0.830801 0.250000 0.859167
O O9 0.817397 0.076157 0.786450
O O10 0.066223 0.140251 0.903018
O O11 0.711359 0.750000 0.686136
O O12 0.482660 0.850617 0.602074
O O13 0.618938 0.894342 0.800629
O O14 0.763598 0.928611 0.646014
O O15 0.268419 0.898582 0.424751
O O16 0.281038 0.250000 0.852880
O O17 0.338427 0.098696 0.980526
O O18 0.500000 0.500000 0.500000
O O19 0.427553 0.250000 0.084641
#
# Coordination Sequence:
#
# PCOD8075735 Si02
#       8
#     4   4   4   4   4   4   4   4
#     4  10  21  35  55  86 122 153 195 243 293 359
#     4  11  22  37  61  86 118 157 196 247 305 351
#     4   9  20  38  57  85 121 157 195 239 293 355
#     4  10  21  38  59  86 118 153 197 243 294 353
#     4  10  23  38  61  86 119 153 204 244 297 352
#     4   9  20  36  56  83 118 156 194 239 292 357
#     4  10  22  42  59  82 114 155 201 251 292 343
#     4   9  18  33  52  79 114 150 188 234 284 343
#
# _framework density 20.426297000000002
#
# number of rings (size 3 to 8) (size 9 to 14) (size 15 to 20)
#    0.000    2.250    1.250    0.375    3.500    4.500 
#    0.000    2.500    0.000    4.500    0.000    0.000 
#    0.000    0.000    0.000    0.000    0.000    0.000 
#
# Total GULP energy -396652.437993 kJ/mol
# GULP energy per Si atom -12395.388687 kJ/mol
# Density = 2.037981 g / cm^3
# Si number density = 20.426297 Si / 1000 Ang^3
#
#
#
# Elastic Constant Matrix: (Units=GPa)
#
#
# Indices 1 2 3 4 5 6 
#
# 1 56.4702 4.0770 24.6146 0.0000 9.8925 0.0000
# 2 4.0770 56.4972 11.4826 0.0000 0.8092 0.0000
# 3 24.6146 11.4826 86.4925 0.0000 1.3555 0.0000
# 4 0.0000 0.0000 0.0000 18.7988 0.0000 6.7281
# 5 9.8925 0.8092 1.3555 0.0000 45.1626 0.0000
# 6 0.0000 0.0000 0.0000 6.7281 0.0000 18.7087
#
#
#
# Elastic Compliance Matrix: (Units=1/GPa)
#
#
# Indices 1 2 3 4 5 6 
#
# 1 0.021073 -0.000259 -0.005893 0.000000 -0.004434 0.000000
# 2 -0.000259 0.018197 -0.002339 0.000000 -0.000199 0.000000
# 3 -0.005893 -0.002339 0.013535 0.000000 0.000927 0.000000
# 4 0.000000 0.000000 0.000000 0.061053 0.000000 -0.021956
# 5 -0.004434 -0.000199 0.000927 0.000000 0.023089 0.000000
# 6 0.000000 0.000000 0.000000 -0.021956 0.000000 0.061347
#
#
# Mechanical properties :
#
#
# Convention : Reuss Voigt Hill
#
# Bulk Modulus (GPa) = 27.91605 31.08981 29.50293
# Shear Modulus (GPa) = 22.00541 27.15307 24.57924
#
# Velocity S-wave (km/s) = 3.28580 3.64994 3.47264
# Velocity P-wave (km/s) = 5.30016 5.74598 5.52756
#
# Compressibility (1/GPa) = 0.03582169
#
# Stress axis : x y z
#
# Youngs Moduli (GPa) = 47.45475 54.95443 73.88382
#
# Poissons Ratio (x) = 0.01426 0.43540
# Poissons Ratio (y) = 0.01231 0.17280
# Poissons Ratio (z) = 0.27965 0.12853
#
# Static dielectric constant tensor:
#      x y z
#    x 3.785000 0.000000 0.276180 
#    y 0.000000 3.602820 0.000000 
#    z 0.276180 0.000000 3.918500 
# 
# 
# High freq. dielectric constant tensor:
#      x y z
#    x 1.801500 0.000000 0.009230 
#    y 0.000000 1.782890 0.000000 
#    z 0.009230 0.000000 1.801140 
# 
# From -- ./inp_files/18079.got.cif
#   From: 2010.06.25/outbox.cif.g09.slc.cpg/sg11_10_cif.got.tgz:18079.got - 2010.06.27 23:14:04.
