data_PCOD8075977
_publ_section_title
;
Structure prediction by ZEFSAII (Michael W. Deem and Ramdas Pophale) SiO2 
 PCOD8075977
Probable space group: P 21/M
;
_chemical_formula_sum "Si O2"
_cell_formula_units_Z 32
_cell_length_a 26.509056
_cell_length_b 8.870476
_cell_length_c 21.192930
_cell_angle_alpha 90.000000
_cell_angle_beta 20.845044
_cell_angle_gamma 90.000000
_cell_volume 1773.328241
_symmetry_space_group_name_H-M "P 21/M"
_symmetry_group_IT_number 11
_symmetry_cell_setting 'monoclinic'
loop_
_space_group_symop_operation_xyz
x,y,z
-x,1/2+y,-z
-x,-y,-z
x,1/2-y,z
loop_
_atom_site_type_symbol
_atom_site_label
_atom_site_fract_x
_atom_site_fract_y
_atom_site_fract_z
Si Si1 0.219051 0.573954 0.454992
Si Si2 0.526950 0.574241 0.150420
Si Si3 0.599266 0.071567 0.573197
Si Si4 0.886419 0.426987 0.290757
Si Si5 0.602138 0.071244 0.430544
Si Si6 0.097043 0.071322 0.939608
Si Si7 0.897209 0.927167 0.534034
Si Si8 0.200557 0.927137 0.227277
O O1 0.197992 0.750000 0.465259
O O2 0.383403 0.539465 0.279231
O O3 0.119301 0.518023 0.629901
O O4 0.168173 0.480376 0.454975
O O5 0.564731 0.750000 0.101400
O O6 0.508259 0.523390 0.245541
O O7 0.656722 0.478421 0.973262
O O8 0.611332 0.250000 0.558655
O O9 0.754821 0.001910 0.405540
O O10 0.551858 0.016765 0.559130
O O11 0.859885 0.250000 0.323814
O O12 0.031949 0.466297 0.084976
O O13 0.601110 0.250000 0.426095
O O14 0.500000 0.000000 0.500000
O O15 0.755337 0.010620 0.235158
O O16 0.110878 0.250000 0.913011
O O17 0.000000 0.000000 0.000000
O O18 0.880104 0.750000 0.559093
O O19 0.062618 0.975380 0.347354
O O20 0.805188 0.998959 0.697321
O O21 0.205128 0.750000 0.231504
#
# Coordination Sequence:
#
# PCOD8075977 Si02
#       8
#     4   4   4   4   4   4   4   4
#     4   9  18  34  57  82 107 137 177 221 264 313
#     4   9  18  34  58  83 104 135 181 221 260 317
#     4   8  15  32  56  77 103 141 180 219 264 320
#     4   8  15  31  55  80 105 137 179 222 263 319
#     4  11  22  38  56  78 111 147 186 233 281 329
#     4  11  20  34  58  84 109 143 188 231 275 328
#     4  10  21  37  56  78 108 142 176 216 263 313
#     4  10  21  37  56  78 107 142 179 216 260 314
#
# _framework density 18.045165000000001
#
# number of rings (size 3 to 8) (size 9 to 14) (size 15 to 20)
#    0.000    2.500    1.250    3.000    0.000    2.500 
#    2.250    2.500    0.000    0.000    0.000    0.000 
#    0.000    0.000    0.000    0.000    0.000    0.000 
#
# Total GULP energy -396628.271594 kJ/mol
# GULP energy per Si atom -12394.633487 kJ/mol
# Density = 1.800409 g / cm^3
# Si number density = 18.045165 Si / 1000 Ang^3
#
#
#
# Elastic Constant Matrix: (Units=GPa)
#
#
# Indices 1 2 3 4 5 6 
#
# 1 156.0300 49.5759 82.9162 0.0000 14.3366 0.0000
# 2 49.5759 64.4511 43.2104 0.0000 4.8103 0.0000
# 3 82.9162 43.2104 117.1756 0.0000 13.1629 0.0000
# 4 0.0000 0.0000 0.0000 31.6271 0.0000 -1.3046
# 5 14.3366 4.8103 13.1629 0.0000 26.1697 0.0000
# 6 0.0000 0.0000 0.0000 -1.3046 0.0000 30.5628
#
#
#
# Elastic Compliance Matrix: (Units=1/GPa)
#
#
# Indices 1 2 3 4 5 6 
#
# 1 0.011250 -0.004408 -0.006078 0.000000 -0.002296 0.000000
# 2 -0.004408 0.022338 -0.005224 0.000000 0.000936 0.000000
# 3 -0.006078 -0.005224 0.015134 0.000000 -0.003323 0.000000
# 4 0.000000 0.000000 0.000000 0.031674 0.000000 0.001352
# 5 -0.002296 0.000936 -0.003323 0.000000 0.040969 0.000000
# 6 0.000000 0.000000 0.000000 0.001352 0.000000 0.032777
#
#
# Mechanical properties :
#
#
# Convention : Reuss Voigt Hill
#
# Bulk Modulus (GPa) = 57.78705 76.56241 67.17473
# Shear Modulus (GPa) = 26.13285 28.46886 27.30085
#
# Velocity S-wave (km/s) = 3.80964 3.97627 3.89384
# Velocity P-wave (km/s) = 7.17246 7.97504 7.58437
#
# Compressibility (1/GPa) = 0.01730492
#
# Stress axis : x y z
#
# Youngs Moduli (GPa) = 88.88790 44.76595 66.07454
#
# Poissons Ratio (x) = 0.19731 0.40157
# Poissons Ratio (y) = 0.39179 0.34516
# Poissons Ratio (z) = 0.54022 0.23385
#
# Static dielectric constant tensor:
#      x y z
#    x 3.486830 0.000000 0.276870 
#    y 0.000000 3.168740 0.000000 
#    z 0.276870 0.000000 3.346080 
# 
# 
# High freq. dielectric constant tensor:
#      x y z
#    x 1.701660 0.000000 0.012690 
#    y 0.000000 1.682360 0.000000 
#    z 0.012690 0.000000 1.701250 
# 
# From -- ./inp_files/67057.got.cif
#   From: 2010.06.25/outbox.cif.g09.slc.cpg/sg11_34_cif.got.tgz:67057.got - 2010.06.27 23:14:04.
