data_PCOD8075432
_publ_section_title
;
Structure prediction by ZEFSAII (Michael W. Deem and Ramdas Pophale) SiO2 
 PCOD8075432
Probable space group: P 21/M
;
_chemical_formula_sum "Si O2"
_cell_formula_units_Z 28
_cell_length_a 7.773022
_cell_length_b 14.613345
_cell_length_c 14.927323
_cell_angle_alpha 90.000000
_cell_angle_beta 129.855899
_cell_angle_gamma 90.000000
_cell_volume 1301.636188
_symmetry_space_group_name_H-M "P 21/M"
_symmetry_group_IT_number 11
_symmetry_cell_setting 'monoclinic'
loop_
_space_group_symop_operation_xyz
x,y,z
-x,1/2+y,-z
-x,-y,-z
x,1/2-y,z
loop_
_atom_site_type_symbol
_atom_site_label
_atom_site_fract_x
_atom_site_fract_y
_atom_site_fract_z
Si Si1 0.776652 0.352725 0.425590
Si Si2 0.621140 0.151385 0.705817
Si Si3 0.452983 0.395739 0.465140
Si Si4 0.322737 0.961374 0.776305
Si Si5 0.808654 0.520610 0.866181
Si Si6 0.199397 0.351459 0.684112
Si Si7 0.985068 0.643703 0.770588
O O1 0.793585 0.250000 0.391129
O O2 0.540265 0.365993 0.396526
O O3 0.799945 0.425838 0.354521
O O4 0.958979 0.370692 0.562382
O O5 0.726816 0.250000 0.770003
O O6 0.584412 0.157288 0.586896
O O7 0.373957 0.139823 0.662075
O O8 0.773752 0.068436 0.791165
O O9 0.500000 0.500000 0.500000
O O10 0.187450 0.373716 0.369977
O O11 0.589438 0.951281 0.850981
O O12 0.225672 0.903037 0.826981
O O13 0.255574 0.067749 0.773133
O O14 0.888013 0.603213 0.830229
O O15 0.000000 0.500000 0.000000
O O16 0.210586 0.250000 0.733344
O O17 0.030145 0.750000 0.801086
#
# Coordination Sequence:
#
# PCOD8075432 Si02
#       7
#     4   4   4   4   4   4   4
#     4  11  20  32  55  91 133 173 204 250 321 399
#     4  10  20  38  62  92 127 170 216 266 330 396
#     4  12  20  35  60  97 137 171 208 261 328 398
#     4  11  22  41  64  93 129 170 217 265 332 387
#     4  11  26  47  68  91 128 174 227 283 324 377
#     4   9  19  34  55  87 129 170 209 256 317 394
#     4  12  25  42  69 101 134 173 216 268 329 399
#
# _framework density 21.511385000000001
#
# number of rings (size 3 to 8) (size 9 to 14) (size 15 to 20)
#    0.000    1.143    2.857    4.714    0.000    2.857 
#    0.000    0.000    0.000    0.000    0.000    0.000 
#    0.000    0.000    0.000    0.000    0.000    0.000 
#
# Total GULP energy -347125.098161 kJ/mol
# GULP energy per Si atom -12397.324934 kJ/mol
# Density = 2.146242 g / cm^3
# Si number density = 21.511385 Si / 1000 Ang^3
#
#
#
# Elastic Constant Matrix: (Units=GPa)
#
#
# Indices 1 2 3 4 5 6 
#
# 1 89.2354 53.0111 36.2980 0.0000 19.7867 0.0000
# 2 53.0111 172.4173 38.4195 0.0000 9.7552 0.0000
# 3 36.2980 38.4195 87.9948 0.0000 5.0641 0.0000
# 4 0.0000 0.0000 0.0000 10.3634 0.0000 4.1549
# 5 19.7867 9.7552 5.0641 0.0000 21.7546 0.0000
# 6 0.0000 0.0000 0.0000 4.1549 0.0000 34.0678
#
#
#
# Elastic Compliance Matrix: (Units=1/GPa)
#
#
# Indices 1 2 3 4 5 6 
#
# 1 0.018723 -0.003787 -0.005258 0.000000 -0.014107 0.000000
# 2 -0.003787 0.007302 -0.001658 0.000000 0.000556 0.000000
# 3 -0.005258 -0.001658 0.014128 0.000000 0.002237 0.000000
# 4 0.000000 0.000000 0.000000 0.101455 0.000000 -0.012373
# 5 -0.014107 0.000556 0.002237 0.000000 0.058028 0.000000
# 6 0.000000 0.000000 0.000000 -0.012373 0.000000 0.030862
#
#
# Mechanical properties :
#
#
# Convention : Reuss Voigt Hill
#
# Bulk Modulus (GPa) = 53.34000 67.23385 60.28692
# Shear Modulus (GPa) = 19.36836 28.03175 23.70006
#
# Velocity S-wave (km/s) = 3.00388 3.61378 3.32286
# Velocity P-wave (km/s) = 6.07298 6.98107 6.54280
#
# Compressibility (1/GPa) = 0.01874766
#
# Stress axis : x y z
#
# Youngs Moduli (GPa) = 53.41149 136.94564 70.77907
#
# Poissons Ratio (x) = 0.51856 0.37215
# Poissons Ratio (y) = 0.20225 0.11737
# Poissons Ratio (z) = 0.28083 0.22708
#
# Static dielectric constant tensor:
#      x y z
#    x 4.279450 0.000000 0.294600 
#    y 0.000000 4.455200 0.000000 
#    z 0.294600 0.000000 3.548840 
# 
# 
# High freq. dielectric constant tensor:
#      x y z
#    x 1.847630 0.000000 0.018570 
#    y 0.000000 1.864730 0.000000 
#    z 0.018570 0.000000 1.795730 
# 
# From -- ./inp_files/47562.got.cif
#   From: 2010.06.25/outbox.cif.g09.slc.cpg/sg11_24_cif.got.tgz:47562.got - 2010.06.27 23:14:04.
