data_PCOD8075061
_publ_section_title
;
Structure prediction by ZEFSAII (Michael W. Deem and Ramdas Pophale) SiO2 
 PCOD8075061
Probable space group: P 21/M
;
_chemical_formula_sum "Si O2"
_cell_formula_units_Z 28
_cell_length_a 13.582298
_cell_length_b 8.938403
_cell_length_c 13.648475
_cell_angle_alpha 90.000000
_cell_angle_beta 60.089886
_cell_angle_gamma 90.000000
_cell_volume 1436.284908
_symmetry_space_group_name_H-M "P 21/M"
_symmetry_group_IT_number 11
_symmetry_cell_setting 'monoclinic'
loop_
_space_group_symop_operation_xyz
x,y,z
-x,1/2+y,-z
-x,-y,-z
x,1/2-y,z
loop_
_atom_site_type_symbol
_atom_site_label
_atom_site_fract_x
_atom_site_fract_y
_atom_site_fract_z
Si Si1 0.912330 0.076675 0.115861
Si Si2 0.661692 0.078214 0.159308
Si Si3 0.952861 0.572439 0.301551
Si Si4 0.387286 0.075811 0.018092
Si Si5 0.179947 0.074298 0.261768
Si Si6 0.524296 0.927066 0.591357
Si Si7 0.765295 0.927142 0.548260
O O1 0.944863 0.250000 0.110933
O O2 0.787435 0.054627 0.136113
O O3 0.916485 0.998680 0.218005
O O4 0.000000 0.000000 0.000000
O O5 0.637634 0.250000 0.143221
O O6 0.573806 0.023365 0.285207
O O7 0.646681 0.978614 0.071809
O O8 0.952835 0.750000 0.290733
O O9 0.862962 0.516060 0.426860
O O10 0.076327 0.518574 0.270666
O O11 0.410495 0.250000 0.002135
O O12 0.287551 0.036092 0.142300
O O13 0.500000 0.000000 0.000000
O O14 0.150311 0.250000 0.275443
O O15 0.206426 0.013785 0.357380
O O16 0.527071 0.750000 0.576022
O O17 0.643761 0.989591 0.573307
O O18 0.500000 0.000000 0.500000
O O19 0.759584 0.750000 0.553503
#
# Coordination Sequence:
#
# PCOD8075061 Si02
#       7
#     4   4   4   4   4   4   4
#     4  11  23  39  59  84 114 150 190 234 281 334
#     4  10  22  39  59  83 114 150 190 234 281 332
#     4  11  22  36  57  86 116 148 186 232 283 336
#     4  11  23  38  60  86 114 149 189 232 281 334
#     4  10  21  39  60  82 111 151 193 233 279 332
#     4  10  20  37  59  83 112 147 185 229 280 335
#     4   9  19  36  58  82 112 149 187 228 279 335
#
# _framework density 19.494738999999999
#
# number of rings (size 3 to 8) (size 9 to 14) (size 15 to 20)
#    0.000    1.714    0.000    4.286    0.000    7.429 
#    0.000    2.143    0.000    0.000    0.000    0.000 
#    0.000    0.000    0.000    0.000    0.000    0.000 
#
# Total GULP energy -347335.375907 kJ/mol
# GULP energy per Si atom -12404.834854 kJ/mol
# Density = 1.945037 g / cm^3
# Si number density = 19.494739 Si / 1000 Ang^3
#
#
#
# Elastic Constant Matrix: (Units=GPa)
#
#
# Indices 1 2 3 4 5 6 
#
# 1 112.0463 51.9681 72.2979 0.0000 -4.6056 0.0000
# 2 51.9681 61.2869 76.7606 0.0000 -14.0999 0.0000
# 3 72.2979 76.7606 182.9585 0.0000 6.8152 0.0000
# 4 0.0000 0.0000 0.0000 32.1239 0.0000 5.9286
# 5 -4.6056 -14.0999 6.8152 0.0000 35.3804 0.0000
# 6 0.0000 0.0000 0.0000 5.9286 0.0000 34.0423
#
#
#
# Elastic Compliance Matrix: (Units=1/GPa)
#
#
# Indices 1 2 3 4 5 6 
#
# 1 0.015092 -0.013082 -0.000357 0.000000 -0.003180 0.000000
# 2 -0.013082 0.059201 -0.020632 0.000000 0.025864 0.000000
# 3 -0.000357 -0.020632 0.014676 0.000000 -0.011096 0.000000
# 4 0.000000 0.000000 0.000000 0.032163 0.000000 -0.005601
# 5 -0.003180 0.025864 -0.011096 0.000000 0.040295 0.000000
# 6 0.000000 0.000000 0.000000 -0.005601 0.000000 0.030351
#
#
# Mechanical properties :
#
#
# Convention : Reuss Voigt Hill
#
# Bulk Modulus (GPa) = 48.01272 84.26053 66.13662
# Shear Modulus (GPa) = 18.73632 30.66033 24.69833
#
# Velocity S-wave (km/s) = 3.10352 3.97009 3.56325
# Velocity P-wave (km/s) = 6.12572 8.02069 7.13639
#
# Compressibility (1/GPa) = 0.02082782
#
# Stress axis : x y z
#
# Youngs Moduli (GPa) = 66.26079 16.89164 68.13833
#
# Poissons Ratio (x) = 0.22098 0.02430
# Poissons Ratio (y) = 0.86683 1.40581
# Poissons Ratio (z) = 0.02363 0.34850
#
# Static dielectric constant tensor:
#      x y z
#    x 3.734120 0.000000 -0.019000 
#    y 0.000000 3.528870 0.000000 
#    z -0.019000 0.000000 3.837290 
# 
# 
# High freq. dielectric constant tensor:
#      x y z
#    x 1.779330 0.000000 -0.000530 
#    y 0.000000 1.747350 0.000000 
#    z -0.000530 0.000000 1.780790 
# 
# From -- ./inp_files/49112.got.cif
#   From: 2010.06.25/outbox.cif.g09.slc.cpg/sg11_25_cif.got.tgz:49112.got - 2010.06.27 23:14:04.
