data_PCOD8075508
_publ_section_title
;
Structure prediction by ZEFSAII (Michael W. Deem and Ramdas Pophale) SiO2 
 PCOD8075508
Probable space group: P 21/M
;
_chemical_formula_sum "Si O2"
_cell_formula_units_Z 24
_cell_length_a 9.110713
_cell_length_b 13.236594
_cell_length_c 18.531893
_cell_angle_alpha 90.000000
_cell_angle_beta 145.550854
_cell_angle_gamma 90.000000
_cell_volume 1264.197811
_symmetry_space_group_name_H-M "P 21/M"
_symmetry_group_IT_number 11
_symmetry_cell_setting 'monoclinic'
loop_
_space_group_symop_operation_xyz
x,y,z
-x,1/2+y,-z
-x,-y,-z
x,1/2-y,z
loop_
_atom_site_type_symbol
_atom_site_label
_atom_site_fract_x
_atom_site_fract_y
_atom_site_fract_z
Si Si1 0.904294 0.481182 0.200604
Si Si2 0.541869 0.131114 0.948141
Si Si3 0.296433 0.973650 0.129466
Si Si4 0.377144 0.865038 0.676971
Si Si5 0.432820 0.969636 0.339301
Si Si6 0.078237 0.135834 0.407335
O O1 0.721582 0.579240 0.131004
O O2 0.187432 0.514130 0.290288
O O3 0.930019 0.431675 0.289089
O O4 0.784463 0.401544 0.095724
O O5 0.501350 0.250000 0.937019
O O6 0.601261 0.101008 0.890120
O O7 0.343540 0.920354 0.226630
O O8 0.449043 0.081121 0.190262
O O9 0.000000 0.000000 0.000000
O O10 0.469830 0.750000 0.705333
O O11 0.077080 0.871657 0.579838
O O12 0.420224 0.923394 0.618322
O O13 0.626992 0.897189 0.460402
O O14 0.080868 0.250000 0.379386
#
# Coordination Sequence:
#
# PCOD8075508 Si02
#       6
#     4   4   4   4   4   4
#     4  11  22  41  61  87 129 160 201 248 302 363
#     4  11  23  40  64  90 121 163 203 246 304 361
#     4  10  20  39  61  90 119 150 199 256 300 348
#     4   9  20  38  62  87 117 160 204 244 300 359
#     4  10  22  37  63  88 120 156 204 255 295 355
#     4  11  22  39  60  87 124 165 204 244 302 361
#
# _framework density 18.984372
#
# number of rings (size 3 to 8) (size 9 to 14) (size 15 to 20)
#    1.000    0.667    3.333    1.500    0.000    4.667 
#    0.000    2.500    0.000    0.000    0.000    0.000 
#    0.000    0.000    0.000    0.000    0.000    0.000 
#
# Total GULP energy -297526.930822 kJ/mol
# GULP energy per Si atom -12396.955451 kJ/mol
# Density = 1.894116 g / cm^3
# Si number density = 18.984372 Si / 1000 Ang^3
#
#
#
# Elastic Constant Matrix: (Units=GPa)
#
#
# Indices 1 2 3 4 5 6 
#
# 1 86.4957 29.3164 3.6429 0.0000 19.5101 0.0000
# 2 29.3164 96.6364 16.8989 0.0000 13.6100 0.0000
# 3 3.6429 16.8989 63.5830 0.0000 15.1670 0.0000
# 4 0.0000 0.0000 0.0000 22.6682 0.0000 0.0137
# 5 19.5101 13.6100 15.1670 0.0000 37.0754 0.0000
# 6 0.0000 0.0000 0.0000 0.0137 0.0000 13.6501
#
#
#
# Elastic Compliance Matrix: (Units=1/GPa)
#
#
# Indices 1 2 3 4 5 6 
#
# 1 0.014290 -0.003678 0.001807 0.000000 -0.006909 0.000000
# 2 -0.003678 0.012132 -0.002674 0.000000 -0.001424 0.000000
# 3 0.001807 -0.002674 0.018093 0.000000 -0.007371 0.000000
# 4 0.000000 0.000000 0.000000 0.044115 0.000000 -0.000044
# 5 -0.006909 -0.001424 -0.007371 0.000000 0.034146 0.000000
# 6 0.000000 0.000000 0.000000 -0.000044 0.000000 0.073260
#
#
# Mechanical properties :
#
#
# Convention : Reuss Voigt Hill
#
# Bulk Modulus (GPa) = 28.22898 38.49239 33.36068
# Shear Modulus (GPa) = 23.04849 27.80251 25.42550
#
# Velocity S-wave (km/s) = 3.48814 3.83102 3.66360
# Velocity P-wave (km/s) = 5.57895 6.31576 5.95876
#
# Compressibility (1/GPa) = 0.03542459
#
# Stress axis : x y z
#
# Youngs Moduli (GPa) = 69.97803 82.42614 55.27045
#
# Poissons Ratio (x) = 0.30317 -0.09987
# Poissons Ratio (y) = 0.25739 0.14779
# Poissons Ratio (z) = -0.12644 0.22041
#
# Static dielectric constant tensor:
#      x y z
#    x 3.507510 0.000000 0.008550 
#    y 0.000000 3.294160 0.000000 
#    z 0.008550 0.000000 3.418190 
# 
# 
# High freq. dielectric constant tensor:
#      x y z
#    x 1.746160 0.000000 0.008530 
#    y 0.000000 1.722540 0.000000 
#    z 0.008530 0.000000 1.737590 
# 
# From -- ./inp_files/57989.got.cif
#   From: 2010.06.25/outbox.cif.g09.slc.cpg/sg11_29_cif.got.tgz:57989.got - 2010.06.27 23:14:04.
