data_PCOD8075286
_publ_section_title
;
Structure prediction by ZEFSAII (Michael W. Deem and Ramdas Pophale) SiO2 
 PCOD8075286
Probable space group: P 21/M
;
_chemical_formula_sum "Si O2"
_cell_formula_units_Z 28
_cell_length_a 14.603574
_cell_length_b 8.602886
_cell_length_c 21.491873
_cell_angle_alpha 90.000000
_cell_angle_beta 31.174289
_cell_angle_gamma 90.000000
_cell_volume 1397.680915
_symmetry_space_group_name_H-M "P 21/M"
_symmetry_group_IT_number 11
_symmetry_cell_setting 'monoclinic'
loop_
_space_group_symop_operation_xyz
x,y,z
-x,1/2+y,-z
-x,-y,-z
x,1/2-y,z
loop_
_atom_site_type_symbol
_atom_site_label
_atom_site_fract_x
_atom_site_fract_y
_atom_site_fract_z
Si Si1 0.583682 0.429949 0.512678
Si Si2 0.734937 0.568641 0.637202
Si Si3 0.669780 0.068660 0.127782
Si Si4 0.028609 0.429652 0.384672
Si Si5 0.038671 0.430797 0.701462
Si Si6 0.255680 0.428190 0.788326
Si Si7 0.044110 0.069173 0.121520
O O1 0.500000 0.500000 0.500000
O O2 0.629471 0.250000 0.474363
O O3 0.758433 0.523755 0.428015
O O4 0.450007 0.452212 0.647338
O O5 0.753842 0.750000 0.610012
O O6 0.532851 0.512691 0.753657
O O7 0.839968 0.472800 0.524335
O O8 0.813427 0.532033 0.659636
O O9 0.685505 0.250000 0.104267
O O10 0.763177 0.032323 0.139223
O O11 0.766651 0.975190 0.016940
O O12 0.022429 0.250000 0.369764
O O13 0.066564 0.528194 0.300429
O O14 0.022741 0.250000 0.725992
O O15 0.953700 0.526126 0.807313
O O16 0.222798 0.250000 0.826028
O O17 0.111263 0.475326 0.821734
O O18 0.006680 0.250000 0.134933
#
# Coordination Sequence:
#
# PCOD8075286 Si02
#       7
#     4   4   4   4   4   4   4
#     4  11  22  36  58  86 119 154 192 238 288 342
#     4   9  20  39  63  91 121 153 191 239 293 348
#     4  11  23  40  61  85 116 154 197 242 291 346
#     4  10  20  37  63  93 122 152 191 239 292 350
#     4  12  24  39  59  86 121 158 197 240 294 353
#     4  11  23  39  59  86 118 155 197 240 290 346
#     4  12  25  41  60  82 114 155 200 246 293 347
#
# _framework density 20.033186000000001
#
# number of rings (size 3 to 8) (size 9 to 14) (size 15 to 20)
#    0.000    1.143    1.429    5.571    0.000    5.714 
#    0.000    0.714    0.000    0.000    0.000    0.000 
#    0.000    0.000    0.000    0.000    0.000    0.000 
#
# Total GULP energy -347408.139723 kJ/mol
# GULP energy per Si atom -12407.433562 kJ/mol
# Density = 1.998759 g / cm^3
# Si number density = 20.033186 Si / 1000 Ang^3
#
#
#
# Elastic Constant Matrix: (Units=GPa)
#
#
# Indices 1 2 3 4 5 6 
#
# 1 93.2796 14.6866 33.8722 0.0000 13.5188 0.0000
# 2 14.6866 67.3625 29.4626 0.0000 0.5701 0.0000
# 3 33.8722 29.4626 85.8876 0.0000 9.8117 0.0000
# 4 0.0000 0.0000 0.0000 34.5035 0.0000 3.7817
# 5 13.5188 0.5701 9.8117 0.0000 24.8801 0.0000
# 6 0.0000 0.0000 0.0000 3.7817 0.0000 33.1527
#
#
#
# Elastic Compliance Matrix: (Units=1/GPa)
#
#
# Indices 1 2 3 4 5 6 
#
# 1 0.013211 -0.000975 -0.004250 0.000000 -0.005480 0.000000
# 2 -0.000975 0.017638 -0.005948 0.000000 0.002472 0.000000
# 3 -0.004250 -0.005948 0.015792 0.000000 -0.003782 0.000000
# 4 0.000000 0.000000 0.000000 0.029350 0.000000 -0.003348
# 5 -0.005480 0.002472 -0.003782 0.000000 0.044605 0.000000
# 6 0.000000 0.000000 0.000000 -0.003348 0.000000 0.030545
#
#
# Mechanical properties :
#
#
# Convention : Reuss Voigt Hill
#
# Bulk Modulus (GPa) = 41.16093 44.73028 42.94561
# Shear Modulus (GPa) = 27.53504 29.74113 28.63809
#
# Velocity S-wave (km/s) = 3.71141 3.85722 3.78502
# Velocity P-wave (km/s) = 6.24156 6.49724 6.37068
#
# Compressibility (1/GPa) = 0.02429488
#
# Stress axis : x y z
#
# Youngs Moduli (GPa) = 75.69201 56.69445 63.32445
#
# Poissons Ratio (x) = 0.05529 0.26911
# Poissons Ratio (y) = 0.07382 0.37668
# Poissons Ratio (z) = 0.32167 0.33724
#
# Static dielectric constant tensor:
#      x y z
#    x 3.663110 0.000000 0.011060 
#    y 0.000000 3.691990 0.000000 
#    z 0.011060 0.000000 3.699400 
# 
# 
# High freq. dielectric constant tensor:
#      x y z
#    x 1.783470 0.000000 0.009320 
#    y 0.000000 1.792190 0.000000 
#    z 0.009320 0.000000 1.778000 
# 
# From -- ./inp_files/65363.got.cif
#   From: 2010.06.25/outbox.cif.g09.slc.cpg/sg11_33_cif.got.tgz:65363.got - 2010.06.27 23:14:04.
