data_PCOD8075466
_publ_section_title
;
Structure prediction by ZEFSAII (Michael W. Deem and Ramdas Pophale) SiO2 
 PCOD8075466
Probable space group: P 21/M
;
_chemical_formula_sum "Si O2"
_cell_formula_units_Z 32
_cell_length_a 12.496511
_cell_length_b 17.456778
_cell_length_c 10.934463
_cell_angle_alpha 90.000000
_cell_angle_beta 143.759605
_cell_angle_gamma 90.000000
_cell_volume 1410.152167
_symmetry_space_group_name_H-M "P 21/M"
_symmetry_group_IT_number 11
_symmetry_cell_setting 'monoclinic'
loop_
_space_group_symop_operation_xyz
x,y,z
-x,1/2+y,-z
-x,-y,-z
x,1/2-y,z
loop_
_atom_site_type_symbol
_atom_site_label
_atom_site_fract_x
_atom_site_fract_y
_atom_site_fract_z
Si Si1 0.616686 0.336599 0.615712
Si Si2 0.984608 0.409938 0.990197
Si Si3 0.380787 0.453880 0.733841
Si Si4 0.883876 0.165249 0.434769
Si Si5 0.742681 0.659488 0.573303
Si Si6 0.229285 0.964284 0.824228
Si Si7 0.857101 0.894253 0.122755
Si Si8 0.442339 0.881651 0.710696
O O1 0.665307 0.250000 0.696216
O O2 0.430940 0.362820 0.506035
O O3 0.597203 0.342220 0.453181
O O4 0.773855 0.390796 0.810686
O O5 0.082863 0.372100 0.195947
O O6 0.065069 0.375164 0.939035
O O7 0.000000 0.500000 0.000000
O O8 0.277504 0.383754 0.574453
O O9 0.269639 0.475216 0.752748
O O10 0.393392 0.528097 0.656870
O O11 0.583916 0.427438 0.955738
O O12 0.910076 0.250000 0.403783
O O13 0.903973 0.103427 0.343661
O O14 0.680891 0.157465 0.300144
O O15 0.028780 0.153534 0.674994
O O16 0.761044 0.750000 0.567143
O O17 0.127310 0.014063 0.834542
O O18 0.649232 0.868182 0.940423
#
# Coordination Sequence:
#
# PCOD8075466 Si02
#       8
#     4   4   4   4   4   4   4   4
#     4  11  23  40  61  93 134 170 207 262 325 384
#     4  12  26  40  67  99 130 173 222 268 312 392
#     4   9  20  41  68  93 122 165 217 263 317 378
#     4  11  23  39  63  95 127 167 215 269 330 381
#     4  11  25  43  67  96 135 176 208 265 338 394
#     4   9  21  42  67  91 126 169 217 271 315 376
#     4  11  23  41  65  96 127 170 216 263 323 380
#     4  10  20  38  64  90 123 167 210 266 310 382
#
# _framework density 22.692587
#
# number of rings (size 3 to 8) (size 9 to 14) (size 15 to 20)
#    0.000    1.500    2.500    2.625    5.250    3.000 
#    0.000    0.625    0.000    0.000    0.000    0.000 
#    0.000    0.000    0.000    0.000    0.000    0.000 
#
# Total GULP energy -396944.958168 kJ/mol
# GULP energy per Si atom -12404.529943 kJ/mol
# Density = 2.264094 g / cm^3
# Si number density = 22.692587 Si / 1000 Ang^3
#
#
#
# Elastic Constant Matrix: (Units=GPa)
#
#
# Indices 1 2 3 4 5 6 
#
# 1 23.1940 -4.6073 12.5622 0.0000 -0.7257 0.0000
# 2 -4.6073 102.0697 47.5680 0.0000 -2.7199 0.0000
# 3 12.5622 47.5680 130.2308 0.0000 -2.4203 0.0000
# 4 0.0000 0.0000 0.0000 30.8185 0.0000 6.2782
# 5 -0.7257 -2.7199 -2.4203 0.0000 37.3241 0.0000
# 6 0.0000 0.0000 0.0000 6.2782 0.0000 12.7968
#
#
#
# Elastic Compliance Matrix: (Units=1/GPa)
#
#
# Indices 1 2 3 4 5 6 
#
# 1 0.047685 0.005197 -0.006481 0.000000 0.000886 0.000000
# 2 0.005197 0.012386 -0.005013 0.000000 0.000679 0.000000
# 3 -0.006481 -0.005013 0.010138 0.000000 0.000166 0.000000
# 4 0.000000 0.000000 0.000000 0.036051 0.000000 -0.017687
# 5 0.000886 0.000679 0.000166 0.000000 0.026870 0.000000
# 6 0.000000 0.000000 0.000000 -0.017687 0.000000 0.086822
#
#
# Mechanical properties :
#
#
# Convention : Reuss Voigt Hill
#
# Bulk Modulus (GPa) = 17.35695 40.72670 29.04182
# Shear Modulus (GPa) = 19.86082 29.51930 24.69006
#
# Velocity S-wave (km/s) = 2.96161 3.61062 3.30210
# Velocity P-wave (km/s) = 4.40002 5.94712 5.23108
#
# Compressibility (1/GPa) = 0.05761382
#
# Stress axis : x y z
#
# Youngs Moduli (GPa) = 20.97094 80.73634 98.63955
#
# Poissons Ratio (x) = -0.41955 0.63932
# Poissons Ratio (y) = -0.10898 0.49446
# Poissons Ratio (z) = 0.13592 0.40471
#
# Static dielectric constant tensor:
#      x y z
#    x 4.071750 0.000000 0.022770 
#    y 0.000000 4.009410 0.000000 
#    z 0.022770 0.000000 4.204890 
# 
# 
# High freq. dielectric constant tensor:
#      x y z
#    x 1.887360 0.000000 0.006140 
#    y 0.000000 1.883850 0.000000 
#    z 0.006140 0.000000 1.908700 
# 
# From -- ./inp_files/40040.got.cif
#   From: 2010.06.25/outbox.cif.g09.slc.cpg/sg11_21_cif.got.tgz:40040.got - 2010.06.27 23:14:04.
