data_PCOD8075770
_publ_section_title
;
Structure prediction by ZEFSAII (Michael W. Deem and Ramdas Pophale) SiO2 
 PCOD8075770
Probable space group: P 21/M
;
_chemical_formula_sum "Si O2"
_cell_formula_units_Z 32
_cell_length_a 24.100623
_cell_length_b 8.905520
_cell_length_c 17.720577
_cell_angle_alpha 90.000000
_cell_angle_beta 30.114131
_cell_angle_gamma 90.000000
_cell_volume 1908.228469
_symmetry_space_group_name_H-M "P 21/M"
_symmetry_group_IT_number 11
_symmetry_cell_setting 'monoclinic'
loop_
_space_group_symop_operation_xyz
x,y,z
-x,1/2+y,-z
-x,-y,-z
x,1/2-y,z
loop_
_atom_site_type_symbol
_atom_site_label
_atom_site_fract_x
_atom_site_fract_y
_atom_site_fract_z
Si Si1 0.387738 0.076653 0.608390
Si Si2 0.593003 0.426779 0.724882
Si Si3 0.988960 0.074624 0.431704
Si Si4 0.806576 0.072681 0.876514
Si Si5 0.261951 0.924124 0.308252
Si Si6 0.353918 0.072240 0.055801
Si Si7 0.421833 0.925004 0.423620
Si Si8 0.322824 0.421793 0.844663
O O1 0.411837 0.250000 0.567008
O O2 0.302581 0.053269 0.778421
O O3 0.500000 0.000000 0.500000
O O4 0.348363 0.005572 0.575206
O O5 0.580944 0.250000 0.731593
O O6 0.693248 0.472017 0.661961
O O7 0.615608 0.489680 0.613925
O O8 0.476982 0.487691 0.893869
O O9 0.015491 0.250000 0.408792
O O10 0.868056 0.045676 0.540220
O O11 0.072444 0.998819 0.274682
O O12 0.000000 0.000000 0.500000
O O13 0.815327 0.250000 0.857937
O O14 0.729417 0.009761 0.901816
O O15 0.759894 0.030116 0.013540
O O16 0.289298 0.750000 0.258825
O O17 0.324935 0.027880 0.174818
O O18 0.342044 0.250000 0.058946
O O19 0.398203 0.750000 0.459711
O O20 0.551547 0.961210 0.280760
O O21 0.297572 0.250000 0.897186
#
# Coordination Sequence:
#
# PCOD8075770 Si02
#       8
#     4   4   4   4   4   4   4   4
#     4   9  17  28  44  68  99 132 163 197 239 291
#     4   9  18  33  51  73 102 134 165 200 246 298
#     4  11  22  36  54  73  97 128 167 212 256 296
#     4  12  23  33  50  74  99 130 170 210 248 294
#     4  10  21  36  53  73  96 127 171 211 245 297
#     4  11  20  33  52  71 100 134 163 202 251 296
#     4   9  16  29  48  70 100 135 162 191 240 297
#     4   9  17  31  48  69  99 131 162 197 246 294
#
# _framework density 16.769480999999999
#
# number of rings (size 3 to 8) (size 9 to 14) (size 15 to 20)
#    0.000    2.000    2.500    3.375    0.000    3.000 
#    0.000    1.250    0.000    0.000    0.000    0.875 
#    0.000    0.000    0.000    0.000    0.000    0.000 
#
# Total GULP energy -396728.614934 kJ/mol
# GULP energy per Si atom -12397.769217 kJ/mol
# Density = 1.673131 g / cm^3
# Si number density = 16.769481 Si / 1000 Ang^3
#
#
#
# Elastic Constant Matrix: (Units=GPa)
#
#
# Indices 1 2 3 4 5 6 
#
# 1 123.3406 48.4971 69.9841 0.0000 17.5272 0.0000
# 2 48.4971 84.5795 42.5219 0.0000 10.5991 0.0000
# 3 69.9841 42.5219 72.8846 0.0000 16.6118 0.0000
# 4 0.0000 0.0000 0.0000 25.6446 0.0000 8.9070
# 5 17.5272 10.5991 16.6118 0.0000 30.0566 0.0000
# 6 0.0000 0.0000 0.0000 8.9070 0.0000 20.9546
#
#
#
# Elastic Compliance Matrix: (Units=1/GPa)
#
#
# Indices 1 2 3 4 5 6 
#
# 1 0.018156 -0.002314 -0.015854 0.000000 -0.001010 0.000000
# 2 -0.002314 0.017034 -0.007614 0.000000 -0.000450 0.000000
# 3 -0.015854 -0.007614 0.035086 0.000000 -0.007461 0.000000
# 4 0.000000 0.000000 0.000000 0.045749 0.000000 -0.019446
# 5 -0.001010 -0.000450 -0.007461 0.000000 0.038142 0.000000
# 6 0.000000 0.000000 0.000000 -0.019446 0.000000 0.055988
#
#
# Mechanical properties :
#
#
# Convention : Reuss Voigt Hill
#
# Bulk Modulus (GPa) = 53.43723 66.97899 60.20811
# Shear Modulus (GPa) = 18.65986 23.31795 20.98890
#
# Velocity S-wave (km/s) = 3.33938 3.73299 3.54165
# Velocity P-wave (km/s) = 6.84131 7.65558 7.25987
#
# Compressibility (1/GPa) = 0.01871355
#
# Stress axis : x y z
#
# Youngs Moduli (GPa) = 55.07693 58.70622 28.50153
#
# Poissons Ratio (x) = 0.13583 0.45186
# Poissons Ratio (y) = 0.12743 0.21700
# Poissons Ratio (z) = 0.87318 0.44697
#
# Static dielectric constant tensor:
#      x y z
#    x 3.351930 0.000000 0.326330 
#    y 0.000000 3.187770 0.000000 
#    z 0.326330 0.000000 3.269700 
# 
# 
# High freq. dielectric constant tensor:
#      x y z
#    x 1.635310 0.000000 0.025330 
#    y 0.000000 1.644250 0.000000 
#    z 0.025330 0.000000 1.629210 
# 
# From -- ./inp_files/43825.got.cif
#   From: 2010.06.25/outbox.cif.g09.slc.cpg/sg11_22_cif.got.tgz:43825.got - 2010.06.27 23:14:04.
