data_PCOD8075837
_publ_section_title
;
Structure prediction by ZEFSAII (Michael W. Deem and Ramdas Pophale) SiO2 
 PCOD8075837
Probable space group: P 21/M
;
_chemical_formula_sum "Si O2"
_cell_formula_units_Z 32
_cell_length_a 14.921345
_cell_length_b 9.000535
_cell_length_c 25.498207
_cell_angle_alpha 90.000000
_cell_angle_beta 149.997162
_cell_angle_gamma 90.000000
_cell_volume 1712.352614
_symmetry_space_group_name_H-M "P 21/M"
_symmetry_group_IT_number 11
_symmetry_cell_setting 'monoclinic'
loop_
_space_group_symop_operation_xyz
x,y,z
-x,1/2+y,-z
-x,-y,-z
x,1/2-y,z
loop_
_atom_site_type_symbol
_atom_site_label
_atom_site_fract_x
_atom_site_fract_y
_atom_site_fract_z
Si Si1 0.465205 0.922365 0.231722
Si Si2 0.641886 0.422334 0.939472
Si Si3 0.403788 0.573611 0.901845
Si Si4 0.740445 0.082034 0.508908
Si Si5 0.647093 0.573777 0.723370
Si Si6 0.001539 0.925182 0.718614
Si Si7 0.980838 0.573561 0.825369
Si Si8 0.828721 0.079782 0.435357
O O1 0.493766 0.750000 0.259124
O O2 0.365403 0.946592 0.126288
O O3 0.344376 0.995868 0.215701
O O4 0.656507 0.000073 0.324377
O O5 0.615043 0.250000 0.941108
O O6 0.488629 0.516416 0.890748
O O7 0.835041 0.482239 0.055504
O O8 0.423749 0.750000 0.916621
O O9 0.195706 0.524222 0.795929
O O10 0.500000 0.500000 0.000000
O O11 0.748352 0.250000 0.533701
O O12 0.534593 0.028948 0.399253
O O13 0.836738 0.067598 0.501921
O O14 0.841944 0.980088 0.601330
O O15 0.651550 0.750000 0.735205
O O16 0.813199 0.513004 0.773764
O O17 0.990923 0.750000 0.714908
O O18 0.970679 0.990017 0.761312
O O19 0.974503 0.750000 0.822036
O O20 0.824913 0.250000 0.414904
O O21 0.000000 0.000000 0.500000
#
# Coordination Sequence:
#
# PCOD8075837 Si02
#       8
#     4   4   4   4   4   4   4   4
#     4  10  21  36  56  83 114 146 184 233 283 329
#     4  10  21  38  58  82 114 152 188 227 279 336
#     4  11  22  37  57  82 113 149 187 230 279 332
#     4   9  20  36  53  79 111 142 181 228 279 327
#     4   9  19  38  61  80 108 150 187 230 283 334
#     4  10  21  36  56  82 110 147 188 224 271 333
#     4   9  18  37  60  80 108 148 190 227 277 338
#     4  10  21  37  56  79 110 148 188 230 280 336
#
# _framework density 18.687739000000001
#
# number of rings (size 3 to 8) (size 9 to 14) (size 15 to 20)
#    0.000    2.250    1.250    1.875    1.750    5.500 
#    0.000    1.250    0.000    0.000    0.000    0.000 
#    0.000    0.000    0.000    0.000    0.000    0.000 
#
# Total GULP energy -396863.492222 kJ/mol
# GULP energy per Si atom -12401.984132 kJ/mol
# Density = 1.864520 g / cm^3
# Si number density = 18.687739 Si / 1000 Ang^3
#
#
#
# Elastic Constant Matrix: (Units=GPa)
#
#
# Indices 1 2 3 4 5 6 
#
# 1 147.0406 46.5348 72.6004 0.0000 19.9759 0.0000
# 2 46.5348 64.0311 38.5035 0.0000 -0.2105 0.0000
# 3 72.6004 38.5035 107.1881 0.0000 -6.4329 0.0000
# 4 0.0000 0.0000 0.0000 29.0391 0.0000 -3.9637
# 5 19.9759 -0.2105 -6.4329 0.0000 29.9629 0.0000
# 6 0.0000 0.0000 0.0000 -3.9637 0.0000 30.0209
#
#
#
# Elastic Compliance Matrix: (Units=1/GPa)
#
#
# Indices 1 2 3 4 5 6 
#
# 1 0.014116 -0.005282 -0.008338 0.000000 -0.011238 0.000000
# 2 -0.005282 0.021956 -0.004142 0.000000 0.002786 0.000000
# 3 -0.008338 -0.004142 0.017016 0.000000 0.009183 0.000000
# 4 0.000000 0.000000 0.000000 0.035068 0.000000 0.004630
# 5 -0.011238 0.002786 0.009183 0.000000 0.042858 0.000000
# 6 0.000000 0.000000 0.000000 0.004630 0.000000 0.033921
#
#
# Mechanical properties :
#
#
# Convention : Reuss Voigt Hill
#
# Bulk Modulus (GPa) = 56.93590 70.39302 63.66446
# Shear Modulus (GPa) = 24.23474 28.51266 26.37370
#
# Velocity S-wave (km/s) = 3.60505 3.91031 3.76078
# Velocity P-wave (km/s) = 6.91821 7.62477 7.28007
#
# Compressibility (1/GPa) = 0.01756361
#
# Stress axis : x y z
#
# Youngs Moduli (GPa) = 70.84068 45.54563 58.76783
#
# Poissons Ratio (x) = 0.24057 0.49002
# Poissons Ratio (y) = 0.37417 0.24343
# Poissons Ratio (z) = 0.59069 0.18866
#
# Static dielectric constant tensor:
#      x y z
#    x 3.609890 0.000000 0.066510 
#    y 0.000000 3.384940 0.000000 
#    z 0.066510 0.000000 3.452100 
# 
# 
# High freq. dielectric constant tensor:
#      x y z
#    x 1.732780 0.000000 0.001220 
#    y 0.000000 1.713640 0.000000 
#    z 0.001220 0.000000 1.729360 
# 
# From -- ./inp_files/51752.got.cif
#   From: 2010.06.25/outbox.cif.g09.slc.cpg/sg11_26_cif.got.tgz:51752.got - 2010.06.27 23:14:04.
