data_PCOD8075252
_publ_section_title
;
Structure prediction by ZEFSAII (Michael W. Deem and Ramdas Pophale) SiO2 
 PCOD8075252
Probable space group: P 21/M
;
_chemical_formula_sum "Si O2"
_cell_formula_units_Z 28
_cell_length_a 15.837658
_cell_length_b 19.166574
_cell_length_c 9.508663
_cell_angle_alpha 90.000000
_cell_angle_beta 149.964848
_cell_angle_gamma 90.000000
_cell_volume 1444.727983
_symmetry_space_group_name_H-M "P 21/M"
_symmetry_group_IT_number 11
_symmetry_cell_setting 'monoclinic'
loop_
_space_group_symop_operation_xyz
x,y,z
-x,1/2+y,-z
-x,-y,-z
x,1/2-y,z
loop_
_atom_site_type_symbol
_atom_site_label
_atom_site_fract_x
_atom_site_fract_y
_atom_site_fract_z
Si Si1 0.597565 0.899385 0.557109
Si Si2 0.263551 0.912204 0.604040
Si Si3 0.040361 0.172698 0.519198
Si Si4 0.837097 0.971343 0.345496
Si Si5 0.499850 0.042778 0.298921
Si Si6 0.936482 0.670438 0.117262
Si Si7 0.341748 0.829442 0.984900
O O1 0.526715 0.902122 0.613851
O O2 0.606030 0.976748 0.505525
O O3 0.785123 0.868950 0.822152
O O4 0.479189 0.848432 0.298414
O O5 0.399431 0.919051 0.678253
O O6 0.360659 0.876599 0.874034
O O7 0.111431 0.865577 0.325470
O O8 0.191502 0.987294 0.550484
O O9 0.092932 0.250000 0.538937
O O10 0.140662 0.110945 0.583886
O O11 0.087005 0.165985 0.749748
O O12 0.842017 0.160112 0.211247
O O13 0.679901 0.984129 0.015872
O O14 0.000000 0.000000 0.500000
O O15 0.941786 0.750000 0.073036
O O16 0.366049 0.750000 0.971656
#
# Coordination Sequence:
#
# PCOD8075252 Si02
#       7
#     4   4   4   4   4   4   4
#     4  11  21  39  61  88 120 159 205 247 305 369
#     4  11  22  39  63  88 120 157 204 258 301 362
#     4   9  18  34  57  85 115 154 206 244 293 367
#     4  12  18  36  62  90 115 158 207 254 297 358
#     4  11  24  37  60  92 123 156 205 258 309 363
#     4  10  20  38  60  85 119 162 202 242 305 375
#     4  10  20  37  62  89 118 157 199 250 308 360
#
# _framework density 19.380811000000001
#
# number of rings (size 3 to 8) (size 9 to 14) (size 15 to 20)
#    0.000    1.429    5.714    2.143    0.000    1.714 
#    0.000    4.286    0.000    1.714    0.000    0.000 
#    0.000    0.000    0.000    0.000    0.000    0.000 
#
# Total GULP energy -347265.497819 kJ/mol
# GULP energy per Si atom -12402.339208 kJ/mol
# Density = 1.933670 g / cm^3
# Si number density = 19.380811 Si / 1000 Ang^3
#
#
#
# Elastic Constant Matrix: (Units=GPa)
#
#
# Indices 1 2 3 4 5 6 
#
# 1 92.3898 44.9462 38.6706 0.0000 5.7584 0.0000
# 2 44.9462 119.5411 43.4820 0.0000 8.8347 0.0000
# 3 38.6706 43.4820 146.7517 0.0000 9.7066 0.0000
# 4 0.0000 0.0000 0.0000 36.7916 0.0000 2.7679
# 5 5.7584 8.8347 9.7066 0.0000 14.7435 0.0000
# 6 0.0000 0.0000 0.0000 2.7679 0.0000 16.6067
#
#
#
# Elastic Compliance Matrix: (Units=1/GPa)
#
#
# Indices 1 2 3 4 5 6 
#
# 1 0.013975 -0.004312 -0.002316 0.000000 -0.001350 0.000000
# 2 -0.004312 0.010933 -0.001862 0.000000 -0.003641 0.000000
# 3 -0.002316 -0.001862 0.008200 0.000000 -0.003378 0.000000
# 4 0.000000 0.000000 0.000000 0.027525 0.000000 -0.004588
# 5 -0.001350 -0.003641 -0.003378 0.000000 0.072759 0.000000
# 6 0.000000 0.000000 0.000000 -0.004588 0.000000 0.060981
#
#
# Mechanical properties :
#
#
# Convention : Reuss Voigt Hill
#
# Bulk Modulus (GPa) = 62.00647 68.09779 65.05213
# Shear Modulus (GPa) = 23.07016 29.06729 26.06872
#
# Velocity S-wave (km/s) = 3.45390 3.87692 3.67151
# Velocity P-wave (km/s) = 6.92598 7.43328 7.18411
#
# Compressibility (1/GPa) = 0.01612735
#
# Stress axis : x y z
#
# Youngs Moduli (GPa) = 71.55672 91.46433 121.95704
#
# Poissons Ratio (x) = 0.39443 0.28239
# Poissons Ratio (y) = 0.30858 0.22712
# Poissons Ratio (z) = 0.16569 0.17033
#
# Static dielectric constant tensor:
#      x y z
#    x 3.133920 0.000000 0.001240 
#    y 0.000000 3.865090 0.000000 
#    z 0.001240 0.000000 3.646800 
# 
# 
# High freq. dielectric constant tensor:
#      x y z
#    x 1.711630 0.000000 0.005980 
#    y 0.000000 1.770910 0.000000 
#    z 0.005980 0.000000 1.764240 
# 
# From -- ./inp_files/23191.got.cif
#   From: 2010.06.25/outbox.cif.g09.slc.cpg/sg11_12_cif.got.tgz:23191.got - 2010.06.27 23:14:04.
