data_PCOD8075257
_publ_section_title
;
Structure prediction by ZEFSAII (Michael W. Deem and Ramdas Pophale) SiO2 
 PCOD8075257
Probable space group: P 21/M
;
_chemical_formula_sum "Si O2"
_cell_formula_units_Z 20
_cell_length_a 12.591002
_cell_length_b 8.426206
_cell_length_c 8.913479
_cell_angle_alpha 90.000000
_cell_angle_beta 90.981078
_cell_angle_gamma 90.000000
_cell_volume 945.531367
_symmetry_space_group_name_H-M "P 21/M"
_symmetry_group_IT_number 11
_symmetry_cell_setting 'monoclinic'
loop_
_space_group_symop_operation_xyz
x,y,z
-x,1/2+y,-z
-x,-y,-z
x,1/2-y,z
loop_
_atom_site_type_symbol
_atom_site_label
_atom_site_fract_x
_atom_site_fract_y
_atom_site_fract_z
Si Si1 0.210881 0.932476 0.856934
Si Si2 0.972722 0.934674 0.337236
Si Si3 0.621602 0.936090 0.650875
Si Si4 0.400364 0.433864 0.692326
Si Si5 0.832243 0.566025 0.826918
O O1 0.199206 0.750000 0.903409
O O2 0.330547 0.965098 0.806072
O O3 0.131579 0.974215 0.720392
O O4 0.182991 0.041926 0.997294
O O5 0.945671 0.750000 0.346835
O O6 0.069152 0.962251 0.225446
O O7 0.000000 0.000000 0.500000
O O8 0.600886 0.750000 0.669098
O O9 0.631276 0.983946 0.477183
O O10 0.727872 0.991954 0.736357
O O11 0.523739 0.028019 0.724952
O O12 0.377868 0.250000 0.721182
O O13 0.855856 0.750000 0.794174
#
# Coordination Sequence:
#
# PCOD8075257 Si02
#       5
#     4   4   4   4   4
#     4  12  25  41  61  88 123 161 202 249 303 359
#     4  12  25  43  66  92 121 156 200 246 298 358
#     4   9  20  38  61  88 119 156 199 247 299 358
#     4  10  20  37  62  90 120 156 201 251 301 357
#     4  11  23  41  63  89 123 161 202 249 302 358
#
# _framework density 21.152125999999999
#
# number of rings (size 3 to 8) (size 9 to 14) (size 15 to 20)
#    0.000    1.200    0.000    6.600    0.000    4.800 
#    0.000    0.000    0.000    0.000    0.000    0.000 
#    0.000    0.000    0.000    0.000    0.000    0.000 
#
# Total GULP energy -248181.979362 kJ/mol
# GULP energy per Si atom -12409.098968 kJ/mol
# Density = 2.110398 g / cm^3
# Si number density = 21.152126 Si / 1000 Ang^3
#
#
#
# Elastic Constant Matrix: (Units=GPa)
#
#
# Indices 1 2 3 4 5 6 
#
# 1 81.0120 23.5346 8.3829 0.0000 -15.7062 0.0000
# 2 23.5346 71.8901 9.4818 0.0000 -2.9636 0.0000
# 3 8.3829 9.4818 66.3821 0.0000 -19.4296 0.0000
# 4 0.0000 0.0000 0.0000 34.1012 0.0000 -4.0156
# 5 -15.7062 -2.9636 -19.4296 0.0000 34.1044 0.0000
# 6 0.0000 0.0000 0.0000 -4.0156 0.0000 37.8337
#
#
#
# Elastic Compliance Matrix: (Units=1/GPa)
#
#
# Indices 1 2 3 4 5 6 
#
# 1 0.014980 -0.004725 0.000819 0.000000 0.006955 0.000000
# 2 -0.004725 0.015668 -0.002256 0.000000 -0.002100 0.000000
# 3 0.000819 -0.002256 0.018405 0.000000 0.010667 0.000000
# 4 0.000000 0.000000 0.000000 0.029696 0.000000 0.003152
# 5 0.006955 -0.002100 0.010667 0.000000 0.038419 0.000000
# 6 0.000000 0.000000 0.000000 0.003152 0.000000 0.026766
#
#
# Mechanical properties :
#
#
# Convention : Reuss Voigt Hill
#
# Bulk Modulus (GPa) = 27.22668 33.56477 30.39573
# Shear Modulus (GPa) = 29.67326 33.06684 31.37005
#
# Velocity S-wave (km/s) = 3.74953 3.95813 3.85524
# Velocity P-wave (km/s) = 5.62539 6.06562 5.84965
#
# Compressibility (1/GPa) = 0.03672868
#
# Stress axis : x y z
#
# Youngs Moduli (GPa) = 66.75463 63.82427 54.33242
#
# Poissons Ratio (x) = 0.30159 -0.04449
# Poissons Ratio (y) = 0.31544 0.12257
# Poissons Ratio (z) = -0.05466 0.14398
#
# Static dielectric constant tensor:
#      x y z
#    x 3.955440 0.000000 0.017320 
#    y 0.000000 3.783670 0.000000 
#    z 0.017320 0.000000 3.782240 
# 
# 
# High freq. dielectric constant tensor:
#      x y z
#    x 1.841860 0.000000 -0.003510 
#    y 0.000000 1.831880 0.000000 
#    z -0.003510 0.000000 1.829230 
# 
# From -- ./inp_files/15927.got.cif
#   From: 2010.06.25/outbox.cif.g09.slc.cpg/sg11_8_cif.got.tgz:15927.got - 2010.06.27 23:14:04.
