data_PCOD8075862
_publ_section_title
;
Structure prediction by ZEFSAII (Michael W. Deem and Ramdas Pophale) SiO2 
 PCOD8075862
Probable space group: P 21/M
;
_chemical_formula_sum "Si O2"
_cell_formula_units_Z 20
_cell_length_a 23.470554
_cell_length_b 8.784312
_cell_length_c 5.177731
_cell_angle_alpha 90.000000
_cell_angle_beta 109.430799
_cell_angle_gamma 90.000000
_cell_volume 1006.705682
_symmetry_space_group_name_H-M "P 21/M"
_symmetry_group_IT_number 11
_symmetry_cell_setting 'monoclinic'
loop_
_space_group_symop_operation_xyz
x,y,z
-x,1/2+y,-z
-x,-y,-z
x,1/2-y,z
loop_
_atom_site_type_symbol
_atom_site_label
_atom_site_fract_x
_atom_site_fract_y
_atom_site_fract_z
Si Si1 0.329416 0.572179 0.989844
Si Si2 0.730583 0.569925 0.600509
Si Si3 0.528869 0.426938 0.793531
Si Si4 0.065172 0.572044 0.613084
Si Si5 0.139296 0.929500 0.227925
O O1 0.313562 0.750000 0.963296
O O2 0.300804 0.497627 0.196563
O O3 0.400288 0.541726 0.100117
O O4 0.302081 0.495963 0.697393
O O5 0.724082 0.750000 0.592733
O O6 0.800140 0.524592 0.705084
O O7 0.500000 0.500000 0.500000
O O8 0.513732 0.250000 0.770808
O O9 0.500000 0.500000 0.000000
O O10 0.055738 0.750000 0.579898
O O11 0.106448 0.516203 0.438776
O O12 0.000000 0.500000 0.500000
O O13 0.096747 0.524178 0.926235
O O14 0.154240 0.750000 0.251413
#
# Coordination Sequence:
#
# PCOD8075862 Si02
#       5
#     4   4   4   4   4
#     4  11  24  43  64  88 123 167 204 241 302 375
#     4  12  25  40  63  95 123 155 204 261 306 346
#     4  11  24  41  64  92 123 161 204 249 302 360
#     4  10  21  36  57  83 112 150 195 240 291 349
#     4  10  21  38  58  82 115 157 196 235 294 364
#
# _framework density 19.866782000000001
#
# number of rings (size 3 to 8) (size 9 to 14) (size 15 to 20)
#    0.000    1.200    0.000    6.000    0.000   11.200 
#    0.000    0.000    0.000    0.000    0.000    0.000 
#    0.000    0.000    0.000    0.000    0.000    0.000 
#
# Total GULP energy -248118.601325 kJ/mol
# GULP energy per Si atom -12405.930066 kJ/mol
# Density = 1.982156 g / cm^3
# Si number density = 19.866782 Si / 1000 Ang^3
#
#
#
# Elastic Constant Matrix: (Units=GPa)
#
#
# Indices 1 2 3 4 5 6 
#
# 1 134.6497 87.1514 49.5878 0.0000 -12.7845 0.0000
# 2 87.1514 113.5539 60.3246 0.0000 6.7919 0.0000
# 3 49.5878 60.3246 122.2315 0.0000 -13.7204 0.0000
# 4 0.0000 0.0000 0.0000 34.0255 0.0000 3.3234
# 5 -12.7845 6.7919 -13.7204 0.0000 43.5345 0.0000
# 6 0.0000 0.0000 0.0000 3.3234 0.0000 40.0917
#
#
#
# Elastic Compliance Matrix: (Units=1/GPa)
#
#
# Indices 1 2 3 4 5 6 
#
# 1 0.016649 -0.013631 0.000789 0.000000 0.007264 0.000000
# 2 -0.013631 0.023755 -0.007318 0.000000 -0.010015 0.000000
# 3 0.000789 -0.007318 0.012053 0.000000 0.005172 0.000000
# 4 0.000000 0.000000 0.000000 0.029630 0.000000 -0.002456
# 5 0.007264 -0.010015 0.005172 0.000000 0.028296 0.000000
# 6 0.000000 0.000000 0.000000 -0.002456 0.000000 0.025146
#
#
# Mechanical properties :
#
#
# Convention : Reuss Voigt Hill
#
# Bulk Modulus (GPa) = 82.39924 84.95139 83.67531
# Shear Modulus (GPa) = 27.79407 35.08843 31.44125
#
# Velocity S-wave (km/s) = 3.74441 4.20716 3.98251
# Velocity P-wave (km/s) = 7.76273 8.15191 7.95970
#
# Compressibility (1/GPa) = 0.01213603
#
# Stress axis : x y z
#
# Youngs Moduli (GPa) = 60.06513 42.09713 82.96426
#
# Poissons Ratio (x) = 0.57383 -0.06542
# Poissons Ratio (y) = 0.81875 0.60712
# Poissons Ratio (z) = -0.04736 0.30806
#
# Static dielectric constant tensor:
#      x y z
#    x 3.865470 0.000000 -0.201330 
#    y 0.000000 3.698410 0.000000 
#    z -0.201330 0.000000 4.061990 
# 
# 
# High freq. dielectric constant tensor:
#      x y z
#    x 1.796020 0.000000 -0.002460 
#    y 0.000000 1.779360 0.000000 
#    z -0.002460 0.000000 1.800110 
# 
# From -- ./inp_files/8483.got.cif
#   From: 2010.06.25/outbox.cif.g09.slc.cpg/sg11_5_cif.got.tgz:8483.got - 2010.06.27 23:14:04.
