data_PCOD8075171
_publ_section_title
;
Structure prediction by ZEFSAII (Michael W. Deem and Ramdas Pophale) SiO2 
 PCOD8075171
Probable space group: P 21/M
;
_chemical_formula_sum "Si O2"
_cell_formula_units_Z 28
_cell_length_a 14.181378
_cell_length_b 9.149052
_cell_length_c 12.180493
_cell_angle_alpha 90.000000
_cell_angle_beta 90.982487
_cell_angle_gamma 90.000000
_cell_volume 1580.139910
_symmetry_space_group_name_H-M "P 21/M"
_symmetry_group_IT_number 11
_symmetry_cell_setting 'monoclinic'
loop_
_space_group_symop_operation_xyz
x,y,z
-x,1/2+y,-z
-x,-y,-z
x,1/2-y,z
loop_
_atom_site_type_symbol
_atom_site_label
_atom_site_fract_x
_atom_site_fract_y
_atom_site_fract_z
Si Si1 0.258402 0.579642 0.332371
Si Si2 0.100605 0.920811 0.502984
Si Si3 0.202694 0.415818 0.125672
Si Si4 0.007484 0.585768 0.888818
Si Si5 0.244413 0.084204 0.652135
Si Si6 0.179589 0.416720 0.878751
Si Si7 0.401298 0.420837 0.488992
O O1 0.284052 0.750000 0.335422
O O2 0.158594 0.550061 0.391417
O O3 0.257643 0.525083 0.206523
O O4 0.341920 0.489446 0.389366
O O5 0.082136 0.750000 0.521072
O O6 0.163703 0.978159 0.604797
O O7 0.000000 0.000000 0.500000
O O8 0.242250 0.250000 0.135225
O O9 0.094988 0.418328 0.168554
O O10 0.213233 0.474173 0.999443
O O11 0.041238 0.750000 0.910858
O O12 0.090060 0.503166 0.824844
O O13 0.000000 0.500000 0.000000
O O14 0.213141 0.250000 0.623002
O O15 0.257781 0.066392 0.784719
O O16 0.345731 0.050126 0.601523
O O17 0.147795 0.250000 0.896829
O O18 0.500000 0.500000 0.500000
O O19 0.416695 0.250000 0.466278
#
# Coordination Sequence:
#
# PCOD8075171 Si02
#       7
#     4   4   4   4   4   4   4
#     4  10  21  35  52  76 103 134 174 214 255 306
#     4  10  21  34  48  70 101 138 175 215 258 302
#     4   9  18  31  47  70 102 138 173 212 254 298
#     4   9  17  28  42  64  94 135 181 216 248 287
#     4   9  19  35  54  77 103 134 170 210 259 311
#     4   9  18  32  49  71 102 137 175 214 254 301
#     4  10  20  37  61  83 104 129 162 210 264 318
#
# _framework density 17.719949
#
# number of rings (size 3 to 8) (size 9 to 14) (size 15 to 20)
#    0.000    2.571    0.000    2.571    2.000    5.714 
#    0.000    0.000    0.000    0.857    0.000    0.000 
#    0.000    0.000    0.000    0.000    0.000    0.000 
#
# Total GULP energy -346979.971580 kJ/mol
# GULP energy per Si atom -12392.141842 kJ/mol
# Density = 1.767962 g / cm^3
# Si number density = 17.719949 Si / 1000 Ang^3
#
#
#
# Elastic Constant Matrix: (Units=GPa)
#
#
# Indices 1 2 3 4 5 6 
#
# 1 103.9143 59.1019 50.7844 0.0000 2.4361 0.0000
# 2 59.1019 109.4099 52.7222 0.0000 6.1876 0.0000
# 3 50.7844 52.7222 120.7878 0.0000 -6.6446 0.0000
# 4 0.0000 0.0000 0.0000 25.5043 0.0000 4.7172
# 5 2.4361 6.1876 -6.6446 0.0000 15.0594 0.0000
# 6 0.0000 0.0000 0.0000 4.7172 0.0000 30.0292
#
#
#
# Elastic Compliance Matrix: (Units=1/GPa)
#
#
# Indices 1 2 3 4 5 6 
#
# 1 0.015006 -0.006261 -0.003657 0.000000 -0.001469 0.000000
# 2 -0.006261 0.014992 -0.004299 0.000000 -0.007044 0.000000
# 3 -0.003657 -0.004299 0.012117 0.000000 0.007704 0.000000
# 4 0.000000 0.000000 0.000000 0.040382 0.000000 -0.006344
# 5 -0.001469 -0.007044 0.007704 0.000000 0.072935 0.000000
# 6 0.000000 0.000000 0.000000 -0.006344 0.000000 0.034297
#
#
# Mechanical properties :
#
#
# Convention : Reuss Voigt Hill
#
# Bulk Modulus (GPa) = 73.09441 73.25877 73.17659
# Shear Modulus (GPa) = 22.44940 25.55214 24.00077
#
# Velocity S-wave (km/s) = 3.56322 3.80148 3.68428
# Velocity P-wave (km/s) = 7.63335 7.79106 7.71261
#
# Compressibility (1/GPa) = 0.01368094
#
# Stress axis : x y z
#
# Youngs Moduli (GPa) = 66.64079 66.70335 82.52932
#
# Poissons Ratio (x) = 0.41760 0.30183
# Poissons Ratio (y) = 0.41721 0.35479
# Poissons Ratio (z) = 0.24372 0.28676
#
# Static dielectric constant tensor:
#      x y z
#    x 3.215290 0.000000 -0.147310 
#    y 0.000000 3.798050 0.000000 
#    z -0.147310 0.000000 3.215150 
# 
# 
# High freq. dielectric constant tensor:
#      x y z
#    x 1.650110 0.000000 -0.010690 
#    y 0.000000 1.697210 0.000000 
#    z -0.010690 0.000000 1.681150 
# 
# From -- ./inp_files/37206.got.cif
#   From: 2010.06.25/outbox.cif.g09.slc.cpg/sg11_19_cif.got.tgz:37206.got - 2010.06.27 23:14:04.
