data_PCOD8075402
_publ_section_title
;
Structure prediction by ZEFSAII (Michael W. Deem and Ramdas Pophale) SiO2 
 PCOD8075402
Probable space group: P 21/M
;
_chemical_formula_sum "Si O2"
_cell_formula_units_Z 32
_cell_length_a 12.099328
_cell_length_b 17.730514
_cell_length_c 14.377039
_cell_angle_alpha 90.000000
_cell_angle_beta 29.663176
_cell_angle_gamma 90.000000
_cell_volume 1526.404863
_symmetry_space_group_name_H-M "P 21/M"
_symmetry_group_IT_number 11
_symmetry_cell_setting 'monoclinic'
loop_
_space_group_symop_operation_xyz
x,y,z
-x,1/2+y,-z
-x,-y,-z
x,1/2-y,z
loop_
_atom_site_type_symbol
_atom_site_label
_atom_site_fract_x
_atom_site_fract_y
_atom_site_fract_z
Si Si1 0.531476 0.837810 0.778291
Si Si2 0.439923 0.589762 0.448498
Si Si3 0.119471 0.335105 0.911426
Si Si4 0.080406 0.904347 0.118798
Si Si5 0.006784 0.333771 0.199182
Si Si6 0.395562 0.084382 0.465215
Si Si7 0.310280 0.042894 0.024527
Si Si8 0.238984 0.471699 0.292351
O O1 0.599755 0.750000 0.733441
O O2 0.505298 0.866060 0.690899
O O3 0.711684 0.887576 0.703625
O O4 0.283586 0.849967 0.003594
O O5 0.631986 0.632895 0.250905
O O6 0.486925 0.603050 0.523436
O O7 0.433483 0.503902 0.418758
O O8 0.199807 0.624679 0.600722
O O9 0.136208 0.250000 0.858539
O O10 0.988566 0.389226 0.936933
O O11 0.978968 0.334971 0.108552
O O12 0.865933 0.893008 0.341106
O O13 0.159584 0.990870 0.067145
O O14 0.015875 0.250000 0.232410
O O15 0.242288 0.371380 0.054817
O O16 0.249185 0.024054 0.174753
O O17 0.569971 0.029056 0.810246
O O18 0.000000 0.500000 0.500000
#
# Coordination Sequence:
#
# PCOD8075402 Si02
#       8
#     4   4   4   4   4   4   4   4
#     4  11  24  39  63  93 119 153 197 252 311 356
#     4  10  21  35  57  85 125 166 202 236 287 346
#     4  10  22  35  54  89 128 165 202 245 294 344
#     4  10  20  38  62  85 121 161 200 244 294 352
#     4  11  23  38  58  87 127 163 202 247 290 352
#     4  10  21  36  58  90 120 161 204 240 284 356
#     4  10  22  40  61  89 110 151 206 242 303 362
#     4  10  23  43  65  85 116 148 193 257 306 364
#
# _framework density 20.964293000000001
#
# number of rings (size 3 to 8) (size 9 to 14) (size 15 to 20)
#    0.000    1.750    1.250    2.250    3.500    5.000 
#    0.000    0.625    0.000    0.000    0.000    0.000 
#    0.000    0.000    0.000    0.000    0.000    0.000 
#
# Total GULP energy -396788.235014 kJ/mol
# GULP energy per Si atom -12399.632344 kJ/mol
# Density = 2.091658 g / cm^3
# Si number density = 20.964293 Si / 1000 Ang^3
#
#
#
# Elastic Constant Matrix: (Units=GPa)
#
#
# Indices 1 2 3 4 5 6 
#
# 1 46.2486 25.3297 23.6734 0.0000 -19.0706 0.0000
# 2 25.3297 119.8876 45.4714 0.0000 -22.8511 0.0000
# 3 23.6734 45.4714 111.4255 0.0000 -22.3804 0.0000
# 4 0.0000 0.0000 0.0000 25.5448 0.0000 1.5648
# 5 -19.0706 -22.8511 -22.3804 0.0000 26.8687 0.0000
# 6 0.0000 0.0000 0.0000 1.5648 0.0000 27.9097
#
#
#
# Elastic Compliance Matrix: (Units=1/GPa)
#
#
# Indices 1 2 3 4 5 6 
#
# 1 0.031698 -0.002351 -0.001991 0.000000 0.018841 0.000000
# 2 -0.002351 0.010936 -0.002919 0.000000 0.005201 0.000000
# 3 -0.001991 -0.002919 0.011777 0.000000 0.005914 0.000000
# 4 0.000000 0.000000 0.000000 0.039282 0.000000 -0.002202
# 5 0.018841 0.005201 0.005914 0.000000 0.059940 0.000000
# 6 0.000000 0.000000 0.000000 -0.002202 0.000000 0.035953
#
#
# Mechanical properties :
#
#
# Convention : Reuss Voigt Hill
#
# Bulk Modulus (GPa) = 25.06926 51.83453 38.45189
# Shear Modulus (GPa) = 22.99871 28.27045 25.63458
#
# Velocity S-wave (km/s) = 3.31576 3.67618 3.50061
# Velocity P-wave (km/s) = 5.16169 6.54201 5.89241
#
# Compressibility (1/GPa) = 0.03988949
#
# Stress axis : x y z
#
# Youngs Moduli (GPa) = 31.54786 91.43889 84.91448
#
# Poissons Ratio (x) = 0.21496 0.16906
# Poissons Ratio (y) = 0.07417 0.24785
# Poissons Ratio (z) = 0.06281 0.26689
#
# Static dielectric constant tensor:
#      x y z
#    x 3.643640 0.000000 -0.125740 
#    y 0.000000 3.761920 0.000000 
#    z -0.125740 0.000000 3.943560 
# 
# 
# High freq. dielectric constant tensor:
#      x y z
#    x 1.803730 0.000000 -0.006870 
#    y 0.000000 1.812420 0.000000 
#    z -0.006870 0.000000 1.832360 
# 
# From -- ./inp_files/50667.got.cif
#   From: 2010.06.25/outbox.cif.g09.slc.cpg/sg11_26_cif.got.tgz:50667.got - 2010.06.27 23:14:04.
