data_PCOD8075472
_publ_section_title
;
Structure prediction by ZEFSAII (Michael W. Deem and Ramdas Pophale) SiO2 
 PCOD8075472
Probable space group: P 21/M
;
_chemical_formula_sum "Si O2"
_cell_formula_units_Z 32
_cell_length_a 11.926842
_cell_length_b 13.713828
_cell_length_c 18.071964
_cell_angle_alpha 90.000000
_cell_angle_beta 148.522072
_cell_angle_gamma 90.000000
_cell_volume 1543.481709
_symmetry_space_group_name_H-M "P 21/M"
_symmetry_group_IT_number 11
_symmetry_cell_setting 'monoclinic'
loop_
_space_group_symop_operation_xyz
x,y,z
-x,1/2+y,-z
-x,-y,-z
x,1/2-y,z
loop_
_atom_site_type_symbol
_atom_site_label
_atom_site_fract_x
_atom_site_fract_y
_atom_site_fract_z
Si Si1 0.988153 0.026428 0.203810
Si Si2 0.129778 0.459470 0.440183
Si Si3 0.689627 0.862575 0.077280
Si Si4 0.434482 0.636024 0.074634
Si Si5 0.200657 0.013629 0.166777
Si Si6 0.600696 0.360904 0.356480
Si Si7 0.501414 0.138201 0.725036
Si Si8 0.706416 0.361289 0.245375
O O1 0.135525 0.061117 0.355311
O O2 0.129652 0.029096 0.210479
O O3 0.905328 0.918014 0.175935
O O4 0.785321 0.096461 0.082365
O O5 0.221147 0.568579 0.506121
O O6 0.266212 0.378245 0.560091
O O7 0.890217 0.441640 0.335356
O O8 0.737868 0.750000 0.090906
O O9 0.630968 0.885847 0.129620
O O10 0.493595 0.898309 0.915771
O O11 0.400560 0.750000 0.063655
O O12 0.486795 0.592175 0.185331
O O13 0.356395 0.103608 0.233461
O O14 0.332341 0.913891 0.235757
O O15 0.000000 0.000000 0.000000
O O16 0.628063 0.250000 0.402199
O O17 0.635364 0.363315 0.289312
O O18 0.563039 0.250000 0.760802
O O19 0.772835 0.250000 0.259705
#
# Coordination Sequence:
#
# PCOD8075472 Si02
#       8
#     4   4   4   4   4   4   4   4
#     4  12  24  39  65  92 125 166 208 255 311 365
#     4  11  24  39  64  93 126 164 207 253 314 373
#     4  10  22  38  62  95 128 158 204 262 314 370
#     4  10  21  39  63  90 122 159 202 255 313 367
#     4  11  23  41  65  91 120 162 213 256 303 366
#     4  10  24  42  60  89 129 168 208 255 311 371
#     4  10  23  42  64  91 126 163 207 262 311 365
#     4  10  20  38  64  93 124 162 207 258 316 369
#
# _framework density 20.732347000000001
#
# number of rings (size 3 to 8) (size 9 to 14) (size 15 to 20)
#    0.000    1.500    2.500    1.875    1.750    5.500 
#    0.000    3.750    0.000    0.000    0.000    0.000 
#    0.000    0.000    0.000    0.000    0.000    0.000 
#
# Total GULP energy -396803.006255 kJ/mol
# GULP energy per Si atom -12400.093945 kJ/mol
# Density = 2.068516 g / cm^3
# Si number density = 20.732347 Si / 1000 Ang^3
#
#
#
# Elastic Constant Matrix: (Units=GPa)
#
#
# Indices 1 2 3 4 5 6 
#
# 1 103.9340 30.3485 21.4259 0.0000 -6.9781 0.0000
# 2 30.3485 71.0201 21.1117 0.0000 -1.7860 0.0000
# 3 21.4259 21.1117 91.4939 0.0000 -16.5999 0.0000
# 4 0.0000 0.0000 0.0000 19.1494 0.0000 -2.8729
# 5 -6.9781 -1.7860 -16.5999 0.0000 29.8948 0.0000
# 6 0.0000 0.0000 0.0000 -2.8729 0.0000 24.2976
#
#
#
# Elastic Compliance Matrix: (Units=1/GPa)
#
#
# Indices 1 2 3 4 5 6 
#
# 1 0.011287 -0.004385 -0.001335 0.000000 0.001631 0.000000
# 2 -0.004385 0.016857 -0.003187 0.000000 -0.001786 0.000000
# 3 -0.001335 -0.003187 0.013218 0.000000 0.006838 0.000000
# 4 0.000000 0.000000 0.000000 0.053164 0.000000 0.006286
# 5 0.001631 -0.001786 0.006838 0.000000 0.037521 0.000000
# 6 0.000000 0.000000 0.000000 0.006286 0.000000 0.041900
#
#
# Mechanical properties :
#
#
# Convention : Reuss Voigt Hill
#
# Bulk Modulus (GPa) = 42.46753 45.80226 44.13490
# Shear Modulus (GPa) = 25.04880 27.57249 26.31065
#
# Velocity S-wave (km/s) = 3.47969 3.65077 3.56626
# Velocity P-wave (km/s) = 6.05578 6.31751 6.18803
#
# Compressibility (1/GPa) = 0.02354740
#
# Stress axis : x y z
#
# Youngs Moduli (GPa) = 88.59969 59.32330 75.65269
#
# Poissons Ratio (x) = 0.26014 0.10102
# Poissons Ratio (y) = 0.38852 0.24109
# Poissons Ratio (z) = 0.11831 0.18905
#
# Static dielectric constant tensor:
#      x y z
#    x 3.892060 0.000000 -0.125090 
#    y 0.000000 3.983030 0.000000 
#    z -0.125090 0.000000 4.010840 
# 
# 
# High freq. dielectric constant tensor:
#      x y z
#    x 1.809940 0.000000 -0.011770 
#    y 0.000000 1.819550 0.000000 
#    z -0.011770 0.000000 1.814320 
# 
# From -- ./inp_files/59484.got.cif
#   From: 2010.06.25/outbox.cif.g09.slc.cpg/sg11_30_cif.got.tgz:59484.got - 2010.06.27 23:14:04.
