data_PCOD8075978
_publ_section_title
;
Structure prediction by ZEFSAII (Michael W. Deem and Ramdas Pophale) SiO2 
 PCOD8075978
Probable space group: P 21/M
;
_chemical_formula_sum "Si O2"
_cell_formula_units_Z 28
_cell_length_a 22.075334
_cell_length_b 8.788062
_cell_length_c 24.501091
_cell_angle_alpha 90.000000
_cell_angle_beta 17.483729
_cell_angle_gamma 90.000000
_cell_volume 1428.026510
_symmetry_space_group_name_H-M "P 21/M"
_symmetry_group_IT_number 11
_symmetry_cell_setting 'monoclinic'
loop_
_space_group_symop_operation_xyz
x,y,z
-x,1/2+y,-z
-x,-y,-z
x,1/2-y,z
loop_
_atom_site_type_symbol
_atom_site_label
_atom_site_fract_x
_atom_site_fract_y
_atom_site_fract_z
Si Si1 0.957244 0.926170 0.190261
Si Si2 0.620732 0.072595 0.751653
Si Si3 0.538690 0.429669 0.525644
Si Si4 0.162411 0.927324 0.900192
Si Si5 0.824090 0.570950 0.897068
Si Si6 0.976904 0.570887 0.650486
Si Si7 0.202495 0.428073 0.303971
O O1 0.893744 0.750000 0.248078
O O2 0.082032 0.973314 0.135619
O O3 0.097563 0.957258 0.017740
O O4 0.758618 0.028377 0.358088
O O5 0.650182 0.250000 0.736245
O O6 0.806113 0.005792 0.556152
O O7 0.614978 0.998997 0.817559
O O8 0.414165 0.037318 0.898032
O O9 0.500000 0.500000 0.500000
O O10 0.515066 0.250000 0.541567
O O11 0.377465 0.493320 0.707204
O O12 0.180187 0.750000 0.870984
O O13 0.000000 0.000000 0.000000
O O14 0.867566 0.750000 0.867956
O O15 0.918689 0.505484 0.759563
O O16 0.997219 0.750000 0.639191
O O17 0.797434 0.533104 0.761054
O O18 0.200151 0.250000 0.315961
O O19 0.000000 0.500000 0.500000
#
# Coordination Sequence:
#
# PCOD8075978 Si02
#       7
#     4   4   4   4   4   4   4
#     4  11  25  43  61  88 125 159 198 247 296 353
#     4   9  18  33  53  77 108 144 186 236 289 345
#     4  12  24  40  66  95 124 156 194 241 294 353
#     4  11  23  40  65  93 124 158 194 239 295 353
#     4  10  21  37  56  78 109 153 197 236 284 346
#     4   8  16  32  52  76 108 144 185 235 286 341
#     4   9  16  29  51  78 107 140 182 234 289 343
#
# _framework density 19.607479999999999
#
# number of rings (size 3 to 8) (size 9 to 14) (size 15 to 20)
#    0.000    2.000    1.429    3.429    0.000    4.000 
#    0.000    5.000    0.000    0.000    0.000    0.000 
#    0.000    0.000    0.000    0.000    0.000    0.000 
#
# Total GULP energy -347127.577365 kJ/mol
# GULP energy per Si atom -12397.413477 kJ/mol
# Density = 1.956285 g / cm^3
# Si number density = 19.607480 Si / 1000 Ang^3
#
#
#
# Elastic Constant Matrix: (Units=GPa)
#
#
# Indices 1 2 3 4 5 6 
#
# 1 136.4912 46.6375 38.9294 0.0000 5.7570 0.0000
# 2 46.6375 93.4248 41.3385 0.0000 3.7440 0.0000
# 3 38.9294 41.3385 92.9825 0.0000 7.9387 0.0000
# 4 0.0000 0.0000 0.0000 25.2504 0.0000 -4.3169
# 5 5.7570 3.7440 7.9387 0.0000 29.1462 0.0000
# 6 0.0000 0.0000 0.0000 -4.3169 0.0000 34.3745
#
#
#
# Elastic Compliance Matrix: (Units=1/GPa)
#
#
# Indices 1 2 3 4 5 6 
#
# 1 0.009214 -0.003599 -0.002193 0.000000 -0.000760 0.000000
# 2 -0.003599 0.014731 -0.005059 0.000000 0.000197 0.000000
# 3 -0.002193 -0.005059 0.014159 0.000000 -0.002774 0.000000
# 4 0.000000 0.000000 0.000000 0.040472 0.000000 0.005083
# 5 -0.000760 0.000197 -0.002774 0.000000 0.035190 0.000000
# 6 0.000000 0.000000 0.000000 0.005083 0.000000 0.029730
#
#
# Mechanical properties :
#
#
# Convention : Reuss Voigt Hill
#
# Bulk Modulus (GPa) = 60.96772 64.07881 62.52327
# Shear Modulus (GPa) = 29.29732 30.82042 30.05887
#
# Velocity S-wave (km/s) = 3.86967 3.96898 3.91964
# Velocity P-wave (km/s) = 7.15034 7.33182 7.24165
#
# Compressibility (1/GPa) = 0.01640212
#
# Stress axis : x y z
#
# Youngs Moduli (GPa) = 108.53551 67.88395 70.62760
#
# Poissons Ratio (x) = 0.24430 0.15486
# Poissons Ratio (y) = 0.39059 0.35732
# Poissons Ratio (z) = 0.23798 0.34344
#
# Static dielectric constant tensor:
#      x y z
#    x 3.810870 0.000000 0.144030 
#    y 0.000000 3.625500 0.000000 
#    z 0.144030 0.000000 3.622790 
# 
# 
# High freq. dielectric constant tensor:
#      x y z
#    x 1.768430 0.000000 0.000050 
#    y 0.000000 1.754610 0.000000 
#    z 0.000050 0.000000 1.764880 
# 
# From -- ./inp_files/66653.got.cif
#   From: 2010.06.25/outbox.cif.g09.slc.cpg/sg11_34_cif.got.tgz:66653.got - 2010.06.27 23:14:04.
