data_PCOD8075672
_publ_section_title
;
Structure prediction by ZEFSAII (Michael W. Deem and Ramdas Pophale) SiO2 
 PCOD8075672
Probable space group: P 21/M
;
_chemical_formula_sum "Si O2"
_cell_formula_units_Z 32
_cell_length_a 29.345253
_cell_length_b 8.775887
_cell_length_c 19.836382
_cell_angle_alpha 90.000000
_cell_angle_beta 23.572185
_cell_angle_gamma 90.000000
_cell_volume 2042.900561
_symmetry_space_group_name_H-M "P 21/M"
_symmetry_group_IT_number 11
_symmetry_cell_setting 'monoclinic'
loop_
_space_group_symop_operation_xyz
x,y,z
-x,1/2+y,-z
-x,-y,-z
x,1/2-y,z
loop_
_atom_site_type_symbol
_atom_site_label
_atom_site_fract_x
_atom_site_fract_y
_atom_site_fract_z
Si Si1 0.764743 0.070706 0.896860
Si Si2 0.908886 0.071055 0.920602
Si Si3 0.330498 0.070817 0.753203
Si Si4 0.016405 0.928435 0.320422
Si Si5 0.341503 0.569842 0.596630
Si Si6 0.916663 0.427519 0.059784
Si Si7 0.110743 0.429496 0.383442
Si Si8 0.440475 0.570356 0.732708
O O1 0.773141 0.250000 0.877679
O O2 0.866256 0.003807 0.806748
O O3 0.777484 0.999884 0.804029
O O4 0.642793 0.022994 0.093082
O O5 0.875106 0.250000 0.964903
O O6 0.997182 0.027387 0.740434
O O7 0.958702 0.029815 0.926799
O O8 0.798453 0.972420 0.054492
O O9 0.342295 0.250000 0.723984
O O10 0.371447 0.979287 0.632047
O O11 0.407894 0.021306 0.710214
O O12 0.033339 0.750000 0.302877
O O13 0.903641 0.973869 0.517083
O O14 0.353859 0.750000 0.572326
O O15 0.212985 0.515251 0.753315
O O16 0.430187 0.484352 0.426076
O O17 0.922190 0.250000 0.064105
O O18 0.000000 0.500000 0.000000
O O19 0.113069 0.250000 0.369895
O O20 0.000000 0.500000 0.500000
O O21 0.433937 0.750000 0.728147
#
# Coordination Sequence:
#
# PCOD8075672 Si02
#       8
#     4   4   4   4   4   4   4   4
#     4   9  17  28  41  57  82 119 150 178 215 251
#     4   9  16  30  47  64  86 117 150 181 219 260
#     4  11  20  29  42  63  88 116 148 183 218 254
#     4   8  13  25  42  58  81 113 147 180 212 249
#     4  10  21  35  47  63  84 112 146 180 220 261
#     4   9  19  33  51  67  86 112 139 177 222 267
#     4   9  16  25  38  57  81 113 149 184 215 249
#     4  11  20  31  45  61  86 119 151 184 216 254
#
# _framework density 15.664002
#
# number of rings (size 3 to 8) (size 9 to 14) (size 15 to 20)
#    0.000    2.500    1.250    4.125    0.000    3.500 
#    0.000    0.625    0.000    0.000    0.000    0.000 
#    0.000    1.000    0.000    2.250    0.000    3.500 
#
# Total GULP energy -396452.497992 kJ/mol
# GULP energy per Si atom -12389.140562 kJ/mol
# Density = 1.562835 g / cm^3
# Si number density = 15.664002 Si / 1000 Ang^3
#
#
#
# Elastic Constant Matrix: (Units=GPa)
#
#
# Indices 1 2 3 4 5 6 
#
# 1 81.4916 20.3764 65.6448 0.0000 16.6560 0.0000
# 2 20.3764 40.3767 30.6368 0.0000 4.9939 0.0000
# 3 65.6448 30.6368 118.3823 0.0000 30.3216 0.0000
# 4 0.0000 0.0000 0.0000 25.2598 0.0000 2.0213
# 5 16.6560 4.9939 30.3216 0.0000 23.6966 0.0000
# 6 0.0000 0.0000 0.0000 2.0213 0.0000 19.6885
#
#
#
# Elastic Compliance Matrix: (Units=1/GPa)
#
#
# Indices 1 2 3 4 5 6 
#
# 1 0.022354 -0.002351 -0.011736 0.000000 -0.000200 0.000000
# 2 -0.002351 0.031559 -0.008305 0.000000 0.005629 0.000000
# 3 -0.011736 -0.008305 0.021633 0.000000 -0.017682 0.000000
# 4 0.000000 0.000000 0.000000 0.039916 0.000000 -0.004098
# 5 -0.000200 0.005629 -0.017682 0.000000 0.063780 0.000000
# 6 0.000000 0.000000 0.000000 -0.004098 0.000000 0.051212
#
#
# Mechanical properties :
#
#
# Convention : Reuss Voigt Hill
#
# Bulk Modulus (GPa) = 32.50865 52.61853 42.56359
# Shear Modulus (GPa) = 17.51360 21.96849 19.74105
#
# Velocity S-wave (km/s) = 3.34740 3.74904 3.55390
# Velocity P-wave (km/s) = 5.97820 7.23915 6.63868
#
# Compressibility (1/GPa) = 0.03076104
#
# Stress axis : x y z
#
# Youngs Moduli (GPa) = 44.73554 31.68667 46.22528
#
# Poissons Ratio (x) = 0.07451 0.54249
# Poissons Ratio (y) = 0.10519 0.38391
# Poissons Ratio (z) = 0.52500 0.26316
#
# Static dielectric constant tensor:
#      x y z
#    x 2.989830 0.000000 0.401130 
#    y 0.000000 2.962610 0.000000 
#    z 0.401130 0.000000 3.348900 
# 
# 
# High freq. dielectric constant tensor:
#      x y z
#    x 1.557550 0.000000 0.036820 
#    y 0.000000 1.599130 0.000000 
#    z 0.036820 0.000000 1.594000 
# 
# From -- ./inp_files/56010.got.cif
#   From: 2010.06.25/outbox.cif.g09.slc.cpg/sg11_29_cif.got.tgz:56010.got - 2010.06.27 23:14:04.
