data_PCOD8075215
_publ_section_title
;
Structure prediction by ZEFSAII (Michael W. Deem and Ramdas Pophale) SiO2 
 PCOD8075215
Probable space group: P 21/M
;
_chemical_formula_sum "Si O2"
_cell_formula_units_Z 32
_cell_length_a 21.957052
_cell_length_b 8.715798
_cell_length_c 15.572657
_cell_angle_alpha 90.000000
_cell_angle_beta 147.158748
_cell_angle_gamma 90.000000
_cell_volume 1616.196385
_symmetry_space_group_name_H-M "P 21/M"
_symmetry_group_IT_number 11
_symmetry_cell_setting 'monoclinic'
loop_
_space_group_symop_operation_xyz
x,y,z
-x,1/2+y,-z
-x,-y,-z
x,1/2-y,z
loop_
_atom_site_type_symbol
_atom_site_label
_atom_site_fract_x
_atom_site_fract_y
_atom_site_fract_z
Si Si1 0.423480 0.431123 0.335854
Si Si2 0.176776 0.569024 0.704074
Si Si3 0.760216 0.930878 0.608394
Si Si4 0.470385 0.568710 0.716192
Si Si5 0.570695 0.068196 0.006323
Si Si6 0.978765 0.928620 0.349634
Si Si7 0.197637 0.068429 0.149832
Si Si8 0.021042 0.930315 0.204323
O O1 0.500000 0.500000 0.500000
O O2 0.434869 0.250000 0.355734
O O3 0.462062 0.488392 0.288002
O O4 0.295740 0.486123 0.201265
O O5 0.181905 0.750000 0.713346
O O6 0.301715 0.505177 0.834929
O O7 0.130466 0.510286 0.740449
O O8 0.093671 0.510572 0.530130
O O9 0.735359 0.750000 0.577110
O O10 0.777676 0.994075 0.725699
O O11 0.658957 0.022568 0.445670
O O12 0.870128 0.968807 0.684204
O O13 0.480083 0.750000 0.741176
O O14 0.521208 0.483382 0.857358
O O15 0.565975 0.250000 0.007152
O O16 0.500000 0.000000 0.000000
O O17 0.965075 0.750000 0.351589
O O18 0.981338 0.966463 0.252971
O O19 0.193343 0.250000 0.146574
O O20 0.077515 0.008175 0.974831
O O21 0.046970 0.750000 0.222209
#
# Coordination Sequence:
#
# PCOD8075215 Si02
#       8
#     4   4   4   4   4   4   4   4
#     4  10  20  37  61  88 120 158 201 250 303 363
#     4   9  20  39  59  84 119 152 188 240 293 347
#     4  11  22  38  59  83 120 160 199 247 299 358
#     4  11  24  40  63  91 120 158 206 252 305 371
#     4  11  25  43  64  91 126 162 202 252 306 361
#     4   9  19  36  61  87 112 151 195 240 292 350
#     4   9  19  36  57  84 120 156 194 245 299 353
#     4  10  21  36  59  86 116 154 199 247 298 353
#
# _framework density 19.799574
#
# number of rings (size 3 to 8) (size 9 to 14) (size 15 to 20)
#    0.000    2.000    1.250    1.500    3.500    2.000 
#    0.000    1.250    0.000    0.000    0.000    0.000 
#    0.000    0.000    0.000    0.000    0.000    0.000 
#
# Total GULP energy -396863.112055 kJ/mol
# GULP energy per Si atom -12401.972252 kJ/mol
# Density = 1.975451 g / cm^3
# Si number density = 19.799574 Si / 1000 Ang^3
#
#
#
# Elastic Constant Matrix: (Units=GPa)
#
#
# Indices 1 2 3 4 5 6 
#
# 1 127.4906 28.3278 59.6974 0.0000 11.2257 0.0000
# 2 28.3278 29.6262 24.0482 0.0000 0.1580 0.0000
# 3 59.6974 24.0482 114.8207 0.0000 7.9419 0.0000
# 4 0.0000 0.0000 0.0000 24.0084 0.0000 -1.2095
# 5 11.2257 0.1580 7.9419 0.0000 40.4034 0.0000
# 6 0.0000 0.0000 0.0000 -1.2095 0.0000 29.2595
#
#
#
# Elastic Compliance Matrix: (Units=1/GPa)
#
#
# Indices 1 2 3 4 5 6 
#
# 1 0.011816 -0.007751 -0.004354 0.000000 -0.002397 0.000000
# 2 -0.007751 0.045846 -0.005788 0.000000 0.003112 0.000000
# 3 -0.004354 -0.005788 0.012267 0.000000 -0.001179 0.000000
# 4 0.000000 0.000000 0.000000 0.041739 0.000000 0.001725
# 5 -0.002397 0.003112 -0.001179 0.000000 0.025636 0.000000
# 6 0.000000 0.000000 0.000000 0.001725 0.000000 0.034248
#
#
# Mechanical properties :
#
#
# Convention : Reuss Voigt Hill
#
# Bulk Modulus (GPa) = 29.28789 55.12049 42.20419
# Shear Modulus (GPa) = 22.86048 29.39187 26.12617
#
# Velocity S-wave (km/s) = 3.40162 3.85706 3.63648
# Velocity P-wave (km/s) = 5.50021 6.90909 6.24451
#
# Compressibility (1/GPa) = 0.03414380
#
# Stress axis : x y z
#
# Youngs Moduli (GPa) = 84.63283 21.81200 81.52145
#
# Poissons Ratio (x) = 0.16906 0.35495
# Poissons Ratio (y) = 0.65597 0.47181
# Poissons Ratio (z) = 0.36850 0.12624
#
# Static dielectric constant tensor:
#      x y z
#    x 4.523120 0.000000 0.224450 
#    y 0.000000 3.416970 0.000000 
#    z 0.224450 0.000000 3.903890 
# 
# 
# High freq. dielectric constant tensor:
#      x y z
#    x 1.784740 0.000000 0.004010 
#    y 0.000000 1.754050 0.000000 
#    z 0.004010 0.000000 1.781520 
# 
# From -- ./inp_files/55695.got.cif
#   From: 2010.06.25/outbox.cif.g09.slc.cpg/sg11_28_cif.got.tgz:55695.got - 2010.06.27 23:14:04.
