data_PCOD8075018
_publ_section_title
;
Structure prediction by ZEFSAII (Michael W. Deem and Ramdas Pophale) SiO2 
 PCOD8075018
Probable space group: P 21/M
;
_chemical_formula_sum "Si O2"
_cell_formula_units_Z 32
_cell_length_a 15.457610
_cell_length_b 9.307879
_cell_length_c 26.145176
_cell_angle_alpha 90.000000
_cell_angle_beta 27.015522
_cell_angle_gamma 90.000000
_cell_volume 1708.685926
_symmetry_space_group_name_H-M "P 21/M"
_symmetry_group_IT_number 11
_symmetry_cell_setting 'monoclinic'
loop_
_space_group_symop_operation_xyz
x,y,z
-x,1/2+y,-z
-x,-y,-z
x,1/2-y,z
loop_
_atom_site_type_symbol
_atom_site_label
_atom_site_fract_x
_atom_site_fract_y
_atom_site_fract_z
Si Si1 0.517693 0.415837 0.542982
Si Si2 0.574547 0.084953 0.225471
Si Si3 0.241850 0.084541 0.166942
Si Si4 0.177368 0.579138 0.999109
Si Si5 0.253582 0.082423 0.773780
Si Si6 0.128624 0.917769 0.574016
Si Si7 0.142679 0.083649 0.461290
Si Si8 0.659285 0.418258 0.980949
O O1 0.500000 0.500000 0.500000
O O2 0.532707 0.250000 0.520486
O O3 0.332527 0.447079 0.675344
O O4 0.705817 0.464548 0.474309
O O5 0.628638 0.250000 0.207447
O O6 0.353781 0.070066 0.326283
O O7 0.612476 0.997338 0.256749
O O8 0.702452 0.020340 0.112225
O O9 0.239633 0.250000 0.151651
O O10 0.072405 0.047702 0.294342
O O11 0.218462 0.992741 0.127878
O O12 0.436802 0.043907 0.093130
O O13 0.184382 0.750000 0.996427
O O14 0.270793 0.519007 0.001764
O O15 0.961125 0.523000 0.109096
O O16 0.263776 0.250000 0.781564
O O17 0.148034 0.750000 0.548666
O O18 0.141651 0.015123 0.517557
O O19 0.080894 0.250000 0.497441
O O20 0.000000 0.000000 0.500000
O O21 0.698792 0.250000 0.955917
#
# Coordination Sequence:
#
# PCOD8075018 Si02
#       8
#     4   4   4   4   4   4   4   4
#     4  10  22  37  56  83 114 149 187 231 280 332
#     4  10  21  38  59  82 109 144 186 227 275 335
#     4   9  19  34  55  78 107 144 180 223 278 325
#     4   9  19  34  56  83 108 141 184 225 274 330
#     4  10  20  37  58  81 112 145 181 228 279 327
#     4  10  21  39  60  83 114 150 189 236 286 338
#     4  11  24  39  60  87 115 150 190 235 285 342
#     4   9  18  34  55  78 106 142 181 224 270 328
#
# _framework density 18.727841999999999
#
# number of rings (size 3 to 8) (size 9 to 14) (size 15 to 20)
#    0.000    2.250    1.250    0.750    3.500    2.000 
#    0.000    1.250    0.000    0.000    0.000    0.000 
#    0.000    0.000    0.000    0.000    0.000    0.000 
#
# Total GULP energy -396887.953372 kJ/mol
# GULP energy per Si atom -12402.748543 kJ/mol
# Density = 1.868522 g / cm^3
# Si number density = 18.727842 Si / 1000 Ang^3
#
#
#
# Elastic Constant Matrix: (Units=GPa)
#
#
# Indices 1 2 3 4 5 6 
#
# 1 138.4114 60.9700 52.0850 0.0000 6.0979 0.0000
# 2 60.9700 66.3257 46.5366 0.0000 5.7992 0.0000
# 3 52.0850 46.5366 116.9257 0.0000 -2.7969 0.0000
# 4 0.0000 0.0000 0.0000 21.1423 0.0000 5.0836
# 5 6.0979 5.7992 -2.7969 0.0000 26.2614 0.0000
# 6 0.0000 0.0000 0.0000 5.0836 0.0000 33.9705
#
#
#
# Elastic Compliance Matrix: (Units=1/GPa)
#
#
# Indices 1 2 3 4 5 6 
#
# 1 0.012309 -0.010253 -0.001420 0.000000 -0.000745 0.000000
# 2 -0.010253 0.030290 -0.007610 0.000000 -0.005118 0.000000
# 3 -0.001420 -0.007610 0.012293 0.000000 0.003320 0.000000
# 4 0.000000 0.000000 0.000000 0.049064 0.000000 -0.007342
# 5 -0.000745 -0.005118 0.003320 0.000000 0.039736 0.000000
# 6 0.000000 0.000000 0.000000 -0.007342 0.000000 0.030536
#
#
# Mechanical properties :
#
#
# Convention : Reuss Voigt Hill
#
# Bulk Modulus (GPa) = 61.25801 71.20513 66.23157
# Shear Modulus (GPa) = 22.91100 27.07957 24.99529
#
# Velocity S-wave (km/s) = 3.50146 3.80669 3.65726
# Velocity P-wave (km/s) = 7.00911 7.57791 7.29905
#
# Compressibility (1/GPa) = 0.01632440
#
# Stress axis : x y z
#
# Youngs Moduli (GPa) = 81.24460 33.01451 81.34508
#
# Poissons Ratio (x) = 0.33851 0.11550
# Poissons Ratio (y) = 0.83302 0.61907
# Poissons Ratio (z) = 0.11536 0.25126
#
# Static dielectric constant tensor:
#      x y z
#    x 3.678610 0.000000 -0.128780 
#    y 0.000000 3.267580 0.000000 
#    z -0.128780 0.000000 3.710780 
# 
# 
# High freq. dielectric constant tensor:
#      x y z
#    x 1.731060 0.000000 -0.002700 
#    y 0.000000 1.708830 0.000000 
#    z -0.002700 0.000000 1.741820 
# 
# From -- ./inp_files/51765.got.cif
#   From: 2010.06.25/outbox.cif.g09.slc.cpg/sg11_26_cif.got.tgz:51765.got - 2010.06.27 23:14:04.
