data_PCOD8075647
_publ_section_title
;
Structure prediction by ZEFSAII (Michael W. Deem and Ramdas Pophale) SiO2 
 PCOD8075647
Probable space group: P 21/M
;
_chemical_formula_sum "Si O2"
_cell_formula_units_Z 32
_cell_length_a 20.325886
_cell_length_b 14.489786
_cell_length_c 14.079326
_cell_angle_alpha 90.000000
_cell_angle_beta 22.953273
_cell_angle_gamma 90.000000
_cell_volume 1617.096659
_symmetry_space_group_name_H-M "P 21/M"
_symmetry_group_IT_number 11
_symmetry_cell_setting 'monoclinic'
loop_
_space_group_symop_operation_xyz
x,y,z
-x,1/2+y,-z
-x,-y,-z
x,1/2-y,z
loop_
_atom_site_type_symbol
_atom_site_label
_atom_site_fract_x
_atom_site_fract_y
_atom_site_fract_z
Si Si1 0.079518 0.588551 0.937514
Si Si2 0.559585 0.640498 0.991068
Si Si3 0.683228 0.531315 0.283630
Si Si4 0.195057 0.478780 0.230750
Si Si5 0.706236 0.643201 0.074455
Si Si6 0.629268 0.147346 0.578023
Si Si7 0.441640 0.857504 0.938185
Si Si8 0.276859 0.351165 0.585242
O O1 0.195838 0.559536 0.872935
O O2 0.186735 0.627351 0.706714
O O3 0.000000 0.500000 0.000000
O O4 0.923170 0.652903 0.176340
O O5 0.597702 0.750000 0.949248
O O6 0.734645 0.584825 0.776004
O O7 0.478124 0.616162 0.998745
O O8 0.433520 0.597946 0.240996
O O9 0.500000 0.500000 0.500000
O O10 0.755369 0.605608 0.113218
O O11 0.677738 0.574393 0.395753
O O12 0.000000 0.500000 0.500000
O O13 0.204419 0.420312 0.121551
O O14 0.295226 0.576411 0.092127
O O15 0.764500 0.750000 0.987822
O O16 0.504375 0.633169 0.329573
O O17 0.631059 0.250000 0.612896
O O18 0.385170 0.750000 0.004015
O O19 0.615041 0.876195 0.651036
O O20 0.327755 0.250000 0.555481
#
# Coordination Sequence:
#
# PCOD8075647 Si02
#       8
#     4   4   4   4   4   4   4   4
#     4  10  21  33  55  85 117 154 192 243 300 354
#     4   9  20  39  65  89 114 157 208 255 303 363
#     4  11  20  36  58  88 120 156 199 246 300 365
#     4  11  23  39  61  90 120 159 197 257 316 369
#     4  10  21  38  62  87 118 159 203 250 303 364
#     4   9  17  34  58  84 114 150 197 248 297 350
#     4  10  22  41  62  86 119 161 205 251 305 368
#     4  10  22  39  57  81 121 161 197 243 296 359
#
# _framework density 19.788550000000001
#
# number of rings (size 3 to 8) (size 9 to 14) (size 15 to 20)
#    0.000    2.000    1.250    3.000    5.250    2.000 
#    4.500    0.000    0.000    3.750    0.000    0.000 
#    0.000    0.000    0.000    0.000    0.000    0.000 
#
# Total GULP energy -396500.469182 kJ/mol
# GULP energy per Si atom -12390.639662 kJ/mol
# Density = 1.974351 g / cm^3
# Si number density = 19.788550 Si / 1000 Ang^3
#
#
#
# Elastic Constant Matrix: (Units=GPa)
#
#
# Indices 1 2 3 4 5 6 
#
# 1 103.5845 38.3940 46.2761 0.0000 7.7003 0.0000
# 2 38.3940 68.7503 43.8567 0.0000 -0.0097 0.0000
# 3 46.2761 43.8567 145.7090 0.0000 -6.8828 0.0000
# 4 0.0000 0.0000 0.0000 30.1995 0.0000 1.1221
# 5 7.7003 -0.0097 -6.8828 0.0000 27.9186 0.0000
# 6 0.0000 0.0000 0.0000 1.1221 0.0000 34.8745
#
#
#
# Elastic Compliance Matrix: (Units=1/GPa)
#
#
# Indices 1 2 3 4 5 6 
#
# 1 0.013301 -0.005697 -0.002715 0.000000 -0.004340 0.000000
# 2 -0.005697 0.020492 -0.004334 0.000000 0.000510 0.000000
# 3 -0.002715 -0.004334 0.009172 0.000000 0.003008 0.000000
# 4 0.000000 0.000000 0.000000 0.033153 0.000000 -0.001067
# 5 -0.004340 0.000510 0.003008 0.000000 0.037757 0.000000
# 6 0.000000 0.000000 0.000000 -0.001067 0.000000 0.028709
#
#
# Mechanical properties :
#
#
# Convention : Reuss Voigt Hill
#
# Bulk Modulus (GPa) = 57.23178 63.89973 60.56575
# Shear Modulus (GPa) = 28.75227 31.23297 29.99262
#
# Velocity S-wave (km/s) = 3.81593 3.97714 3.89737
# Velocity P-wave (km/s) = 6.95698 7.31105 7.13621
#
# Compressibility (1/GPa) = 0.01747281
#
# Stress axis : x y z
#
# Youngs Moduli (GPa) = 75.18311 48.79967 109.02940
#
# Poissons Ratio (x) = 0.27801 0.29597
# Poissons Ratio (y) = 0.42831 0.47258
# Poissons Ratio (z) = 0.20409 0.21152
#
# Static dielectric constant tensor:
#      x y z
#    x 3.205750 0.000000 0.774610 
#    y 0.000000 1.725670 0.000000 
#    z 0.774610 0.000000 1.520570 
# 
# 
# High freq. dielectric constant tensor:
#      x y z
#    x 1.759520 0.000000 0.004850 
#    y 0.000000 1.786990 0.000000 
#    z 0.004850 0.000000 1.762460 
# 
# From -- ./inp_files/54980.got.cif
#   From: 2010.06.25/outbox.cif.g09.slc.cpg/sg11_28_cif.got.tgz:54980.got - 2010.06.27 23:14:04.
