data_PCOD8075900
_publ_section_title
;
Structure prediction by ZEFSAII (Michael W. Deem and Ramdas Pophale) SiO2 
 PCOD8075900
Probable space group: P 21/M
;
_chemical_formula_sum "Si O2"
_cell_formula_units_Z 32
_cell_length_a 14.053576
_cell_length_b 8.757687
_cell_length_c 13.461904
_cell_angle_alpha 90.000000
_cell_angle_beta 114.531009
_cell_angle_gamma 90.000000
_cell_volume 1507.295738
_symmetry_space_group_name_H-M "P 21/M"
_symmetry_group_IT_number 11
_symmetry_cell_setting 'monoclinic'
loop_
_space_group_symop_operation_xyz
x,y,z
-x,1/2+y,-z
-x,-y,-z
x,1/2-y,z
loop_
_atom_site_type_symbol
_atom_site_label
_atom_site_fract_x
_atom_site_fract_y
_atom_site_fract_z
Si Si1 0.158840 0.571878 0.505473
Si Si2 0.801986 0.569015 0.264994
Si Si3 0.563063 0.423223 0.661179
Si Si4 0.656371 0.577153 0.515805
Si Si5 0.386785 0.425876 0.945717
Si Si6 0.914630 0.570297 0.891674
Si Si7 0.006209 0.430363 0.288534
Si Si8 0.309070 0.427288 0.126015
O O1 0.146288 0.750000 0.524076
O O2 0.181807 0.479624 0.615027
O O3 0.254776 0.542762 0.473037
O O4 0.055009 0.511000 0.406715
O O5 0.815379 0.750000 0.259774
O O6 0.686001 0.517832 0.177583
O O7 0.886767 0.486714 0.231044
O O8 0.596790 0.250000 0.651633
O O9 0.616455 0.539325 0.608020
O O10 0.437876 0.438182 0.603395
O O11 0.598396 0.473503 0.785413
O O12 0.701659 0.750000 0.536155
O O13 0.411555 0.250000 0.944413
O O14 0.500000 0.500000 0.000000
O O15 0.316895 0.458787 0.012705
O O16 0.923924 0.750000 0.905902
O O17 0.801184 0.513065 0.878344
O O18 0.933922 0.519208 0.786053
O O19 0.000000 0.500000 0.000000
O O20 0.011108 0.250000 0.305906
O O21 0.325556 0.250000 0.158532
#
# Coordination Sequence:
#
# PCOD8075900 Si02
#       8
#     4   4   4   4   4   4   4   4
#     4  12  25  40  63  93 125 165 213 262 316 378
#     4  11  24  44  66  90 125 168 212 264 320 378
#     4  10  21  36  58  88 120 158 204 253 307 367
#     4  10  21  38  58  85 123 162 204 254 308 368
#     4  10  24  43  65  91 123 165 213 263 318 375
#     4  10  22  39  63  92 125 162 204 253 312 373
#     4  11  23  41  65  96 130 167 210 261 317 377
#     4  10  21  39  61  88 121 159 201 250 311 371
#
# _framework density 21.230073999999998
#
# number of rings (size 3 to 8) (size 9 to 14) (size 15 to 20)
#    0.000    1.500    0.000    4.500    1.750    6.500 
#    0.000    0.000    0.000    0.000    0.000    0.000 
#    0.000    0.000    0.000    0.000    0.000    0.000 
#
# Total GULP energy -396902.427473 kJ/mol
# GULP energy per Si atom -12403.200859 kJ/mol
# Density = 2.118175 g / cm^3
# Si number density = 21.230074 Si / 1000 Ang^3
#
#
#
# Elastic Constant Matrix: (Units=GPa)
#
#
# Indices 1 2 3 4 5 6 
#
# 1 97.4027 26.8514 34.8691 0.0000 12.1534 0.0000
# 2 26.8514 63.5613 37.3877 0.0000 8.7354 0.0000
# 3 34.8691 37.3877 133.3817 0.0000 16.1449 0.0000
# 4 0.0000 0.0000 0.0000 35.2092 0.0000 2.0699
# 5 12.1534 8.7354 16.1449 0.0000 29.5980 0.0000
# 6 0.0000 0.0000 0.0000 2.0699 0.0000 35.9640
#
#
#
# Elastic Compliance Matrix: (Units=1/GPa)
#
#
# Indices 1 2 3 4 5 6 
#
# 1 0.012314 -0.003726 -0.001816 0.000000 -0.002966 0.000000
# 2 -0.003726 0.020197 -0.004444 0.000000 -0.002006 0.000000
# 3 -0.001816 -0.004444 0.009603 0.000000 -0.003181 0.000000
# 4 0.000000 0.000000 0.000000 0.028498 0.000000 -0.001640
# 5 -0.002966 -0.002006 -0.003181 0.000000 0.037331 0.000000
# 6 0.000000 0.000000 0.000000 -0.001640 0.000000 0.027900
#
#
# Mechanical properties :
#
#
# Convention : Reuss Voigt Hill
#
# Bulk Modulus (GPa) = 45.16491 54.72910 49.94700
# Shear Modulus (GPa) = 30.63800 33.17008 31.90404
#
# Velocity S-wave (km/s) = 3.80299 3.95702 3.88077
# Velocity P-wave (km/s) = 6.37212 6.83464 6.60743
#
# Compressibility (1/GPa) = 0.02214108
#
# Stress axis : x y z
#
# Youngs Moduli (GPa) = 81.20841 49.51225 104.13734
#
# Poissons Ratio (x) = 0.18450 0.18907
# Poissons Ratio (y) = 0.30262 0.46282
# Poissons Ratio (z) = 0.14744 0.22005
#
# Static dielectric constant tensor:
#      x y z
#    x 4.020250 0.000000 0.107510 
#    y 0.000000 3.754240 0.000000 
#    z 0.107510 0.000000 3.958960 
# 
# 
# High freq. dielectric constant tensor:
#      x y z
#    x 1.837580 0.000000 0.005230 
#    y 0.000000 1.828760 0.000000 
#    z 0.005230 0.000000 1.843490 
# 
# From -- ./inp_files/51729.got.cif
#   From: 2010.06.25/outbox.cif.g09.slc.cpg/sg11_26_cif.got.tgz:51729.got - 2010.06.27 23:14:04.
