data_PCOD8075738
_publ_section_title
;
Structure prediction by ZEFSAII (Michael W. Deem and Ramdas Pophale) SiO2 
 PCOD8075738
Probable space group: P 21/M
;
_chemical_formula_sum "Si O2"
_cell_formula_units_Z 32
_cell_length_a 16.002197
_cell_length_b 26.931500
_cell_length_c 9.590482
_cell_angle_alpha 90.000000
_cell_angle_beta 154.073550
_cell_angle_gamma 90.000000
_cell_volume 1807.081098
_symmetry_space_group_name_H-M "P 21/M"
_symmetry_group_IT_number 11
_symmetry_cell_setting 'monoclinic'
loop_
_space_group_symop_operation_xyz
x,y,z
-x,1/2+y,-z
-x,-y,-z
x,1/2-y,z
loop_
_atom_site_type_symbol
_atom_site_label
_atom_site_fract_x
_atom_site_fract_y
_atom_site_fract_z
Si Si1 0.196475 0.386241 0.245580
Si Si2 0.808862 0.381513 0.494601
Si Si3 0.813858 0.882338 0.438359
Si Si4 0.201174 0.885480 0.850664
Si Si5 0.495318 0.458327 0.104013
Si Si6 0.502766 0.804427 0.974906
Si Si7 0.494761 0.305375 0.692787
Si Si8 0.498889 0.030097 0.639200
O O1 0.156610 0.385884 0.351034
O O2 0.311415 0.337155 0.370012
O O3 0.310751 0.436231 0.377702
O O4 0.004879 0.383866 0.870636
O O5 0.844007 0.386341 0.381782
O O6 0.681899 0.425800 0.360995
O O7 0.695564 0.331120 0.363589
O O8 0.013401 0.881651 0.660318
O O9 0.701076 0.929333 0.211945
O O10 0.691122 0.834074 0.209267
O O11 0.317843 0.836212 0.069061
O O12 0.315215 0.935419 0.061567
O O13 0.499827 0.483082 0.259354
O O14 0.500000 0.500000 0.000000
O O15 0.505424 0.750000 0.908459
O O16 0.510764 0.799953 0.151385
O O17 0.494853 0.250000 0.624198
O O18 0.500000 0.000000 0.500000
#
# Coordination Sequence:
#
# PCOD8075738 Si02
#       8
#     4   4   4   4   4   4   4   4
#     4  10  21  37  54  83 111 138 183 221 266 318
#     4  10  21  35  57  81 108 144 178 224 264 319
#     4  10  21  35  57  81 108 144 178 224 264 319
#     4  10  21  37  54  83 111 138 183 221 266 318
#     4  11  20  40  55  73 109 147 180 213 269 319
#     4   8  16  35  57  78 107 145 179 212 268 326
#     4   8  16  35  59  77 107 146 176 216 268 320
#     4  11  24  38  55  79 107 145 181 227 265 318
#
# _framework density 17.708113999999998
#
# number of rings (size 3 to 8) (size 9 to 14) (size 15 to 20)
#    0.000    2.250    2.500    1.500    3.500    3.000 
#    0.000    0.000    0.000    1.500    0.000    0.000 
#    0.000    0.000    0.000    0.000    0.000    0.000 
#
# Total GULP energy -396604.667460 kJ/mol
# GULP energy per Si atom -12393.895858 kJ/mol
# Density = 1.766781 g / cm^3
# Si number density = 17.708114 Si / 1000 Ang^3
#
#
#
# Elastic Constant Matrix: (Units=GPa)
#
#
# Indices 1 2 3 4 5 6 
#
# 1 115.8934 48.4594 48.6759 0.0000 11.2626 0.0000
# 2 48.4594 107.2047 16.0467 0.0000 2.4579 0.0000
# 3 48.6759 16.0467 88.8815 0.0000 7.4854 0.0000
# 4 0.0000 0.0000 0.0000 25.8586 0.0000 5.9040
# 5 11.2626 2.4579 7.4854 0.0000 34.8672 0.0000
# 6 0.0000 0.0000 0.0000 5.9040 0.0000 26.4277
#
#
#
# Elastic Compliance Matrix: (Units=1/GPa)
#
#
# Indices 1 2 3 4 5 6 
#
# 1 0.013733 -0.005194 -0.006355 0.000000 -0.002705 0.000000
# 2 -0.005194 0.011555 0.000698 0.000000 0.000713 0.000000
# 3 -0.006355 0.000698 0.014702 0.000000 -0.001153 0.000000
# 4 0.000000 0.000000 0.000000 0.040750 0.000000 -0.009104
# 5 -0.002705 0.000713 -0.001153 0.000000 0.029751 0.000000
# 6 0.000000 0.000000 0.000000 -0.009104 0.000000 0.039873
#
#
# Mechanical properties :
#
#
# Convention : Reuss Voigt Hill
#
# Bulk Modulus (GPa) = 54.68037 59.81597 57.24817
# Shear Modulus (GPa) = 28.06432 30.68388 29.37410
#
# Velocity S-wave (km/s) = 3.98531 4.16716 4.07725
# Velocity P-wave (km/s) = 7.21960 7.55022 7.38676
#
# Compressibility (1/GPa) = 0.01828810
#
# Stress axis : x y z
#
# Youngs Moduli (GPa) = 72.81951 86.54270 68.01675
#
# Poissons Ratio (x) = 0.44952 0.43225
# Poissons Ratio (y) = 0.37824 -0.04750
# Poissons Ratio (z) = 0.46277 -0.06044
#
# Static dielectric constant tensor:
#      x y z
#    x 3.118260 0.000000 0.068360 
#    y 0.000000 3.818460 0.000000 
#    z 0.068360 0.000000 3.255660 
# 
# 
# High freq. dielectric constant tensor:
#      x y z
#    x 1.674390 0.000000 0.007430 
#    y 0.000000 1.700560 0.000000 
#    z 0.007430 0.000000 1.683950 
# 
# From -- ./inp_files/15084.got.cif
#   From: 2010.06.25/outbox.cif.g09.slc.cpg/sg11_8_cif.got.tgz:15084.got - 2010.06.27 23:14:04.
