data_PCOD8075358
_publ_section_title
;
Structure prediction by ZEFSAII (Michael W. Deem and Ramdas Pophale) SiO2 
 PCOD8075358
Probable space group: P 21/M
;
_chemical_formula_sum "Si O2"
_cell_formula_units_Z 22
_cell_length_a 22.500807
_cell_length_b 12.468957
_cell_length_c 9.755811
_cell_angle_alpha 90.000000
_cell_angle_beta 24.141611
_cell_angle_gamma 90.000000
_cell_volume 1119.457965
_symmetry_space_group_name_H-M "P 21/M"
_symmetry_group_IT_number 11
_symmetry_cell_setting 'monoclinic'
loop_
_space_group_symop_operation_xyz
x,y,z
-x,1/2+y,-z
-x,-y,-z
x,1/2-y,z
loop_
_atom_site_type_symbol
_atom_site_label
_atom_site_fract_x
_atom_site_fract_y
_atom_site_fract_z
Si Si1 0.751919 0.750000 0.192778
Si Si2 0.397040 0.368174 0.951387
Si Si3 0.431087 0.750000 0.916755
Si Si4 0.065541 0.455257 0.222492
Si Si5 0.280534 0.872624 0.787211
Si Si6 0.635068 0.750000 0.722105
Si Si7 0.244490 0.572040 0.178799
O O1 0.580592 0.750000 0.510588
O O2 0.761575 0.750000 0.340464
O O3 0.831857 0.853717 0.964487
O O4 0.385413 0.250000 0.904249
O O5 0.561569 0.410311 0.594580
O O6 0.354662 0.355709 0.202145
O O7 0.291561 0.448661 0.095046
O O8 0.476977 0.750000 0.979972
O O9 0.335993 0.644615 0.089725
O O10 0.000000 0.500000 0.500000
O O11 0.927333 0.422324 0.419798
O O12 0.164590 0.551208 0.952493
O O13 0.247710 0.750000 0.815913
O O14 0.271387 0.886340 0.969678
#
# Coordination Sequence:
#
# PCOD8075358 Si02
#       7
#     2   4   2   4   4   2   4
#     4  10  21  43  59  85 121 161 209 230 308 363
#     4   9  20  39  60  88 118 156 208 257 283 354
#     4  10  21  36  67  83 114 165 210 249 289 350
#     4  10  23  37  61  90 126 164 184 247 311 375
#     4  10  20  38  60  91 128 154 198 246 314 363
#     4   8  22  41  62  86 113 174 203 251 293 345
#     4  11  20  37  61  94 121 150 204 250 311 352
#
# _framework density 19.652367999999999
#
# number of rings (size 3 to 8) (size 9 to 14) (size 15 to 20)
#    1.091    1.091    0.909    2.182    3.818    2.909 
#    4.909    0.909    4.000    0.000    0.000    0.000 
#    0.000    0.000    0.000    0.000    0.000    0.000 
#
# Total GULP energy -272608.484618 kJ/mol
# GULP energy per Si atom -12391.294755 kJ/mol
# Density = 1.960764 g / cm^3
# Si number density = 19.652368 Si / 1000 Ang^3
#
#
#
# Elastic Constant Matrix: (Units=GPa)
#
#
# Indices 1 2 3 4 5 6 
#
# 1 33.2681 18.4139 21.5963 0.0000 -10.0445 0.0000
# 2 18.4139 108.3054 40.6850 0.0000 -28.6058 0.0000
# 3 21.5963 40.6850 72.6510 0.0000 -28.7210 0.0000
# 4 0.0000 0.0000 0.0000 39.1715 0.0000 -14.4654
# 5 -10.0445 -28.6058 -28.7210 0.0000 36.4419 0.0000
# 6 0.0000 0.0000 0.0000 -14.4654 0.0000 14.1913
#
#
#
# Elastic Compliance Matrix: (Units=1/GPa)
#
#
# Indices 1 2 3 4 5 6 
#
# 1 0.037926 -0.002664 -0.009407 0.000000 0.000948 0.000000
# 2 -0.002664 0.012802 -0.003915 0.000000 0.006230 0.000000
# 3 -0.009407 -0.003915 0.023987 0.000000 0.013239 0.000000
# 4 0.000000 0.000000 0.000000 0.040939 0.000000 0.041730
# 5 0.000948 0.006230 0.013239 0.000000 0.043027 0.000000
# 6 0.000000 0.000000 0.000000 0.041730 0.000000 0.113002
#
#
# Mechanical properties :
#
#
# Convention : Reuss Voigt Hill
#
# Bulk Modulus (GPa) = 23.39518 41.73498 32.56508
# Shear Modulus (GPa) = 15.72811 26.86290 21.29550
#
# Velocity S-wave (km/s) = 2.83206 3.70118 3.29539
# Velocity P-wave (km/s) = 4.75651 6.28869 5.57549
#
# Compressibility (1/GPa) = 0.04274385
#
# Stress axis : x y z
#
# Youngs Moduli (GPa) = 26.36684 78.11305 41.68963
#
# Poissons Ratio (x) = 0.20808 0.39219
# Poissons Ratio (y) = 0.07024 0.16319
# Poissons Ratio (z) = 0.24804 0.30577
#
# Static dielectric constant tensor:
#      x y z
#    x 3.284770 0.000000 -0.337990 
#    y 0.000000 3.664170 0.000000 
#    z -0.337990 0.000000 3.920570 
# 
# 
# High freq. dielectric constant tensor:
#      x y z
#    x 1.726160 0.000000 -0.016160 
#    y 0.000000 1.774120 0.000000 
#    z -0.016160 0.000000 1.768520 
# 
# From -- ./inp_files/44752.got.cif
#   From: 2010.06.25/outbox.cif.g09.slc.cpg/sg11_23_cif.got.tgz:44752.got - 2010.06.27 23:14:04.
