data_PCOD8075319
_publ_section_title
;
Structure prediction by ZEFSAII (Michael W. Deem and Ramdas Pophale) SiO2 
 PCOD8075319
Probable space group: P 21/M
;
_chemical_formula_sum "Si O2"
_cell_formula_units_Z 20
_cell_length_a 10.007332
_cell_length_b 23.493507
_cell_length_c 5.201085
_cell_angle_alpha 90.000000
_cell_angle_beta 144.412791
_cell_angle_gamma 90.000000
_cell_volume 711.605656
_symmetry_space_group_name_H-M "P 21/M"
_symmetry_group_IT_number 11
_symmetry_cell_setting 'monoclinic'
loop_
_space_group_symop_operation_xyz
x,y,z
-x,1/2+y,-z
-x,-y,-z
x,1/2-y,z
loop_
_atom_site_type_symbol
_atom_site_label
_atom_site_fract_x
_atom_site_fract_y
_atom_site_fract_z
Si Si1 0.673466 0.925521 0.388566
Si Si2 0.912708 0.630024 0.275365
Si Si3 0.977131 0.750000 0.355391
Si Si4 0.369735 0.865441 0.273767
Si Si5 0.797956 0.450628 0.580902
Si Si6 0.740342 0.250000 0.696246
O O1 0.629901 0.882396 0.571277
O O2 0.758295 0.892074 0.270736
O O3 0.836945 0.981128 0.681073
O O4 0.408031 0.945592 0.948798
O O5 0.825285 0.693252 0.058774
O O6 0.962411 0.581302 0.131679
O O7 0.178623 0.645567 0.760862
O O8 0.188794 0.750000 0.488192
O O9 0.051115 0.750000 0.773054
O O10 0.280332 0.920888 0.282648
O O11 0.405187 0.808508 0.496716
#
# Coordination Sequence:
#
# PCOD8075319 Si02
#       6
#     4   4   2   4   4   2
#     4  10  22  36  57  90 118 154 204 253 299 367
#     4  10  21  37  59  83 118 157 202 249 309 361
#     4  10  20  39  63  88 121 160 206 256 306 371
#     4  10  21  37  59  82 117 157 199 251 307 361
#     4  10  20  38  58  84 122 157 197 253 305 363
#     4  10  20  39  65  86 121 164 204 252 316 367
#
# _framework density 28.105454999999999
#
# number of rings (size 3 to 8) (size 9 to 14) (size 15 to 20)
#    0.000    2.000    2.000    1.200    0.000    3.200 
#    0.000    2.000    0.000    0.000    0.000    0.000 
#    0.000    0.000    0.000    0.000    0.000    0.000 
#
# Total GULP energy -247941.885576 kJ/mol
# GULP energy per Si atom -12397.094279 kJ/mol
# Density = 2.804149 g / cm^3
# Si number density = 28.105455 Si / 1000 Ang^3
#
#
#
# Elastic Constant Matrix: (Units=GPa)
#
#
# Indices 1 2 3 4 5 6 
#
# 1 227.9962 116.6171 22.1341 0.0000 -1.0227 0.0000
# 2 116.6171 303.1146 39.3986 0.0000 -6.7294 0.0000
# 3 22.1341 39.3986 78.0825 0.0000 20.1639 0.0000
# 4 0.0000 0.0000 0.0000 19.4716 0.0000 -24.5579
# 5 -1.0227 -6.7294 20.1639 0.0000 45.1906 0.0000
# 6 0.0000 0.0000 0.0000 -24.5579 0.0000 38.9702
#
#
#
# Elastic Compliance Matrix: (Units=1/GPa)
#
#
# Indices 1 2 3 4 5 6 
#
# 1 0.005481 -0.002037 -0.000542 0.000000 0.000063 0.000000
# 2 -0.002037 0.004379 -0.002022 0.000000 0.001508 0.000000
# 3 -0.000542 -0.002022 0.015893 0.000000 -0.007405 0.000000
# 4 0.000000 0.000000 0.000000 0.250253 0.000000 0.157702
# 5 0.000063 0.001508 -0.007405 0.000000 0.025658 0.000000
# 6 0.000000 0.000000 0.000000 0.157702 0.000000 0.125040
#
#
# Mechanical properties :
#
#
# Convention : Reuss Voigt Hill
#
# Bulk Modulus (GPa) = 60.41698 107.27699 83.84698
# Shear Modulus (GPa) = 11.32705 49.46271 30.39488
#
# Velocity S-wave (km/s) = 2.00971 4.19966 3.29212
# Velocity P-wave (km/s) = 5.18926 7.85930 6.65947
#
# Compressibility (1/GPa) = 0.01655164
#
# Stress axis : x y z
#
# Youngs Moduli (GPa) = 182.45804 228.36709 62.92151
#
# Poissons Ratio (x) = 0.46512 0.03411
# Poissons Ratio (y) = 0.37162 0.12720
# Poissons Ratio (z) = 0.09891 0.46166
#
# Static dielectric constant tensor:
#      x y z
#    x 4.803100 0.000000 0.260530 
#    y 0.000000 6.243340 0.000000 
#    z 0.260530 0.000000 5.984040 
# 
# 
# High freq. dielectric constant tensor:
#      x y z
#    x 2.127610 0.000000 0.020370 
#    y 0.000000 2.176930 0.000000 
#    z 0.020370 0.000000 2.198880 
# 
# From -- ./inp_files/806.got.cif
#   From: 2010.06.25/outbox.cif.g09.slc.cpg/sg11_1_cif.got.tgz:806.got - 2010.06.27 23:14:04.
