data_PCOD8075161
_publ_section_title
;
Structure prediction by ZEFSAII (Michael W. Deem and Ramdas Pophale) SiO2 
 PCOD8075161
Probable space group: P 21/M
;
_chemical_formula_sum "Si O2"
_cell_formula_units_Z 28
_cell_length_a 5.374600
_cell_length_b 17.069717
_cell_length_c 15.091673
_cell_angle_alpha 90.000000
_cell_angle_beta 54.355869
_cell_angle_gamma 90.000000
_cell_volume 1125.160673
_symmetry_space_group_name_H-M "P 21/M"
_symmetry_group_IT_number 11
_symmetry_cell_setting 'monoclinic'
loop_
_space_group_symop_operation_xyz
x,y,z
-x,1/2+y,-z
-x,-y,-z
x,1/2-y,z
loop_
_atom_site_type_symbol
_atom_site_label
_atom_site_fract_x
_atom_site_fract_y
_atom_site_fract_z
Si Si1 0.254645 0.440782 0.133999
Si Si2 0.677311 0.399941 0.544917
Si Si3 0.561065 0.664870 0.764241
Si Si4 0.299320 0.750000 0.161239
Si Si5 0.431670 0.250000 0.699298
Si Si6 0.394508 0.077968 0.413970
Si Si7 0.056305 0.335823 0.017591
Si Si8 0.797063 0.402137 0.916604
O O1 0.193337 0.393047 0.237758
O O2 0.113611 0.529030 0.171997
O O3 0.129020 0.399067 0.074311
O O4 0.616573 0.445584 0.035177
O O5 0.532936 0.329371 0.629610
O O6 0.572954 0.484435 0.604343
O O7 0.553259 0.392096 0.470456
O O8 0.043588 0.393602 0.476694
O O9 0.710662 0.750000 0.708897
O O10 0.431269 0.620571 0.703871
O O11 0.299221 0.683246 0.889893
O O12 0.407552 0.750000 0.238978
O O13 0.400561 0.833651 0.092671
O O14 0.934244 0.750000 0.226327
O O15 0.231411 0.250000 0.986264
O O16 0.088684 0.364843 0.907815
#
# Coordination Sequence:
#
# PCOD8075161 Si02
#       8
#     4   4   4   2   2   4   4   4
#     4  10  22  39  63  87 134 173 222 274 323 389
#     4  10  24  46  70  97 132 175 215 277 336 398
#     4  10  23  37  60 100 124 163 215 270 327 390
#     4  12  28  44  70 102 130 182 226 282 328 400
#     4  12  28  46  72 100 136 172 230 278 340 386
#     4  10  23  44  72  98 133 174 218 266 341 403
#     4  10  20  37  60  89 132 165 214 273 321 384
#     4  10  23  40  60  93 125 180 226 263 336 381
#
# _framework density 24.885335000000001
#
# number of rings (size 3 to 8) (size 9 to 14) (size 15 to 20)
#    0.000    1.714    0.714    1.714   10.000    1.143 
#    0.000    0.000    0.000    0.000    0.000    0.000 
#    0.000    0.000    0.000    0.000    0.000    0.000 
#
# Total GULP energy -346939.623680 kJ/mol
# GULP energy per Si atom -12390.700846 kJ/mol
# Density = 2.482869 g / cm^3
# Si number density = 24.885335 Si / 1000 Ang^3
#
#
#
# Elastic Constant Matrix: (Units=GPa)
#
#
# Indices 1 2 3 4 5 6 
#
# 1 124.4471 56.0290 40.2379 0.0000 43.1014 0.0000
# 2 56.0290 223.8956 72.6962 0.0000 43.5380 0.0000
# 3 40.2379 72.6962 86.9284 0.0000 36.8227 0.0000
# 4 0.0000 0.0000 0.0000 33.7985 0.0000 11.6453
# 5 43.1014 43.5380 36.8227 0.0000 51.4977 0.0000
# 6 0.0000 0.0000 0.0000 11.6453 0.0000 32.5425
#
#
#
# Elastic Compliance Matrix: (Units=1/GPa)
#
#
# Indices 1 2 3 4 5 6 
#
# 1 0.011652 -0.000965 -0.001149 0.000000 -0.008115 0.000000
# 2 -0.000965 0.006386 -0.004230 0.000000 -0.001567 0.000000
# 3 -0.001149 -0.004230 0.019582 0.000000 -0.009464 0.000000
# 4 0.000000 0.000000 0.000000 0.033748 0.000000 -0.012077
# 5 -0.008115 -0.001567 -0.009464 0.000000 0.034302 0.000000
# 6 0.000000 0.000000 0.000000 -0.012077 0.000000 0.035051
#
#
# Mechanical properties :
#
#
# Convention : Reuss Voigt Hill
#
# Bulk Modulus (GPa) = 40.10982 85.91081 63.01031
# Shear Modulus (GPa) = 30.91771 41.32160 36.11965
#
# Velocity S-wave (km/s) = 3.52860 4.07932 3.81391
# Velocity P-wave (km/s) = 5.72313 7.53561 6.69103
#
# Compressibility (1/GPa) = 0.02493155
#
# Stress axis : x y z
#
# Youngs Moduli (GPa) = 85.82209 156.59407 51.06698
#
# Poissons Ratio (x) = 0.15107 0.05869
# Poissons Ratio (y) = 0.08279 0.21602
# Poissons Ratio (z) = 0.09864 0.66242
#
# Static dielectric constant tensor:
#      x y z
#    x 4.853070 0.000000 -0.230200 
#    y 0.000000 5.812030 0.000000 
#    z -0.230200 0.000000 4.573780 
# 
# 
# High freq. dielectric constant tensor:
#      x y z
#    x 2.009480 0.000000 0.011280 
#    y 0.000000 2.020710 0.000000 
#    z 0.011280 0.000000 1.964050 
# 
# From -- ./inp_files/45909.got.cif
#   From: 2010.06.25/outbox.cif.g09.slc.cpg/sg11_23_cif.got.tgz:45909.got - 2010.06.27 23:14:04.
