data_PCOD8075632
_publ_section_title
;
Structure prediction by ZEFSAII (Michael W. Deem and Ramdas Pophale) SiO2 
 PCOD8075632
Probable space group: P 21/M
;
_chemical_formula_sum "Si O2"
_cell_formula_units_Z 18
_cell_length_a 7.011059
_cell_length_b 18.521451
_cell_length_c 8.040506
_cell_angle_alpha 90.000000
_cell_angle_beta 120.474808
_cell_angle_gamma 90.000000
_cell_volume 899.859737
_symmetry_space_group_name_H-M "P 21/M"
_symmetry_group_IT_number 11
_symmetry_cell_setting 'monoclinic'
loop_
_space_group_symop_operation_xyz
x,y,z
-x,1/2+y,-z
-x,-y,-z
x,1/2-y,z
loop_
_atom_site_type_symbol
_atom_site_label
_atom_site_fract_x
_atom_site_fract_y
_atom_site_fract_z
Si Si1 0.631768 0.092881 0.190395
Si Si2 0.816446 0.973915 0.042722
Si Si3 0.595772 0.250000 0.539287
Si Si4 0.490300 0.750000 0.876474
Si Si5 0.755902 0.750000 0.323927
Si Si6 0.074093 0.870654 0.399482
O O1 0.649980 0.177596 0.149218
O O2 0.793056 0.077692 0.415831
O O3 0.708349 0.045787 0.069467
O O4 0.379843 0.072102 0.130721
O O5 0.933394 0.922770 0.224525
O O6 0.000000 0.000000 0.000000
O O7 0.456970 0.250000 0.301534
O O8 0.443983 0.250000 0.634778
O O9 0.750241 0.320875 0.621734
O O10 0.692397 0.750000 0.097723
O O11 0.902470 0.820511 0.424396
#
# Coordination Sequence:
#
# PCOD8075632 Si02
#       6
#     4   4   2   2   2   4
#     4  10  23  42  61  89 130 156 208 269 301 374
#     4  11  24  39  62  94 121 170 208 246 323 374
#     4   9  23  37  65  98 121 170 217 255 323 374
#     4  10  20  42  64  90 126 158 210 266 304 378
#     4  11  21  41  69  90 131 168 203 271 319 354
#     4  10  22  42  60  93 128 162 214 258 308 383
#
# _framework density 20.003117
#
# number of rings (size 3 to 8) (size 9 to 14) (size 15 to 20)
#    0.000    1.778    2.222    1.333    3.111    4.444 
#    0.000    3.333    0.000    0.000    0.000    0.000 
#    0.000    0.000    0.000    0.000    0.000    0.000 
#
# Total GULP energy -223103.969661 kJ/mol
# GULP energy per Si atom -12394.664981 kJ/mol
# Density = 1.995759 g / cm^3
# Si number density = 20.003117 Si / 1000 Ang^3
#
#
#
# Elastic Constant Matrix: (Units=GPa)
#
#
# Indices 1 2 3 4 5 6 
#
# 1 127.4765 43.3308 25.6636 0.0000 8.7124 0.0000
# 2 43.3308 115.6512 27.7885 0.0000 2.5342 0.0000
# 3 25.6636 27.7885 106.0458 0.0000 21.0405 0.0000
# 4 0.0000 0.0000 0.0000 18.8647 0.0000 10.0697
# 5 8.7124 2.5342 21.0405 0.0000 25.0792 0.0000
# 6 0.0000 0.0000 0.0000 10.0697 0.0000 17.6658
#
#
#
# Elastic Compliance Matrix: (Units=1/GPa)
#
#
# Indices 1 2 3 4 5 6 
#
# 1 0.009270 -0.003188 -0.000999 0.000000 -0.002060 0.000000
# 2 -0.003188 0.010360 -0.002346 0.000000 0.002029 0.000000
# 3 -0.000999 -0.002346 0.012202 0.000000 -0.009652 0.000000
# 4 0.000000 0.000000 0.000000 0.076191 0.000000 -0.043430
# 5 -0.002060 0.002029 -0.009652 0.000000 0.048482 0.000000
# 6 0.000000 0.000000 0.000000 -0.043430 0.000000 0.081362
#
#
# Mechanical properties :
#
#
# Convention : Reuss Voigt Hill
#
# Bulk Modulus (GPa) = 53.28860 60.30437 56.79649
# Shear Modulus (GPa) = 19.44095 29.14799 24.29447
#
# Velocity S-wave (km/s) = 3.12091 3.82143 3.48880
# Velocity P-wave (km/s) = 6.29958 7.04869 6.68464
#
# Compressibility (1/GPa) = 0.01876574
#
# Stress axis : x y z
#
# Youngs Moduli (GPa) = 107.87272 96.52203 81.95664
#
# Poissons Ratio (x) = 0.30771 0.08190
# Poissons Ratio (y) = 0.34390 0.19226
# Poissons Ratio (z) = 0.10780 0.22643
#
# Static dielectric constant tensor:
#      x y z
#    x 3.375530 0.000000 0.407280 
#    y 0.000000 3.772200 0.000000 
#    z 0.407280 0.000000 3.814270 
# 
# 
# High freq. dielectric constant tensor:
#      x y z
#    x 1.755770 0.000000 0.023870 
#    y 0.000000 1.798920 0.000000 
#    z 0.023870 0.000000 1.790130 
# 
# From -- ./inp_files/1859.got.cif
#   From: 2010.06.25/outbox.cif.g09.slc.cpg/sg11_1_cif.got.tgz:1859.got - 2010.06.27 23:14:04.
