data_PCOD8075730
_publ_section_title
;
Structure prediction by ZEFSAII (Michael W. Deem and Ramdas Pophale) SiO2 
 PCOD8075730
Probable space group: P 21/M
;
_chemical_formula_sum "Si O2"
_cell_formula_units_Z 28
_cell_length_a 17.927431
_cell_length_b 9.025456
_cell_length_c 15.080560
_cell_angle_alpha 90.000000
_cell_angle_beta 142.112475
_cell_angle_gamma 90.000000
_cell_volume 1498.487900
_symmetry_space_group_name_H-M "P 21/M"
_symmetry_group_IT_number 11
_symmetry_cell_setting 'monoclinic'
loop_
_space_group_symop_operation_xyz
x,y,z
-x,1/2+y,-z
-x,-y,-z
x,1/2-y,z
loop_
_atom_site_type_symbol
_atom_site_label
_atom_site_fract_x
_atom_site_fract_y
_atom_site_fract_z
Si Si1 0.669268 0.421084 0.704909
Si Si2 0.974596 0.082539 0.709236
Si Si3 0.171615 0.576029 0.983324
Si Si4 0.372950 0.925494 0.859088
Si Si5 0.291706 0.924713 0.587595
Si Si6 0.218337 0.418131 0.858710
Si Si7 0.593222 0.922176 0.466777
O O1 0.672815 0.250000 0.680505
O O2 0.545252 0.458938 0.639615
O O3 0.681342 0.515740 0.626626
O O4 0.780192 0.463368 0.873657
O O5 0.959911 0.250000 0.731552
O O6 0.846029 0.017980 0.556939
O O7 0.070134 0.080357 0.715990
O O8 0.032047 0.981953 0.842524
O O9 0.179533 0.750000 0.972469
O O10 0.255608 0.492789 0.988248
O O11 0.383696 0.750000 0.879901
O O12 0.334500 0.973104 0.724686
O O13 0.269410 0.985675 0.826754
O O14 0.500000 0.000000 0.000000
O O15 0.299266 0.750000 0.582763
O O16 0.380847 0.000036 0.601643
O O17 0.269380 0.250000 0.902364
O O18 0.618703 0.750000 0.480337
#
# Coordination Sequence:
#
# PCOD8075730 Si02
#       7
#     4   4   4   4   4   4   4
#     4   9  19  36  56  81 112 145 178 221 275 329
#     4   8  18  36  56  79 109 144 184 224 272 324
#     4   9  17  32  57  84 109 140 181 226 270 321
#     4  11  24  39  57  83 112 146 185 224 273 328
#     4  10  22  40  57  77 111 149 181 224 277 325
#     4   9  19  36  57  81 110 143 183 226 269 321
#     4  10  21  35  55  84 111 142 184 226 270 325
#
# _framework density 18.685503000000001
#
# number of rings (size 3 to 8) (size 9 to 14) (size 15 to 20)
#    0.857    1.714    0.000    1.286    2.000    4.000 
#    0.000    0.714    0.000    0.000    0.000    0.000 
#    0.000    0.000    0.000    0.000    0.000    0.000 
#
# Total GULP energy -347057.010506 kJ/mol
# GULP energy per Si atom -12394.893232 kJ/mol
# Density = 1.864297 g / cm^3
# Si number density = 18.685503 Si / 1000 Ang^3
#
#
#
# Elastic Constant Matrix: (Units=GPa)
#
#
# Indices 1 2 3 4 5 6 
#
# 1 26.8926 11.2691 11.4557 0.0000 -7.1889 0.0000
# 2 11.2691 56.3178 40.6982 0.0000 -8.7549 0.0000
# 3 11.4557 40.6982 121.6678 0.0000 -7.4496 0.0000
# 4 0.0000 0.0000 0.0000 25.4075 0.0000 -3.9398
# 5 -7.1889 -8.7549 -7.4496 0.0000 26.4199 0.0000
# 6 0.0000 0.0000 0.0000 -3.9398 0.0000 33.6900
#
#
#
# Elastic Compliance Matrix: (Units=1/GPa)
#
#
# Indices 1 2 3 4 5 6 
#
# 1 0.042816 -0.006104 -0.001425 0.000000 0.009226 0.000000
# 2 -0.006104 0.025146 -0.007559 0.000000 0.004541 0.000000
# 3 -0.001425 -0.007559 0.010893 0.000000 0.000179 0.000000
# 4 0.000000 0.000000 0.000000 0.040085 0.000000 0.004688
# 5 0.009226 0.004541 0.000179 0.000000 0.041916 0.000000
# 6 0.000000 0.000000 0.000000 0.004688 0.000000 0.030231
#
#
# Mechanical properties :
#
#
# Convention : Reuss Voigt Hill
#
# Bulk Modulus (GPa) = 20.54221 36.85825 28.70023
# Shear Modulus (GPa) = 21.05381 26.53382 23.79382
#
# Velocity S-wave (km/s) = 3.36035 3.77241 3.57232
# Velocity P-wave (km/s) = 5.10621 6.22440 5.69283
#
# Compressibility (1/GPa) = 0.04868025
#
# Stress axis : x y z
#
# Youngs Moduli (GPa) = 23.35587 39.76802 91.80544
#
# Poissons Ratio (x) = 0.24273 0.13080
# Poissons Ratio (y) = 0.14255 0.69393
# Poissons Ratio (z) = 0.03328 0.30059
#
# Static dielectric constant tensor:
#      x y z
#    x 3.249500 0.000000 -0.013810 
#    y 0.000000 3.437440 0.000000 
#    z -0.013810 0.000000 3.450510 
# 
# 
# High freq. dielectric constant tensor:
#      x y z
#    x 1.710560 0.000000 -0.001790 
#    y 0.000000 1.730980 0.000000 
#    z -0.001790 0.000000 1.720410 
# 
# From -- ./inp_files/53289.got.cif
#   From: 2010.06.25/outbox.cif.g09.slc.cpg/sg11_27_cif.got.tgz:53289.got - 2010.06.27 23:14:04.
