data_PCOD8075855
_publ_section_title
;
Structure prediction by ZEFSAII (Michael W. Deem and Ramdas Pophale) SiO2 
 PCOD8075855
Probable space group: P 21/M
;
_chemical_formula_sum "Si O2"
_cell_formula_units_Z 32
_cell_length_a 14.714160
_cell_length_b 8.969917
_cell_length_c 25.169595
_cell_angle_alpha 90.000000
_cell_angle_beta 149.695752
_cell_angle_gamma 90.000000
_cell_volume 1676.255337
_symmetry_space_group_name_H-M "P 21/M"
_symmetry_group_IT_number 11
_symmetry_cell_setting 'monoclinic'
loop_
_space_group_symop_operation_xyz
x,y,z
-x,1/2+y,-z
-x,-y,-z
x,1/2-y,z
loop_
_atom_site_type_symbol
_atom_site_label
_atom_site_fract_x
_atom_site_fract_y
_atom_site_fract_z
Si Si1 0.160262 0.922033 0.934938
Si Si2 0.751676 0.926805 0.485087
Si Si3 0.348132 0.577496 0.457222
Si Si4 0.082198 0.076123 0.092773
Si Si5 0.488498 0.078108 0.823438
Si Si6 0.514250 0.576616 0.726734
Si Si7 0.947925 0.919697 0.224466
Si Si8 0.113719 0.075089 0.688785
O O1 0.118146 0.750000 0.906649
O O2 0.015800 0.989073 0.904109
O O3 0.143516 0.991392 0.868741
O O4 0.362057 0.952195 0.056609
O O5 0.751269 0.750000 0.490084
O O6 0.660082 0.998818 0.490180
O O7 0.638353 0.975820 0.376791
O O8 0.955046 0.984635 0.579787
O O9 0.500000 0.500000 0.500000
O O10 0.395752 0.750000 0.490720
O O11 0.162671 0.558636 0.331764
O O12 0.039137 0.250000 0.065052
O O13 0.294641 0.045117 0.205085
O O14 0.000000 0.000000 0.000000
O O15 0.494281 0.250000 0.807423
O O16 0.296755 0.036578 0.751416
O O17 0.529189 0.969596 0.795434
O O18 0.461963 0.750000 0.696273
O O19 0.893021 0.750000 0.188106
O O20 0.871034 0.976882 0.242183
O O21 0.064277 0.250000 0.662035
#
# Coordination Sequence:
#
# PCOD8075855 Si02
#       8
#     4   4   4   4   4   4   4   4
#     4  10  21  36  56  86 118 151 191 234 283 344
#     4  11  23  39  60  86 115 152 194 240 292 347
#     4  10  21  38  58  84 117 153 195 242 289 342
#     4  10  21  37  57  82 115 153 189 233 287 338
#     4  10  21  39  62  85 113 152 195 241 291 342
#     4  11  23  38  58  87 119 154 192 237 290 348
#     4   9  20  37  56  82 115 150 189 234 285 340
#     4   9  20  41  63  83 114 152 191 243 296 341
#
# _framework density 19.090168999999999
#
# number of rings (size 3 to 8) (size 9 to 14) (size 15 to 20)
#    0.000    2.000    1.250    2.625    1.750    5.500 
#    0.000    0.000    0.000    0.000    0.000    0.000 
#    0.000    0.000    0.000    0.000    0.000    0.000 
#
# Total GULP energy -396902.503322 kJ/mol
# GULP energy per Si atom -12403.203229 kJ/mol
# Density = 1.904672 g / cm^3
# Si number density = 19.090169 Si / 1000 Ang^3
#
#
#
# Elastic Constant Matrix: (Units=GPa)
#
#
# Indices 1 2 3 4 5 6 
#
# 1 62.9586 27.7376 24.8702 0.0000 19.9818 0.0000
# 2 27.7376 84.7775 43.1245 0.0000 4.9501 0.0000
# 3 24.8702 43.1245 90.8267 0.0000 -0.5642 0.0000
# 4 0.0000 0.0000 0.0000 35.5741 0.0000 -4.7887
# 5 19.9818 4.9501 -0.5642 0.0000 32.9518 0.0000
# 6 0.0000 0.0000 0.0000 -4.7887 0.0000 30.4180
#
#
#
# Elastic Compliance Matrix: (Units=1/GPa)
#
#
# Indices 1 2 3 4 5 6 
#
# 1 0.024222 -0.004862 -0.004411 0.000000 -0.014033 0.000000
# 2 -0.004862 0.016730 -0.006610 0.000000 0.000322 0.000000
# 3 -0.004411 -0.006610 0.015381 0.000000 0.003931 0.000000
# 4 0.000000 0.000000 0.000000 0.028719 0.000000 0.004521
# 5 -0.014033 0.000322 0.003931 0.000000 0.038876 0.000000
# 6 0.000000 0.000000 0.000000 0.004521 0.000000 0.033587
#
#
# Mechanical properties :
#
#
# Convention : Reuss Voigt Hill
#
# Bulk Modulus (GPa) = 40.70608 47.78082 44.24345
# Shear Modulus (GPa) = 25.32041 29.31081 27.31561
#
# Velocity S-wave (km/s) = 3.64587 3.92265 3.78679
# Velocity P-wave (km/s) = 6.25240 6.75275 6.50739
#
# Compressibility (1/GPa) = 0.02456636
#
# Stress axis : x y z
#
# Youngs Moduli (GPa) = 41.28527 59.77339 65.01617
#
# Poissons Ratio (x) = 0.29059 0.28681
# Poissons Ratio (y) = 0.20071 0.42977
# Poissons Ratio (z) = 0.18212 0.39511
#
# Static dielectric constant tensor:
#      x y z
#    x 3.606820 0.000000 0.091380 
#    y 0.000000 3.451650 0.000000 
#    z 0.091380 0.000000 3.463350 
# 
# 
# High freq. dielectric constant tensor:
#      x y z
#    x 1.746850 0.000000 0.003230 
#    y 0.000000 1.739430 0.000000 
#    z 0.003230 0.000000 1.746870 
# 
# From -- ./inp_files/69117.got.cif
#   From: 2010.06.25/outbox.cif.g09.slc.cpg/sg11_35_cif.got.tgz:69117.got - 2010.06.27 23:14:04.
