data_PCOD8075165
_publ_section_title
;
Structure prediction by ZEFSAII (Michael W. Deem and Ramdas Pophale) SiO2 
 PCOD8075165
Probable space group: P 21/M
;
_chemical_formula_sum "Si O2"
_cell_formula_units_Z 28
_cell_length_a 14.557472
_cell_length_b 17.214074
_cell_length_c 7.870067
_cell_angle_alpha 90.000000
_cell_angle_beta 138.796484
_cell_angle_gamma 90.000000
_cell_volume 1299.149750
_symmetry_space_group_name_H-M "P 21/M"
_symmetry_group_IT_number 11
_symmetry_cell_setting 'monoclinic'
loop_
_space_group_symop_operation_xyz
x,y,z
-x,1/2+y,-z
-x,-y,-z
x,1/2-y,z
loop_
_atom_site_type_symbol
_atom_site_label
_atom_site_fract_x
_atom_site_fract_y
_atom_site_fract_z
Si Si1 0.115988 0.433821 0.142580
Si Si2 0.075356 0.836625 0.949251
Si Si3 0.681777 0.965214 0.082134
Si Si4 0.143055 0.156705 0.835129
Si Si5 0.272010 0.835483 0.541866
Si Si6 0.611444 0.497977 0.351132
Si Si7 0.141138 0.889093 0.696928
O O1 0.271244 0.470276 0.357194
O O2 0.075467 0.379677 0.247110
O O3 0.103127 0.381052 0.958786
O O4 0.000000 0.500000 0.000000
O O5 0.037873 0.750000 0.849860
O O6 0.178367 0.868130 0.944251
O O7 0.148713 0.846356 0.234229
O O8 0.715710 0.882698 0.041450
O O9 0.634604 0.953057 0.211033
O O10 0.817953 0.020657 0.267434
O O11 0.547858 0.007779 0.803272
O O12 0.160439 0.250000 0.874048
O O13 0.022663 0.129898 0.539028
O O14 0.341281 0.750000 0.612667
O O15 0.379934 0.905034 0.667595
O O16 0.214686 0.837582 0.654991
#
# Coordination Sequence:
#
# PCOD8075165 Si02
#       7
#     4   4   4   4   4   4   4
#     4  12  21  37  62  91 124 163 209 260 308 367
#     4  11  21  35  60  91 123 158 202 258 319 372
#     4  10  23  42  63  91 121 166 216 251 319 380
#     4  12  24  40  64  93 129 164 206 268 325 374
#     4  10  20  37  60  91 127 159 203 259 313 375
#     4  10  22  41  64  88 125 167 211 261 307 380
#     4  11  21  39  64  92 122 161 209 263 311 380
#
# _framework density 21.552558999999999
#
# number of rings (size 3 to 8) (size 9 to 14) (size 15 to 20)
#    0.000    1.143    2.857    4.714    0.000    1.143 
#    0.000    0.714    0.000    9.429    0.000    0.000 
#    0.000    0.000    0.000    0.000    0.000    0.000 
#
# Total GULP energy -346898.932663 kJ/mol
# GULP energy per Si atom -12389.247595 kJ/mol
# Density = 2.150350 g / cm^3
# Si number density = 21.552559 Si / 1000 Ang^3
#
#
#
# Elastic Constant Matrix: (Units=GPa)
#
#
# Indices 1 2 3 4 5 6 
#
# 1 101.4001 60.1519 26.1526 0.0000 -4.7709 0.0000
# 2 60.1519 137.7316 32.8386 0.0000 -0.4290 0.0000
# 3 26.1526 32.8386 69.8527 0.0000 8.4745 0.0000
# 4 0.0000 0.0000 0.0000 22.8610 0.0000 -2.4910
# 5 -4.7709 -0.4290 8.4745 0.0000 30.3612 0.0000
# 6 0.0000 0.0000 0.0000 -2.4910 0.0000 30.4245
#
#
#
# Elastic Compliance Matrix: (Units=1/GPa)
#
#
# Indices 1 2 3 4 5 6 
#
# 1 0.013975 -0.005361 -0.003073 0.000000 0.002978 0.000000
# 2 -0.005361 0.010279 -0.002836 0.000000 0.000094 0.000000
# 3 -0.003073 -0.002836 0.017454 0.000000 -0.005395 0.000000
# 4 0.000000 0.000000 0.000000 0.044136 0.000000 0.003614
# 5 0.002978 0.000094 -0.005395 0.000000 0.034912 0.000000
# 6 0.000000 0.000000 0.000000 0.003614 0.000000 0.033164
#
#
# Mechanical properties :
#
#
# Convention : Reuss Voigt Hill
#
# Bulk Modulus (GPa) = 52.17446 60.80787 56.49116
# Shear Modulus (GPa) = 27.34477 29.38543 28.36510
#
# Velocity S-wave (km/s) = 3.56581 3.69647 3.63173
# Velocity P-wave (km/s) = 6.41981 6.81862 6.62222
#
# Compressibility (1/GPa) = 0.01916647
#
# Stress axis : x y z
#
# Youngs Moduli (GPa) = 71.55585 97.29028 57.29271
#
# Poissons Ratio (x) = 0.52161 0.17606
# Poissons Ratio (y) = 0.38364 0.16249
# Poissons Ratio (z) = 0.21990 0.27594
#
# Static dielectric constant tensor:
#      x y z
#    x 4.246620 0.000000 0.029400 
#    y 0.000000 4.134010 0.000000 
#    z 0.029400 0.000000 3.895840 
# 
# 
# High freq. dielectric constant tensor:
#      x y z
#    x 1.847370 0.000000 -0.012220 
#    y 0.000000 1.848660 0.000000 
#    z -0.012220 0.000000 1.826520 
# 
# From -- ./inp_files/22777.got.cif
#   From: 2010.06.25/outbox.cif.g09.slc.cpg/sg11_12_cif.got.tgz:22777.got - 2010.06.27 23:14:04.
