data_PCOD8075834
_publ_section_title
;
Structure prediction by ZEFSAII (Michael W. Deem and Ramdas Pophale) SiO2 
 PCOD8075834
Probable space group: P 21/M
;
_chemical_formula_sum "Si O2"
_cell_formula_units_Z 28
_cell_length_a 9.432257
_cell_length_b 8.593763
_cell_length_c 25.934155
_cell_angle_alpha 90.000000
_cell_angle_beta 41.886579
_cell_angle_gamma 90.000000
_cell_volume 1403.541571
_symmetry_space_group_name_H-M "P 21/M"
_symmetry_group_IT_number 11
_symmetry_cell_setting 'monoclinic'
loop_
_space_group_symop_operation_xyz
x,y,z
-x,1/2+y,-z
-x,-y,-z
x,1/2-y,z
loop_
_atom_site_type_symbol
_atom_site_label
_atom_site_fract_x
_atom_site_fract_y
_atom_site_fract_z
Si Si1 0.880573 0.567139 0.483221
Si Si2 0.935192 0.067384 0.360389
Si Si3 0.932924 0.569919 0.098717
Si Si4 0.419972 0.068977 0.612972
Si Si5 0.745954 0.927319 0.814150
Si Si6 0.300388 0.070707 0.941919
Si Si7 0.145757 0.928275 0.772974
O O1 0.917864 0.750000 0.470570
O O2 0.984306 0.489096 0.404594
O O3 0.632724 0.530343 0.552589
O O4 0.000000 0.500000 0.500000
O O5 0.885113 0.250000 0.372003
O O6 0.141080 0.027944 0.270227
O O7 0.730010 0.978690 0.393896
O O8 0.920216 0.750000 0.116817
O O9 0.781525 0.523534 0.092405
O O10 0.845925 0.470111 0.169564
O O11 0.175743 0.527675 0.018894
O O12 0.476919 0.250000 0.593072
O O13 0.307988 0.036196 0.697835
O O14 0.665166 0.750000 0.834441
O O15 0.907845 0.955071 0.817084
O O16 0.549485 0.039456 0.877684
O O17 0.253835 0.250000 0.965944
O O18 0.214826 0.750000 0.745701
#
# Coordination Sequence:
#
# PCOD8075834 Si02
#       7
#     4   4   4   4   4   4   4
#     4  12  25  41  60  86 118 152 191 237 286 337
#     4  10  21  40  62  86 116 152 192 233 282 341
#     4  10  21  37  56  80 111 148 189 231 280 338
#     4  11  22  39  62  87 115 151 192 234 283 339
#     4   9  20  37  58  83 112 145 183 228 278 332
#     4  10  21  36  56  81 110 146 188 231 278 334
#     4  10  21  38  59  85 114 146 187 233 282 335
#
# _framework density 19.949535000000001
#
# number of rings (size 3 to 8) (size 9 to 14) (size 15 to 20)
#    0.000    1.714    0.000    5.571    0.000    6.857 
#    0.000    2.857    0.000    0.000    0.000    0.000 
#    0.000    0.000    0.000    0.000    0.000    0.000 
#
# Total GULP energy -347363.172983 kJ/mol
# GULP energy per Si atom -12405.827607 kJ/mol
# Density = 1.990413 g / cm^3
# Si number density = 19.949535 Si / 1000 Ang^3
#
#
#
# Elastic Constant Matrix: (Units=GPa)
#
#
# Indices 1 2 3 4 5 6 
#
# 1 34.8818 10.9208 3.0931 0.0000 20.2136 0.0000
# 2 10.9208 63.8430 8.6637 0.0000 5.5873 0.0000
# 3 3.0931 8.6637 39.6388 0.0000 8.3323 0.0000
# 4 0.0000 0.0000 0.0000 35.0471 0.0000 0.0713
# 5 20.2136 5.5873 8.3323 0.0000 35.7461 0.0000
# 6 0.0000 0.0000 0.0000 0.0713 0.0000 34.0879
#
#
#
# Elastic Compliance Matrix: (Units=1/GPa)
#
#
# Indices 1 2 3 4 5 6 
#
# 1 0.044800 -0.005881 0.003072 0.000000 -0.025130 0.000000
# 2 -0.005881 0.017024 -0.003577 0.000000 0.001498 0.000000
# 3 0.003072 -0.003577 0.027358 0.000000 -0.007555 0.000000
# 4 0.000000 0.000000 0.000000 0.028533 0.000000 -0.000060
# 5 -0.025130 0.001498 -0.007555 0.000000 0.043712 0.000000
# 6 0.000000 0.000000 0.000000 -0.000060 0.000000 0.029336
#
#
# Mechanical properties :
#
#
# Convention : Reuss Voigt Hill
#
# Bulk Modulus (GPa) = 13.08734 20.41320 16.75027
# Shear Modulus (GPa) = 21.83366 28.68860 25.26113
#
# Velocity S-wave (km/s) = 3.31183 3.79629 3.56230
# Velocity P-wave (km/s) = 4.60421 5.42866 5.03334
#
# Compressibility (1/GPa) = 0.07640970
#
# Stress axis : x y z
#
# Youngs Moduli (GPa) = 22.32165 58.74182 36.55237
#
# Poissons Ratio (x) = 0.34545 -0.11229
# Poissons Ratio (y) = 0.13127 0.13074
# Poissons Ratio (z) = -0.06857 0.21011
#
# Static dielectric constant tensor:
#      x y z
#    x 3.590430 0.000000 0.102360 
#    y 0.000000 3.632870 0.000000 
#    z 0.102360 0.000000 3.589110 
# 
# 
# High freq. dielectric constant tensor:
#      x y z
#    x 1.772410 0.000000 0.007750 
#    y 0.000000 1.788740 0.000000 
#    z 0.007750 0.000000 1.783890 
# 
# From -- ./inp_files/70841.got.cif
#   From: 2010.06.25/outbox.cif.g09.slc.cpg/sg11_36_cif.got.tgz:70841.got - 2010.06.27 23:14:04.
