data_PCOD8075306
_publ_section_title
;
Structure prediction by ZEFSAII (Michael W. Deem and Ramdas Pophale) SiO2 
 PCOD8075306
Probable space group: P 21/M
;
_chemical_formula_sum "Si O2"
_cell_formula_units_Z 24
_cell_length_a 8.871006
_cell_length_b 26.431934
_cell_length_c 7.199940
_cell_angle_alpha 90.000000
_cell_angle_beta 144.141478
_cell_angle_gamma 90.000000
_cell_volume 988.939048
_symmetry_space_group_name_H-M "P 21/M"
_symmetry_group_IT_number 11
_symmetry_cell_setting 'monoclinic'
loop_
_space_group_symop_operation_xyz
x,y,z
-x,1/2+y,-z
-x,-y,-z
x,1/2-y,z
loop_
_atom_site_type_symbol
_atom_site_label
_atom_site_fract_x
_atom_site_fract_y
_atom_site_fract_z
Si Si1 0.824327 0.150252 0.865285
Si Si2 0.391951 0.750000 0.455040
Si Si3 0.113127 0.250000 0.815528
Si Si4 0.480097 0.430195 0.330635
Si Si5 0.843263 0.087136 0.219136
Si Si6 0.330514 0.464242 0.567702
Si Si7 0.103561 0.357665 0.785304
O O1 0.646103 0.199728 0.707862
O O2 0.690426 0.101021 0.648625
O O3 0.050562 0.160570 0.944270
O O4 0.924496 0.134160 0.166942
O O5 0.185473 0.750000 0.416964
O O6 0.682154 0.750000 0.813169
O O7 0.161236 0.302623 0.745704
O O8 0.295597 0.451671 0.312509
O O9 0.606418 0.476547 0.343582
O O10 0.342539 0.395881 0.036976
O O11 0.059191 0.044103 0.400539
O O12 0.870814 0.111643 0.452736
O O13 0.555590 0.068070 0.893332
#
# Coordination Sequence:
#
# PCOD8075306 Si02
#       7
#     4   2   2   4   4   4   4
#     4  10  22  41  62  90 122 162 202 253 309 360
#     4  10  20  37  66  87 117 157 206 243 305 371
#     4  10  22  39  62  95 117 155 208 249 303 369
#     4  10  21  39  68  83 130 165 204 253 312 351
#     4  11  25  40  62  92 127 156 210 249 304 368
#     4  10  24  41  60  96 123 164 209 252 298 372
#     4  11  23  40  66  89 124 163 202 256 309 360
#
# _framework density 24.268432000000001
#
# number of rings (size 3 to 8) (size 9 to 14) (size 15 to 20)
#    0.000    1.667    3.333    0.000    4.667    4.000 
#    0.000    0.000    0.000    6.000    0.000    0.000 
#    0.000    0.000    0.000    0.000    0.000    0.000 
#
# Total GULP energy -297411.792793 kJ/mol
# GULP energy per Si atom -12392.158033 kJ/mol
# Density = 2.421320 g / cm^3
# Si number density = 24.268432 Si / 1000 Ang^3
#
#
#
# Elastic Constant Matrix: (Units=GPa)
#
#
# Indices 1 2 3 4 5 6 
#
# 1 25.8377 -10.8889 -5.5855 0.0000 1.2277 0.0000
# 2 -10.8889 160.9134 23.3664 0.0000 -9.6576 0.0000
# 3 -5.5855 23.3664 79.8722 0.0000 2.4845 0.0000
# 4 0.0000 0.0000 0.0000 36.1019 0.0000 10.4728
# 5 1.2277 -9.6576 2.4845 0.0000 25.2574 0.0000
# 6 0.0000 0.0000 0.0000 10.4728 0.0000 12.9861
#
#
#
# Elastic Compliance Matrix: (Units=1/GPa)
#
#
# Indices 1 2 3 4 5 6 
#
# 1 0.040215 0.002329 0.002171 0.000000 -0.001278 0.000000
# 2 0.002329 0.006811 -0.001913 0.000000 0.002679 0.000000
# 3 0.002171 -0.001913 0.013298 0.000000 -0.002145 0.000000
# 4 0.000000 0.000000 0.000000 0.036159 0.000000 -0.029161
# 5 -0.001278 0.002679 -0.002145 0.000000 0.040890 0.000000
# 6 0.000000 0.000000 0.000000 -0.029161 0.000000 0.100522
#
#
# Mechanical properties :
#
#
# Convention : Reuss Voigt Hill
#
# Bulk Modulus (GPa) = 15.26772 31.15637 23.21205
# Shear Modulus (GPa) = 19.64228 32.18449 25.91339
#
# Velocity S-wave (km/s) = 2.84804 3.64564 3.27124
# Velocity P-wave (km/s) = 4.13763 5.53055 4.88400
#
# Compressibility (1/GPa) = 0.06549766
#
# Stress axis : x y z
#
# Youngs Moduli (GPa) = 24.86653 146.82729 75.19856
#
# Poissons Ratio (x) = -0.34203 -0.16322
# Poissons Ratio (y) = -0.05793 0.14385
# Poissons Ratio (z) = -0.05397 0.28087
#
# Static dielectric constant tensor:
#      x y z
#    x 4.294480 0.000000 -0.280240 
#    y 0.000000 5.106680 0.000000 
#    z -0.280240 0.000000 4.176510 
# 
# 
# High freq. dielectric constant tensor:
#      x y z
#    x 1.928440 0.000000 0.004620 
#    y 0.000000 1.989610 0.000000 
#    z 0.004620 0.000000 1.953870 
# 
# From -- ./inp_files/2757.got.cif
#   From: 2010.06.25/outbox.cif.g09.slc.cpg/sg11_2_cif.got.tgz:2757.got - 2010.06.27 23:14:04.
