data_PCOD8075570
_publ_section_title
;
Structure prediction by ZEFSAII (Michael W. Deem and Ramdas Pophale) SiO2 
 PCOD8075570
Probable space group: P 21/M
;
_chemical_formula_sum "Si O2"
_cell_formula_units_Z 32
_cell_length_a 8.740683
_cell_length_b 13.552870
_cell_length_c 23.993059
_cell_angle_alpha 90.000000
_cell_angle_beta 32.859273
_cell_angle_gamma 90.000000
_cell_volume 1542.140844
_symmetry_space_group_name_H-M "P 21/M"
_symmetry_group_IT_number 11
_symmetry_cell_setting 'monoclinic'
loop_
_space_group_symop_operation_xyz
x,y,z
-x,1/2+y,-z
-x,-y,-z
x,1/2-y,z
loop_
_atom_site_type_symbol
_atom_site_label
_atom_site_fract_x
_atom_site_fract_y
_atom_site_fract_z
Si Si1 0.738324 0.865400 0.566936
Si Si2 0.820632 0.937775 0.242142
Si Si3 0.646281 0.477036 0.397818
Si Si4 0.946469 0.859852 0.865306
Si Si5 0.701002 0.367046 0.663584
Si Si6 0.507533 0.359324 0.242188
Si Si7 0.252499 0.509871 0.243932
Si Si8 0.612478 0.361380 0.900910
O O1 0.706476 0.750000 0.583128
O O2 0.527691 0.893161 0.581211
O O3 0.641139 0.909674 0.656895
O O4 0.060002 0.897015 0.455051
O O5 0.605056 0.911538 0.258858
O O6 0.091043 0.866721 0.156357
O O7 0.661668 0.927668 0.350871
O O8 0.932648 0.052150 0.209851
O O9 0.500000 0.500000 0.500000
O O10 0.968670 0.451373 0.314554
O O11 0.945499 0.750000 0.836395
O O12 0.156075 0.853775 0.853857
O O13 0.635806 0.889490 0.980577
O O14 0.675122 0.250000 0.675404
O O15 0.800339 0.407423 0.692791
O O16 0.382511 0.250000 0.270131
O O17 0.459771 0.425945 0.202970
O O18 0.395513 0.562422 0.147540
O O19 0.569912 0.250000 0.891882
#
# Coordination Sequence:
#
# PCOD8075570 Si02
#       8
#     4   4   4   4   4   4   4   4
#     4  10  21  38  59  84 120 162 203 241 290 355
#     4  11  22  39  62  89 117 157 205 251 291 357
#     4  11  22  35  55  84 117 155 191 239 296 350
#     4  10  20  39  67  88 115 157 203 250 306 354
#     4  11  22  37  59  86 118 162 202 242 290 355
#     4  10  21  39  62  89 117 154 202 248 294 355
#     4  11  22  37  60  84 122 159 191 249 303 358
#     4  10  23  41  61  89 122 157 198 251 307 361
#
# _framework density 20.750374000000001
#
# number of rings (size 3 to 8) (size 9 to 14) (size 15 to 20)
#    0.000    1.500    3.750    1.125    1.750    2.000 
#    0.000    2.500    0.000    0.750    0.000    0.000 
#    0.000    0.000    0.000    0.000    0.000    0.000 
#
# Total GULP energy -396544.986173 kJ/mol
# GULP energy per Si atom -12392.030818 kJ/mol
# Density = 2.070315 g / cm^3
# Si number density = 20.750374 Si / 1000 Ang^3
#
#
#
# Elastic Constant Matrix: (Units=GPa)
#
#
# Indices 1 2 3 4 5 6 
#
# 1 98.6713 24.0521 31.1656 0.0000 -9.6677 0.0000
# 2 24.0521 76.8287 31.9354 0.0000 -1.1820 0.0000
# 3 31.1656 31.9354 96.7634 0.0000 -15.2466 0.0000
# 4 0.0000 0.0000 0.0000 29.6766 0.0000 -0.2615
# 5 -9.6677 -1.1820 -15.2466 0.0000 25.2318 0.0000
# 6 0.0000 0.0000 0.0000 -0.2615 0.0000 34.2312
#
#
#
# Elastic Compliance Matrix: (Units=1/GPa)
#
#
# Indices 1 2 3 4 5 6 
#
# 1 0.011847 -0.002629 -0.002489 0.000000 0.002912 0.000000
# 2 -0.002629 0.015818 -0.004880 0.000000 -0.003215 0.000000
# 3 -0.002489 -0.004880 0.013882 0.000000 0.007206 0.000000
# 4 0.000000 0.000000 0.000000 0.033699 0.000000 0.000257
# 5 0.002912 -0.003215 0.007206 0.000000 0.044952 0.000000
# 6 0.000000 0.000000 0.000000 0.000257 0.000000 0.029215
#
#
# Mechanical properties :
#
#
# Convention : Reuss Voigt Hill
#
# Bulk Modulus (GPa) = 46.40376 49.61884 48.01130
# Shear Modulus (GPa) = 28.31339 30.16860 29.24099
#
# Velocity S-wave (km/s) = 3.69789 3.81712 3.75798
# Velocity P-wave (km/s) = 6.37526 6.58721 6.48210
#
# Compressibility (1/GPa) = 0.02154998
#
# Stress axis : x y z
#
# Youngs Moduli (GPa) = 84.40876 63.21789 72.03406
#
# Poissons Ratio (x) = 0.16623 0.17930
# Poissons Ratio (y) = 0.22195 0.35155
# Poissons Ratio (z) = 0.21010 0.30853
#
# Static dielectric constant tensor:
#      x y z
#    x 3.744870 0.000000 -0.167470 
#    y 0.000000 3.778650 0.000000 
#    z -0.167470 0.000000 3.861350 
# 
# 
# High freq. dielectric constant tensor:
#      x y z
#    x 1.804910 0.000000 -0.014890 
#    y 0.000000 1.812640 0.000000 
#    z -0.014890 0.000000 1.810500 
# 
# From -- ./inp_files/63805.got.cif
#   From: 2010.06.25/outbox.cif.g09.slc.cpg/sg11_32_cif.got.tgz:63805.got - 2010.06.27 23:14:04.
