data_PCOD8075496
_publ_section_title
;
Structure prediction by ZEFSAII (Michael W. Deem and Ramdas Pophale) SiO2 
 PCOD8075496
Probable space group: P 21/M
;
_chemical_formula_sum "Si O2"
_cell_formula_units_Z 24
_cell_length_a 11.625359
_cell_length_b 15.749055
_cell_length_c 17.082071
_cell_angle_alpha 90.000000
_cell_angle_beta 156.870427
_cell_angle_gamma 90.000000
_cell_volume 1228.530521
_symmetry_space_group_name_H-M "P 21/M"
_symmetry_group_IT_number 11
_symmetry_cell_setting 'monoclinic'
loop_
_space_group_symop_operation_xyz
x,y,z
-x,1/2+y,-z
-x,-y,-z
x,1/2-y,z
loop_
_atom_site_type_symbol
_atom_site_label
_atom_site_fract_x
_atom_site_fract_y
_atom_site_fract_z
Si Si1 0.963530 0.908192 0.513815
Si Si2 0.697702 0.925943 0.592579
Si Si3 0.186758 0.846506 0.502264
Si Si4 0.838893 0.496065 0.220449
Si Si5 0.796738 0.651800 0.817592
Si Si6 0.422632 0.850825 0.263253
O O1 0.627040 0.881721 0.319062
O O2 0.130825 0.842829 0.561081
O O3 0.000000 0.000000 0.500000
O O4 0.112469 0.916039 0.691347
O O5 0.762593 0.860743 0.703143
O O6 0.531609 0.883165 0.415675
O O7 0.500000 0.000000 0.500000
O O8 0.005460 0.968896 0.762144
O O9 0.147439 0.750000 0.444755
O O10 0.510335 0.883557 0.684444
O O11 0.953512 0.911316 0.319201
O O12 0.500000 0.500000 0.000000
O O13 0.813950 0.750000 0.846148
O O14 0.096787 0.612010 0.040695
O O15 0.426791 0.750000 0.267415
#
# Coordination Sequence:
#
# PCOD8075496 Si02
#       6
#     4   4   4   4   4   4
#     4   9  20  37  58  83 114 148 195 242 287 348
#     4  11  22  39  59  89 122 156 199 245 294 352
#     4  10  20  39  59  84 118 154 196 243 295 352
#     4  10  22  39  57  87 119 153 196 244 293 350
#     4  10  22  39  62  89 119 156 197 244 300 353
#     4  10  22  40  61  87 118 158 200 246 299 354
#
# _framework density 19.535534999999999
#
# number of rings (size 3 to 8) (size 9 to 14) (size 15 to 20)
#    0.000    2.000    1.667    1.000    4.667    2.000 
#    0.000    4.167    0.000    0.000    0.000    0.000 
#    0.000    0.000    0.000    0.000    0.000    0.000 
#
# Total GULP energy -297396.097621 kJ/mol
# GULP energy per Si atom -12391.504068 kJ/mol
# Density = 1.949107 g / cm^3
# Si number density = 19.535535 Si / 1000 Ang^3
#
#
#
# Elastic Constant Matrix: (Units=GPa)
#
#
# Indices 1 2 3 4 5 6 
#
# 1 137.9235 26.2526 75.4018 0.0000 26.3365 0.0000
# 2 26.2526 67.3608 40.7657 0.0000 11.9469 0.0000
# 3 75.4018 40.7657 171.1367 0.0000 28.6021 0.0000
# 4 0.0000 0.0000 0.0000 27.0520 0.0000 3.1100
# 5 26.3365 11.9469 28.6021 0.0000 35.0556 0.0000
# 6 0.0000 0.0000 0.0000 3.1100 0.0000 33.9521
#
#
#
# Elastic Compliance Matrix: (Units=1/GPa)
#
#
# Indices 1 2 3 4 5 6 
#
# 1 0.010220 -0.001073 -0.003503 0.000000 -0.004454 0.000000
# 2 -0.001073 0.017725 -0.003328 0.000000 -0.002519 0.000000
# 3 -0.003503 -0.003328 0.008742 0.000000 -0.003367 0.000000
# 4 0.000000 0.000000 0.000000 0.037359 0.000000 -0.003422
# 5 -0.004454 -0.002519 -0.003367 0.000000 0.035478 0.000000
# 6 0.000000 0.000000 0.000000 -0.003422 0.000000 0.029767
#
#
# Mechanical properties :
#
#
# Convention : Reuss Voigt Hill
#
# Bulk Modulus (GPa) = 47.89675 73.47347 60.68511
# Shear Modulus (GPa) = 30.85289 34.81198 32.83243
#
# Velocity S-wave (km/s) = 3.97838 4.22593 4.10402
# Velocity P-wave (km/s) = 6.75828 7.84240 7.32043
#
# Compressibility (1/GPa) = 0.02087824
#
# Stress axis : x y z
#
# Youngs Moduli (GPa) = 97.84501 56.41861 114.38841
#
# Poissons Ratio (x) = 0.06055 0.40069
# Poissons Ratio (y) = 0.10501 0.38072
# Poissons Ratio (z) = 0.34274 0.18778
#
# Static dielectric constant tensor:
#      x y z
#    x 5.051290 0.000000 -0.023540 
#    y 0.000000 3.705180 0.000000 
#    z -0.023540 0.000000 3.925870 
# 
# 
# High freq. dielectric constant tensor:
#      x y z
#    x 1.778290 0.000000 0.018150 
#    y 0.000000 1.759130 0.000000 
#    z 0.018150 0.000000 1.751860 
# 
# From -- ./inp_files/22322.got.cif
#   From: 2010.06.25/outbox.cif.g09.slc.cpg/sg11_12_cif.got.tgz:22322.got - 2010.06.27 23:14:04.
