data_PCOD8075522
_publ_section_title
;
Structure prediction by ZEFSAII (Michael W. Deem and Ramdas Pophale) SiO2 
 PCOD8075522
Probable space group: P 21/M
;
_chemical_formula_sum "Si O2"
_cell_formula_units_Z 32
_cell_length_a 12.413626
_cell_length_b 14.593270
_cell_length_c 18.888370
_cell_angle_alpha 90.000000
_cell_angle_beta 152.846767
_cell_angle_gamma 90.000000
_cell_volume 1561.581143
_symmetry_space_group_name_H-M "P 21/M"
_symmetry_group_IT_number 11
_symmetry_cell_setting 'monoclinic'
loop_
_space_group_symop_operation_xyz
x,y,z
-x,1/2+y,-z
-x,-y,-z
x,1/2-y,z
loop_
_atom_site_type_symbol
_atom_site_label
_atom_site_fract_x
_atom_site_fract_y
_atom_site_fract_z
Si Si1 0.262551 0.468567 0.159517
Si Si2 0.882068 0.110472 0.588925
Si Si3 0.703281 0.924663 0.426888
Si Si4 0.893897 0.647357 0.673618
Si Si5 0.255526 0.478104 0.894208
Si Si6 0.416280 0.141214 0.118674
Si Si7 0.403484 0.150161 0.367829
Si Si8 0.059870 0.650284 0.536272
O O1 0.428744 0.559383 0.246049
O O2 0.316296 0.386515 0.136576
O O3 0.292436 0.427852 0.254618
O O4 0.000000 0.500000 0.000000
O O5 0.688344 0.158445 0.526101
O O6 0.921556 0.159918 0.537362
O O7 0.127686 0.100710 0.773577
O O8 0.778605 0.012569 0.513556
O O9 0.775125 0.847250 0.525615
O O10 0.851250 0.916825 0.440287
O O11 0.999594 0.750000 0.748632
O O12 0.675615 0.625681 0.598630
O O13 0.101140 0.571952 0.808051
O O14 0.500000 0.500000 0.000000
O O15 0.298804 0.428838 0.994596
O O16 0.366631 0.250000 0.075201
O O17 0.695680 0.120529 0.284143
O O18 0.299300 0.250000 0.286607
O O19 0.990158 0.750000 0.524141
#
# Coordination Sequence:
#
# PCOD8075522 Si02
#       8
#     4   4   4   4   4   4   4   4
#     4  11  23  38  61  89 127 169 212 264 329 392
#     4  10  21  37  63  88 117 162 212 261 314 378
#     4  10  21  36  62  89 119 160 217 262 316 380
#     4  10  22  42  66  92 129 173 220 269 328 388
#     4  11  25  40  63  95 135 173 210 267 327 392
#     4  11  23  40  64  94 130 173 219 269 328 387
#     4  10  20  39  63  87 118 162 217 267 315 379
#     4  11  21  38  64  91 124 164 214 266 318 381
#
# _framework density 20.492051
#
# number of rings (size 3 to 8) (size 9 to 14) (size 15 to 20)
#    0.000    1.500    2.500    3.750    1.750    8.000 
#    0.000    3.750    0.000    0.000    0.000    0.000 
#    0.000    0.000    0.000    0.000    0.000    0.000 
#
# Total GULP energy -396472.678198 kJ/mol
# GULP energy per Si atom -12389.771194 kJ/mol
# Density = 2.044541 g / cm^3
# Si number density = 20.492051 Si / 1000 Ang^3
#
#
#
# Elastic Constant Matrix: (Units=GPa)
#
#
# Indices 1 2 3 4 5 6 
#
# 1 135.6783 38.7273 49.6567 0.0000 16.3592 0.0000
# 2 38.7273 90.8024 47.8011 0.0000 7.7288 0.0000
# 3 49.6567 47.8011 128.4014 0.0000 17.2745 0.0000
# 4 0.0000 0.0000 0.0000 27.5227 0.0000 -1.2098
# 5 16.3592 7.7288 17.2745 0.0000 36.5957 0.0000
# 6 0.0000 0.0000 0.0000 -1.2098 0.0000 27.6469
#
#
#
# Elastic Compliance Matrix: (Units=1/GPa)
#
#
# Indices 1 2 3 4 5 6 
#
# 1 0.009231 -0.002515 -0.002296 0.000000 -0.002512 0.000000
# 2 -0.002515 0.014392 -0.004407 0.000000 0.000165 0.000000
# 3 -0.002296 -0.004407 0.010735 0.000000 -0.003110 0.000000
# 4 0.000000 0.000000 0.000000 0.036404 0.000000 0.001593
# 5 -0.002512 0.000165 -0.003110 0.000000 0.029882 0.000000
# 6 0.000000 0.000000 0.000000 0.001593 0.000000 0.036240
#
#
# Mechanical properties :
#
#
# Convention : Reuss Voigt Hill
#
# Bulk Modulus (GPa) = 62.80614 69.69472 66.25043
# Shear Modulus (GPa) = 31.12804 32.93287 32.03046
#
# Velocity S-wave (km/s) = 3.90170 4.01322 3.95785
# Velocity P-wave (km/s) = 7.14236 7.45379 7.29974
#
# Compressibility (1/GPa) = 0.01592201
#
# Stress axis : x y z
#
# Youngs Moduli (GPa) = 108.32708 69.48510 93.15154
#
# Poissons Ratio (x) = 0.17474 0.21387
# Poissons Ratio (y) = 0.27241 0.41055
# Poissons Ratio (z) = 0.24871 0.30625
#
# Static dielectric constant tensor:
#      x y z
#    x 3.611310 0.000000 -0.163900 
#    y 0.000000 4.177670 0.000000 
#    z -0.163900 0.000000 4.027200 
# 
# 
# High freq. dielectric constant tensor:
#      x y z
#    x 1.813840 0.000000 0.001160 
#    y 0.000000 1.807490 0.000000 
#    z 0.001160 0.000000 1.783470 
# 
# From -- ./inp_files/59523.got.cif
#   From: 2010.06.25/outbox.cif.g09.slc.cpg/sg11_30_cif.got.tgz:59523.got - 2010.06.27 23:14:04.
