data_PCOD8075419
_publ_section_title
;
Structure prediction by ZEFSAII (Michael W. Deem and Ramdas Pophale) SiO2 
 PCOD8075419
Probable space group: P 21/M
;
_chemical_formula_sum "Si O2"
_cell_formula_units_Z 20
_cell_length_a 10.153484
_cell_length_b 8.542837
_cell_length_c 11.517922
_cell_angle_alpha 90.000000
_cell_angle_beta 90.652703
_cell_angle_gamma 90.000000
_cell_volume 998.994647
_symmetry_space_group_name_H-M "P 21/M"
_symmetry_group_IT_number 11
_symmetry_cell_setting 'monoclinic'
loop_
_space_group_symop_operation_xyz
x,y,z
-x,1/2+y,-z
-x,-y,-z
x,1/2-y,z
loop_
_atom_site_type_symbol
_atom_site_label
_atom_site_fract_x
_atom_site_fract_y
_atom_site_fract_z
Si Si1 0.519856 0.065529 0.871662
Si Si2 0.271461 0.934122 0.745961
Si Si3 0.853275 0.064750 0.494166
Si Si4 0.227640 0.934753 0.259705
Si Si5 0.031076 0.435589 0.875739
O O1 0.529812 0.250000 0.883846
O O2 0.652720 0.993654 0.814830
O O3 0.403649 0.021849 0.783039
O O4 0.500000 0.000000 0.000000
O O5 0.297939 0.750000 0.746498
O O6 0.225203 0.996345 0.619344
O O7 0.161485 0.975973 0.838186
O O8 0.866058 0.250000 0.491177
O O9 0.770196 0.008546 0.606153
O O10 0.000000 0.000000 0.500000
O O11 0.240711 0.750000 0.253668
O O12 0.087989 0.988558 0.207745
O O13 0.053660 0.250000 0.875614
O O14 0.000000 0.500000 0.000000
#
# Coordination Sequence:
#
# PCOD8075419 Si02
#       5
#     4   4   4   4   4
#     4  11  23  41  63  87 121 162 202 250 305 363
#     4  11  23  38  59  89 123 158 199 248 301 364
#     4  10  20  38  62  88 120 155 198 252 303 358
#     4   9  20  38  60  85 116 155 198 248 305 354
#     4  11  21  36  60  87 118 155 202 253 304 360
#
# _framework density 20.020126999999999
#
# number of rings (size 3 to 8) (size 9 to 14) (size 15 to 20)
#    0.000    1.600    2.000    3.000    0.000    3.200 
#    0.000    5.000    0.000    0.000    0.000    0.000 
#    0.000    0.000    0.000    0.000    0.000    0.000 
#
# Total GULP energy -248010.530049 kJ/mol
# GULP energy per Si atom -12400.526502 kJ/mol
# Density = 1.997456 g / cm^3
# Si number density = 20.020127 Si / 1000 Ang^3
#
#
#
# Elastic Constant Matrix: (Units=GPa)
#
#
# Indices 1 2 3 4 5 6 
#
# 1 97.6722 14.9483 19.9293 0.0000 -7.6397 0.0000
# 2 14.9483 36.8788 21.4966 0.0000 1.4101 0.0000
# 3 19.9293 21.4966 119.2740 0.0000 -3.7482 0.0000
# 4 0.0000 0.0000 0.0000 28.6988 0.0000 1.8410
# 5 -7.6397 1.4101 -3.7482 0.0000 41.6186 0.0000
# 6 0.0000 0.0000 0.0000 1.8410 0.0000 27.7441
#
#
#
# Elastic Compliance Matrix: (Units=1/GPa)
#
#
# Indices 1 2 3 4 5 6 
#
# 1 0.011237 -0.003999 -0.001091 0.000000 0.002100 0.000000
# 2 -0.003999 0.031819 -0.005138 0.000000 -0.002275 0.000000
# 3 -0.001091 -0.005138 0.009518 0.000000 0.000831 0.000000
# 4 0.000000 0.000000 0.000000 0.034994 0.000000 -0.002322
# 5 0.002100 -0.002275 0.000831 0.000000 0.024565 0.000000
# 6 0.000000 0.000000 0.000000 -0.002322 0.000000 0.036198
#
#
# Mechanical properties :
#
#
# Convention : Reuss Voigt Hill
#
# Bulk Modulus (GPa) = 31.13484 40.73038 35.93261
# Shear Modulus (GPa) = 27.85619 32.77568 30.31594
#
# Velocity S-wave (km/s) = 3.73421 4.05054 3.89559
# Velocity P-wave (km/s) = 5.84619 6.50114 6.18234
#
# Compressibility (1/GPa) = 0.03211836
#
# Stress axis : x y z
#
# Youngs Moduli (GPa) = 88.98980 31.42796 105.05925
#
# Poissons Ratio (x) = 0.12569 0.11460
# Poissons Ratio (y) = 0.35590 0.53979
# Poissons Ratio (z) = 0.09707 0.16147
#
# Static dielectric constant tensor:
#      x y z
#    x 3.964660 0.000000 -0.049570 
#    y 0.000000 3.516670 0.000000 
#    z -0.049570 0.000000 4.066970 
# 
# 
# High freq. dielectric constant tensor:
#      x y z
#    x 1.787140 0.000000 -0.002120 
#    y 0.000000 1.765510 0.000000 
#    z -0.002120 0.000000 1.802840 
# 
# From -- ./inp_files/15895.got.cif
#   From: 2010.06.25/outbox.cif.g09.slc.cpg/sg11_8_cif.got.tgz:15895.got - 2010.06.27 23:14:04.
