data_PCOD8075811
_publ_section_title
;
Structure prediction by ZEFSAII (Michael W. Deem and Ramdas Pophale) SiO2 
 PCOD8075811
Probable space group: P 21/M
;
_chemical_formula_sum "Si O2"
_cell_formula_units_Z 32
_cell_length_a 14.722907
_cell_length_b 8.755560
_cell_length_c 15.117143
_cell_angle_alpha 90.000000
_cell_angle_beta 59.354849
_cell_angle_gamma 90.000000
_cell_volume 1676.554384
_symmetry_space_group_name_H-M "P 21/M"
_symmetry_group_IT_number 11
_symmetry_cell_setting 'monoclinic'
loop_
_space_group_symop_operation_xyz
x,y,z
-x,1/2+y,-z
-x,-y,-z
x,1/2-y,z
loop_
_atom_site_type_symbol
_atom_site_label
_atom_site_fract_x
_atom_site_fract_y
_atom_site_fract_z
Si Si1 0.004899 0.431190 0.270788
Si Si2 0.602804 0.429112 0.404573
Si Si3 0.664805 0.930413 0.669455
Si Si4 0.439000 0.068778 0.755882
Si Si5 0.711485 0.568921 0.017832
Si Si6 0.234783 0.431824 0.199570
Si Si7 0.216192 0.929863 0.546558
Si Si8 0.058204 0.429953 0.052861
O O1 0.004523 0.250000 0.272742
O O2 0.900628 0.491580 0.371633
O O3 0.113247 0.491727 0.262488
O O4 0.001978 0.486836 0.170612
O O5 0.500000 0.500000 0.500000
O O6 0.584142 0.250000 0.404830
O O7 0.621521 0.499607 0.298375
O O8 0.705410 0.467550 0.411659
O O9 0.645474 0.750000 0.679258
O O10 0.702685 0.992141 0.746190
O O11 0.559038 0.016257 0.695215
O O12 0.753117 0.974343 0.554753
O O13 0.433874 0.250000 0.751318
O O14 0.383824 0.007520 0.873580
O O15 0.708345 0.750000 0.016666
O O16 0.705659 0.508209 0.919109
O O17 0.820774 0.513651 0.007143
O O18 0.232399 0.250000 0.200475
O O19 0.217893 0.750000 0.524161
O O20 0.052670 0.250000 0.048050
O O21 0.000000 0.500000 0.000000
#
# Coordination Sequence:
#
# PCOD8075811 Si02
#       8
#     4   4   4   4   4   4   4   4
#     4   8  16  33  55  77 104 140 177 211 256 319
#     4  11  22  36  55  78 109 145 179 219 267 316
#     4  11  22  35  55  81 106 137 180 229 271 313
#     4  11  22  36  55  79 108 144 181 220 266 318
#     4   8  17  34  54  77 106 141 178 214 261 318
#     4   8  16  34  57  79 106 139 177 220 267 319
#     4  10  21  36  55  79 107 142 179 214 262 321
#     4   9  17  31  52  77 104 136 173 213 256 309
#
# _framework density 19.086766999999998
#
# number of rings (size 3 to 8) (size 9 to 14) (size 15 to 20)
#    0.000    2.500    1.250    2.625    1.750    1.500 
#    0.000    1.250    0.000    9.000    0.000    0.000 
#    0.000    0.000    0.000    0.000    0.000    0.000 
#
# Total GULP energy -396696.255382 kJ/mol
# GULP energy per Si atom -12396.757981 kJ/mol
# Density = 1.904332 g / cm^3
# Si number density = 19.086767 Si / 1000 Ang^3
#
#
#
# Elastic Constant Matrix: (Units=GPa)
#
#
# Indices 1 2 3 4 5 6 
#
# 1 59.6367 15.9999 40.5307 0.0000 19.8672 0.0000
# 2 15.9999 39.9387 23.5905 0.0000 6.1561 0.0000
# 3 40.5307 23.5905 135.8910 0.0000 3.4300 0.0000
# 4 0.0000 0.0000 0.0000 22.3832 0.0000 5.6687
# 5 19.8672 6.1561 3.4300 0.0000 39.2178 0.0000
# 6 0.0000 0.0000 0.0000 5.6687 0.0000 17.5105
#
#
#
# Elastic Compliance Matrix: (Units=1/GPa)
#
#
# Indices 1 2 3 4 5 6 
#
# 1 0.026777 -0.004802 -0.006844 0.000000 -0.012212 0.000000
# 2 -0.004802 0.029389 -0.003623 0.000000 -0.001864 0.000000
# 3 -0.006844 -0.003623 0.009949 0.000000 0.003166 0.000000
# 4 0.000000 0.000000 0.000000 0.048666 0.000000 -0.015755
# 5 -0.012212 -0.001864 0.003166 0.000000 0.031701 0.000000
# 6 0.000000 0.000000 0.000000 -0.015755 0.000000 0.062209
#
#
# Mechanical properties :
#
#
# Convention : Reuss Voigt Hill
#
# Bulk Modulus (GPa) = 28.10805 43.96762 36.03783
# Shear Modulus (GPa) = 19.91332 26.17865 23.04598
#
# Velocity S-wave (km/s) = 3.23353 3.70748 3.47858
# Velocity P-wave (km/s) = 5.35718 6.43528 5.92082
#
# Compressibility (1/GPa) = 0.03557699
#
# Stress axis : x y z
#
# Youngs Moduli (GPa) = 37.34613 34.02618 100.51000
#
# Poissons Ratio (x) = 0.16339 0.68794
# Poissons Ratio (y) = 0.17933 0.36412
# Poissons Ratio (z) = 0.25562 0.12327
#
# Static dielectric constant tensor:
#      x y z
#    x 3.389660 0.000000 -0.193710 
#    y 0.000000 3.130590 0.000000 
#    z -0.193710 0.000000 3.793740 
# 
# 
# High freq. dielectric constant tensor:
#      x y z
#    x 1.744830 0.000000 0.002200 
#    y 0.000000 1.706390 0.000000 
#    z 0.002200 0.000000 1.755540 
# 
# From -- ./inp_files/51643.got.cif
#   From: 2010.06.25/outbox.cif.g09.slc.cpg/sg11_26_cif.got.tgz:51643.got - 2010.06.27 23:14:04.
