data_PCOD8075667
_publ_section_title
;
Structure prediction by ZEFSAII (Michael W. Deem and Ramdas Pophale) SiO2 
 PCOD8075667
Probable space group: P 21/M
;
_chemical_formula_sum "Si O2"
_cell_formula_units_Z 32
_cell_length_a 12.161734
_cell_length_b 9.123127
_cell_length_c 15.580813
_cell_angle_alpha 90.000000
_cell_angle_beta 102.384032
_cell_angle_gamma 90.000000
_cell_volume 1688.514486
_symmetry_space_group_name_H-M "P 21/M"
_symmetry_group_IT_number 11
_symmetry_cell_setting 'monoclinic'
loop_
_space_group_symop_operation_xyz
x,y,z
-x,1/2+y,-z
-x,-y,-z
x,1/2-y,z
loop_
_atom_site_type_symbol
_atom_site_label
_atom_site_fract_x
_atom_site_fract_y
_atom_site_fract_z
Si Si1 0.997559 0.578450 0.872756
Si Si2 0.826709 0.922146 0.989579
Si Si3 0.563855 0.420207 0.587633
Si Si4 0.471846 0.923502 0.737086
Si Si5 0.430724 0.423038 0.062967
Si Si6 0.801744 0.418196 0.551276
Si Si7 0.229048 0.576674 0.645407
Si Si8 0.003405 0.076817 0.320215
O O1 0.022307 0.750000 0.881993
O O2 0.891010 0.532605 0.912846
O O3 0.968687 0.528220 0.771880
O O4 0.112141 0.499569 0.920788
O O5 0.833021 0.750000 0.005692
O O6 0.698476 0.976307 0.962679
O O7 0.500000 0.500000 0.500000
O O8 0.527854 0.250000 0.581900
O O9 0.539761 0.494164 0.674500
O O10 0.697001 0.437543 0.596985
O O11 0.484519 0.750000 0.723469
O O12 0.520470 0.971166 0.836976
O O13 0.342007 0.976124 0.712296
O O14 0.440910 0.250000 0.051998
O O15 0.500000 0.500000 0.000000
O O16 0.840032 0.250000 0.551625
O O17 0.768025 0.479574 0.452011
O O18 0.906296 0.510467 0.601069
O O19 0.226074 0.750000 0.645957
O O20 0.119859 0.514385 0.676012
O O21 0.007880 0.250000 0.331816
#
# Coordination Sequence:
#
# PCOD8075667 Si02
#       8
#     4   4   4   4   4   4   4   4
#     4   9  19  35  57  83 107 141 187 231 277 334
#     4   9  19  37  55  79 114 144 179 229 285 337
#     4  11  22  38  60  87 118 155 196 240 286 343
#     4  10  21  39  62  85 115 156 193 236 294 345
#     4  10  23  39  61  87 117 154 190 238 295 350
#     4  10  21  37  55  79 116 151 182 228 284 332
#     4   9  18  36  56  79 113 147 184 228 277 335
#     4  10  21  34  57  85 108 142 191 234 271 332
#
# _framework density 18.951568999999999
#
# number of rings (size 3 to 8) (size 9 to 14) (size 15 to 20)
#    0.000    2.250    1.250    0.750    3.500    2.500 
#    0.000    0.625    0.000    0.000    0.000    0.000 
#    0.000    0.000    0.000    0.000    0.000    0.000 
#
# Total GULP energy -396848.485605 kJ/mol
# GULP energy per Si atom -12401.515175 kJ/mol
# Density = 1.890843 g / cm^3
# Si number density = 18.951569 Si / 1000 Ang^3
#
#
#
# Elastic Constant Matrix: (Units=GPa)
#
#
# Indices 1 2 3 4 5 6 
#
# 1 143.6452 36.4037 64.6680 0.0000 8.5365 0.0000
# 2 36.4037 41.6639 38.8003 0.0000 -0.7887 0.0000
# 3 64.6680 38.8003 123.5811 0.0000 3.8653 0.0000
# 4 0.0000 0.0000 0.0000 30.9377 0.0000 1.7721
# 5 8.5365 -0.7887 3.8653 0.0000 33.1727 0.0000
# 6 0.0000 0.0000 0.0000 1.7721 0.0000 31.1378
#
#
#
# Elastic Compliance Matrix: (Units=1/GPa)
#
#
# Indices 1 2 3 4 5 6 
#
# 1 0.010075 -0.005660 -0.003422 0.000000 -0.002328 0.000000
# 2 -0.005660 0.037239 -0.008835 0.000000 0.003371 0.000000
# 3 -0.003422 -0.008835 0.012682 0.000000 -0.000807 0.000000
# 4 0.000000 0.000000 0.000000 0.032429 0.000000 -0.001846
# 5 -0.002328 0.003371 -0.000807 0.000000 0.030919 0.000000
# 6 0.000000 0.000000 0.000000 -0.001846 0.000000 0.032220
#
#
# Mechanical properties :
#
#
# Convention : Reuss Voigt Hill
#
# Bulk Modulus (GPa) = 41.38979 65.40382 53.39681
# Shear Modulus (GPa) = 25.06859 30.31752 27.69306
#
# Velocity S-wave (km/s) = 3.64094 4.00401 3.82678
# Velocity P-wave (km/s) = 6.28987 7.48078 6.91102
#
# Compressibility (1/GPa) = 0.02416055
#
# Stress axis : x y z
#
# Youngs Moduli (GPa) = 99.25505 26.85351 78.85252
#
# Poissons Ratio (x) = 0.15199 0.26985
# Poissons Ratio (y) = 0.56180 0.69669
# Poissons Ratio (z) = 0.33967 0.23726
#
# Static dielectric constant tensor:
#      x y z
#    x 3.712720 0.000000 -0.050720 
#    y 0.000000 3.304200 0.000000 
#    z -0.050720 0.000000 3.587950 
# 
# 
# High freq. dielectric constant tensor:
#      x y z
#    x 1.748970 0.000000 -0.001670 
#    y 0.000000 1.715110 0.000000 
#    z -0.001670 0.000000 1.743750 
# 
# From -- ./inp_files/49407.got.cif
#   From: 2010.06.25/outbox.cif.g09.slc.cpg/sg11_25_cif.got.tgz:49407.got - 2010.06.27 23:14:04.
