data_PCOD8075928
_publ_section_title
;
Structure prediction by ZEFSAII (Michael W. Deem and Ramdas Pophale) SiO2 
 PCOD8075928
Probable space group: P 21/M
;
_chemical_formula_sum "Si O2"
_cell_formula_units_Z 28
_cell_length_a 22.676819
_cell_length_b 8.742415
_cell_length_c 15.107137
_cell_angle_alpha 90.000000
_cell_angle_beta 152.754564
_cell_angle_gamma 90.000000
_cell_volume 1371.116782
_symmetry_space_group_name_H-M "P 21/M"
_symmetry_group_IT_number 11
_symmetry_cell_setting 'monoclinic'
loop_
_space_group_symop_operation_xyz
x,y,z
-x,1/2+y,-z
-x,-y,-z
x,1/2-y,z
loop_
_atom_site_type_symbol
_atom_site_label
_atom_site_fract_x
_atom_site_fract_y
_atom_site_fract_z
Si Si1 0.481232 0.427453 0.344895
Si Si2 0.956856 0.425685 0.351360
Si Si3 0.635688 0.070033 0.158446
Si Si4 0.702989 0.571546 0.740965
Si Si5 0.114543 0.931055 0.407110
Si Si6 0.973326 0.430670 0.059833
Si Si7 0.666468 0.423900 0.001117
O O1 0.516561 0.250000 0.397979
O O2 0.610244 0.522769 0.536715
O O3 0.368223 0.471219 0.262725
O O4 0.434962 0.469497 0.185038
O O5 0.003899 0.250000 0.410637
O O6 0.803903 0.436342 0.137981
O O7 0.000000 0.500000 0.500000
O O8 0.011310 0.520886 0.342577
O O9 0.623950 0.250000 0.147047
O O10 0.743903 0.014550 0.372319
O O11 0.677993 0.016782 0.117068
O O12 0.500000 0.000000 0.000000
O O13 0.734691 0.750000 0.775973
O O14 0.835315 0.479523 0.913611
O O15 0.106706 0.750000 0.384201
O O16 0.084794 0.011787 0.274566
O O17 0.979700 0.250000 0.061559
O O18 0.000000 0.500000 0.000000
O O19 0.615628 0.250000 0.930402
#
# Coordination Sequence:
#
# PCOD8075928 Si02
#       7
#     4   4   4   4   4   4   4
#     4  10  21  36  60  93 124 158 201 252 309 368
#     4  11  21  36  61  92 126 163 204 255 312 373
#     4  10  23  42  61  84 118 160 202 248 298 358
#     4  10  21  40  63  89 123 162 202 254 311 367
#     4  11  23  43  65  91 127 163 204 260 313 368
#     4  12  26  44  66  93 123 163 211 260 313 373
#     4  10  21  38  57  85 123 161 199 247 307 366
#
# _framework density 20.421308
#
# number of rings (size 3 to 8) (size 9 to 14) (size 15 to 20)
#    0.000    1.429    1.429    3.857    0.000    8.000 
#    0.000    2.857    0.000    0.000    0.000    0.000 
#    0.000    0.000    0.000    0.000    0.000    0.000 
#
# Total GULP energy -347337.428033 kJ/mol
# GULP energy per Si atom -12404.908144 kJ/mol
# Density = 2.037483 g / cm^3
# Si number density = 20.421308 Si / 1000 Ang^3
#
#
#
# Elastic Constant Matrix: (Units=GPa)
#
#
# Indices 1 2 3 4 5 6 
#
# 1 96.2592 39.2626 62.8095 0.0000 -11.9454 0.0000
# 2 39.2626 96.7631 53.6682 0.0000 -7.9950 0.0000
# 3 62.8095 53.6682 146.8013 0.0000 -16.9648 0.0000
# 4 0.0000 0.0000 0.0000 39.3879 0.0000 -0.4606
# 5 -11.9454 -7.9950 -16.9648 0.0000 40.8062 0.0000
# 6 0.0000 0.0000 0.0000 -0.4606 0.0000 36.4690
#
#
#
# Elastic Compliance Matrix: (Units=1/GPa)
#
#
# Indices 1 2 3 4 5 6 
#
# 1 0.015276 -0.003188 -0.005174 0.000000 0.001696 0.000000
# 2 -0.003188 0.013642 -0.003595 0.000000 0.000245 0.000000
# 3 -0.005174 -0.003595 0.010592 0.000000 0.002185 0.000000
# 4 0.000000 0.000000 0.000000 0.025392 0.000000 0.000321
# 5 0.001696 0.000245 0.002185 0.000000 0.025959 0.000000
# 6 0.000000 0.000000 0.000000 0.000321 0.000000 0.027425
#
#
# Mechanical properties :
#
#
# Convention : Reuss Voigt Hill
#
# Bulk Modulus (GPa) = 64.12095 72.36714 68.24404
# Shear Modulus (GPa) = 33.92135 35.60483 34.76309
#
# Velocity S-wave (km/s) = 4.08005 4.18007 4.13036
# Velocity P-wave (km/s) = 7.32550 7.66885 7.49914
#
# Compressibility (1/GPa) = 0.01559553
#
# Stress axis : x y z
#
# Youngs Moduli (GPa) = 65.46328 73.30107 94.40685
#
# Poissons Ratio (x) = 0.23371 0.48848
# Poissons Ratio (y) = 0.20872 0.33939
# Poissons Ratio (z) = 0.33872 0.26351
#
# Static dielectric constant tensor:
#      x y z
#    x 3.666720 0.000000 -0.085300 
#    y 0.000000 3.739330 0.000000 
#    z -0.085300 0.000000 3.829690 
# 
# 
# High freq. dielectric constant tensor:
#      x y z
#    x 1.792350 0.000000 -0.008500 
#    y 0.000000 1.803420 0.000000 
#    z -0.008500 0.000000 1.810340 
# 
# From -- ./inp_files/54617.got.cif
#   From: 2010.06.25/outbox.cif.g09.slc.cpg/sg11_28_cif.got.tgz:54617.got - 2010.06.27 23:14:04.
