data_PCOD8075963
_publ_section_title
;
Structure prediction by ZEFSAII (Michael W. Deem and Ramdas Pophale) SiO2 
 PCOD8075963
Probable space group: P 21/M
;
_chemical_formula_sum "Si O2"
_cell_formula_units_Z 32
_cell_length_a 22.268897
_cell_length_b 8.878050
_cell_length_c 28.243670
_cell_angle_alpha 90.000000
_cell_angle_beta 18.431107
_cell_angle_gamma 90.000000
_cell_volume 1765.428163
_symmetry_space_group_name_H-M "P 21/M"
_symmetry_group_IT_number 11
_symmetry_cell_setting 'monoclinic'
loop_
_space_group_symop_operation_xyz
x,y,z
-x,1/2+y,-z
-x,-y,-z
x,1/2-y,z
loop_
_atom_site_type_symbol
_atom_site_label
_atom_site_fract_x
_atom_site_fract_y
_atom_site_fract_z
Si Si1 0.006340 0.571446 0.546266
Si Si2 0.016517 0.073370 0.791446
Si Si3 0.977751 0.574894 0.067128
Si Si4 0.702255 0.575308 0.848222
Si Si5 0.994467 0.426031 0.300593
Si Si6 0.697428 0.420604 0.102374
Si Si7 0.299225 0.572696 0.402540
Si Si8 0.293630 0.570722 0.655460
O O1 0.007934 0.750000 0.540136
O O2 0.823349 0.516337 0.712856
O O3 0.000000 0.500000 0.500000
O O4 0.194343 0.513455 0.433513
O O5 0.062517 0.250000 0.762661
O O6 0.996277 0.028355 0.752449
O O7 0.819056 0.034340 0.965294
O O8 0.185995 0.979736 0.688395
O O9 0.922303 0.750000 0.103961
O O10 0.811953 0.490108 0.219090
O O11 0.000000 0.500000 0.000000
O O12 0.176927 0.555540 0.944952
O O13 0.667570 0.750000 0.868187
O O14 0.814634 0.541915 0.812621
O O15 0.500000 0.500000 0.000000
O O16 0.978889 0.250000 0.298653
O O17 0.812511 0.481945 0.466995
O O18 0.625199 0.250000 0.152584
O O19 0.516267 0.525836 0.241469
O O20 0.284392 0.750000 0.413156
O O21 0.500000 0.500000 0.500000
O O22 0.305580 0.750000 0.648641
#
# Coordination Sequence:
#
# PCOD8075963 Si02
#       8
#     4   4   4   4   4   4   4   4
#     4   9  19  35  52  74 103 135 170 213 259 308
#     4  10  21  37  55  79 109 139 174 218 264 316
#     4  10  21  38  57  81 112 145 181 222 268 320
#     4   9  19  35  53  74 104 137 174 218 264 314
#     4   9  19  36  54  75 104 139 176 217 263 314
#     4   9  20  36  53  76 107 137 170 213 259 306
#     4   9  19  35  54  75 102 135 174 214 256 308
#     4  11  22  38  59  82 109 143 181 223 269 320
#
# _framework density 18.125914000000002
#
# number of rings (size 3 to 8) (size 9 to 14) (size 15 to 20)
#    0.000    2.500    0.000    4.125    0.000    7.000 
#    0.000   10.000    0.000    0.000    0.000    0.000 
#    0.000    0.000    0.000    0.000    0.000    0.000 
#
# Total GULP energy -396787.866605 kJ/mol
# GULP energy per Si atom -12399.620831 kJ/mol
# Density = 1.808466 g / cm^3
# Si number density = 18.125914 Si / 1000 Ang^3
#
#
#
# Elastic Constant Matrix: (Units=GPa)
#
#
# Indices 1 2 3 4 5 6 
#
# 1 125.5237 46.7973 64.1860 0.0000 18.0695 0.0000
# 2 46.7973 81.1154 47.1013 0.0000 1.4199 0.0000
# 3 64.1860 47.1013 124.4268 0.0000 -7.5807 0.0000
# 4 0.0000 0.0000 0.0000 36.0379 0.0000 -0.3353
# 5 18.0695 1.4199 -7.5807 0.0000 22.2023 0.0000
# 6 0.0000 0.0000 0.0000 -0.3353 0.0000 35.7725
#
#
#
# Elastic Compliance Matrix: (Units=1/GPa)
#
#
# Indices 1 2 3 4 5 6 
#
# 1 0.015407 -0.004482 -0.007146 0.000000 -0.014692 0.000000
# 2 -0.004482 0.017319 -0.004176 0.000000 0.001114 0.000000
# 3 -0.007146 -0.004176 0.013965 0.000000 0.010851 0.000000
# 4 0.000000 0.000000 0.000000 0.027751 0.000000 0.000260
# 5 -0.014692 0.001114 0.010851 0.000000 0.060631 0.000000
# 6 0.000000 0.000000 0.000000 0.000260 0.000000 0.027957
#
#
# Mechanical properties :
#
#
# Convention : Reuss Voigt Hill
#
# Bulk Modulus (GPa) = 66.30093 71.91502 69.10798
# Shear Modulus (GPa) = 25.04174 30.33462 27.68818
#
# Velocity S-wave (km/s) = 3.72094 4.09534 3.91262
# Velocity P-wave (km/s) = 7.42415 7.88187 7.65643
#
# Compressibility (1/GPa) = 0.01508274
#
# Stress axis : x y z
#
# Youngs Moduli (GPa) = 64.90724 57.73895 71.60604
#
# Poissons Ratio (x) = 0.25877 0.51171
# Poissons Ratio (y) = 0.29089 0.29906
# Poissons Ratio (z) = 0.46384 0.24114
#
# Static dielectric constant tensor:
#      x y z
#    x 3.452580 0.000000 0.121610 
#    y 0.000000 3.292130 0.000000 
#    z 0.121610 0.000000 3.147800 
# 
# 
# High freq. dielectric constant tensor:
#      x y z
#    x 1.707620 0.000000 0.001850 
#    y 0.000000 1.702060 0.000000 
#    z 0.001850 0.000000 1.706450 
# 
# From -- ./inp_files/67159.got.cif
#   From: 2010.06.25/outbox.cif.g09.slc.cpg/sg11_34_cif.got.tgz:67159.got - 2010.06.27 23:14:04.
