data_PCOD8075786
_publ_section_title
;
Structure prediction by ZEFSAII (Michael W. Deem and Ramdas Pophale) SiO2 
 PCOD8075786
Probable space group: P 21/M
;
_chemical_formula_sum "Si O2"
_cell_formula_units_Z 24
_cell_length_a 11.426533
_cell_length_b 13.870983
_cell_length_c 13.291561
_cell_angle_alpha 90.000000
_cell_angle_beta 34.532698
_cell_angle_gamma 90.000000
_cell_volume 1194.224927
_symmetry_space_group_name_H-M "P 21/M"
_symmetry_group_IT_number 11
_symmetry_cell_setting 'monoclinic'
loop_
_space_group_symop_operation_xyz
x,y,z
-x,1/2+y,-z
-x,-y,-z
x,1/2-y,z
loop_
_atom_site_type_symbol
_atom_site_label
_atom_site_fract_x
_atom_site_fract_y
_atom_site_fract_z
Si Si1 0.978057 0.362687 0.287547
Si Si2 0.387572 0.864304 0.931662
Si Si3 0.152611 0.135970 0.372943
Si Si4 0.744696 0.364043 0.756899
Si Si5 0.453904 0.862031 0.307262
Si Si6 0.156732 0.019101 0.977568
O O1 0.012075 0.250000 0.239713
O O2 0.739395 0.383465 0.483579
O O3 0.121863 0.396282 0.278951
O O4 0.039341 0.423351 0.147484
O O5 0.356213 0.750000 0.942455
O O6 0.334498 0.902305 0.080857
O O7 0.238599 0.915964 0.958410
O O8 0.624677 0.895758 0.743321
O O9 0.129864 0.250000 0.390044
O O10 0.973021 0.092210 0.571809
O O11 0.757407 0.250000 0.749567
O O12 0.592098 0.395694 0.775105
O O13 0.509637 0.750000 0.270473
O O14 0.652659 0.920692 0.203233
O O15 0.000000 0.000000 0.000000
#
# Coordination Sequence:
#
# PCOD8075786 Si02
#       6
#     4   4   4   4   4   4
#     4   9  19  38  63  87 110 138 176 228 287 337
#     4  10  21  36  53  78 114 150 180 219 277 334
#     4   8  15  31  57  86 111 135 170 222 284 344
#     4   8  15  31  57  86 111 135 170 222 284 344
#     4   9  19  38  63  87 110 138 176 228 287 337
#     4  12  26  38  53  78 112 153 199 235 258 305
#
# _framework density 20.096716000000001
#
# number of rings (size 3 to 8) (size 9 to 14) (size 15 to 20)
#    0.000    2.667    0.000    3.500    0.000    8.667 
#    0.000    3.333    0.000    4.000    0.000    0.000 
#    0.000    0.000    0.000    0.000    0.000    0.000 
#
# Total GULP energy -297552.106643 kJ/mol
# GULP energy per Si atom -12398.004443 kJ/mol
# Density = 2.005098 g / cm^3
# Si number density = 20.096716 Si / 1000 Ang^3
#
#
#
# Elastic Constant Matrix: (Units=GPa)
#
#
# Indices 1 2 3 4 5 6 
#
# 1 116.2004 34.5808 52.8928 0.0000 -29.5859 0.0000
# 2 34.5808 61.6393 33.1543 0.0000 -16.0468 0.0000
# 3 52.8928 33.1543 101.2661 0.0000 -21.1227 0.0000
# 4 0.0000 0.0000 0.0000 -9.2988 0.0000 -20.2754
# 5 -29.5859 -16.0468 -21.1227 0.0000 22.6988 0.0000
# 6 0.0000 0.0000 0.0000 -20.2754 0.0000 22.9511
#
#
#
# Elastic Compliance Matrix: (Units=1/GPa)
#
#
# Indices 1 2 3 4 5 6 
#
# 1 0.014626 -0.002532 -0.003980 0.000000 0.013570 0.000000
# 2 -0.002532 0.022071 -0.004141 0.000000 0.008449 0.000000
# 3 -0.003980 -0.004141 0.014415 0.000000 0.005299 0.000000
# 4 0.000000 0.000000 0.000000 -0.036751 0.000000 -0.032466
# 5 0.013570 0.008449 0.005299 0.000000 0.072647 0.000000
# 6 0.000000 0.000000 0.000000 -0.032466 0.000000 0.014890
#
#
# Mechanical properties :
#
#
# Convention : Reuss Voigt Hill
#
# Bulk Modulus (GPa) = 33.55051 57.81796 45.68424
# Shear Modulus (GPa) = 37.55474 17.83541 27.69507
#
# Velocity S-wave (km/s) = 4.32754 2.98229 3.71629
# Velocity P-wave (km/s) = 6.45762 6.37895 6.41841
#
# Compressibility (1/GPa) = 0.02980580
#
# Stress axis : x y z
#
# Youngs Moduli (GPa) = 68.37117 45.30853 69.37313
#
# Poissons Ratio (x) = 0.11472 0.27610
# Poissons Ratio (y) = 0.17312 0.28728
# Poissons Ratio (z) = 0.27211 0.18763
#
# Static dielectric constant tensor:
#      x y z
#    x 3.292920 0.000000 0.009810 
#    y 0.000000 3.549240 0.000000 
#    z 0.009810 0.000000 4.275920 
# 
# 
# High freq. dielectric constant tensor:
#      x y z
#    x 1.739420 0.000000 -0.006250 
#    y 0.000000 1.793170 0.000000 
#    z -0.006250 0.000000 1.802030 
# 
# From -- ./inp_files/39555.got.cif
#   From: 2010.06.25/outbox.cif.g09.slc.cpg/sg11_20_cif.got.tgz:39555.got - 2010.06.27 23:14:04.
