data_PCOD8075210
_publ_section_title
;
Structure prediction by ZEFSAII (Michael W. Deem and Ramdas Pophale) SiO2 
 PCOD8075210
Probable space group: P 21/M
;
_chemical_formula_sum "Si O2"
_cell_formula_units_Z 28
_cell_length_a 29.087718
_cell_length_b 8.847113
_cell_length_c 9.698621
_cell_angle_alpha 90.000000
_cell_angle_beta 33.796059
_cell_angle_gamma 90.000000
_cell_volume 1388.296488
_symmetry_space_group_name_H-M "P 21/M"
_symmetry_group_IT_number 11
_symmetry_cell_setting 'monoclinic'
loop_
_space_group_symop_operation_xyz
x,y,z
-x,1/2+y,-z
-x,-y,-z
x,1/2-y,z
loop_
_atom_site_type_symbol
_atom_site_label
_atom_site_fract_x
_atom_site_fract_y
_atom_site_fract_z
Si Si1 0.690993 0.074632 0.493628
Si Si2 0.379880 0.423356 0.069764
Si Si3 0.136235 0.428160 0.307365
Si Si4 0.860713 0.926876 0.010119
Si Si5 0.684840 0.578010 0.068889
Si Si6 0.994576 0.070500 0.862879
Si Si7 0.435452 0.574755 0.427740
O O1 0.716787 0.250000 0.423360
O O2 0.613054 0.038974 0.591350
O O3 0.765215 0.971004 0.256184
O O4 0.666950 0.029976 0.707228
O O5 0.383468 0.250000 0.114332
O O6 0.326215 0.434559 0.066197
O O7 0.471908 0.489319 0.817720
O O8 0.141647 0.250000 0.314996
O O9 0.069799 0.493434 0.581536
O O10 0.107880 0.467915 0.222396
O O11 0.226940 0.498238 0.111967
O O12 0.871088 0.750000 0.015636
O O13 0.909947 0.021505 0.000989
O O14 0.684025 0.750000 0.121984
O O15 0.608780 0.497591 0.331420
O O16 0.996746 0.250000 0.870592
O O17 0.000000 0.000000 0.000000
O O18 0.440412 0.750000 0.448465
#
# Coordination Sequence:
#
# PCOD8075210 Si02
#       7
#     4   4   4   4   4   4   4
#     4  11  23  38  58  87 122 158 202 252 301 355
#     4  10  22  37  58  86 121 162 203 248 304 361
#     4   9  20  39  63  89 119 156 201 247 293 355
#     4  11  22  41  66  89 117 158 203 246 301 359
#     4  10  20  37  61  88 116 157 204 246 296 357
#     4  11  24  42  64  95 129 158 196 244 297 356
#     4  10  21  38  57  86 122 158 201 253 304 355
#
# _framework density 20.168603999999998
#
# number of rings (size 3 to 8) (size 9 to 14) (size 15 to 20)
#    0.000    1.714    1.429    2.571    2.000    1.714 
#    0.000    3.571    0.000    0.000    0.000    0.000 
#    0.000    0.000    0.000    0.000    0.000    0.000 
#
# Total GULP energy -347304.615643 kJ/mol
# GULP energy per Si atom -12403.736273 kJ/mol
# Density = 2.012270 g / cm^3
# Si number density = 20.168604 Si / 1000 Ang^3
#
#
#
# Elastic Constant Matrix: (Units=GPa)
#
#
# Indices 1 2 3 4 5 6 
#
# 1 105.6256 33.5350 34.4081 0.0000 4.9009 0.0000
# 2 33.5350 51.0650 33.9896 0.0000 6.8175 0.0000
# 3 34.4081 33.9896 104.3286 0.0000 10.9410 0.0000
# 4 0.0000 0.0000 0.0000 27.4414 0.0000 -1.2241
# 5 4.9009 6.8175 10.9410 0.0000 34.3477 0.0000
# 6 0.0000 0.0000 0.0000 -1.2241 0.0000 26.1541
#
#
#
# Elastic Compliance Matrix: (Units=1/GPa)
#
#
# Indices 1 2 3 4 5 6 
#
# 1 0.012224 -0.006840 -0.001824 0.000000 0.000194 0.000000
# 2 -0.006840 0.029033 -0.006933 0.000000 -0.002578 0.000000
# 3 -0.001824 -0.006933 0.012698 0.000000 -0.002408 0.000000
# 4 0.000000 0.000000 0.000000 0.036517 0.000000 0.001709
# 5 0.000194 -0.002578 -0.002408 0.000000 0.030365 0.000000
# 6 0.000000 0.000000 0.000000 0.001709 0.000000 0.038315
#
#
# Mechanical properties :
#
#
# Convention : Reuss Voigt Hill
#
# Bulk Modulus (GPa) = 43.93088 51.65383 47.79236
# Shear Modulus (GPa) = 25.26114 28.19443 26.72779
#
# Velocity S-wave (km/s) = 3.54290 3.74296 3.64430
# Velocity P-wave (km/s) = 6.21010 6.65930 6.43862
#
# Compressibility (1/GPa) = 0.02276303
#
# Stress axis : x y z
#
# Youngs Moduli (GPa) = 81.80648 34.44307 78.75423
#
# Poissons Ratio (x) = 0.23558 0.14361
# Poissons Ratio (y) = 0.55954 0.54598
# Poissons Ratio (z) = 0.14918 0.23878
#
# Static dielectric constant tensor:
#      x y z
#    x 3.720650 0.000000 -0.098690 
#    y 0.000000 3.497140 0.000000 
#    z -0.098690 0.000000 3.832130 
# 
# 
# High freq. dielectric constant tensor:
#      x y z
#    x 1.800030 0.000000 -0.000850 
#    y 0.000000 1.769470 0.000000 
#    z -0.000850 0.000000 1.796900 
# 
# From -- ./inp_files/28267.got.cif
#   From: 2010.06.25/outbox.cif.g09.slc.cpg/sg11_15_cif.got.tgz:28267.got - 2010.06.27 23:14:04.
