data_PCOD8075604
_publ_section_title
;
Structure prediction by ZEFSAII (Michael W. Deem and Ramdas Pophale) SiO2 
 PCOD8075604
Probable space group: P 21/M
;
_chemical_formula_sum "Si O2"
_cell_formula_units_Z 32
_cell_length_a 13.383773
_cell_length_b 13.356454
_cell_length_c 19.528959
_cell_angle_alpha 90.000000
_cell_angle_beta 24.819345
_cell_angle_gamma 90.000000
_cell_volume 1465.373673
_symmetry_space_group_name_H-M "P 21/M"
_symmetry_group_IT_number 11
_symmetry_cell_setting 'monoclinic'
loop_
_space_group_symop_operation_xyz
x,y,z
-x,1/2+y,-z
-x,-y,-z
x,1/2-y,z
loop_
_atom_site_type_symbol
_atom_site_label
_atom_site_fract_x
_atom_site_fract_y
_atom_site_fract_z
Si Si1 0.875313 0.057180 0.942570
Si Si2 0.142930 0.869759 0.597320
Si Si3 0.825106 0.364541 0.575296
Si Si4 0.046675 0.366408 0.572464
Si Si5 0.400865 0.863740 0.758275
Si Si6 0.716014 0.639739 0.098435
Si Si7 0.654249 0.559350 0.284298
Si Si8 0.765256 0.019244 0.861810
O O1 0.154505 0.088112 0.775619
O O2 0.768877 0.074924 0.933173
O O3 0.715691 0.119750 0.094915
O O4 0.877081 0.939871 0.959883
O O5 0.143131 0.750000 0.602496
O O6 0.122733 0.912847 0.531648
O O7 0.389040 0.913732 0.476142
O O8 0.913008 0.915021 0.778767
O O9 0.904649 0.250000 0.518019
O O10 0.548962 0.374239 0.765689
O O11 0.969235 0.415855 0.547909
O O12 0.983920 0.250000 0.609534
O O13 0.322673 0.387503 0.408140
O O14 0.900679 0.409252 0.726107
O O15 0.350445 0.750000 0.765231
O O16 0.305562 0.942438 0.761548
O O17 0.815728 0.750000 0.019791
O O18 0.714788 0.627182 0.181025
O O19 0.500000 0.000000 0.000000
#
# Coordination Sequence:
#
# PCOD8075604 Si02
#       8
#     4   4   4   4   4   4   4   4
#     4  11  25  38  60  95 132 165 204 258 316 374
#     4  10  22  42  66  92 123 165 213 260 313 376
#     4   8  16  32  61  90 113 155 210 257 299 356
#     4  10  21  40  63  88 125 168 209 255 310 377
#     4  10  21  39  65  96 126 163 210 260 315 377
#     4   9  17  34  60  92 123 157 207 260 309 361
#     4  10  20  40  64  92 127 161 209 268 310 365
#     4  12  27  43  61  93 131 170 207 260 320 377
#
# _framework density 21.837433999999998
#
# number of rings (size 3 to 8) (size 9 to 14) (size 15 to 20)
#    0.000    2.000    1.250    3.375    1.750    5.000 
#    0.000    0.000    0.000    0.000    0.000    0.000 
#    0.000    0.000    0.000    0.000    0.000    0.000 
#
# Total GULP energy -396711.275750 kJ/mol
# GULP energy per Si atom -12397.227367 kJ/mol
# Density = 2.178773 g / cm^3
# Si number density = 21.837434 Si / 1000 Ang^3
#
#
#
# Elastic Constant Matrix: (Units=GPa)
#
#
# Indices 1 2 3 4 5 6 
#
# 1 100.5214 -4.0730 41.3252 0.0000 -23.2217 0.0000
# 2 -4.0730 64.4175 19.1666 0.0000 2.2616 0.0000
# 3 41.3252 19.1666 116.2786 0.0000 -17.0319 0.0000
# 4 0.0000 0.0000 0.0000 19.9947 0.0000 -1.9474
# 5 -23.2217 2.2616 -17.0319 0.0000 17.0996 0.0000
# 6 0.0000 0.0000 0.0000 -1.9474 0.0000 14.8449
#
#
#
# Elastic Compliance Matrix: (Units=1/GPa)
#
#
# Indices 1 2 3 4 5 6 
#
# 1 0.015327 0.001269 -0.003082 0.000000 0.017577 0.000000
# 2 0.001269 0.016912 -0.003880 0.000000 -0.004378 0.000000
# 3 -0.003082 -0.003880 0.011470 0.000000 0.007753 0.000000
# 4 0.000000 0.000000 0.000000 0.050661 0.000000 0.006646
# 5 0.017577 -0.004378 0.007753 0.000000 0.090653 0.000000
# 6 0.000000 0.000000 0.000000 0.006646 0.000000 0.068235
#
#
# Mechanical properties :
#
#
# Convention : Reuss Voigt Hill
#
# Bulk Modulus (GPa) = 30.93670 43.78388 37.36029
# Shear Modulus (GPa) = 18.15422 25.37443 21.76432
#
# Velocity S-wave (km/s) = 2.88642 3.41247 3.16040
# Velocity P-wave (km/s) = 5.03052 5.96825 5.51933
#
# Compressibility (1/GPa) = 0.03232407
#
# Stress axis : x y z
#
# Youngs Moduli (GPa) = 65.24426 59.12926 87.18048
#
# Poissons Ratio (x) = -0.07503 0.26867
# Poissons Ratio (y) = -0.08279 0.33825
# Poissons Ratio (z) = 0.20107 0.22942
#
# Static dielectric constant tensor:
#      x y z
#    x 3.951000 0.000000 -0.178710 
#    y 0.000000 3.993850 0.000000 
#    z -0.178710 0.000000 3.880030 
# 
# 
# High freq. dielectric constant tensor:
#      x y z
#    x 1.848590 0.000000 -0.021070 
#    y 0.000000 1.863120 0.000000 
#    z -0.021070 0.000000 1.848150 
# 
# From -- ./inp_files/65727.got.cif
#   From: 2010.06.25/outbox.cif.g09.slc.cpg/sg11_33_cif.got.tgz:65727.got - 2010.06.27 23:14:04.
