data_PCOD8075002
_publ_section_title
;
Structure prediction by ZEFSAII (Michael W. Deem and Ramdas Pophale) SiO2 
 PCOD8075002
Probable space group: P 21/M
;
_chemical_formula_sum "Si O2"
_cell_formula_units_Z 32
_cell_length_a 10.081344
_cell_length_b 8.848104
_cell_length_c 23.981735
_cell_angle_alpha 90.000000
_cell_angle_beta 50.819069
_cell_angle_gamma 90.000000
_cell_volume 1658.202978
_symmetry_space_group_name_H-M "P 21/M"
_symmetry_group_IT_number 11
_symmetry_cell_setting 'monoclinic'
loop_
_space_group_symop_operation_xyz
x,y,z
-x,1/2+y,-z
-x,-y,-z
x,1/2-y,z
loop_
_atom_site_type_symbol
_atom_site_label
_atom_site_fract_x
_atom_site_fract_y
_atom_site_fract_z
Si Si1 0.260668 0.572081 0.923766
Si Si2 0.804887 0.573891 0.659099
Si Si3 0.170873 0.428947 0.563283
Si Si4 0.949109 0.428434 0.802555
Si Si5 0.743889 0.429412 0.346434
Si Si6 0.005131 0.428032 0.913346
Si Si7 0.648383 0.925603 0.820159
Si Si8 0.618237 0.928694 0.598524
O O1 0.254431 0.750000 0.916823
O O2 0.454722 0.517016 0.879600
O O3 0.180305 0.499714 0.889522
O O4 0.154696 0.519051 0.006206
O O5 0.853676 0.750000 0.639254
O O6 0.699826 0.544490 0.742900
O O7 0.688427 0.513974 0.639111
O O8 0.973948 0.474739 0.615043
O O9 0.186254 0.250000 0.566161
O O10 0.269699 0.508448 0.587506
O O11 0.259285 0.488533 0.483231
O O12 0.970289 0.250000 0.791676
O O13 0.972546 0.485342 0.859513
O O14 0.761774 0.476399 0.832039
O O15 0.087845 0.507812 0.727220
O O16 0.757620 0.250000 0.344994
O O17 0.575848 0.486771 0.358108
O O18 0.025665 0.250000 0.909863
O O19 0.668784 0.750000 0.830355
O O20 0.617207 0.750000 0.597267
#
# Coordination Sequence:
#
# PCOD8075002 Si02
#       8
#     4   4   4   4   4   4   4   4
#     4   9  19  37  61  88 115 148 188 227 270 327
#     4  10  20  37  57  81 112 146 185 231 276 325
#     4  11  21  37  58  82 113 147 182 227 282 340
#     4  11  23  38  56  81 116 152 184 229 280 330
#     4  11  22  38  59  82 109 146 189 234 278 330
#     4   9  20  38  58  85 120 151 182 226 278 326
#     4  10  21  36  58  84 112 148 190 231 272 325
#     4   9  21  37  57  83 110 143 187 233 280 331
#
# _framework density 19.297999000000001
#
# number of rings (size 3 to 8) (size 9 to 14) (size 15 to 20)
#    0.000    2.000    1.250    1.875    1.750    2.000 
#    0.000    3.750    0.000    0.000    0.000    0.000 
#    0.000    0.000    0.000    0.000    0.000    0.000 
#
# Total GULP energy -396907.074371 kJ/mol
# GULP energy per Si atom -12403.346074 kJ/mol
# Density = 1.925408 g / cm^3
# Si number density = 19.297999 Si / 1000 Ang^3
#
#
#
# Elastic Constant Matrix: (Units=GPa)
#
#
# Indices 1 2 3 4 5 6 
#
# 1 98.0489 28.0658 25.8420 0.0000 8.8162 0.0000
# 2 28.0658 45.8898 18.9540 0.0000 3.3388 0.0000
# 3 25.8420 18.9540 66.9672 0.0000 5.2262 0.0000
# 4 0.0000 0.0000 0.0000 19.6625 0.0000 3.0710
# 5 8.8162 3.3388 5.2262 0.0000 43.0669 0.0000
# 6 0.0000 0.0000 0.0000 3.0710 0.0000 23.3049
#
#
#
# Elastic Compliance Matrix: (Units=1/GPa)
#
#
# Indices 1 2 3 4 5 6 
#
# 1 0.013047 -0.006599 -0.003027 0.000000 -0.001792 0.000000
# 2 -0.006599 0.028063 -0.005383 0.000000 -0.000172 0.000000
# 3 -0.003027 -0.005383 0.017711 0.000000 -0.001112 0.000000
# 4 0.000000 0.000000 0.000000 0.051927 0.000000 -0.006843
# 5 -0.001792 -0.000172 -0.001112 0.000000 0.023735 0.000000
# 6 0.000000 0.000000 0.000000 -0.006843 0.000000 0.043811
#
#
# Mechanical properties :
#
#
# Convention : Reuss Voigt Hill
#
# Bulk Modulus (GPa) = 34.71828 39.62550 37.17189
# Shear Modulus (GPa) = 22.94500 26.40978 24.67739
#
# Velocity S-wave (km/s) = 3.45190 3.70337 3.57985
# Velocity P-wave (km/s) = 5.82385 6.23415 6.03249
#
# Compressibility (1/GPa) = 0.02880327
#
# Stress axis : x y z
#
# Youngs Moduli (GPa) = 76.64733 35.63429 56.46142
#
# Poissons Ratio (x) = 0.23514 0.17092
# Poissons Ratio (y) = 0.50577 0.30393
# Poissons Ratio (z) = 0.23202 0.19182
#
# Static dielectric constant tensor:
#      x y z
#    x 3.844890 0.000000 0.091980 
#    y 0.000000 3.344720 0.000000 
#    z 0.091980 0.000000 3.703060 
# 
# 
# High freq. dielectric constant tensor:
#      x y z
#    x 1.765530 0.000000 0.001090 
#    y 0.000000 1.736000 0.000000 
#    z 0.001090 0.000000 1.756980 
# 
# From -- ./inp_files/67841.got.cif
#   From: 2010.06.25/outbox.cif.g09.slc.cpg/sg11_34_cif.got.tgz:67841.got - 2010.06.27 23:14:04.
