data_PCOD8075745
_publ_section_title
;
Structure prediction by ZEFSAII (Michael W. Deem and Ramdas Pophale) SiO2 
 PCOD8075745
Probable space group: P 21/M
;
_chemical_formula_sum "Si O2"
_cell_formula_units_Z 24
_cell_length_a 9.939646
_cell_length_b 18.067587
_cell_length_c 10.039809
_cell_angle_alpha 90.000000
_cell_angle_beta 43.126071
_cell_angle_gamma 90.000000
_cell_volume 1232.543778
_symmetry_space_group_name_H-M "P 21/M"
_symmetry_group_IT_number 11
_symmetry_cell_setting 'monoclinic'
loop_
_space_group_symop_operation_xyz
x,y,z
-x,1/2+y,-z
-x,-y,-z
x,1/2-y,z
loop_
_atom_site_type_symbol
_atom_site_label
_atom_site_fract_x
_atom_site_fract_y
_atom_site_fract_z
Si Si1 0.518572 0.047014 0.276320
Si Si2 0.455315 0.891353 0.457141
Si Si3 0.068772 0.561519 0.148994
Si Si4 0.017809 0.892504 0.729546
Si Si5 0.852480 0.668271 0.106066
Si Si6 0.901676 0.923314 0.535035
O O1 0.542159 0.100181 0.385340
O O2 0.328030 0.068564 0.329663
O O3 0.511956 0.964142 0.333972
O O4 0.699695 0.056997 0.043996
O O5 0.241234 0.862897 0.569405
O O6 0.619393 0.831221 0.301792
O O7 0.976188 0.479570 0.233102
O O8 0.961203 0.602785 0.106340
O O9 0.019392 0.607410 0.320266
O O10 0.928256 0.874065 0.648300
O O11 0.886689 0.845861 0.925550
O O12 0.932986 0.750000 0.086280
O O13 0.000000 0.000000 0.500000
#
# Coordination Sequence:
#
# PCOD8075745 Si02
#       6
#     4   4   4   4   4   4
#     4  11  19  33  65  95 119 150 197 245 300 357
#     4  11  20  35  61  92 119 154 198 248 297 350
#     4  11  20  38  64  90 119 156 201 249 296 357
#     4  11  22  39  64  93 125 152 197 258 307 353
#     4  12  25  40  60  88 120 163 209 248 299 361
#     4  10  21  35  58  99 125 147 189 252 313 351
#
# _framework density 19.471924000000001
#
# number of rings (size 3 to 8) (size 9 to 14) (size 15 to 20)
#    0.000    1.000    8.333    1.500    0.000    4.667 
#    0.000    0.833    0.000    2.000    0.000    0.000 
#    0.000    0.000    0.000    0.000    0.000    0.000 
#
# Total GULP energy -297554.889711 kJ/mol
# GULP energy per Si atom -12398.120405 kJ/mol
# Density = 1.942761 g / cm^3
# Si number density = 19.471924 Si / 1000 Ang^3
#
#
#
# Elastic Constant Matrix: (Units=GPa)
#
#
# Indices 1 2 3 4 5 6 
#
# 1 137.4486 7.0028 54.1770 0.0000 -6.8311 0.0000
# 2 7.0028 39.3895 12.7013 0.0000 2.8105 0.0000
# 3 54.1770 12.7013 147.8710 0.0000 -7.7474 0.0000
# 4 0.0000 0.0000 0.0000 8.6142 0.0000 -2.5177
# 5 -6.8311 2.8105 -7.7474 0.0000 39.8591 0.0000
# 6 0.0000 0.0000 0.0000 -2.5177 0.0000 8.1822
#
#
#
# Elastic Compliance Matrix: (Units=1/GPa)
#
#
# Indices 1 2 3 4 5 6 
#
# 1 0.008547 -0.000608 -0.003031 0.000000 0.000918 0.000000
# 2 -0.000608 0.026364 -0.002167 0.000000 -0.002384 0.000000
# 3 -0.003031 -0.002167 0.008123 0.000000 0.001212 0.000000
# 4 0.000000 0.000000 0.000000 0.127559 0.000000 0.039250
# 5 0.000918 -0.002384 0.001212 0.000000 0.025649 0.000000
# 6 0.000000 0.000000 0.000000 0.039250 0.000000 0.134294
#
#
# Mechanical properties :
#
#
# Convention : Reuss Voigt Hill
#
# Bulk Modulus (GPa) = 31.82399 52.49681 42.16040
# Shear Modulus (GPa) = 14.17953 28.05299 21.11626
#
# Velocity S-wave (km/s) = 2.70145 3.79976 3.29667
# Velocity P-wave (km/s) = 5.10974 6.80218 6.01578
#
# Compressibility (1/GPa) = 0.03142284
#
# Stress axis : x y z
#
# Youngs Moduli (GPa) = 117.00321 37.93003 123.11032
#
# Poissons Ratio (x) = 0.02305 0.37315
# Poissons Ratio (y) = 0.07109 0.26676
# Poissons Ratio (z) = 0.35464 0.08219
#
# Static dielectric constant tensor:
#      x y z
#    x 3.908120 0.000000 0.375900 
#    y 0.000000 3.076320 0.000000 
#    z 0.375900 0.000000 3.998280 
# 
# 
# High freq. dielectric constant tensor:
#      x y z
#    x 1.760480 0.000000 -0.000260 
#    y 0.000000 1.701510 0.000000 
#    z -0.000260 0.000000 1.785260 
# 
# From -- ./inp_files/14212.got.cif
#   From: 2010.06.25/outbox.cif.g09.slc.cpg/sg11_8_cif.got.tgz:14212.got - 2010.06.27 23:14:04.
