data_PCOD8075951
_publ_section_title
;
Structure prediction by ZEFSAII (Michael W. Deem and Ramdas Pophale) SiO2 
 PCOD8075951
Probable space group: P 21/M
;
_chemical_formula_sum "Si O2"
_cell_formula_units_Z 32
_cell_length_a 26.228340
_cell_length_b 9.189715
_cell_length_c 21.030390
_cell_angle_alpha 90.000000
_cell_angle_beta 20.537196
_cell_angle_gamma 90.000000
_cell_volume 1778.274534
_symmetry_space_group_name_H-M "P 21/M"
_symmetry_group_IT_number 11
_symmetry_cell_setting 'monoclinic'
loop_
_space_group_symop_operation_xyz
x,y,z
-x,1/2+y,-z
-x,-y,-z
x,1/2-y,z
loop_
_atom_site_type_symbol
_atom_site_label
_atom_site_fract_x
_atom_site_fract_y
_atom_site_fract_z
Si Si1 0.201394 0.583924 0.473993
Si Si2 0.520585 0.580568 0.153417
Si Si3 0.603009 0.077413 0.571558
Si Si4 0.910592 0.418738 0.258435
Si Si5 0.584306 0.085399 0.454262
Si Si6 0.922276 0.084118 0.034489
Si Si7 0.902712 0.920137 0.526196
Si Si8 0.211868 0.920392 0.220652
O O1 0.187045 0.750000 0.466767
O O2 0.368929 0.550083 0.294819
O O3 0.098864 0.559500 0.654830
O O4 0.143722 0.474356 0.488569
O O5 0.563267 0.750000 0.097615
O O6 0.506624 0.533100 0.243851
O O7 0.644833 0.481303 0.979431
O O8 0.618596 0.250000 0.552340
O O9 0.763925 0.017732 0.397911
O O10 0.549729 0.019643 0.565074
O O11 0.934523 0.250000 0.213540
O O12 0.042445 0.511086 0.074945
O O13 0.528826 0.250000 0.516563
O O14 0.752597 0.073946 0.243373
O O15 0.500000 0.000000 0.500000
O O16 0.976072 0.250000 0.971597
O O17 0.000000 0.000000 0.000000
O O18 0.869623 0.750000 0.570779
O O19 0.072958 0.953881 0.338438
O O20 0.805382 0.002707 0.691453
O O21 0.231190 0.750000 0.210122
#
# Coordination Sequence:
#
# PCOD8075951 Si02
#       8
#     4   4   4   4   4   4   4   4
#     4   9  19  35  57  83 110 140 175 220 267 314
#     4   9  18  34  58  82 104 137 180 219 262 317
#     4   8  15  33  56  75 103 140 175 216 263 313
#     4   9  17  34  57  80 107 138 178 222 265 316
#     4  10  21  37  54  75 107 142 178 223 270 315
#     4  11  21  34  56  81 106 139 180 225 269 317
#     4  10  21  37  57  79 108 144 178 217 262 312
#     4  10  21  37  56  79 108 142 180 219 260 312
#
# _framework density 17.994971
#
# number of rings (size 3 to 8) (size 9 to 14) (size 15 to 20)
#    0.000    2.500    1.250    2.625    0.000    4.000 
#    2.250    2.500    0.000    0.000    0.000    0.000 
#    0.000    0.000    0.000    0.000    0.000    0.000 
#
# Total GULP energy -396749.634052 kJ/mol
# GULP energy per Si atom -12398.426064 kJ/mol
# Density = 1.795401 g / cm^3
# Si number density = 17.994971 Si / 1000 Ang^3
#
#
#
# Elastic Constant Matrix: (Units=GPa)
#
#
# Indices 1 2 3 4 5 6 
#
# 1 124.0558 57.9724 40.5172 0.0000 14.5395 0.0000
# 2 57.9724 96.2240 51.8906 0.0000 10.3408 0.0000
# 3 40.5172 51.8906 80.0023 0.0000 22.2233 0.0000
# 4 0.0000 0.0000 0.0000 33.5610 0.0000 1.9742
# 5 14.5395 10.3408 22.2233 0.0000 22.2062 0.0000
# 6 0.0000 0.0000 0.0000 1.9742 0.0000 34.0759
#
#
#
# Elastic Compliance Matrix: (Units=1/GPa)
#
#
# Indices 1 2 3 4 5 6 
#
# 1 0.011673 -0.006170 -0.000810 0.000000 -0.003959 0.000000
# 2 -0.006170 0.019513 -0.011260 0.000000 0.006222 0.000000
# 3 -0.000810 -0.011260 0.025775 0.000000 -0.020021 0.000000
# 4 0.000000 0.000000 0.000000 0.029898 0.000000 -0.001732
# 5 -0.003959 0.006222 -0.020021 0.000000 0.064763 0.000000
# 6 0.000000 0.000000 0.000000 -0.001732 0.000000 0.029447
#
#
# Mechanical properties :
#
#
# Convention : Reuss Voigt Hill
#
# Bulk Modulus (GPa) = 48.82696 66.78250 57.80473
# Shear Modulus (GPa) = 22.28397 27.96209 25.12303
#
# Velocity S-wave (km/s) = 3.52283 3.94621 3.74051
# Velocity P-wave (km/s) = 6.61360 7.61287 7.13076
#
# Compressibility (1/GPa) = 0.02048049
#
# Stress axis : x y z
#
# Youngs Moduli (GPa) = 85.66878 51.24660 38.79793
#
# Poissons Ratio (x) = 0.31622 0.03142
# Poissons Ratio (y) = 0.52862 0.43687
# Poissons Ratio (z) = 0.06937 0.57704
#
# Static dielectric constant tensor:
#      x y z
#    x 3.374420 0.000000 0.226470 
#    y 0.000000 3.271970 0.000000 
#    z 0.226470 0.000000 3.302950 
# 
# 
# High freq. dielectric constant tensor:
#      x y z
#    x 1.696640 0.000000 0.015090 
#    y 0.000000 1.687230 0.000000 
#    z 0.015090 0.000000 1.695150 
# 
# From -- ./inp_files/67056.got.cif
#   From: 2010.06.25/outbox.cif.g09.slc.cpg/sg11_34_cif.got.tgz:67056.got - 2010.06.27 23:14:04.
