data_PCOD8075244
_publ_section_title
;
Structure prediction by ZEFSAII (Michael W. Deem and Ramdas Pophale) SiO2 
 PCOD8075244
Probable space group: P 21/M
;
_chemical_formula_sum "Si O2"
_cell_formula_units_Z 32
_cell_length_a 11.565575
_cell_length_b 22.712730
_cell_length_c 5.847666
_cell_angle_alpha 90.000000
_cell_angle_beta 110.982495
_cell_angle_gamma 90.000000
_cell_volume 1434.239814
_symmetry_space_group_name_H-M "P 21/M"
_symmetry_group_IT_number 11
_symmetry_cell_setting 'monoclinic'
loop_
_space_group_symop_operation_xyz
x,y,z
-x,1/2+y,-z
-x,-y,-z
x,1/2-y,z
loop_
_atom_site_type_symbol
_atom_site_label
_atom_site_fract_x
_atom_site_fract_y
_atom_site_fract_z
Si Si1 0.183291 0.087295 0.417091
Si Si2 0.150630 0.319456 0.014629
Si Si3 0.233677 0.877494 0.887318
Si Si4 0.969434 0.113513 0.580520
Si Si5 0.565009 0.183191 0.726942
Si Si6 0.219743 0.535511 0.266406
Si Si7 0.431877 0.907231 0.653441
Si Si8 0.371240 0.375539 0.895287
O O1 0.313682 0.088046 0.644178
O O2 0.078816 0.077336 0.535326
O O3 0.185465 0.033440 0.238847
O O4 0.159931 0.147831 0.264797
O O5 0.147405 0.250000 0.059030
O O6 0.267702 0.336224 0.943488
O O7 0.024371 0.338809 0.796069
O O8 0.108277 0.854192 0.678092
O O9 0.333166 0.886393 0.764458
O O10 0.290895 0.830525 0.106172
O O11 0.207787 0.939126 0.002120
O O12 0.878578 0.068397 0.642017
O O13 0.552456 0.250000 0.644988
O O14 0.527313 0.146107 0.479916
O O15 0.474020 0.169291 0.872778
O O16 0.363254 0.541937 0.457153
O O17 0.560324 0.922017 0.881038
#
# Coordination Sequence:
#
# PCOD8075244 Si02
#       8
#     4   4   4   4   4   4   4   4
#     4  11  24  39  63  92 119 159 202 244 296 351
#     4  11  25  42  60  88 124 159 199 245 293 351
#     4   9  20  38  60  89 120 151 193 246 301 354
#     4  10  22  41  63  88 119 158 201 246 297 355
#     4  10  20  37  62  88 117 156 202 251 301 354
#     4  10  21  41  64  90 122 153 196 250 300 355
#     4   9  20  38  59  87 120 154 196 245 296 351
#     4  10  22  40  60  88 120 158 200 242 299 357
#
# _framework density 22.311471999999998
#
# number of rings (size 3 to 8) (size 9 to 14) (size 15 to 20)
#    0.000    2.000    0.000    2.250    0.000   13.000 
#    0.000   17.500    0.000    0.000    0.000    0.000 
#    0.000    0.000    0.000    0.000    0.000    0.000 
#
# Total GULP energy -396634.736731 kJ/mol
# GULP energy per Si atom -12394.835523 kJ/mol
# Density = 2.226069 g / cm^3
# Si number density = 22.311472 Si / 1000 Ang^3
#
#
#
# Elastic Constant Matrix: (Units=GPa)
#
#
# Indices 1 2 3 4 5 6 
#
# 1 69.5629 30.2082 38.6639 0.0000 21.8761 0.0000
# 2 30.2082 85.3049 19.2060 0.0000 3.5595 0.0000
# 3 38.6639 19.2060 134.2179 0.0000 29.0851 0.0000
# 4 0.0000 0.0000 0.0000 20.3299 0.0000 -3.5524
# 5 21.8761 3.5595 29.0851 0.0000 45.0023 0.0000
# 6 0.0000 0.0000 0.0000 -3.5524 0.0000 17.0282
#
#
#
# Elastic Compliance Matrix: (Units=1/GPa)
#
#
# Indices 1 2 3 4 5 6 
#
# 1 0.021638 -0.006523 -0.003642 0.000000 -0.007648 0.000000
# 2 -0.006523 0.014081 -0.000676 0.000000 0.002494 0.000000
# 3 -0.003642 -0.000676 0.009537 0.000000 -0.004340 0.000000
# 4 0.000000 0.000000 0.000000 0.051050 0.000000 0.010650
# 5 -0.007648 0.002494 -0.004340 0.000000 0.028547 0.000000
# 6 0.000000 0.000000 0.000000 0.010650 0.000000 0.060948
#
#
# Mechanical properties :
#
#
# Convention : Reuss Voigt Hill
#
# Bulk Modulus (GPa) = 42.42313 51.69357 47.05835
# Shear Modulus (GPa) = 23.21901 29.87258 26.54580
#
# Velocity S-wave (km/s) = 3.22945 3.66305 3.45306
# Velocity P-wave (km/s) = 5.74118 6.41170 6.08568
#
# Compressibility (1/GPa) = 0.02357205
#
# Stress axis : x y z
#
# Youngs Moduli (GPa) = 46.21504 71.01838 104.85456
#
# Poissons Ratio (x) = 0.46327 0.38192
# Poissons Ratio (y) = 0.30147 0.07091
# Poissons Ratio (z) = 0.16833 0.04803
#
# Static dielectric constant tensor:
#      x y z
#    x 4.371570 0.000000 0.408980 
#    y 0.000000 3.532920 0.000000 
#    z 0.408980 0.000000 4.632690 
# 
# 
# High freq. dielectric constant tensor:
#      x y z
#    x 1.895160 0.000000 0.003800 
#    y 0.000000 1.831920 0.000000 
#    z 0.003800 0.000000 1.900460 
# 
# From -- ./inp_files/5478.got.cif
#   From: 2010.06.25/outbox.cif.g09.slc.cpg/sg11_3_cif.got.tgz:5478.got - 2010.06.27 23:14:04.
