data_PCOD8075865
_publ_section_title
;
Structure prediction by ZEFSAII (Michael W. Deem and Ramdas Pophale) SiO2 
 PCOD8075865
Probable space group: P 21/M
;
_chemical_formula_sum "Si O2"
_cell_formula_units_Z 28
_cell_length_a 20.795060
_cell_length_b 9.093652
_cell_length_c 15.828585
_cell_angle_alpha 90.000000
_cell_angle_beta 151.912921
_cell_angle_gamma 90.000000
_cell_volume 1409.253068
_symmetry_space_group_name_H-M "P 21/M"
_symmetry_group_IT_number 11
_symmetry_cell_setting 'monoclinic'
loop_
_space_group_symop_operation_xyz
x,y,z
-x,1/2+y,-z
-x,-y,-z
x,1/2-y,z
loop_
_atom_site_type_symbol
_atom_site_label
_atom_site_fract_x
_atom_site_fract_y
_atom_site_fract_z
Si Si1 0.840125 0.582201 0.885488
Si Si2 0.323419 0.576447 0.626473
Si Si3 0.566203 0.424478 0.829496
Si Si4 0.569077 0.579455 0.658482
Si Si5 0.855894 0.422769 0.738373
Si Si6 0.146562 0.577923 0.760858
Si Si7 0.874599 0.078101 0.456020
O O1 0.851389 0.750000 0.868746
O O2 0.732416 0.564271 0.836360
O O3 0.789118 0.491580 0.744878
O O4 0.986667 0.524420 0.088073
O O5 0.353710 0.750000 0.657687
O O6 0.464483 0.486846 0.783184
O O7 0.224805 0.522913 0.436881
O O8 0.250505 0.530571 0.629169
O O9 0.550205 0.250000 0.803548
O O10 0.526217 0.500022 0.694902
O O11 0.719000 0.470536 0.032658
O O12 0.500000 0.500000 0.500000
O O13 0.523428 0.750000 0.609525
O O14 0.845024 0.250000 0.734708
O O15 0.121568 0.750000 0.739171
O O16 0.165267 0.530598 0.684846
O O17 0.014927 0.498833 0.648128
O O18 0.901908 0.250000 0.496488
#
# Coordination Sequence:
#
# PCOD8075865 Si02
#       7
#     4   4   4   4   4   4   4
#     4   9  19  34  52  75 102 139 182 228 278 331
#     4  10  21  36  57  84 112 147 191 240 290 342
#     4  11  24  39  56  82 120 157 194 238 286 344
#     4  11  23  38  58  81 112 151 196 240 287 341
#     4   9  18  33  52  76 107 137 177 229 279 331
#     4   9  20  39  59  86 119 151 190 238 291 347
#     4   9  19  37  63  88 114 149 191 241 294 348
#
# _framework density 19.868680999999999
#
# number of rings (size 3 to 8) (size 9 to 14) (size 15 to 20)
#    0.000    2.286    0.000    1.714    2.000    6.286 
#    0.000    0.000    0.000    0.000    0.000    0.000 
#    0.000    0.000    0.000    0.000    0.000    0.000 
#
# Total GULP energy -347267.129972 kJ/mol
# GULP energy per Si atom -12402.397499 kJ/mol
# Density = 1.982346 g / cm^3
# Si number density = 19.868681 Si / 1000 Ang^3
#
#
#
# Elastic Constant Matrix: (Units=GPa)
#
#
# Indices 1 2 3 4 5 6 
#
# 1 111.5090 39.5391 32.7752 0.0000 12.0998 0.0000
# 2 39.5391 61.1340 40.5016 0.0000 5.7786 0.0000
# 3 32.7752 40.5016 84.8928 0.0000 3.3758 0.0000
# 4 0.0000 0.0000 0.0000 29.1047 0.0000 4.1025
# 5 12.0998 5.7786 3.3758 0.0000 25.5263 0.0000
# 6 0.0000 0.0000 0.0000 4.1025 0.0000 32.0313
#
#
#
# Elastic Compliance Matrix: (Units=1/GPa)
#
#
# Indices 1 2 3 4 5 6 
#
# 1 0.012142 -0.006534 -0.001408 0.000000 -0.004090 0.000000
# 2 -0.006534 0.027831 -0.010684 0.000000 -0.001790 0.000000
# 3 -0.001408 -0.010684 0.017389 0.000000 0.000786 0.000000
# 4 0.000000 0.000000 0.000000 0.034990 0.000000 -0.004481
# 5 -0.004090 -0.001790 0.000786 0.000000 0.041415 0.000000
# 6 0.000000 0.000000 0.000000 -0.004481 0.000000 0.031793
#
#
# Mechanical properties :
#
#
# Convention : Reuss Voigt Hill
#
# Bulk Modulus (GPa) = 49.72512 53.68527 51.70519
# Shear Modulus (GPa) = 23.86443 26.98046 25.42244
#
# Velocity S-wave (km/s) = 3.46946 3.68902 3.58092
# Velocity P-wave (km/s) = 6.41333 6.72487 6.57094
#
# Compressibility (1/GPa) = 0.02011056
#
# Stress axis : x y z
#
# Youngs Moduli (GPa) = 82.35657 35.93144 57.50694
#
# Poissons Ratio (x) = 0.23477 0.08097
# Poissons Ratio (y) = 0.53810 0.61441
# Poissons Ratio (z) = 0.11596 0.38390
#
# Static dielectric constant tensor:
#      x y z
#    x 3.735620 0.000000 0.133130 
#    y 0.000000 3.494110 0.000000 
#    z 0.133130 0.000000 3.704240 
# 
# 
# High freq. dielectric constant tensor:
#      x y z
#    x 1.778920 0.000000 0.010700 
#    y 0.000000 1.767170 0.000000 
#    z 0.010700 0.000000 1.774540 
# 
# From -- ./inp_files/54400.got.cif
#   From: 2010.06.25/outbox.cif.g09.slc.cpg/sg11_28_cif.got.tgz:54400.got - 2010.06.27 23:14:04.
