data_PCOD8075571
_publ_section_title
;
Structure prediction by ZEFSAII (Michael W. Deem and Ramdas Pophale) SiO2 
 PCOD8075571
Probable space group: P 21/M
;
_chemical_formula_sum "Si O2"
_cell_formula_units_Z 28
_cell_length_a 11.336030
_cell_length_b 14.234044
_cell_length_c 9.303256
_cell_angle_alpha 90.000000
_cell_angle_beta 113.379970
_cell_angle_gamma 90.000000
_cell_volume 1377.896235
_symmetry_space_group_name_H-M "P 21/M"
_symmetry_group_IT_number 11
_symmetry_cell_setting 'monoclinic'
loop_
_space_group_symop_operation_xyz
x,y,z
-x,1/2+y,-z
-x,-y,-z
x,1/2-y,z
loop_
_atom_site_type_symbol
_atom_site_label
_atom_site_fract_x
_atom_site_fract_y
_atom_site_fract_z
Si Si1 0.024992 0.638342 0.960163
Si Si2 0.850002 0.000408 0.449137
Si Si3 0.649491 0.860216 0.248387
Si Si4 0.776015 0.356012 0.186221
Si Si5 0.540681 0.012228 0.683629
Si Si6 0.831137 0.009532 0.773545
Si Si7 0.506826 0.643612 0.899319
O O1 0.007093 0.750000 0.966458
O O2 0.132112 0.606462 0.895647
O O3 0.889325 0.591316 0.851206
O O4 0.073582 0.594184 0.133949
O O5 0.794183 0.090248 0.343208
O O6 0.786134 0.906558 0.352617
O O7 0.812429 0.010016 0.595339
O O8 0.000000 0.000000 0.500000
O O9 0.660955 0.750000 0.280608
O O10 0.535472 0.898003 0.294114
O O11 0.618431 0.884082 0.066295
O O12 0.816580 0.250000 0.237623
O O13 0.625809 0.365355 0.073154
O O14 0.692488 0.026701 0.776286
O O15 0.502559 0.920984 0.757473
O O16 0.500000 0.000000 0.500000
O O17 0.525532 0.750000 0.853176
#
# Coordination Sequence:
#
# PCOD8075571 Si02
#       7
#     4   4   4   4   4   4   4
#     4  10  23  42  65  92 126 168 214 263 317 377
#     4  12  24  42  65  93 129 166 212 265 313 378
#     4  11  25  43  67  97 130 171 212 258 320 381
#     4  10  20  39  67  93 121 167 215 261 314 369
#     4  12  23  40  64  97 134 168 207 263 322 377
#     4  11  24  40  64  95 127 168 212 258 326 374
#     4  10  22  40  66  96 125 167 218 264 313 375
#
# _framework density 20.320833
#
# number of rings (size 3 to 8) (size 9 to 14) (size 15 to 20)
#    0.000    1.143    4.286    1.286    2.000    4.571 
#    0.000    1.429    0.000    0.000    0.000    0.000 
#    0.000    0.000    0.000    0.000    0.000    0.000 
#
# Total GULP energy -347234.038727 kJ/mol
# GULP energy per Si atom -12401.215669 kJ/mol
# Density = 2.027458 g / cm^3
# Si number density = 20.320833 Si / 1000 Ang^3
#
#
#
# Elastic Constant Matrix: (Units=GPa)
#
#
# Indices 1 2 3 4 5 6 
#
# 1 108.6100 42.6838 31.4569 0.0000 20.0243 0.0000
# 2 42.6838 121.4845 63.6677 0.0000 4.0529 0.0000
# 3 31.4569 63.6677 122.7420 0.0000 6.5617 0.0000
# 4 0.0000 0.0000 0.0000 21.6744 0.0000 -0.3496
# 5 20.0243 4.0529 6.5617 0.0000 29.0485 0.0000
# 6 0.0000 0.0000 0.0000 -0.3496 0.0000 29.5798
#
#
#
# Elastic Compliance Matrix: (Units=1/GPa)
#
#
# Indices 1 2 3 4 5 6 
#
# 1 0.012314 -0.003613 -0.000865 0.000000 -0.007789 0.000000
# 2 -0.003613 0.012367 -0.005597 0.000000 0.002030 0.000000
# 3 -0.000865 -0.005597 0.011336 0.000000 -0.001183 0.000000
# 4 0.000000 0.000000 0.000000 0.046146 0.000000 0.000545
# 5 -0.007789 0.002030 -0.001183 0.000000 0.039778 0.000000
# 6 0.000000 0.000000 0.000000 0.000545 0.000000 0.033813
#
#
# Mechanical properties :
#
#
# Convention : Reuss Voigt Hill
#
# Bulk Modulus (GPa) = 63.03303 69.82815 66.43059
# Shear Modulus (GPa) = 27.59480 30.39576 28.99528
#
# Velocity S-wave (km/s) = 3.68904 3.87174 3.78150
# Velocity P-wave (km/s) = 7.01653 7.37731 7.19918
#
# Compressibility (1/GPa) = 0.01586470
#
# Stress axis : x y z
#
# Youngs Moduli (GPa) = 81.20926 80.86238 88.21813
#
# Poissons Ratio (x) = 0.29217 0.07633
# Poissons Ratio (y) = 0.29342 0.49378
# Poissons Ratio (z) = 0.07027 0.45261
#
# Static dielectric constant tensor:
#      x y z
#    x 3.945530 0.000000 0.132530 
#    y 0.000000 3.592320 0.000000 
#    z 0.132530 0.000000 3.627600 
# 
# 
# High freq. dielectric constant tensor:
#      x y z
#    x 1.799130 0.000000 0.009370 
#    y 0.000000 1.793780 0.000000 
#    z 0.009370 0.000000 1.803350 
# 
# From -- ./inp_files/17939.got.cif
#   From: 2010.06.25/outbox.cif.g09.slc.cpg/sg11_9_cif.got.tgz:17939.got - 2010.06.27 23:14:04.
