data_PCOD8075531
_publ_section_title
;
Structure prediction by ZEFSAII (Michael W. Deem and Ramdas Pophale) SiO2 
 PCOD8075531
Probable space group: P 21/M
;
_chemical_formula_sum "Si O2"
_cell_formula_units_Z 32
_cell_length_a 11.298396
_cell_length_b 18.063116
_cell_length_c 13.897074
_cell_angle_alpha 90.000000
_cell_angle_beta 33.265839
_cell_angle_gamma 90.000000
_cell_volume 1555.710488
_symmetry_space_group_name_H-M "P 21/M"
_symmetry_group_IT_number 11
_symmetry_cell_setting 'monoclinic'
loop_
_space_group_symop_operation_xyz
x,y,z
-x,1/2+y,-z
-x,-y,-z
x,1/2-y,z
loop_
_atom_site_type_symbol
_atom_site_label
_atom_site_fract_x
_atom_site_fract_y
_atom_site_fract_z
Si Si1 0.515592 0.333275 0.534250
Si Si2 0.002025 0.662244 0.800718
Si Si3 0.427715 0.928297 0.990971
Si Si4 0.099659 0.413935 0.328450
Si Si5 0.363598 0.334654 0.429903
Si Si6 0.805123 0.910842 0.117437
Si Si7 0.759132 0.072780 0.086087
Si Si8 0.943420 0.411829 0.637626
O O1 0.540915 0.250000 0.553742
O O2 0.752806 0.363047 0.344868
O O3 0.364347 0.339189 0.544414
O O4 0.413154 0.376687 0.692555
O O5 0.967147 0.750000 0.833774
O O6 0.951643 0.635991 0.727631
O O7 0.849505 0.621395 0.981090
O O8 0.654848 0.891116 0.806699
O O9 0.280574 0.946368 0.998518
O O10 0.275535 0.878341 0.165302
O O11 0.500000 0.000000 0.000000
O O12 0.942651 0.394033 0.524454
O O13 0.064928 0.500725 0.331666
O O14 0.350258 0.250000 0.403178
O O15 0.580949 0.369153 0.240265
O O16 0.155640 0.379359 0.540144
O O17 0.751164 0.997475 0.151965
O O18 0.004511 0.892397 0.053981
#
# Coordination Sequence:
#
# PCOD8075531 Si02
#       8
#     4   4   4   4   4   4   4   4
#     4  10  23  40  62  90 124 170 208 254 325 385
#     4  11  24  42  62  93 132 169 211 263 323 384
#     4  10  20  39  63  92 128 158 206 257 317 375
#     4  10  22  38  62  93 122 169 209 257 313 371
#     4  11  23  42  65  92 129 167 210 266 329 385
#     4  11  23  40  66  95 128 163 217 266 316 389
#     4  11  23  40  64 100 124 165 216 267 321 384
#     4  10  21  39  65  89 122 163 208 260 311 373
#
# _framework density 20.569382000000001
#
# number of rings (size 3 to 8) (size 9 to 14) (size 15 to 20)
#    0.000    1.500    2.500    2.625    1.750    3.500 
#    0.000    1.250    0.000    0.000    0.000    0.000 
#    0.000    0.000    0.000    0.000    0.000    0.000 
#
# Total GULP energy -396690.736872 kJ/mol
# GULP energy per Si atom -12396.585527 kJ/mol
# Density = 2.052256 g / cm^3
# Si number density = 20.569382 Si / 1000 Ang^3
#
#
#
# Elastic Constant Matrix: (Units=GPa)
#
#
# Indices 1 2 3 4 5 6 
#
# 1 95.8942 14.3591 13.5375 0.0000 0.5269 0.0000
# 2 14.3591 51.3571 31.9704 0.0000 -6.8492 0.0000
# 3 13.5375 31.9704 105.8050 0.0000 8.7367 0.0000
# 4 0.0000 0.0000 0.0000 26.8075 0.0000 3.3356
# 5 0.5269 -6.8492 8.7367 0.0000 30.3402 0.0000
# 6 0.0000 0.0000 0.0000 3.3356 0.0000 25.3988
#
#
#
# Elastic Compliance Matrix: (Units=1/GPa)
#
#
# Indices 1 2 3 4 5 6 
#
# 1 0.010926 -0.002849 -0.000480 0.000000 -0.000695 0.000000
# 2 -0.002849 0.026612 -0.008376 0.000000 0.008469 0.000000
# 3 -0.000480 -0.008376 0.012496 0.000000 -0.005481 0.000000
# 4 0.000000 0.000000 0.000000 0.037923 0.000000 -0.004980
# 5 -0.000695 0.008469 -0.005481 0.000000 0.036462 0.000000
# 6 0.000000 0.000000 0.000000 -0.004980 0.000000 0.040026
#
#
# Mechanical properties :
#
#
# Convention : Reuss Voigt Hill
#
# Bulk Modulus (GPa) = 37.55871 41.42113 39.48992
# Shear Modulus (GPa) = 25.41575 29.38860 27.40217
#
# Velocity S-wave (km/s) = 3.51894 3.78399 3.65387
# Velocity P-wave (km/s) = 5.89998 6.26677 6.08614
#
# Compressibility (1/GPa) = 0.02662498
#
# Stress axis : x y z
#
# Youngs Moduli (GPa) = 91.52227 37.57771 80.02441
#
# Poissons Ratio (x) = 0.10705 0.03840
# Poissons Ratio (y) = 0.26074 0.67027
# Poissons Ratio (z) = 0.04391 0.31474
#
# Static dielectric constant tensor:
#      x y z
#    x 3.822840 0.000000 -0.117710 
#    y 0.000000 3.488210 0.000000 
#    z -0.117710 0.000000 4.365060 
# 
# 
# High freq. dielectric constant tensor:
#      x y z
#    x 1.811100 0.000000 0.002630 
#    y 0.000000 1.778870 0.000000 
#    z 0.002630 0.000000 1.821970 
# 
# From -- ./inp_files/50637.got.cif
#   From: 2010.06.25/outbox.cif.g09.slc.cpg/sg11_26_cif.got.tgz:50637.got - 2010.06.27 23:14:04.
