data_PCOD8075245
_publ_section_title
;
Structure prediction by ZEFSAII (Michael W. Deem and Ramdas Pophale) SiO2 
 PCOD8075245
Probable space group: P 21/M
;
_chemical_formula_sum "Si O2"
_cell_formula_units_Z 28
_cell_length_a 19.273953
_cell_length_b 14.957748
_cell_length_c 5.597847
_cell_angle_alpha 90.000000
_cell_angle_beta 53.674190
_cell_angle_gamma 90.000000
_cell_volume 1300.201466
_symmetry_space_group_name_H-M "P 21/M"
_symmetry_group_IT_number 11
_symmetry_cell_setting 'monoclinic'
loop_
_space_group_symop_operation_xyz
x,y,z
-x,1/2+y,-z
-x,-y,-z
x,1/2-y,z
loop_
_atom_site_type_symbol
_atom_site_label
_atom_site_fract_x
_atom_site_fract_y
_atom_site_fract_z
Si Si1 0.908633 0.011177 0.434135
Si Si2 0.416019 0.849408 0.661931
Si Si3 0.507679 0.604666 0.975714
Si Si4 0.823389 0.586575 0.230572
Si Si5 0.274754 0.503173 0.948745
Si Si6 0.032736 0.352844 0.373228
Si Si7 0.679263 0.651664 0.826846
O O1 0.815219 0.024038 0.740715
O O2 0.958774 0.105370 0.352381
O O3 0.892831 0.985324 0.190662
O O4 0.960688 0.924074 0.425424
O O5 0.379827 0.750000 0.743975
O O6 0.468372 0.859496 0.306917
O O7 0.468286 0.863685 0.803296
O O8 0.332008 0.909725 0.825655
O O9 0.500000 0.500000 0.000000
O O10 0.606752 0.636904 0.771814
O O11 0.776626 0.647108 0.523559
O O12 0.746543 0.528734 0.273510
O O13 0.874264 0.650604 0.945502
O O14 0.330973 0.424588 0.954080
O O15 0.009969 0.250000 0.495998
O O16 0.669160 0.750000 0.963362
#
# Coordination Sequence:
#
# PCOD8075245 Si02
#       7
#     4   4   4   4   4   4   4
#     4   9  21  39  58  88 123 156 204 256 312 383
#     4  12  26  45  68  99 135 178 227 278 330 393
#     4  12  25  46  69  96 132 178 226 280 335 391
#     4  10  21  38  59  88 123 162 203 257 321 379
#     4  10  23  40  61  88 125 169 208 262 325 383
#     4  10  20  37  62  88 118 158 201 254 315 383
#     4  11  23  38  60  91 124 162 212 266 323 386
#
# _framework density 21.535125000000001
#
# number of rings (size 3 to 8) (size 9 to 14) (size 15 to 20)
#    0.000    1.429    1.429    3.429    4.000    6.857 
#    0.000    0.714    0.000    0.000    0.000    0.000 
#    0.000    0.000    0.000    0.000    0.000    0.000 
#
# Total GULP energy -346942.936207 kJ/mol
# GULP energy per Si atom -12390.819150 kJ/mol
# Density = 2.148611 g / cm^3
# Si number density = 21.535125 Si / 1000 Ang^3
#
#
#
# Elastic Constant Matrix: (Units=GPa)
#
#
# Indices 1 2 3 4 5 6 
#
# 1 123.9231 53.7120 21.8106 0.0000 8.3009 0.0000
# 2 53.7120 177.4088 25.0642 0.0000 -5.4797 0.0000
# 3 21.8106 25.0642 65.5942 0.0000 11.1003 0.0000
# 4 0.0000 0.0000 0.0000 22.0378 0.0000 -4.8351
# 5 8.3009 -5.4797 11.1003 0.0000 35.2038 0.0000
# 6 0.0000 0.0000 0.0000 -4.8351 0.0000 13.1890
#
#
#
# Elastic Compliance Matrix: (Units=1/GPa)
#
#
# Indices 1 2 3 4 5 6 
#
# 1 0.009727 -0.002755 -0.001818 0.000000 -0.002149 0.000000
# 2 -0.002755 0.006841 -0.002100 0.000000 0.002377 0.000000
# 3 -0.001818 -0.002100 0.017573 0.000000 -0.005439 0.000000
# 4 0.000000 0.000000 0.000000 0.049346 0.000000 0.018090
# 5 -0.002149 0.002377 -0.005439 0.000000 0.030998 0.000000
# 6 0.000000 0.000000 0.000000 0.018090 0.000000 0.082453
#
#
# Mechanical properties :
#
#
# Convention : Reuss Voigt Hill
#
# Bulk Modulus (GPa) = 48.08838 63.12218 55.60528
# Shear Modulus (GPa) = 23.01869 31.84208 27.43038
#
# Velocity S-wave (km/s) = 3.27294 3.84944 3.57284
# Velocity P-wave (km/s) = 6.05487 7.00946 6.54958
#
# Compressibility (1/GPa) = 0.02079505
#
# Stress axis : x y z
#
# Youngs Moduli (GPa) = 102.80246 146.18210 56.90623
#
# Poissons Ratio (x) = 0.40267 0.10347
# Poissons Ratio (y) = 0.28318 0.11951
# Poissons Ratio (z) = 0.18691 0.30701
#
# Static dielectric constant tensor:
#      x y z
#    x 4.350410 0.000000 0.288170 
#    y 0.000000 3.847290 0.000000 
#    z 0.288170 0.000000 4.108740 
# 
# 
# High freq. dielectric constant tensor:
#      x y z
#    x 1.859250 0.000000 -0.000680 
#    y 0.000000 1.840010 0.000000 
#    z -0.000680 0.000000 1.839280 
# 
# From -- ./inp_files/8030.got.cif
#   From: 2010.06.25/outbox.cif.g09.slc.cpg/sg11_5_cif.got.tgz:8030.got - 2010.06.27 23:14:04.
