data_PCOD8075553
_publ_section_title
;
Structure prediction by ZEFSAII (Michael W. Deem and Ramdas Pophale) SiO2 
 PCOD8075553
Probable space group: P 21/M
;
_chemical_formula_sum "Si O2"
_cell_formula_units_Z 32
_cell_length_a 19.856611
_cell_length_b 8.658245
_cell_length_c 25.464031
_cell_angle_alpha 90.000000
_cell_angle_beta 158.302167
_cell_angle_gamma 90.000000
_cell_volume 1618.546753
_symmetry_space_group_name_H-M "P 21/M"
_symmetry_group_IT_number 11
_symmetry_cell_setting 'monoclinic'
loop_
_space_group_symop_operation_xyz
x,y,z
-x,1/2+y,-z
-x,-y,-z
x,1/2-y,z
loop_
_atom_site_type_symbol
_atom_site_label
_atom_site_fract_x
_atom_site_fract_y
_atom_site_fract_z
Si Si1 0.950750 0.926990 0.909304
Si Si2 0.672450 0.427026 0.873788
Si Si3 0.621750 0.067266 0.041987
Si Si4 0.507277 0.569799 0.850169
Si Si5 0.128661 0.430874 0.549650
Si Si6 0.020292 0.069776 0.354238
Si Si7 0.398237 0.065660 0.585467
Si Si8 0.578966 0.432149 0.609971
O O1 0.893539 0.750000 0.876252
O O2 0.788041 0.020264 0.765233
O O3 0.120479 0.941177 0.993719
O O4 0.000000 0.000000 0.000000
O O5 0.619811 0.250000 0.848284
O O6 0.659286 0.526942 0.917311
O O7 0.538114 0.493552 0.731476
O O8 0.623822 0.250000 0.049993
O O9 0.828510 0.999631 0.195254
O O10 0.500000 0.000000 0.000000
O O11 0.537262 0.022076 0.925385
O O12 0.510178 0.750000 0.865102
O O13 0.317766 0.519942 0.687392
O O14 0.161329 0.250000 0.582673
O O15 0.034123 0.464399 0.425825
O O16 0.000000 0.500000 0.500000
O O17 0.021501 0.250000 0.343597
O O18 0.195410 0.999107 0.450364
O O19 0.400572 0.250000 0.587945
O O20 0.465494 0.003295 0.577772
O O21 0.500000 0.500000 0.500000
O O22 0.563884 0.250000 0.597132
#
# Coordination Sequence:
#
# PCOD8075553 Si02
#       8
#     4   4   4   4   4   4   4   4
#     4  11  22  38  63  93 124 165 212 260 316 381
#     4  10  20  39  65  90 119 161 208 257 314 371
#     4  11  23  41  64  90 122 164 205 255 315 376
#     4  12  25  40  59  90 126 163 206 256 307 366
#     4  11  21  37  62  91 122 155 198 254 308 367
#     4   9  19  36  62  88 111 149 203 251 302 363
#     4   9  17  36  63  88 117 155 201 253 308 369
#     4  11  23  40  62  92 128 167 208 259 313 373
#
# _framework density 19.770821999999999
#
# number of rings (size 3 to 8) (size 9 to 14) (size 15 to 20)
#    0.000    1.500    2.500    3.375    0.000    3.000 
#    0.000    4.375    0.000    0.000    0.000    0.000 
#    0.000    0.000    0.000    0.000    0.000    0.000 
#
# Total GULP energy -396873.443460 kJ/mol
# GULP energy per Si atom -12402.295108 kJ/mol
# Density = 1.972582 g / cm^3
# Si number density = 19.770822 Si / 1000 Ang^3
#
#
#
# Elastic Constant Matrix: (Units=GPa)
#
#
# Indices 1 2 3 4 5 6 
#
# 1 131.6560 36.4622 39.5192 0.0000 2.0750 0.0000
# 2 36.4622 62.4707 27.4438 0.0000 2.2830 0.0000
# 3 39.5192 27.4438 108.0139 0.0000 1.7773 0.0000
# 4 0.0000 0.0000 0.0000 29.4901 0.0000 0.7716
# 5 2.0750 2.2830 1.7773 0.0000 35.5762 0.0000
# 6 0.0000 0.0000 0.0000 0.7716 0.0000 33.4588
#
#
#
# Elastic Compliance Matrix: (Units=1/GPa)
#
#
# Indices 1 2 3 4 5 6 
#
# 1 0.009559 -0.004546 -0.002340 0.000000 -0.000149 0.000000
# 2 -0.004546 0.020211 -0.003458 0.000000 -0.000859 0.000000
# 3 -0.002340 -0.003458 0.010996 0.000000 -0.000191 0.000000
# 4 0.000000 0.000000 0.000000 0.033930 0.000000 -0.000782
# 5 -0.000149 -0.000859 -0.000191 0.000000 0.028182 0.000000
# 6 0.000000 0.000000 0.000000 -0.000782 0.000000 0.029906
#
#
# Mechanical properties :
#
#
# Convention : Reuss Voigt Hill
#
# Bulk Modulus (GPa) = 49.80371 56.55456 53.17914
# Shear Modulus (GPa) = 31.21780 32.95271 32.08526
#
# Velocity S-wave (km/s) = 3.97795 4.08699 4.03284
# Velocity P-wave (km/s) = 6.80764 7.13712 6.97433
#
# Compressibility (1/GPa) = 0.02007882
#
# Stress axis : x y z
#
# Youngs Moduli (GPa) = 104.60986 49.47719 90.94302
#
# Poissons Ratio (x) = 0.22493 0.21281
# Poissons Ratio (y) = 0.47556 0.31446
# Poissons Ratio (z) = 0.24479 0.17108
#
# Static dielectric constant tensor:
#      x y z
#    x 3.819940 0.000000 0.105940 
#    y 0.000000 3.455450 0.000000 
#    z 0.105940 0.000000 3.737100 
# 
# 
# High freq. dielectric constant tensor:
#      x y z
#    x 1.785220 0.000000 0.007040 
#    y 0.000000 1.751020 0.000000 
#    z 0.007040 0.000000 1.779790 
# 
# From -- ./inp_files/72116.got.cif
#   From: 2010.06.25/outbox.cif.g09.slc.cpg/sg11_37_cif.got.tgz:72116.got - 2010.06.27 23:14:04.
