data_PCOD8075346
_publ_section_title
;
Structure prediction by ZEFSAII (Michael W. Deem and Ramdas Pophale) SiO2 
 PCOD8075346
Probable space group: P 21/M
;
_chemical_formula_sum "Si O2"
_cell_formula_units_Z 28
_cell_length_a 14.719474
_cell_length_b 8.770637
_cell_length_c 12.740165
_cell_angle_alpha 90.000000
_cell_angle_beta 120.082490
_cell_angle_gamma 90.000000
_cell_volume 1423.205179
_symmetry_space_group_name_H-M "P 21/M"
_symmetry_group_IT_number 11
_symmetry_cell_setting 'monoclinic'
loop_
_space_group_symop_operation_xyz
x,y,z
-x,1/2+y,-z
-x,-y,-z
x,1/2-y,z
loop_
_atom_site_type_symbol
_atom_site_label
_atom_site_fract_x
_atom_site_fract_y
_atom_site_fract_z
Si Si1 0.577090 0.569188 0.461570
Si Si2 0.715431 0.928897 0.977338
Si Si3 0.517575 0.068842 0.206615
Si Si4 0.891694 0.930689 0.472458
Si Si5 0.709017 0.929384 0.210436
Si Si6 0.112675 0.432013 0.087645
Si Si7 0.808626 0.569518 0.643752
O O1 0.500000 0.500000 0.500000
O O2 0.568489 0.750000 0.453616
O O3 0.554351 0.504445 0.335161
O O4 0.690506 0.511948 0.563630
O O5 0.711261 0.750000 0.957014
O O6 0.599124 0.993940 0.886374
O O7 0.802796 0.996107 0.948173
O O8 0.747946 0.969131 0.115407
O O9 0.518685 0.250000 0.215324
O O10 0.598965 0.015236 0.164662
O O11 0.897990 0.750000 0.469717
O O12 0.797478 0.988157 0.342682
O O13 0.873323 0.989449 0.580416
O O14 0.000000 0.000000 0.500000
O O15 0.688429 0.750000 0.212176
O O16 0.107314 0.250000 0.080901
O O17 0.144608 0.494717 0.220949
O O18 0.000000 0.500000 0.000000
O O19 0.811076 0.750000 0.647517
#
# Coordination Sequence:
#
# PCOD8075346 Si02
#       7
#     4   4   4   4   4   4   4
#     4  11  21  37  60  86 117 155 193 233 284 341
#     4   9  20  37  58  82 114 155 192 231 288 348
#     4  11  21  36  58  88 118 150 191 235 287 346
#     4  10  21  37  58  84 112 149 191 235 288 341
#     4  10  20  38  60  83 115 154 192 235 289 346
#     4  10  21  39  60  81 109 147 190 233 281 340
#     4   9  19  38  59  79 112 152 184 224 286 346
#
# _framework density 19.673901000000001
#
# number of rings (size 3 to 8) (size 9 to 14) (size 15 to 20)
#    0.000    2.000    1.429    2.143    2.000    2.857 
#    0.000    5.714    0.000    0.000    0.000    0.000 
#    0.000    0.000    0.000    0.000    0.000    0.000 
#
# Total GULP energy -347194.616215 kJ/mol
# GULP energy per Si atom -12399.807722 kJ/mol
# Density = 1.962912 g / cm^3
# Si number density = 19.673901 Si / 1000 Ang^3
#
#
#
# Elastic Constant Matrix: (Units=GPa)
#
#
# Indices 1 2 3 4 5 6 
#
# 1 195.1880 30.0542 89.3783 0.0000 -4.3893 0.0000
# 2 30.0542 36.7475 23.0275 0.0000 -0.5357 0.0000
# 3 89.3783 23.0275 157.2785 0.0000 -11.5902 0.0000
# 4 0.0000 0.0000 0.0000 17.8147 0.0000 3.9962
# 5 -4.3893 -0.5357 -11.5902 0.0000 36.6863 0.0000
# 6 0.0000 0.0000 0.0000 3.9962 0.0000 34.4947
#
#
#
# Elastic Compliance Matrix: (Units=1/GPa)
#
#
# Indices 1 2 3 4 5 6 
#
# 1 0.007369 -0.003735 -0.003665 0.000000 -0.000331 0.000000
# 2 -0.003735 0.031888 -0.002606 0.000000 -0.000804 0.000000
# 3 -0.003665 -0.002606 0.008997 0.000000 0.002366 0.000000
# 4 0.000000 0.000000 0.000000 0.057631 0.000000 -0.006677
# 5 -0.000331 -0.000804 0.002366 0.000000 0.027954 0.000000
# 6 0.000000 0.000000 0.000000 -0.006677 0.000000 0.029763
#
#
# Mechanical properties :
#
#
# Convention : Reuss Voigt Hill
#
# Bulk Modulus (GPa) = 35.40730 74.90381 55.15555
# Shear Modulus (GPa) = 25.90272 34.24940 30.07606
#
# Velocity S-wave (km/s) = 3.63244 4.17688 3.91414
# Velocity P-wave (km/s) = 5.96900 7.83691 6.96585
#
# Compressibility (1/GPa) = 0.02824276
#
# Stress axis : x y z
#
# Youngs Moduli (GPa) = 135.69738 31.35927 111.14883
#
# Poissons Ratio (x) = 0.11713 0.40740
# Poissons Ratio (y) = 0.50683 0.28961
# Poissons Ratio (z) = 0.49738 0.08171
#
# Static dielectric constant tensor:
#      x y z
#    x 4.213680 0.000000 -0.191510 
#    y 0.000000 3.240240 0.000000 
#    z -0.191510 0.000000 3.927920 
# 
# 
# High freq. dielectric constant tensor:
#      x y z
#    x 1.782860 0.000000 -0.005330 
#    y 0.000000 1.732530 0.000000 
#    z -0.005330 0.000000 1.783770 
# 
# From -- ./inp_files/38413.got.cif
#   From: 2010.06.25/outbox.cif.g09.slc.cpg/sg11_20_cif.got.tgz:38413.got - 2010.06.27 23:14:04.
