data_PCOD8075223
_publ_section_title
;
Structure prediction by ZEFSAII (Michael W. Deem and Ramdas Pophale) SiO2 
 PCOD8075223
Probable space group: P 21/M
;
_chemical_formula_sum "Si O2"
_cell_formula_units_Z 24
_cell_length_a 15.021601
_cell_length_b 8.828908
_cell_length_c 10.129925
_cell_angle_alpha 90.000000
_cell_angle_beta 68.559255
_cell_angle_gamma 90.000000
_cell_volume 1250.500876
_symmetry_space_group_name_H-M "P 21/M"
_symmetry_group_IT_number 11
_symmetry_cell_setting 'monoclinic'
loop_
_space_group_symop_operation_xyz
x,y,z
-x,1/2+y,-z
-x,-y,-z
x,1/2-y,z
loop_
_atom_site_type_symbol
_atom_site_label
_atom_site_fract_x
_atom_site_fract_y
_atom_site_fract_z
Si Si1 0.717474 0.574319 0.161713
Si Si2 0.200885 0.425906 0.168320
Si Si3 0.311520 0.573320 0.340564
Si Si4 0.176164 0.926229 0.658940
Si Si5 0.007485 0.928474 0.352356
Si Si6 0.507855 0.926656 0.354295
O O1 0.731693 0.750000 0.191369
O O2 0.778751 0.472554 0.226840
O O3 0.606369 0.527031 0.230509
O O4 0.750964 0.538049 0.996855
O O5 0.175442 0.250000 0.198405
O O6 0.275462 0.472915 0.239870
O O7 0.104799 0.522536 0.229518
O O8 0.302941 0.750000 0.308505
O O9 0.249778 0.534689 0.503060
O O10 0.420357 0.521936 0.308568
O O11 0.150186 0.750000 0.675441
O O12 0.079528 0.020051 0.691985
O O13 0.006492 0.750000 0.369985
O O14 0.000000 0.000000 0.500000
O O15 0.499846 0.750000 0.383721
O O16 0.500000 0.000000 0.500000
#
# Coordination Sequence:
#
# PCOD8075223 Si02
#       6
#     4   4   4   4   4   4
#     4  10  23  41  61  89 126 162 201 249 301 355
#     4  11  24  41  61  89 124 162 201 248 303 358
#     4  10  21  37  60  90 122 157 201 250 298 354
#     4  11  22  38  63  93 122 157 201 249 300 357
#     4  12  24  40  64  91 119 157 201 250 301 358
#     4  10  20  37  61  89 121 157 201 249 295 353
#
# _framework density 19.192309000000002
#
# number of rings (size 3 to 8) (size 9 to 14) (size 15 to 20)
#    0.000    1.333    3.333    2.500    0.000    4.000 
#    0.000    0.000    0.000    0.000    0.000    0.000 
#    0.000    0.000    0.000    0.000    0.000    0.000 
#
# Total GULP energy -297736.844956 kJ/mol
# GULP energy per Si atom -12405.701873 kJ/mol
# Density = 1.914863 g / cm^3
# Si number density = 19.192309 Si / 1000 Ang^3
#
#
#
# Elastic Constant Matrix: (Units=GPa)
#
#
# Indices 1 2 3 4 5 6 
#
# 1 159.7043 59.8671 56.0299 0.0000 -8.6522 0.0000
# 2 59.8671 99.3774 56.7445 0.0000 -1.6920 0.0000
# 3 56.0299 56.7445 120.2379 0.0000 -7.1472 0.0000
# 4 0.0000 0.0000 0.0000 26.8133 0.0000 7.7274
# 5 -8.6522 -1.6920 -7.1472 0.0000 31.3787 0.0000
# 6 0.0000 0.0000 0.0000 7.7274 0.0000 33.7513
#
#
#
# Elastic Compliance Matrix: (Units=1/GPa)
#
#
# Indices 1 2 3 4 5 6 
#
# 1 0.008547 -0.003974 -0.002007 0.000000 0.001685 0.000000
# 2 -0.003974 0.015640 -0.005620 0.000000 -0.001533 0.000000
# 3 -0.002007 -0.005620 0.012016 0.000000 0.001880 0.000000
# 4 0.000000 0.000000 0.000000 0.039930 0.000000 -0.009142
# 5 0.001685 -0.001533 0.001880 0.000000 0.032679 0.000000
# 6 0.000000 0.000000 0.000000 -0.009142 0.000000 0.031722
#
#
# Mechanical properties :
#
#
# Convention : Reuss Voigt Hill
#
# Bulk Modulus (GPa) = 76.92187 80.51141 78.71664
# Shear Modulus (GPa) = 29.74974 32.16720 30.95847
#
# Velocity S-wave (km/s) = 3.94138 4.09840 4.02066
# Velocity P-wave (km/s) = 7.80251 8.02725 7.91568
#
# Compressibility (1/GPa) = 0.01300020
#
# Stress axis : x y z
#
# Youngs Moduli (GPa) = 117.00400 63.93988 83.22065
#
# Poissons Ratio (x) = 0.25410 0.16703
# Poissons Ratio (y) = 0.46497 0.46771
# Poissons Ratio (z) = 0.23483 0.35935
#
# Static dielectric constant tensor:
#      x y z
#    x 3.875850 0.000000 -0.084230 
#    y 0.000000 3.291060 0.000000 
#    z -0.084230 0.000000 3.432580 
# 
# 
# High freq. dielectric constant tensor:
#      x y z
#    x 1.765780 0.000000 -0.000420 
#    y 0.000000 1.750370 0.000000 
#    z -0.000420 0.000000 1.743250 
# 
# From -- ./inp_files/20367.got.cif
#   From: 2010.06.25/outbox.cif.g09.slc.cpg/sg11_11_cif.got.tgz:20367.got - 2010.06.27 23:14:04.
