data_PCOD8075540
_publ_section_title
;
Structure prediction by ZEFSAII (Michael W. Deem and Ramdas Pophale) SiO2 
 PCOD8075540
Probable space group: P 21/M
;
_chemical_formula_sum "Si O2"
_cell_formula_units_Z 20
_cell_length_a 9.732232
_cell_length_b 18.659406
_cell_length_c 7.668546
_cell_angle_alpha 90.000000
_cell_angle_beta 46.520644
_cell_angle_gamma 90.000000
_cell_volume 1010.494469
_symmetry_space_group_name_H-M "P 21/M"
_symmetry_group_IT_number 11
_symmetry_cell_setting 'monoclinic'
loop_
_space_group_symop_operation_xyz
x,y,z
-x,1/2+y,-z
-x,-y,-z
x,1/2-y,z
loop_
_atom_site_type_symbol
_atom_site_label
_atom_site_fract_x
_atom_site_fract_y
_atom_site_fract_z
Si Si1 0.656110 0.833166 0.020545
Si Si2 0.435208 0.831362 0.557955
Si Si3 0.797881 0.036923 0.664708
Si Si4 0.089080 0.830825 0.646854
Si Si5 0.486347 0.425421 0.179073
O O1 0.623116 0.750000 0.007093
O O2 0.593228 0.877198 0.907857
O O3 0.873702 0.850428 0.876018
O O4 0.538569 0.857142 0.291709
O O5 0.493508 0.750000 0.553783
O O6 0.209226 0.837379 0.721367
O O7 0.498555 0.881501 0.658320
O O8 0.822643 0.117269 0.574503
O O9 0.661835 0.989990 0.657179
O O10 0.692067 0.042673 0.944928
O O11 0.000000 0.000000 0.500000
O O12 0.108308 0.750000 0.554675
#
# Coordination Sequence:
#
# PCOD8075540 Si02
#       5
#     4   4   4   4   4
#     4  10  20  39  64  89 123 162 203 253 303 359
#     4  10  22  40  63  94 123 159 209 253 301 363
#     4  11  23  41  61  92 126 161 209 251 306 372
#     4  10  21  40  63  86 122 165 202 253 313 362
#     4  11  23  39  64  90 123 164 206 252 307 363
#
# _framework density 19.792290000000001
#
# number of rings (size 3 to 8) (size 9 to 14) (size 15 to 20)
#    0.000    1.600    4.000    0.600    0.000    3.200 
#    0.000    2.000    0.000    0.000    0.000    0.000 
#    0.000    0.000    0.000    0.000    0.000    0.000 
#
# Total GULP energy -247972.027276 kJ/mol
# GULP energy per Si atom -12398.601364 kJ/mol
# Density = 1.974724 g / cm^3
# Si number density = 19.792290 Si / 1000 Ang^3
#
#
#
# Elastic Constant Matrix: (Units=GPa)
#
#
# Indices 1 2 3 4 5 6 
#
# 1 111.3290 50.9882 62.5958 0.0000 -15.9397 0.0000
# 2 50.9882 99.8787 47.6161 0.0000 0.8775 0.0000
# 3 62.5958 47.6161 78.1800 0.0000 -7.9218 0.0000
# 4 0.0000 0.0000 0.0000 36.0813 0.0000 -5.5751
# 5 -15.9397 0.8775 -7.9218 0.0000 36.8126 0.0000
# 6 0.0000 0.0000 0.0000 -5.5751 0.0000 23.7293
#
#
#
# Elastic Compliance Matrix: (Units=1/GPa)
#
#
# Indices 1 2 3 4 5 6 
#
# 1 0.017954 -0.003691 -0.011584 0.000000 0.005369 0.000000
# 2 -0.003691 0.015049 -0.006552 0.000000 -0.003367 0.000000
# 3 -0.011584 -0.006552 0.026134 0.000000 0.000764 0.000000
# 4 0.000000 0.000000 0.000000 0.028759 0.000000 0.006757
# 5 0.005369 -0.003367 0.000764 0.000000 0.029734 0.000000
# 6 0.000000 0.000000 0.000000 0.006757 0.000000 0.043729
#
#
# Mechanical properties :
#
#
# Convention : Reuss Voigt Hill
#
# Bulk Modulus (GPa) = 64.57952 67.97642 66.27797
# Shear Modulus (GPa) = 23.78973 27.87049 25.83011
#
# Velocity S-wave (km/s) = 3.47070 3.75660 3.61648
# Velocity P-wave (km/s) = 6.98287 7.29627 7.14129
#
# Compressibility (1/GPa) = 0.01548479
#
# Stress axis : x y z
#
# Youngs Moduli (GPa) = 55.69673 66.44745 38.26481
#
# Poissons Ratio (x) = 0.24523 0.44324
# Poissons Ratio (y) = 0.20555 0.25072
# Poissons Ratio (z) = 0.64517 0.43538
#
# Static dielectric constant tensor:
#      x y z
#    x 3.787040 0.000000 -0.331320 
#    y 0.000000 3.888620 0.000000 
#    z -0.331320 0.000000 3.458120 
# 
# 
# High freq. dielectric constant tensor:
#      x y z
#    x 1.774610 0.000000 -0.027010 
#    y 0.000000 1.791820 0.000000 
#    z -0.027010 0.000000 1.752210 
# 
# From -- ./inp_files/2286.got.cif
#   From: 2010.06.25/outbox.cif.g09.slc.cpg/sg11_2_cif.got.tgz:2286.got - 2010.06.27 23:14:04.
