data_PCOD8075065
_publ_section_title
;
Structure prediction by ZEFSAII (Michael W. Deem and Ramdas Pophale) SiO2 
 PCOD8075065
Probable space group: P 21/M
;
_chemical_formula_sum "Si O2"
_cell_formula_units_Z 24
_cell_length_a 22.561251
_cell_length_b 8.860911
_cell_length_c 16.179067
_cell_angle_alpha 90.000000
_cell_angle_beta 22.872071
_cell_angle_gamma 90.000000
_cell_volume 1257.133751
_symmetry_space_group_name_H-M "P 21/M"
_symmetry_group_IT_number 11
_symmetry_cell_setting 'monoclinic'
loop_
_space_group_symop_operation_xyz
x,y,z
-x,1/2+y,-z
-x,-y,-z
x,1/2-y,z
loop_
_atom_site_type_symbol
_atom_site_label
_atom_site_fract_x
_atom_site_fract_y
_atom_site_fract_z
Si Si1 0.895002 0.926267 0.566760
Si Si2 0.699433 0.071401 0.533352
Si Si3 0.452157 0.074849 0.977279
Si Si4 0.411881 0.926285 0.498039
Si Si5 0.714792 0.425505 0.162670
Si Si6 0.974390 0.428955 0.290922
O O1 0.931236 0.750000 0.513011
O O2 0.723397 0.957373 0.817525
O O3 0.000000 0.000000 0.500000
O O4 0.922191 0.001327 0.443881
O O5 0.698038 0.250000 0.536997
O O6 0.683008 0.016472 0.459774
O O7 0.857518 0.013085 0.370118
O O8 0.555561 0.008300 0.770362
O O9 0.485269 0.250000 0.945702
O O10 0.500000 0.000000 0.000000
O O11 0.455318 0.750000 0.436401
O O12 0.307476 0.958776 0.711605
O O13 0.567340 0.020572 0.301794
O O14 0.742348 0.250000 0.109656
O O15 0.857720 0.519491 0.948179
O O16 0.971612 0.250000 0.303555
#
# Coordination Sequence:
#
# PCOD8075065 Si02
#       6
#     4   4   4   4   4   4
#     4  11  24  39  58  87 119 152 191 235 285 338
#     4   9  19  36  59  85 110 147 194 234 280 342
#     4  10  20  37  59  83 114 150 189 230 280 336
#     4   9  19  38  62  84 112 151 192 235 288 345
#     4  10  21  37  57  86 119 148 187 240 288 340
#     4  11  22  38  60  83 113 153 192 235 287 341
#
# _framework density 19.091045999999999
#
# number of rings (size 3 to 8) (size 9 to 14) (size 15 to 20)
#    0.000    2.000    1.667    1.500    2.333    2.000 
#    0.000    2.500    0.000    0.000    0.000    0.000 
#    0.000    0.000    0.000    0.000    0.000    0.000 
#
# Total GULP energy -297629.833795 kJ/mol
# GULP energy per Si atom -12401.243075 kJ/mol
# Density = 1.904759 g / cm^3
# Si number density = 19.091046 Si / 1000 Ang^3
#
#
#
# Elastic Constant Matrix: (Units=GPa)
#
#
# Indices 1 2 3 4 5 6 
#
# 1 104.8915 27.9610 1.7417 0.0000 -10.7309 0.0000
# 2 27.9610 65.6153 30.2348 0.0000 -8.0272 0.0000
# 3 1.7417 30.2348 65.5924 0.0000 -3.3644 0.0000
# 4 0.0000 0.0000 0.0000 20.2483 0.0000 1.1828
# 5 -10.7309 -8.0272 -3.3644 0.0000 26.7763 0.0000
# 6 0.0000 0.0000 0.0000 1.1828 0.0000 29.9931
#
#
#
# Elastic Compliance Matrix: (Units=1/GPa)
#
#
# Indices 1 2 3 4 5 6 
#
# 1 0.011294 -0.005538 0.002415 0.000000 0.003169 0.000000
# 2 -0.005538 0.022675 -0.010135 0.000000 0.003305 0.000000
# 3 0.002415 -0.010135 0.019875 0.000000 0.000427 0.000000
# 4 0.000000 0.000000 0.000000 0.049501 0.000000 -0.001952
# 5 0.003169 0.003305 0.000427 0.000000 0.039661 0.000000
# 6 0.000000 0.000000 0.000000 -0.001952 0.000000 0.033418
#
#
# Mechanical properties :
#
#
# Convention : Reuss Voigt Hill
#
# Bulk Modulus (GPa) = 36.59221 39.55270 38.07245
# Shear Modulus (GPa) = 23.57939 27.14766 25.36353
#
# Velocity S-wave (km/s) = 3.51821 3.77505 3.64889
# Velocity P-wave (km/s) = 5.97600 6.30589 6.14316
#
# Compressibility (1/GPa) = 0.02732822
#
# Stress axis : x y z
#
# Youngs Moduli (GPa) = 88.54186 44.10165 50.31367
#
# Poissons Ratio (x) = 0.24424 -0.12153
# Poissons Ratio (y) = 0.49035 0.50995
# Poissons Ratio (z) = -0.21387 0.44699
#
# Static dielectric constant tensor:
#      x y z
#    x 3.401450 0.000000 0.051580 
#    y 0.000000 3.425710 0.000000 
#    z 0.051580 0.000000 3.718820 
# 
# 
# High freq. dielectric constant tensor:
#      x y z
#    x 1.752710 0.000000 -0.001030 
#    y 0.000000 1.731810 0.000000 
#    z -0.001030 0.000000 1.750490 
# 
# From -- ./inp_files/20617.got.cif
#   From: 2010.06.25/outbox.cif.g09.slc.cpg/sg11_11_cif.got.tgz:20617.got - 2010.06.27 23:14:04.
