data_PCOD8075748
_publ_section_title
;
Structure prediction by ZEFSAII (Michael W. Deem and Ramdas Pophale) SiO2 
 PCOD8075748
Probable space group: P 21/M
;
_chemical_formula_sum "Si O2"
_cell_formula_units_Z 28
_cell_length_a 11.304281
_cell_length_b 20.950684
_cell_length_c 16.122726
_cell_angle_alpha 90.000000
_cell_angle_beta 21.192311
_cell_angle_gamma 90.000000
_cell_volume 1380.343790
_symmetry_space_group_name_H-M "P 21/M"
_symmetry_group_IT_number 11
_symmetry_cell_setting 'monoclinic'
loop_
_space_group_symop_operation_xyz
x,y,z
-x,1/2+y,-z
-x,-y,-z
x,1/2-y,z
loop_
_atom_site_type_symbol
_atom_site_label
_atom_site_fract_x
_atom_site_fract_y
_atom_site_fract_z
Si Si1 0.769500 0.017259 0.992292
Si Si2 0.155854 0.088219 0.345979
Si Si3 0.024379 0.677665 0.387326
Si Si4 0.212710 0.099212 0.601946
Si Si5 0.229672 0.594807 0.640188
Si Si6 0.407131 0.980905 0.376637
Si Si7 0.254804 0.178050 0.130805
O O1 0.976115 0.080820 0.833885
O O2 0.403399 0.029091 0.197008
O O3 0.935651 0.955522 0.843528
O O4 0.736075 0.003817 0.113416
O O5 0.295211 0.132739 0.182840
O O6 0.134848 0.130056 0.442753
O O7 0.809157 0.058941 0.547251
O O8 0.910204 0.750000 0.480346
O O9 0.907089 0.661190 0.369824
O O10 0.416324 0.672745 0.138296
O O11 0.575542 0.109739 0.402846
O O12 0.210599 0.042384 0.536626
O O13 0.483005 0.564195 0.406778
O O14 0.059995 0.659102 0.718871
O O15 0.195710 0.250000 0.200350
#
# Coordination Sequence:
#
# PCOD8075748 Si02
#       7
#     4   4   4   4   4   4   4
#     4  11  20  35  59  86 122 150 183 233 295 347
#     4  11  21  36  61  91 114 148 195 241 294 339
#     4  11  23  40  61  84 113 150 199 247 285 337
#     4  11  23  38  55  90 120 154 190 232 292 351
#     4  10  24  37  57  89 119 152 196 230 285 353
#     4  10  21  35  59  87 121 149 184 236 288 341
#     4  10  22  41  62  81 111 155 198 241 283 334
#
# _framework density 20.284801999999999
#
# number of rings (size 3 to 8) (size 9 to 14) (size 15 to 20)
#    0.000    1.429    2.857    3.429    2.000    4.571 
#    0.000    0.000    0.000    0.000    0.000    0.000 
#    0.000    0.000    0.000    0.000    0.000    0.000 
#
# Total GULP energy -347099.162544 kJ/mol
# GULP energy per Si atom -12396.398662 kJ/mol
# Density = 2.023863 g / cm^3
# Si number density = 20.284802 Si / 1000 Ang^3
#
#
#
# Elastic Constant Matrix: (Units=GPa)
#
#
# Indices 1 2 3 4 5 6 
#
# 1 95.6549 37.5350 39.0568 0.0000 -0.6562 0.0000
# 2 37.5350 67.0523 21.3102 0.0000 -0.0365 0.0000
# 3 39.0568 21.3102 55.2174 0.0000 20.1254 0.0000
# 4 0.0000 0.0000 0.0000 18.8866 0.0000 6.8705
# 5 -0.6562 -0.0365 20.1254 0.0000 24.5850 0.0000
# 6 0.0000 0.0000 0.0000 6.8705 0.0000 16.2756
#
#
#
# Elastic Compliance Matrix: (Units=1/GPa)
#
#
# Indices 1 2 3 4 5 6 
#
# 1 0.019723 -0.005609 -0.017067 0.000000 0.014489 0.000000
# 2 -0.005609 0.019679 -0.005107 0.000000 0.004060 0.000000
# 3 -0.017067 -0.005107 0.046067 0.000000 -0.038174 0.000000
# 4 0.000000 0.000000 0.000000 0.062554 0.000000 -0.026406
# 5 0.014489 0.004060 -0.038174 0.000000 0.072317 0.000000
# 6 0.000000 0.000000 0.000000 -0.026406 0.000000 0.072589
#
#
# Mechanical properties :
#
#
# Convention : Reuss Voigt Hill
#
# Bulk Modulus (GPa) = 33.44248 45.96985 39.70616
# Shear Modulus (GPa) = 13.94847 19.95095 16.94971
#
# Velocity S-wave (km/s) = 2.62512 3.13955 2.89379
# Velocity P-wave (km/s) = 5.07056 5.98780 5.54817
#
# Compressibility (1/GPa) = 0.02990209
#
# Stress axis : x y z
#
# Youngs Moduli (GPa) = 50.70161 50.81601 21.70761
#
# Poissons Ratio (x) = 0.28501 0.37049
# Poissons Ratio (y) = 0.28437 0.11087
# Poissons Ratio (z) = 0.86534 0.25954
#
# Static dielectric constant tensor:
#      x y z
#    x 3.668540 0.000000 0.217270 
#    y 0.000000 3.587050 0.000000 
#    z 0.217270 0.000000 3.641220 
# 
# 
# High freq. dielectric constant tensor:
#      x y z
#    x 1.793690 0.000000 0.009520 
#    y 0.000000 1.776340 0.000000 
#    z 0.009520 0.000000 1.788530 
# 
# From -- ./inp_files/59708.got.cif
#   From: 2010.06.25/outbox.cif.g09.slc.cpg/sg11_30_cif.got.tgz:59708.got - 2010.06.27 23:14:04.
