data_PCOD8075797
_publ_section_title
;
Structure prediction by ZEFSAII (Michael W. Deem and Ramdas Pophale) SiO2 
 PCOD8075797
Probable space group: P 21/M
;
_chemical_formula_sum "Si O2"
_cell_formula_units_Z 28
_cell_length_a 31.213029
_cell_length_b 8.828269
_cell_length_c 31.213015
_cell_angle_alpha 90.000000
_cell_angle_beta 170.461088
_cell_angle_gamma 90.000000
_cell_volume 1425.329572
_symmetry_space_group_name_H-M "P 21/M"
_symmetry_group_IT_number 11
_symmetry_cell_setting 'monoclinic'
loop_
_space_group_symop_operation_xyz
x,y,z
-x,1/2+y,-z
-x,-y,-z
x,1/2-y,z
loop_
_atom_site_type_symbol
_atom_site_label
_atom_site_fract_x
_atom_site_fract_y
_atom_site_fract_z
Si Si1 0.120365 0.429012 0.379667
Si Si2 0.739221 0.070633 0.760779
Si Si3 0.306326 0.074244 0.193637
Si Si4 0.595802 0.429984 0.904233
Si Si5 0.023258 0.928337 0.476759
Si Si6 0.549194 0.571191 0.950820
Si Si7 0.833786 0.075281 0.666168
O O1 0.119514 0.250000 0.380523
O O2 0.359224 0.494039 0.642669
O O3 0.144915 0.476946 0.355073
O O4 0.857380 0.494040 0.140830
O O5 0.742793 0.250000 0.757208
O O6 0.500000 0.000000 0.500000
O O7 0.714132 0.033639 0.785865
O O8 0.000000 0.000000 0.000000
O O9 0.299176 0.250000 0.200829
O O10 0.570072 0.033149 0.429861
O O11 0.070056 0.033160 0.929854
O O12 0.595110 0.250000 0.904932
O O13 0.571859 0.490508 0.928134
O O14 0.020318 0.750000 0.479707
O O15 0.286607 0.983749 0.714356
O O16 0.000000 0.000000 0.500000
O O17 0.785670 0.983748 0.213416
O O18 0.552925 0.750000 0.947084
O O19 0.840551 0.250000 0.659407
#
# Coordination Sequence:
#
# PCOD8075797 Si02
#       7
#     4   4   4   4   4   4   4
#     4  10  21  36  54  78 109 141 179 226 272 324
#     4  12  25  42  65  93 124 162 205 250 303 361
#     4  10  21  38  58  84 117 151 191 240 288 342
#     4  10  21  36  54  78 106 140 179 220 269 323
#     4  10  21  36  54  78 106 136 173 214 261 313
#     4  10  21  36  54  78 106 136 173 218 262 312
#     4  10  21  36  57  83 112 148 189 232 283 339
#
# _framework density 19.644579
#
# number of rings (size 3 to 8) (size 9 to 14) (size 15 to 20)
#    0.000    1.714    0.000    4.286    0.000    4.571 
#    0.000    0.000    0.000    0.000    0.000    0.000 
#    0.000    0.000    0.000    0.000    0.000    0.000 
#
# Total GULP energy -347358.515060 kJ/mol
# GULP energy per Si atom -12405.661252 kJ/mol
# Density = 1.959987 g / cm^3
# Si number density = 19.644579 Si / 1000 Ang^3
#
#
#
# Elastic Constant Matrix: (Units=GPa)
#
#
# Indices 1 2 3 4 5 6 
#
# 1 155.0008 38.5732 93.5596 0.0000 0.4800 0.0000
# 2 38.5732 50.7836 42.2746 0.0000 0.3267 0.0000
# 3 93.5596 42.2746 213.5909 0.0000 4.6990 0.0000
# 4 0.0000 0.0000 0.0000 19.2444 0.0000 -2.1750
# 5 0.4800 0.3267 4.6990 0.0000 33.7759 0.0000
# 6 0.0000 0.0000 0.0000 -2.1750 0.0000 43.8910
#
#
#
# Elastic Compliance Matrix: (Units=1/GPa)
#
#
# Indices 1 2 3 4 5 6 
#
# 1 0.009571 -0.004520 -0.003306 0.000000 0.000368 0.000000
# 2 -0.004520 0.025716 -0.003115 0.000000 0.000249 0.000000
# 3 -0.003306 -0.003115 0.006765 0.000000 -0.000864 0.000000
# 4 0.000000 0.000000 0.000000 0.052256 0.000000 0.002590
# 5 0.000368 0.000249 -0.000864 0.000000 0.029719 0.000000
# 6 0.000000 0.000000 0.000000 0.002590 0.000000 0.022912
#
#
# Mechanical properties :
#
#
# Convention : Reuss Voigt Hill
#
# Bulk Modulus (GPa) = 49.57801 85.35445 67.46623
# Shear Modulus (GPa) = 28.48261 35.71347 32.09804
#
# Velocity S-wave (km/s) = 3.81188 4.26840 4.04659
# Velocity P-wave (km/s) = 6.68328 8.23626 7.50008
#
# Compressibility (1/GPa) = 0.02017023
#
# Stress axis : x y z
#
# Youngs Moduli (GPa) = 104.48623 38.88560 147.80897
#
# Poissons Ratio (x) = 0.17576 0.48862
# Poissons Ratio (y) = 0.47228 0.46049
# Poissons Ratio (z) = 0.34540 0.12115
#
# Static dielectric constant tensor:
#      x y z
#    x 3.568660 0.000000 -0.000470 
#    y 0.000000 3.413900 0.000000 
#    z -0.000470 0.000000 3.563040 
# 
# 
# High freq. dielectric constant tensor:
#      x y z
#    x 1.781010 0.000000 0.000970 
#    y 0.000000 1.752780 0.000000 
#    z 0.000970 0.000000 1.792040 
# 
# From -- ./inp_files/9640.got.cif
#   From: 2010.06.25/outbox.cif.g09.slc.cpg/sg11_5_cif.got.tgz:9640.got - 2010.06.27 23:14:04.
