data_PCOD8075465
_publ_section_title
;
Structure prediction by ZEFSAII (Michael W. Deem and Ramdas Pophale) SiO2 
 PCOD8075465
Probable space group: P 21/M
;
_chemical_formula_sum "Si O2"
_cell_formula_units_Z 24
_cell_length_a 15.502914
_cell_length_b 14.553613
_cell_length_c 9.176150
_cell_angle_alpha 90.000000
_cell_angle_beta 35.929094
_cell_angle_gamma 90.000000
_cell_volume 1214.849945
_symmetry_space_group_name_H-M "P 21/M"
_symmetry_group_IT_number 11
_symmetry_cell_setting 'monoclinic'
loop_
_space_group_symop_operation_xyz
x,y,z
-x,1/2+y,-z
-x,-y,-z
x,1/2-y,z
loop_
_atom_site_type_symbol
_atom_site_label
_atom_site_fract_x
_atom_site_fract_y
_atom_site_fract_z
Si Si1 0.357550 0.642636 0.367079
Si Si2 0.178061 0.149451 0.440309
Si Si3 0.503234 0.851950 0.875516
Si Si4 0.441822 0.490001 0.742736
Si Si5 0.927402 0.026771 0.247999
Si Si6 0.113934 0.441449 0.249066
O O1 0.341255 0.750000 0.428506
O O2 0.492732 0.602705 0.276278
O O3 0.212869 0.586040 0.604104
O O4 0.376852 0.627583 0.166982
O O5 0.121339 0.250000 0.569704
O O6 0.349881 0.139149 0.232137
O O7 0.153700 0.144057 0.298645
O O8 0.097420 0.069811 0.637710
O O9 0.484980 0.750000 0.833716
O O10 0.503961 0.922355 0.743217
O O11 0.500000 0.500000 0.500000
O O12 0.265000 0.493178 0.997051
O O13 0.034135 0.087315 0.207010
O O14 0.000000 0.000000 0.000000
O O15 0.000000 0.500000 0.500000
#
# Coordination Sequence:
#
# PCOD8075465 Si02
#       6
#     4   4   4   4   4   4
#     4  11  23  41  67  92 122 168 221 265 311 380
#     4  10  20  38  64  90 120 165 216 261 307 374
#     4  10  20  38  65  92 119 164 215 262 312 370
#     4  12  23  39  64  94 129 167 209 271 321 379
#     4  11  23  41  62  94 132 170 205 258 334 386
#     4  10  22  38  60  90 125 166 210 258 314 375
#
# _framework density 19.755527000000001
#
# number of rings (size 3 to 8) (size 9 to 14) (size 15 to 20)
#    0.000    1.333    3.333    3.500    0.000    2.000 
#    0.000    5.000    0.000    0.000    0.000    0.000 
#    0.000    0.000    0.000    0.000    0.000    0.000 
#
# Total GULP energy -297476.680523 kJ/mol
# GULP energy per Si atom -12394.861688 kJ/mol
# Density = 1.971056 g / cm^3
# Si number density = 19.755527 Si / 1000 Ang^3
#
#
#
# Elastic Constant Matrix: (Units=GPa)
#
#
# Indices 1 2 3 4 5 6 
#
# 1 93.7999 41.8854 52.0254 0.0000 1.9494 0.0000
# 2 41.8854 117.8239 52.2696 0.0000 7.1624 0.0000
# 3 52.0254 52.2696 128.3239 0.0000 7.1433 0.0000
# 4 0.0000 0.0000 0.0000 18.5552 0.0000 -4.6416
# 5 1.9494 7.1624 7.1433 0.0000 36.3940 0.0000
# 6 0.0000 0.0000 0.0000 -4.6416 0.0000 8.1471
#
#
#
# Elastic Compliance Matrix: (Units=1/GPa)
#
#
# Indices 1 2 3 4 5 6 
#
# 1 0.014668 -0.003178 -0.004695 0.000000 0.000761 0.000000
# 2 -0.003178 0.011102 -0.003156 0.000000 -0.001395 0.000000
# 3 -0.004695 -0.003156 0.011054 0.000000 -0.001297 0.000000
# 4 0.000000 0.000000 0.000000 0.062850 0.000000 0.035807
# 5 0.000761 -0.001395 -0.001297 0.000000 0.027965 0.000000
# 6 0.000000 0.000000 0.000000 0.035807 0.000000 0.143144
#
#
# Mechanical properties :
#
#
# Convention : Reuss Voigt Hill
#
# Bulk Modulus (GPa) = 67.72078 70.25650 68.98864
# Shear Modulus (GPa) = 16.79189 25.53707 21.16448
#
# Velocity S-wave (km/s) = 2.91861 3.59925 3.27665
# Velocity P-wave (km/s) = 6.76103 7.27413 7.02227
#
# Compressibility (1/GPa) = 0.01476652
#
# Stress axis : x y z
#
# Youngs Moduli (GPa) = 68.17494 90.07480 90.46632
#
# Poissons Ratio (x) = 0.28626 0.42471
# Poissons Ratio (y) = 0.21666 0.28551
# Poissons Ratio (z) = 0.32006 0.28428
#
# Static dielectric constant tensor:
#      x y z
#    x 4.052530 0.000000 -0.034730 
#    y 0.000000 3.514590 0.000000 
#    z -0.034730 0.000000 3.586650 
# 
# 
# High freq. dielectric constant tensor:
#      x y z
#    x 1.778490 0.000000 -0.004810 
#    y 0.000000 1.761590 0.000000 
#    z -0.004810 0.000000 1.771420 
# 
# From -- ./inp_files/22012.got.cif
#   From: 2010.06.25/outbox.cif.g09.slc.cpg/sg11_12_cif.got.tgz:22012.got - 2010.06.27 23:14:04.
