data_PCOD8075954
_publ_section_title
;
Structure prediction by ZEFSAII (Michael W. Deem and Ramdas Pophale) SiO2 
 PCOD8075954
Probable space group: P 21/M
;
_chemical_formula_sum "Si O2"
_cell_formula_units_Z 32
_cell_length_a 12.738455
_cell_length_b 8.838831
_cell_length_c 30.712916
_cell_angle_alpha 90.000000
_cell_angle_beta 154.041632
_cell_angle_gamma 90.000000
_cell_volume 1513.655347
_symmetry_space_group_name_H-M "P 21/M"
_symmetry_group_IT_number 11
_symmetry_cell_setting 'monoclinic'
loop_
_space_group_symop_operation_xyz
x,y,z
-x,1/2+y,-z
-x,-y,-z
x,1/2-y,z
loop_
_atom_site_type_symbol
_atom_site_label
_atom_site_fract_x
_atom_site_fract_y
_atom_site_fract_z
Si Si1 0.342378 0.071458 0.772094
Si Si2 0.698413 0.573867 0.421291
Si Si3 0.232883 0.573471 0.297680
Si Si4 0.000171 0.916190 0.869505
Si Si5 0.540093 0.583364 0.058919
Si Si6 0.937208 0.427696 0.259983
Si Si7 0.125624 0.571781 0.006222
Si Si8 0.237653 0.927450 0.643258
O O1 0.305307 0.250000 0.759289
O O2 0.591184 0.024185 0.888655
O O3 0.109036 0.998258 0.709377
O O4 0.352309 0.014170 0.726358
O O5 0.685896 0.750000 0.404483
O O6 0.504789 0.531008 0.386111
O O7 0.633937 0.480945 0.353497
O O8 0.957113 0.528448 0.536054
O O9 0.201766 0.750000 0.293474
O O10 0.061246 0.525868 0.193315
O O11 0.165368 0.492479 0.318016
O O12 0.882859 0.750000 0.816902
O O13 0.282384 0.891409 0.983081
O O14 0.955621 0.982049 0.901507
O O15 0.666045 0.750000 0.101638
O O16 0.700053 0.468463 0.145417
O O17 0.500000 0.500000 0.000000
O O18 0.974231 0.250000 0.278469
O O19 0.107179 0.750000 0.003825
O O20 0.000000 0.500000 0.000000
O O21 0.277960 0.750000 0.664258
#
# Coordination Sequence:
#
# PCOD8075954 Si02
#       8
#     4   4   4   4   4   4   4   4
#     4  11  23  42  63  86 120 161 203 245 297 359
#     4   9  21  42  65  92 123 153 192 243 300 361
#     4  11  23  38  60  88 120 159 200 246 300 355
#     4  10  21  37  54  79 115 155 197 242 288 341
#     4  11  20  34  54  77 110 152 196 241 286 337
#     4  12  24  38  57  85 120 158 203 251 297 355
#     4  10  23  40  56  80 118 158 198 244 291 346
#     4  10  21  40  67  95 120 151 194 245 300 359
#
# _framework density 21.140875999999999
#
# number of rings (size 3 to 8) (size 9 to 14) (size 15 to 20)
#    0.000    1.500    2.500    2.625    1.750    3.500 
#    0.000    0.625    0.000    0.000    0.000    0.000 
#    0.000    0.000    0.000    0.000    0.000    0.000 
#
# Total GULP energy -396554.286810 kJ/mol
# GULP energy per Si atom -12392.321463 kJ/mol
# Density = 2.109276 g / cm^3
# Si number density = 21.140876 Si / 1000 Ang^3
#
#
#
# Elastic Constant Matrix: (Units=GPa)
#
#
# Indices 1 2 3 4 5 6 
#
# 1 102.2554 44.4610 -3.1281 0.0000 6.8220 0.0000
# 2 44.4610 102.0754 15.7869 0.0000 0.3707 0.0000
# 3 -3.1281 15.7869 28.1838 0.0000 0.0324 0.0000
# 4 0.0000 0.0000 0.0000 25.7524 0.0000 -1.1494
# 5 6.8220 0.3707 0.0324 0.0000 34.7372 0.0000
# 6 0.0000 0.0000 0.0000 -1.1494 0.0000 39.0717
#
#
#
# Elastic Compliance Matrix: (Units=1/GPa)
#
#
# Indices 1 2 3 4 5 6 
#
# 1 0.012865 -0.006368 0.004998 0.000000 -0.002463 0.000000
# 2 -0.006368 0.013878 -0.008482 0.000000 0.001110 0.000000
# 3 0.004998 -0.008482 0.040788 0.000000 -0.000929 0.000000
# 4 0.000000 0.000000 0.000000 0.038882 0.000000 0.001144
# 5 -0.002463 0.001110 -0.000929 0.000000 0.029260 0.000000
# 6 0.000000 0.000000 0.000000 0.001144 0.000000 0.025628
#
#
# Mechanical properties :
#
#
# Convention : Reuss Voigt Hill
#
# Bulk Modulus (GPa) = 20.90836 38.52823 29.71829
# Shear Modulus (GPa) = 25.38741 31.60524 28.49632
#
# Velocity S-wave (km/s) = 3.46911 3.87069 3.67539
# Velocity P-wave (km/s) = 5.09488 6.18389 5.66561
#
# Compressibility (1/GPa) = 0.04782777
#
# Stress axis : x y z
#
# Youngs Moduli (GPa) = 77.72801 72.05646 24.51699
#
# Poissons Ratio (x) = 0.45884 -0.12253
# Poissons Ratio (y) = 0.49495 0.20794
# Poissons Ratio (z) = -0.38845 0.61116
#
# Static dielectric constant tensor:
#      x y z
#    x 4.010330 0.000000 0.127500 
#    y 0.000000 3.705280 0.000000 
#    z 0.127500 0.000000 3.610230 
# 
# 
# High freq. dielectric constant tensor:
#      x y z
#    x 1.848180 0.000000 0.004200 
#    y 0.000000 1.827480 0.000000 
#    z 0.004200 0.000000 1.804550 
# 
# From -- ./inp_files/73184.got.cif
#   From: 2010.06.25/outbox.cif.g09.slc.cpg/sg11_37_cif.got.tgz:73184.got - 2010.06.27 23:14:04.
