data_PCOD8075644
_publ_section_title
;
Structure prediction by ZEFSAII (Michael W. Deem and Ramdas Pophale) SiO2 
 PCOD8075644
Probable space group: P 21/M
;
_chemical_formula_sum "Si O2"
_cell_formula_units_Z 24
_cell_length_a 14.176707
_cell_length_b 19.684389
_cell_length_c 12.032147
_cell_angle_alpha 90.000000
_cell_angle_beta 21.392773
_cell_angle_gamma 90.000000
_cell_volume 1224.748331
_symmetry_space_group_name_H-M "P 21/M"
_symmetry_group_IT_number 11
_symmetry_cell_setting 'monoclinic'
loop_
_space_group_symop_operation_xyz
x,y,z
-x,1/2+y,-z
-x,-y,-z
x,1/2-y,z
loop_
_atom_site_type_symbol
_atom_site_label
_atom_site_fract_x
_atom_site_fract_y
_atom_site_fract_z
Si Si1 0.680358 0.963381 0.459006
Si Si2 0.666244 0.328946 0.501279
Si Si3 0.552393 0.552374 0.842857
Si Si4 0.010575 0.918833 0.468316
Si Si5 0.232011 0.914708 0.804019
Si Si6 0.897372 0.831282 0.807817
O O1 0.613893 0.984231 0.658395
O O2 0.442988 0.919799 0.669914
O O3 0.716828 0.031116 0.349538
O O4 0.944176 0.919795 0.168733
O O5 0.657617 0.250000 0.527013
O O6 0.733809 0.344002 0.298457
O O7 0.891600 0.357164 0.334431
O O8 0.382474 0.357188 0.843650
O O9 0.796340 0.599230 0.609957
O O10 0.500000 0.500000 0.000000
O O11 0.297384 0.599219 0.108880
O O12 0.955538 0.872504 0.633653
O O13 0.000000 0.000000 0.500000
O O14 0.908358 0.750000 0.774908
#
# Coordination Sequence:
#
# PCOD8075644 Si02
#       6
#     4   4   4   4   4   4
#     4  10  21  36  53  83 113 145 184 224 291 327
#     4  10  21  36  59  84 110 149 189 234 288 333
#     4  10  21  35  53  82 111 147 188 231 269 337
#     4  10  21  32  53  83 106 151 184 229 285 327
#     4  10  21  35  57  79 113 149 174 238 278 340
#     4  10  21  36  55  83 118 147 187 242 287 340
#
# _framework density 19.595862
#
# number of rings (size 3 to 8) (size 9 to 14) (size 15 to 20)
#    0.000    2.000    0.000    3.000    9.333    0.000 
#    0.000    0.000    0.000    6.000    0.000    0.000 
#    0.000    0.000    0.000    0.000    0.000    0.000 
#
# Total GULP energy -297453.771097 kJ/mol
# GULP energy per Si atom -12393.907129 kJ/mol
# Density = 1.955126 g / cm^3
# Si number density = 19.595862 Si / 1000 Ang^3
#
#
#
# Elastic Constant Matrix: (Units=GPa)
#
#
# Indices 1 2 3 4 5 6 
#
# 1 145.2062 18.7979 79.3191 0.0000 -13.5226 0.0000
# 2 18.7979 22.9079 18.2200 0.0000 1.0911 0.0000
# 3 79.3191 18.2200 164.4569 0.0000 -24.3353 0.0000
# 4 0.0000 0.0000 0.0000 19.6331 0.0000 12.6658
# 5 -13.5226 1.0911 -24.3353 0.0000 57.7099 0.0000
# 6 0.0000 0.0000 0.0000 12.6658 0.0000 26.0295
#
#
#
# Elastic Compliance Matrix: (Units=1/GPa)
#
#
# Indices 1 2 3 4 5 6 
#
# 1 0.009813 -0.004822 -0.004101 0.000000 0.000661 0.000000
# 2 -0.004822 0.050856 -0.003859 0.000000 -0.003719 0.000000
# 3 -0.004101 -0.003859 0.008911 0.000000 0.002870 0.000000
# 4 0.000000 0.000000 0.000000 0.074240 0.000000 -0.036125
# 5 0.000661 -0.003719 0.002870 0.000000 0.018763 0.000000
# 6 0.000000 0.000000 0.000000 -0.036125 0.000000 0.055996
#
#
# Mechanical properties :
#
#
# Convention : Reuss Voigt Hill
#
# Bulk Modulus (GPa) = 22.71890 62.80500 42.76195
# Shear Modulus (GPa) = 19.31894 35.09010 27.20452
#
# Velocity S-wave (km/s) = 3.14326 4.23624 3.73000
# Velocity P-wave (km/s) = 4.97919 7.48648 6.35766
#
# Compressibility (1/GPa) = 0.04401621
#
# Stress axis : x y z
#
# Youngs Moduli (GPa) = 101.91031 19.66331 112.22708
#
# Poissons Ratio (x) = 0.09482 0.46020
# Poissons Ratio (y) = 0.49142 0.43306
# Poissons Ratio (z) = 0.41789 0.07588
#
# Static dielectric constant tensor:
#      x y z
#    x 4.318160 0.000000 -0.979720 
#    y 0.000000 3.044080 0.000000 
#    z -0.979720 0.000000 4.814370 
# 
# 
# High freq. dielectric constant tensor:
#      x y z
#    x 1.775710 0.000000 -0.022560 
#    y 0.000000 1.711710 0.000000 
#    z -0.022560 0.000000 1.787130 
# 
# From -- ./inp_files/30148.got.cif
#   From: 2010.06.25/outbox.cif.g09.slc.cpg/sg11_16_cif.got.tgz:30148.got - 2010.06.27 23:14:04.
