data_PCOD8075517
_publ_section_title
;
Structure prediction by ZEFSAII (Michael W. Deem and Ramdas Pophale) SiO2 
 PCOD8075517
Probable space group: P 21/M
;
_chemical_formula_sum "Si O2"
_cell_formula_units_Z 28
_cell_length_a 8.981117
_cell_length_b 8.461929
_cell_length_c 28.787966
_cell_angle_alpha 90.000000
_cell_angle_beta 141.097656
_cell_angle_gamma 90.000000
_cell_volume 1373.937021
_symmetry_space_group_name_H-M "P 21/M"
_symmetry_group_IT_number 11
_symmetry_cell_setting 'monoclinic'
loop_
_space_group_symop_operation_xyz
x,y,z
-x,1/2+y,-z
-x,-y,-z
x,1/2-y,z
loop_
_atom_site_type_symbol
_atom_site_label
_atom_site_fract_x
_atom_site_fract_y
_atom_site_fract_z
Si Si1 0.134084 0.062139 0.216152
Si Si2 0.958430 0.436362 0.351878
Si Si3 0.597069 0.062886 0.071633
Si Si4 0.553584 0.432960 0.790186
Si Si5 0.686247 0.563176 0.640856
Si Si6 0.152175 0.561692 0.494450
Si Si7 0.259703 0.434371 0.070062
O O1 0.161785 0.250000 0.217855
O O2 0.220598 0.000174 0.287210
O O3 0.865011 0.004993 0.144131
O O4 0.293485 0.977012 0.217146
O O5 0.910600 0.250000 0.335689
O O6 0.717533 0.529612 0.285792
O O7 0.144064 0.499758 0.358738
O O8 0.059375 0.475246 0.426529
O O9 0.588177 0.250000 0.069326
O O10 0.436827 0.992720 0.074448
O O11 0.500000 0.000000 0.000000
O O12 0.585666 0.250000 0.809504
O O13 0.643555 0.531911 0.855567
O O14 0.692128 0.750000 0.642487
O O15 0.420628 0.503499 0.567492
O O16 0.132038 0.750000 0.484581
O O17 0.000000 0.500000 0.500000
O O18 0.246111 0.250000 0.059189
O O19 0.000000 0.500000 0.000000
#
# Coordination Sequence:
#
# PCOD8075517 Si02
#       7
#     4   4   4   4   4   4   4
#     4  10  20  39  63  86 113 154 200 245 295 351
#     4  11  22  40  63  87 117 157 198 244 297 352
#     4  10  22  38  60  87 118 154 197 242 290 346
#     4  12  25  40  59  89 122 156 198 246 294 350
#     4   9  20  38  62  87 115 152 198 245 296 352
#     4  11  22  38  60  90 122 156 197 244 294 352
#     4  11  23  41  63  90 121 157 197 242 293 351
#
# _framework density 20.379390999999998
#
# number of rings (size 3 to 8) (size 9 to 14) (size 15 to 20)
#    0.000    1.429    0.000    5.571    0.000    7.429 
#    0.000    5.714    0.000    0.000    0.000    0.000 
#    0.000    0.000    0.000    0.000    0.000    0.000 
#
# Total GULP energy -347332.197183 kJ/mol
# GULP energy per Si atom -12404.721328 kJ/mol
# Density = 2.033301 g / cm^3
# Si number density = 20.379391 Si / 1000 Ang^3
#
#
#
# Elastic Constant Matrix: (Units=GPa)
#
#
# Indices 1 2 3 4 5 6 
#
# 1 192.6195 17.6078 77.3556 0.0000 5.5266 0.0000
# 2 17.6078 35.8340 1.1567 0.0000 6.1189 0.0000
# 3 77.3556 1.1567 160.7690 0.0000 4.0492 0.0000
# 4 0.0000 0.0000 0.0000 33.1861 0.0000 -3.3386
# 5 5.5266 6.1189 4.0492 0.0000 48.7931 0.0000
# 6 0.0000 0.0000 0.0000 -3.3386 0.0000 26.3828
#
#
#
# Elastic Compliance Matrix: (Units=1/GPa)
#
#
# Indices 1 2 3 4 5 6 
#
# 1 0.006790 -0.003215 -0.003242 0.000000 -0.000097 0.000000
# 2 -0.003215 0.030042 0.001420 0.000000 -0.003521 0.000000
# 3 -0.003242 0.001420 0.007781 0.000000 -0.000457 0.000000
# 4 0.000000 0.000000 0.000000 0.030522 0.000000 0.003862
# 5 -0.000097 -0.003521 -0.000457 0.000000 0.020985 0.000000
# 6 0.000000 0.000000 0.000000 0.003862 0.000000 0.038392
#
#
# Mechanical properties :
#
#
# Convention : Reuss Voigt Hill
#
# Bulk Modulus (GPa) = 28.95321 64.60697 46.78009
# Shear Modulus (GPa) = 32.03092 41.21256 36.62174
#
# Velocity S-wave (km/s) = 3.96881 4.50184 4.24370
# Velocity P-wave (km/s) = 5.93632 7.66766 6.85685
#
# Compressibility (1/GPa) = 0.03453848
#
# Stress axis : x y z
#
# Youngs Moduli (GPa) = 147.27391 33.28702 128.51678
#
# Poissons Ratio (x) = 0.10703 0.41659
# Poissons Ratio (y) = 0.47352 -0.18244
# Poissons Ratio (z) = 0.47739 -0.04725
#
# Static dielectric constant tensor:
#      x y z
#    x 3.570330 0.000000 0.207240 
#    y 0.000000 3.465030 0.000000 
#    z 0.207240 0.000000 3.767830 
# 
# 
# High freq. dielectric constant tensor:
#      x y z
#    x 1.820090 0.000000 0.000990 
#    y 0.000000 1.782180 0.000000 
#    z 0.000990 0.000000 1.816620 
# 
# From -- ./inp_files/63398.got.cif
#   From: 2010.06.25/outbox.cif.g09.slc.cpg/sg11_32_cif.got.tgz:63398.got - 2010.06.27 23:14:04.
