data_PCOD8075164
_publ_section_title
;
Structure prediction by ZEFSAII (Michael W. Deem and Ramdas Pophale) SiO2 
 PCOD8075164
Probable space group: P 21/M
;
_chemical_formula_sum "Si O2"
_cell_formula_units_Z 20
_cell_length_a 18.277245
_cell_length_b 10.021515
_cell_length_c 5.194006
_cell_angle_alpha 90.000000
_cell_angle_beta 73.795106
_cell_angle_gamma 90.000000
_cell_volume 913.565847
_symmetry_space_group_name_H-M "P 21/M"
_symmetry_group_IT_number 11
_symmetry_cell_setting 'monoclinic'
loop_
_space_group_symop_operation_xyz
x,y,z
-x,1/2+y,-z
-x,-y,-z
x,1/2-y,z
loop_
_atom_site_type_symbol
_atom_site_label
_atom_site_fract_x
_atom_site_fract_y
_atom_site_fract_z
Si Si1 0.260883 0.903298 0.523249
Si Si2 0.112605 0.894836 0.380593
Si Si3 0.566194 0.750000 0.195829
Si Si4 0.656313 0.016091 0.061396
Si Si5 0.963759 0.601173 0.837397
Si Si6 0.537419 0.250000 0.202972
O O1 0.286220 0.750000 0.481948
O O2 0.170824 0.922521 0.557940
O O3 0.277993 0.957619 0.791153
O O4 0.308043 0.980525 0.257806
O O5 0.135347 0.750000 0.226404
O O6 0.026383 0.876292 0.557340
O O7 0.112064 0.024348 0.193862
O O8 0.622180 0.626588 0.145731
O O9 0.514615 0.750000 0.496821
O O10 0.513625 0.750000 0.998920
O O11 0.588506 0.119673 0.158349
O O12 0.941426 0.750000 0.967918
O O13 0.000000 0.500000 0.000000
#
# Coordination Sequence:
#
# PCOD8075164 Si02
#       6
#     4   4   2   4   4   2
#     4  11  22  42  66  92 127 171 218 256 313 377
#     4   9  21  38  61  85 117 166 209 262 304 362
#     4  12  26  42  66 100 128 165 202 267 322 372
#     4  12  24  43  66  96 131 164 212 261 313 383
#     4  10  20  37  60  91 123 156 214 258 311 365
#     4  12  22  44  70  94 126 165 218 251 316 376
#
# _framework density 21.892237999999999
#
# number of rings (size 3 to 8) (size 9 to 14) (size 15 to 20)
#    0.000    1.200    2.000    4.200    2.800    0.800 
#    3.600    0.000    0.000    0.000    0.000    0.000 
#    0.000    0.000    0.000    0.000    0.000    0.000 
#
# Total GULP energy -247894.282759 kJ/mol
# GULP energy per Si atom -12394.714138 kJ/mol
# Density = 2.184241 g / cm^3
# Si number density = 21.892238 Si / 1000 Ang^3
#
#
#
# Elastic Constant Matrix: (Units=GPa)
#
#
# Indices 1 2 3 4 5 6 
#
# 1 107.5148 49.7950 3.8899 0.0000 33.6769 0.0000
# 2 49.7950 175.9102 5.1306 0.0000 25.0449 0.0000
# 3 3.8899 5.1306 62.4444 0.0000 19.7055 0.0000
# 4 0.0000 0.0000 0.0000 83.7845 0.0000 1.2249
# 5 33.6769 25.0449 19.7055 0.0000 43.1245 0.0000
# 6 0.0000 0.0000 0.0000 1.2249 0.0000 26.0964
#
#
#
# Elastic Compliance Matrix: (Units=1/GPa)
#
#
# Indices 1 2 3 4 5 6 
#
# 1 0.013596 -0.002445 0.002637 0.000000 -0.010403 0.000000
# 2 -0.002445 0.006665 0.000261 0.000000 -0.002081 0.000000
# 3 0.002637 0.000261 0.019311 0.000000 -0.011035 0.000000
# 4 0.000000 0.000000 0.000000 0.011944 0.000000 -0.000561
# 5 -0.010403 -0.002081 -0.011035 0.000000 0.037564 0.000000
# 6 0.000000 0.000000 0.000000 -0.000561 0.000000 0.038346
#
#
# Mechanical properties :
#
#
# Convention : Reuss Voigt Hill
#
# Bulk Modulus (GPa) = 24.70369 51.50002 38.10186
# Shear Modulus (GPa) = 35.71136 49.73800 42.72468
#
# Velocity S-wave (km/s) = 4.04324 4.77167 4.42247
# Velocity P-wave (km/s) = 5.75376 7.34396 6.59695
#
# Compressibility (1/GPa) = 0.04047978
#
# Stress axis : x y z
#
# Youngs Moduli (GPa) = 73.54935 150.02811 51.78460
#
# Poissons Ratio (x) = 0.36675 -0.13654
# Poissons Ratio (y) = 0.17979 -0.01354
# Poissons Ratio (z) = -0.19393 -0.03923
#
# Static dielectric constant tensor:
#      x y z
#    x 4.103290 0.000000 0.136890 
#    y 0.000000 4.417890 0.000000 
#    z 0.136890 0.000000 3.890940 
# 
# 
# High freq. dielectric constant tensor:
#      x y z
#    x 1.865740 0.000000 0.013360 
#    y 0.000000 1.872200 0.000000 
#    z 0.013360 0.000000 1.849920 
# 
# From -- ./inp_files/7462.got.cif
#   From: 2010.06.25/outbox.cif.g09.slc.cpg/sg11_4_cif.got.tgz:7462.got - 2010.06.27 23:14:04.
