data_PCOD8075784
_publ_section_title
;
Structure prediction by ZEFSAII (Michael W. Deem and Ramdas Pophale) SiO2 
 PCOD8075784
Probable space group: P 21/M
;
_chemical_formula_sum "Si O2"
_cell_formula_units_Z 32
_cell_length_a 21.892491
_cell_length_b 9.104329
_cell_length_c 28.238414
_cell_angle_alpha 90.000000
_cell_angle_beta 161.228225
_cell_angle_gamma 90.000000
_cell_volume 1811.208903
_symmetry_space_group_name_H-M "P 21/M"
_symmetry_group_IT_number 11
_symmetry_cell_setting 'monoclinic'
loop_
_space_group_symop_operation_xyz
x,y,z
-x,1/2+y,-z
-x,-y,-z
x,1/2-y,z
loop_
_atom_site_type_symbol
_atom_site_label
_atom_site_fract_x
_atom_site_fract_y
_atom_site_fract_z
Si Si1 0.881042 0.075484 0.055776
Si Si2 0.420011 0.575483 0.094745
Si Si3 0.943976 0.577729 0.911003
Si Si4 0.182530 0.420177 0.353969
Si Si5 0.301435 0.077281 0.844366
Si Si6 0.526835 0.922715 0.569766
Si Si7 0.187914 0.422273 0.654945
Si Si8 0.868279 0.420172 0.196844
O O1 0.884019 0.250000 0.058834
O O2 0.916095 0.019018 0.028163
O O3 0.051565 0.022318 0.214759
O O4 0.679188 0.018584 0.929189
O O5 0.416670 0.750000 0.091500
O O6 0.635634 0.519037 0.247701
O O7 0.295659 0.522304 0.958850
O O8 0.969192 0.750000 0.936769
O O9 0.730441 0.536834 0.740509
O O10 0.000000 0.500000 0.000000
O O11 0.236448 0.250000 0.386177
O O12 0.372450 0.517104 0.493781
O O13 0.074028 0.442723 0.324029
O O14 0.328611 0.250000 0.870604
O O15 0.229283 0.036820 0.739353
O O16 0.142220 0.017115 0.763554
O O17 0.500000 0.000000 0.000000
O O18 0.503413 0.750000 0.545402
O O19 0.500000 0.000000 0.500000
O O20 0.160508 0.250000 0.628087
O O21 0.000000 0.500000 0.500000
O O22 0.835355 0.250000 0.185633
#
# Coordination Sequence:
#
# PCOD8075784 Si02
#       8
#     4   4   4   4   4   4   4   4
#     4   8  14  29  53  76 100 132 172 217 261 309
#     4   8  14  29  53  76 100 132 172 217 261 309
#     4  10  21  36  53  77 107 141 178 218 268 318
#     4   9  17  32  55  81 108 138 176 223 271 318
#     4  11  21  34  54  80 110 141 177 220 270 322
#     4  11  21  34  54  80 110 141 177 220 270 322
#     4  10  21  36  53  77 107 141 178 218 268 318
#     4   9  17  32  55  81 108 138 176 223 271 318
#
# _framework density 17.667757000000002
#
# number of rings (size 3 to 8) (size 9 to 14) (size 15 to 20)
#    0.000    2.500    2.500    2.250    0.000    2.500 
#    0.000    1.250    0.000    5.250    0.000    0.000 
#    0.000    0.000    0.000    0.000    0.000    0.000 
#
# Total GULP energy -396672.449783 kJ/mol
# GULP energy per Si atom -12396.014056 kJ/mol
# Density = 1.762754 g / cm^3
# Si number density = 17.667757 Si / 1000 Ang^3
#
#
#
# Elastic Constant Matrix: (Units=GPa)
#
#
# Indices 1 2 3 4 5 6 
#
# 1 161.4596 51.5486 82.5824 0.0000 14.8691 0.0000
# 2 51.5486 53.3304 51.8462 0.0000 -0.2008 0.0000
# 3 82.5824 51.8462 120.6319 0.0000 13.5791 0.0000
# 4 0.0000 0.0000 0.0000 29.5261 0.0000 0.8171
# 5 14.8691 -0.2008 13.5791 0.0000 29.6672 0.0000
# 6 0.0000 0.0000 0.0000 0.8171 0.0000 30.7016
#
#
#
# Elastic Compliance Matrix: (Units=1/GPa)
#
#
# Indices 1 2 3 4 5 6 
#
# 1 0.010659 -0.006180 -0.004254 0.000000 -0.003437 0.000000
# 2 -0.006180 0.037194 -0.012791 0.000000 0.009204 0.000000
# 3 -0.004254 -0.012791 0.017363 0.000000 -0.005902 0.000000
# 4 0.000000 0.000000 0.000000 0.033893 0.000000 -0.000902
# 5 -0.003437 0.009204 -0.005902 0.000000 0.038194 0.000000
# 6 0.000000 0.000000 0.000000 -0.000902 0.000000 0.032596
#
#
# Mechanical properties :
#
#
# Convention : Reuss Voigt Hill
#
# Bulk Modulus (GPa) = 53.28532 78.59735 65.94133
# Shear Modulus (GPa) = 22.46139 27.94199 25.20169
#
# Velocity S-wave (km/s) = 3.56943 3.98115 3.78090
# Velocity P-wave (km/s) = 6.87116 8.10652 7.51427
#
# Compressibility (1/GPa) = 0.01876690
#
# Stress axis : x y z
#
# Youngs Moduli (GPa) = 93.81858 26.88586 57.59245
#
# Poissons Ratio (x) = 0.16616 0.24498
# Poissons Ratio (y) = 0.57983 0.73665
# Poissons Ratio (z) = 0.39908 0.34389
#
# Static dielectric constant tensor:
#      x y z
#    x 3.752230 0.000000 0.322280 
#    y 0.000000 3.035450 0.000000 
#    z 0.322280 0.000000 3.289840 
# 
# 
# High freq. dielectric constant tensor:
#      x y z
#    x 1.696260 0.000000 0.021900 
#    y 0.000000 1.656790 0.000000 
#    z 0.021900 0.000000 1.664860 
# 
# From -- ./inp_files/72049.got.cif
#   From: 2010.06.25/outbox.cif.g09.slc.cpg/sg11_37_cif.got.tgz:72049.got - 2010.06.27 23:14:04.
