data_PCOD8075693
_publ_section_title
;
Structure prediction by ZEFSAII (Michael W. Deem and Ramdas Pophale) SiO2 
 PCOD8075693
Probable space group: P 21/M
;
_chemical_formula_sum "Si O2"
_cell_formula_units_Z 32
_cell_length_a 11.520770
_cell_length_b 9.028577
_cell_length_c 20.810213
_cell_angle_alpha 90.000000
_cell_angle_beta 126.902479
_cell_angle_gamma 90.000000
_cell_volume 1730.939918
_symmetry_space_group_name_H-M "P 21/M"
_symmetry_group_IT_number 11
_symmetry_cell_setting 'monoclinic'
loop_
_space_group_symop_operation_xyz
x,y,z
-x,1/2+y,-z
-x,-y,-z
x,1/2-y,z
loop_
_atom_site_type_symbol
_atom_site_label
_atom_site_fract_x
_atom_site_fract_y
_atom_site_fract_z
Si Si1 0.287066 0.423798 0.454097
Si Si2 0.472470 0.423591 0.392277
Si Si3 0.903140 0.921760 0.914420
Si Si4 0.982881 0.077842 0.314221
Si Si5 0.916858 0.077442 0.151177
Si Si6 0.662754 0.076732 0.222716
Si Si7 0.367356 0.425383 0.921592
Si Si8 0.405780 0.425283 0.229359
O O1 0.295935 0.250000 0.470707
O O2 0.355152 0.463916 0.407400
O O3 0.372678 0.504173 0.539507
O O4 0.121558 0.488037 0.398470
O O5 0.499309 0.250000 0.395912
O O6 0.415934 0.487817 0.305316
O O7 0.904248 0.750000 0.932824
O O8 0.737773 0.985172 0.855863
O O9 0.966288 0.950580 0.864821
O O10 0.000000 0.000000 0.000000
O O11 0.015786 0.250000 0.319860
O O12 0.978653 0.017761 0.239666
O O13 0.830236 0.046275 0.300020
O O14 0.872590 0.250000 0.141622
O O15 0.774746 0.981753 0.087942
O O16 0.643011 0.250000 0.198463
O O17 0.552412 0.026762 0.241507
O O18 0.630255 0.976721 0.150956
O O19 0.378076 0.250000 0.929472
O O20 0.500000 0.500000 0.000000
O O21 0.389971 0.250000 0.227407
#
# Coordination Sequence:
#
# PCOD8075693 Si02
#       8
#     4   4   4   4   4   4   4   4
#     4   9  16  28  49  75 102 131 169 214 256 300
#     4   9  17  30  49  74 100 132 170 209 255 305
#     4  10  21  35  52  76 103 133 170 212 258 310
#     4   8  14  28  51  73  95 129 171 210 249 300
#     4   9  18  34  53  74 100 131 171 212 254 306
#     4   9  18  34  54  76 100 134 176 213 254 307
#     4  11  22  35  53  75 100 130 169 215 262 307
#     4   9  18  34  55  75 102 139 174 208 253 313
#
# _framework density 18.487065999999999
#
# number of rings (size 3 to 8) (size 9 to 14) (size 15 to 20)
#    0.000    2.750    0.000    2.625    1.750    3.500 
#    0.000    4.375    0.000    4.500    0.000    0.000 
#    0.000    0.000    0.000    0.000    0.000    0.000 
#
# Total GULP energy -396633.898223 kJ/mol
# GULP energy per Si atom -12394.809319 kJ/mol
# Density = 1.844499 g / cm^3
# Si number density = 18.487066 Si / 1000 Ang^3
#
#
#
# Elastic Constant Matrix: (Units=GPa)
#
#
# Indices 1 2 3 4 5 6 
#
# 1 107.5998 27.8250 62.8668 0.0000 20.1185 0.0000
# 2 27.8250 50.5261 30.5976 0.0000 8.8474 0.0000
# 3 62.8668 30.5976 135.9890 0.0000 31.7228 0.0000
# 4 0.0000 0.0000 0.0000 26.8764 0.0000 2.6122
# 5 20.1185 8.8474 31.7228 0.0000 34.8504 0.0000
# 6 0.0000 0.0000 0.0000 2.6122 0.0000 19.0225
#
#
#
# Elastic Compliance Matrix: (Units=1/GPa)
#
#
# Indices 1 2 3 4 5 6 
#
# 1 0.013630 -0.004177 -0.004790 0.000000 -0.002448 0.000000
# 2 -0.004177 0.024250 -0.003367 0.000000 -0.000681 0.000000
# 3 -0.004790 -0.003367 0.012037 0.000000 -0.007337 0.000000
# 4 0.000000 0.000000 0.000000 0.037711 0.000000 -0.005178
# 5 -0.002448 -0.000681 -0.007337 0.000000 0.036958 0.000000
# 6 0.000000 0.000000 0.000000 -0.005178 0.000000 0.053281
#
#
# Mechanical properties :
#
#
# Convention : Reuss Voigt Hill
#
# Bulk Modulus (GPa) = 39.60437 59.63264 49.61851
# Shear Modulus (GPa) = 23.70221 27.67154 25.68688
#
# Velocity S-wave (km/s) = 3.58452 3.87305 3.73158
# Velocity P-wave (km/s) = 6.21297 7.23375 6.74271
#
# Compressibility (1/GPa) = 0.02524974
#
# Stress axis : x y z
#
# Youngs Moduli (GPa) = 73.36582 41.23741 83.07653
#
# Poissons Ratio (x) = 0.17224 0.39798
# Poissons Ratio (y) = 0.30643 0.27969
# Poissons Ratio (z) = 0.35146 0.13883
#
# Static dielectric constant tensor:
#      x y z
#    x 3.578780 0.000000 0.225710 
#    y 0.000000 3.117690 0.000000 
#    z 0.225710 0.000000 3.264030 
# 
# 
# High freq. dielectric constant tensor:
#      x y z
#    x 1.717820 0.000000 0.017050 
#    y 0.000000 1.680760 0.000000 
#    z 0.017050 0.000000 1.719750 
# 
# From -- ./inp_files/64433.got.cif
#   From: 2010.06.25/outbox.cif.g09.slc.cpg/sg11_33_cif.got.tgz:64433.got - 2010.06.27 23:14:04.
