data_PCOD8075554
_publ_section_title
;
Structure prediction by ZEFSAII (Michael W. Deem and Ramdas Pophale) SiO2 
 PCOD8075554
Probable space group: P 21/M
;
_chemical_formula_sum "Si O2"
_cell_formula_units_Z 24
_cell_length_a 8.483769
_cell_length_b 14.780047
_cell_length_c 9.161652
_cell_angle_alpha 90.000000
_cell_angle_beta 87.365547
_cell_angle_gamma 90.000000
_cell_volume 1147.570030
_symmetry_space_group_name_H-M "P 21/M"
_symmetry_group_IT_number 11
_symmetry_cell_setting 'monoclinic'
loop_
_space_group_symop_operation_xyz
x,y,z
-x,1/2+y,-z
-x,-y,-z
x,1/2-y,z
loop_
_atom_site_type_symbol
_atom_site_label
_atom_site_fract_x
_atom_site_fract_y
_atom_site_fract_z
Si Si1 0.452301 0.147729 0.671548
Si Si2 0.828638 0.149824 0.121670
Si Si3 0.900495 0.554832 0.726086
Si Si4 0.360469 0.957868 0.099742
Si Si5 0.708069 0.149749 0.431535
Si Si6 0.161932 0.457487 0.582903
O O1 0.398809 0.250000 0.707398
O O2 0.569829 0.116535 0.793677
O O3 0.535716 0.140550 0.510341
O O4 0.300455 0.083327 0.674863
O O5 0.843601 0.250000 0.056163
O O6 0.696926 0.146111 0.255852
O O7 0.000641 0.123470 0.177756
O O8 0.773445 0.085135 0.995815
O O9 0.732366 0.534702 0.806847
O O10 0.865240 0.598313 0.566118
O O11 0.008275 0.464147 0.694203
O O12 0.500000 0.000000 0.000000
O O13 0.779173 0.250000 0.473755
O O14 0.808708 0.061982 0.474066
#
# Coordination Sequence:
#
# PCOD8075554 Si02
#       6
#     4   4   4   4   4   4
#     4  11  23  39  63  94 124 159 210 259 306 360
#     4  10  22  40  60  88 125 162 201 248 310 372
#     4  10  22  39  63  88 118 163 206 244 307 366
#     4  12  24  40  63  89 123 163 204 252 312 372
#     4   9  18  35  62  90 118 158 204 252 302 359
#     4  10  20  39  65  90 121 158 205 262 301 358
#
# _framework density 20.913757
#
# number of rings (size 3 to 8) (size 9 to 14) (size 15 to 20)
#    0.000    1.667    1.667    3.500    2.333    0.667 
#    0.000    7.500    0.000    0.000    0.000    0.000 
#    0.000    0.000    0.000    0.000    0.000    0.000 
#
# Total GULP energy -297374.858362 kJ/mol
# GULP energy per Si atom -12390.619098 kJ/mol
# Density = 2.086616 g / cm^3
# Si number density = 20.913757 Si / 1000 Ang^3
#
#
#
# Elastic Constant Matrix: (Units=GPa)
#
#
# Indices 1 2 3 4 5 6 
#
# 1 88.4026 25.2105 27.8873 0.0000 -8.1955 0.0000
# 2 25.2105 80.7575 16.1085 0.0000 2.5476 0.0000
# 3 27.8873 16.1085 64.4348 0.0000 0.3556 0.0000
# 4 0.0000 0.0000 0.0000 20.5284 0.0000 3.0725
# 5 -8.1955 2.5476 0.3556 0.0000 49.2992 0.0000
# 6 0.0000 0.0000 0.0000 3.0725 0.0000 18.2232
#
#
#
# Elastic Compliance Matrix: (Units=1/GPa)
#
#
# Indices 1 2 3 4 5 6 
#
# 1 0.014209 -0.003460 -0.005299 0.000000 0.002579 0.000000
# 2 -0.003460 0.013896 -0.001969 0.000000 -0.001279 0.000000
# 3 -0.005299 -0.001969 0.018310 0.000000 -0.000911 0.000000
# 4 0.000000 0.000000 0.000000 0.049974 0.000000 -0.008426
# 5 0.002579 -0.001279 -0.000911 0.000000 0.020786 0.000000
# 6 0.000000 0.000000 0.000000 -0.008426 0.000000 0.056296
#
#
# Mechanical properties :
#
#
# Convention : Reuss Voigt Hill
#
# Bulk Modulus (GPa) = 40.06616 41.33416 40.70016
# Shear Modulus (GPa) = 24.60049 28.56939 26.58494
#
# Velocity S-wave (km/s) = 3.43342 3.70003 3.56922
# Velocity P-wave (km/s) = 5.90908 6.16933 6.04061
#
# Compressibility (1/GPa) = 0.02495872
#
# Stress axis : x y z
#
# Youngs Moduli (GPa) = 70.37606 71.96259 54.61399
#
# Poissons Ratio (x) = 0.24901 0.28940
# Poissons Ratio (y) = 0.24352 0.10755
# Poissons Ratio (z) = 0.37292 0.14172
#
# Static dielectric constant tensor:
#      x y z
#    x 3.667160 0.000000 -0.114640 
#    y 0.000000 3.740720 0.000000 
#    z -0.114640 0.000000 3.844500 
# 
# 
# High freq. dielectric constant tensor:
#      x y z
#    x 1.813100 0.000000 -0.002180 
#    y 0.000000 1.800640 0.000000 
#    z -0.002180 0.000000 1.821280 
# 
# From -- ./inp_files/12558.got.cif
#   From: 2010.06.25/outbox.cif.g09.slc.cpg/sg11_7_cif.got.tgz:12558.got - 2010.06.27 23:14:04.
