data_PCOD8075384
_publ_section_title
;
Structure prediction by ZEFSAII (Michael W. Deem and Ramdas Pophale) SiO2 
 PCOD8075384
Probable space group: P 21/M
;
_chemical_formula_sum "Si O2"
_cell_formula_units_Z 28
_cell_length_a 11.725809
_cell_length_b 8.962819
_cell_length_c 15.365145
_cell_angle_alpha 90.000000
_cell_angle_beta 60.390846
_cell_angle_gamma 90.000000
_cell_volume 1403.950302
_symmetry_space_group_name_H-M "P 21/M"
_symmetry_group_IT_number 11
_symmetry_cell_setting 'monoclinic'
loop_
_space_group_symop_operation_xyz
x,y,z
-x,1/2+y,-z
-x,-y,-z
x,1/2-y,z
loop_
_atom_site_type_symbol
_atom_site_label
_atom_site_fract_x
_atom_site_fract_y
_atom_site_fract_z
Si Si1 0.548829 0.425691 0.069031
Si Si2 0.373606 0.073257 0.297279
Si Si3 0.184710 0.420563 0.992210
Si Si4 0.076914 0.422680 0.394774
Si Si5 0.137805 0.920837 0.659818
Si Si6 0.934138 0.579863 0.148129
Si Si7 0.594939 0.424806 0.533711
O O1 0.539477 0.250000 0.061385
O O2 0.461018 0.479967 0.183203
O O3 0.697241 0.472278 0.028841
O O4 0.500000 0.500000 0.000000
O O5 0.381651 0.250000 0.308072
O O6 0.225702 0.018621 0.332162
O O7 0.429536 0.994795 0.362356
O O8 0.216298 0.250000 0.006005
O O9 0.158603 0.437630 0.899945
O O10 0.059361 0.472691 0.094411
O O11 0.076276 0.250000 0.417798
O O12 0.000000 0.500000 0.500000
O O13 0.001761 0.454221 0.332914
O O14 0.147418 0.750000 0.687551
O O15 0.254795 0.957438 0.549093
O O16 0.151738 0.028223 0.737377
O O17 0.981065 0.750000 0.141274
O O18 0.500000 0.500000 0.500000
O O19 0.563925 0.250000 0.549239
#
# Coordination Sequence:
#
# PCOD8075384 Si02
#       7
#     4   4   4   4   4   4   4
#     4  11  25  43  64  92 124 163 212 259 313 374
#     4  10  23  42  64  90 123 164 206 255 311 367
#     4  10  22  42  64  88 122 160 203 255 312 368
#     4  10  20  38  61  87 119 155 197 246 299 355
#     4  10  22  38  60  90 123 160 198 248 308 365
#     4  10  22  39  63  94 121 156 203 254 308 365
#     4  11  24  41  62  91 127 166 210 254 307 370
#
# _framework density 19.943726999999999
#
# number of rings (size 3 to 8) (size 9 to 14) (size 15 to 20)
#    0.000    1.714    1.429    1.714    4.000    4.571 
#    0.000    0.000    0.000    0.000    0.000    0.000 
#    0.000    0.000    0.000    0.000    0.000    0.000 
#
# Total GULP energy -347335.752239 kJ/mol
# GULP energy per Si atom -12404.848294 kJ/mol
# Density = 1.989833 g / cm^3
# Si number density = 19.943727 Si / 1000 Ang^3
#
#
#
# Elastic Constant Matrix: (Units=GPa)
#
#
# Indices 1 2 3 4 5 6 
#
# 1 110.0605 39.4851 42.6573 0.0000 5.0587 0.0000
# 2 39.4851 71.7801 51.0452 0.0000 14.0762 0.0000
# 3 42.6573 51.0452 123.2129 0.0000 20.5426 0.0000
# 4 0.0000 0.0000 0.0000 37.6081 0.0000 1.6729
# 5 5.0587 14.0762 20.5426 0.0000 23.8142 0.0000
# 6 0.0000 0.0000 0.0000 1.6729 0.0000 34.4071
#
#
#
# Elastic Compliance Matrix: (Units=1/GPa)
#
#
# Indices 1 2 3 4 5 6 
#
# 1 0.011779 -0.005366 -0.002297 0.000000 0.002651 0.000000
# 2 -0.005366 0.022805 -0.006462 0.000000 -0.006766 0.000000
# 3 -0.002297 -0.006462 0.012696 0.000000 -0.006644 0.000000
# 4 0.000000 0.000000 0.000000 0.026648 0.000000 -0.001296
# 5 0.002651 -0.006766 -0.006644 0.000000 0.051159 0.000000
# 6 0.000000 0.000000 0.000000 -0.001296 0.000000 0.029127
#
#
# Mechanical properties :
#
#
# Convention : Reuss Voigt Hill
#
# Bulk Modulus (GPa) = 52.54698 63.49209 58.01953
# Shear Modulus (GPa) = 26.48178 30.62360 28.55269
#
# Velocity S-wave (km/s) = 3.64789 3.92280 3.78784
# Velocity P-wave (km/s) = 6.64437 7.24034 6.94874
#
# Compressibility (1/GPa) = 0.01903059
#
# Stress axis : x y z
#
# Youngs Moduli (GPa) = 84.89342 43.84913 78.76334
#
# Poissons Ratio (x) = 0.23530 0.18092
# Poissons Ratio (y) = 0.45554 0.50898
# Poissons Ratio (z) = 0.19501 0.28336
#
# Static dielectric constant tensor:
#      x y z
#    x 3.824750 0.000000 -0.036120 
#    y 0.000000 3.665440 0.000000 
#    z -0.036120 0.000000 3.625700 
# 
# 
# High freq. dielectric constant tensor:
#      x y z
#    x 1.785000 0.000000 0.001820 
#    y 0.000000 1.780570 0.000000 
#    z 0.001820 0.000000 1.783660 
# 
# From -- ./inp_files/49149.got.cif
#   From: 2010.06.25/outbox.cif.g09.slc.cpg/sg11_25_cif.got.tgz:49149.got - 2010.06.27 23:14:04.
