data_PCOD8075411
_publ_section_title
;
Structure prediction by ZEFSAII (Michael W. Deem and Ramdas Pophale) SiO2 
 PCOD8075411
Probable space group: P 21/M
;
_chemical_formula_sum "Si O2"
_cell_formula_units_Z 32
_cell_length_a 11.909158
_cell_length_b 13.224179
_cell_length_c 9.793333
_cell_angle_alpha 90.000000
_cell_angle_beta 91.591928
_cell_angle_gamma 90.000000
_cell_volume 1541.745342
_symmetry_space_group_name_H-M "P 21/M"
_symmetry_group_IT_number 11
_symmetry_cell_setting 'monoclinic'
loop_
_space_group_symop_operation_xyz
x,y,z
-x,1/2+y,-z
-x,-y,-z
x,1/2-y,z
loop_
_atom_site_type_symbol
_atom_site_label
_atom_site_fract_x
_atom_site_fract_y
_atom_site_fract_z
Si Si1 0.577769 0.536476 0.799841
Si Si2 0.696000 0.633039 0.550953
Si Si3 0.056084 0.133280 0.373891
Si Si4 0.259792 0.630819 0.238464
Si Si5 0.663977 0.510339 0.295808
Si Si6 0.816178 0.366548 0.460938
Si Si7 0.293593 0.130952 0.967199
Si Si8 0.901765 0.978009 0.893630
O O1 0.652450 0.601121 0.697324
O O2 0.620421 0.419813 0.795444
O O3 0.447464 0.545112 0.760998
O O4 0.598324 0.584553 0.950084
O O5 0.671302 0.750000 0.529908
O O6 0.828943 0.606619 0.542093
O O7 0.631357 0.575141 0.428366
O O8 0.059049 0.250000 0.328843
O O9 0.042395 0.065915 0.239807
O O10 0.949759 0.110421 0.467858
O O11 0.265367 0.750000 0.211457
O O12 0.233851 0.602940 0.394525
O O13 0.163958 0.582460 0.139498
O O14 0.755145 0.425905 0.337073
O O15 0.715568 0.582651 0.182730
O O16 0.793137 0.250000 0.429428
O O17 0.307305 0.250000 0.951961
O O18 0.181796 0.105407 0.047438
O O19 0.000000 0.000000 0.000000
#
# Coordination Sequence:
#
# PCOD8075411 Si02
#       8
#     4   4   4   4   4   4   4   4
#     4  11  23  44  63  90 125 173 211 256 315 376
#     4  11  22  39  66  94 121 161 216 262 313 373
#     4  10  20  38  62  87 122 165 207 250 310 377
#     4  10  22  40  60  89 125 168 212 257 314 374
#     4  12  24  41  62  98 128 160 212 270 313 364
#     4  10  22  39  62  94 130 167 205 257 318 375
#     4  11  24  43  64  90 127 166 213 260 317 375
#     4  11  22  38  61  89 123 168 207 260 309 373
#
# _framework density 20.755697999999999
#
# number of rings (size 3 to 8) (size 9 to 14) (size 15 to 20)
#    0.000    1.250    3.750    2.625    0.000    6.000 
#    0.000    5.000    0.000    0.000    0.000    0.000 
#    0.000    0.000    0.000    0.000    0.000    0.000 
#
# Total GULP energy -396959.526810 kJ/mol
# GULP energy per Si atom -12404.985213 kJ/mol
# Density = 2.070846 g / cm^3
# Si number density = 20.755698 Si / 1000 Ang^3
#
#
#
# Elastic Constant Matrix: (Units=GPa)
#
#
# Indices 1 2 3 4 5 6 
#
# 1 87.2449 36.2419 8.4896 0.0000 17.8570 0.0000
# 2 36.2419 98.8921 34.8282 0.0000 8.8486 0.0000
# 3 8.4896 34.8282 83.5563 0.0000 14.6397 0.0000
# 4 0.0000 0.0000 0.0000 34.1265 0.0000 -0.0570
# 5 17.8570 8.8486 14.6397 0.0000 35.6284 0.0000
# 6 0.0000 0.0000 0.0000 -0.0570 0.0000 19.4291
#
#
#
# Elastic Compliance Matrix: (Units=1/GPa)
#
#
# Indices 1 2 3 4 5 6 
#
# 1 0.015014 -0.005593 0.002027 0.000000 -0.006969 0.000000
# 2 -0.005593 0.013967 -0.005535 0.000000 0.001609 0.000000
# 3 0.002027 -0.005535 0.015093 0.000000 -0.005843 0.000000
# 4 0.000000 0.000000 0.000000 0.029303 0.000000 0.000086
# 5 -0.006969 0.001609 -0.005843 0.000000 0.033562 0.000000
# 6 0.000000 0.000000 0.000000 0.000086 0.000000 0.051469
#
#
# Mechanical properties :
#
#
# Convention : Reuss Voigt Hill
#
# Bulk Modulus (GPa) = 38.65225 47.64585 43.14905
# Shear Modulus (GPa) = 26.99269 30.51239 28.75254
#
# Velocity S-wave (km/s) = 3.61015 3.83831 3.72598
# Velocity P-wave (km/s) = 6.00337 6.53061 6.27254
#
# Compressibility (1/GPa) = 0.02587171
#
# Stress axis : x y z
#
# Youngs Moduli (GPa) = 66.60276 71.59634 66.25559
#
# Poissons Ratio (x) = 0.40041 -0.13428
# Poissons Ratio (y) = 0.37249 0.36676
# Poissons Ratio (z) = -0.13498 0.39632
#
# Static dielectric constant tensor:
#      x y z
#    x 3.753120 0.000000 0.043220 
#    y 0.000000 3.804810 0.000000 
#    z 0.043220 0.000000 3.787750 
# 
# 
# High freq. dielectric constant tensor:
#      x y z
#    x 1.808860 0.000000 0.002430 
#    y 0.000000 1.823430 0.000000 
#    z 0.002430 0.000000 1.813640 
# 
# From -- ./inp_files/18091.got.cif
#   From: 2010.06.25/outbox.cif.g09.slc.cpg/sg11_10_cif.got.tgz:18091.got - 2010.06.27 23:14:04.
