data_PCOD8075820
_publ_section_title
;
Structure prediction by ZEFSAII (Michael W. Deem and Ramdas Pophale) SiO2 
 PCOD8075820
Probable space group: P 21/M
;
_chemical_formula_sum "Si O2"
_cell_formula_units_Z 32
_cell_length_a 25.399254
_cell_length_b 8.909187
_cell_length_c 14.227039
_cell_angle_alpha 90.000000
_cell_angle_beta 30.631111
_cell_angle_gamma 90.000000
_cell_volume 1640.307136
_symmetry_space_group_name_H-M "P 21/M"
_symmetry_group_IT_number 11
_symmetry_cell_setting 'monoclinic'
loop_
_space_group_symop_operation_xyz
x,y,z
-x,1/2+y,-z
-x,-y,-z
x,1/2-y,z
loop_
_atom_site_type_symbol
_atom_site_label
_atom_site_fract_x
_atom_site_fract_y
_atom_site_fract_z
Si Si1 0.559593 0.575859 0.992245
Si Si2 0.678299 0.074471 0.077913
Si Si3 0.821598 0.921647 0.002627
Si Si4 0.261164 0.078218 0.664654
Si Si5 0.758587 0.425723 0.753424
Si Si6 0.476248 0.574953 0.324466
Si Si7 0.050404 0.927435 0.657791
Si Si8 0.094326 0.928618 0.799357
O O1 0.568950 0.750000 0.957072
O O2 0.497765 0.542006 0.182432
O O3 0.500000 0.500000 0.000000
O O4 0.673941 0.509362 0.821234
O O5 0.654409 0.250000 0.119068
O O6 0.740369 0.025461 0.074131
O O7 0.569834 0.987868 0.243416
O O8 0.746712 0.032641 0.881223
O O9 0.809106 0.750000 0.986887
O O10 0.804978 0.932609 0.139172
O O11 0.936326 0.987427 0.806891
O O12 0.272792 0.250000 0.613975
O O13 0.372991 0.009475 0.512865
O O14 0.203333 0.985174 0.672628
O O15 0.743283 0.250000 0.759395
O O16 0.870580 0.480241 0.544903
O O17 0.464135 0.750000 0.364475
O O18 0.042753 0.750000 0.675057
O O19 0.088604 0.985223 0.700571
O O20 0.088239 0.750000 0.817440
O O21 0.000000 0.000000 0.000000
#
# Coordination Sequence:
#
# PCOD8075820 Si02
#       8
#     4   4   4   4   4   4   4   4
#     4  10  21  36  55  81 113 149 190 233 283 340
#     4  10  21  38  60  87 115 146 189 245 292 334
#     4  10  21  39  60  82 113 155 193 231 286 348
#     4  11  23  39  59  87 118 152 194 240 288 342
#     4   9  19  37  59  82 113 149 188 235 286 338
#     4  10  22  40  60  83 113 153 193 234 289 349
#     4   9  19  37  59  83 114 154 192 227 281 344
#     4  11  21  37  59  84 118 157 195 237 285 341
#
# _framework density 19.508541000000001
#
# number of rings (size 3 to 8) (size 9 to 14) (size 15 to 20)
#    0.000    2.000    1.250    1.875    1.750    4.000 
#    0.000    1.250    0.000    0.000    0.000    0.000 
#    0.000    0.000    0.000    0.000    0.000    0.000 
#
# Total GULP energy -396912.450997 kJ/mol
# GULP energy per Si atom -12403.514094 kJ/mol
# Density = 1.946414 g / cm^3
# Si number density = 19.508541 Si / 1000 Ang^3
#
#
#
# Elastic Constant Matrix: (Units=GPa)
#
#
# Indices 1 2 3 4 5 6 
#
# 1 80.3999 24.1834 9.0037 0.0000 -21.4732 0.0000
# 2 24.1834 71.9463 28.7440 0.0000 -8.6205 0.0000
# 3 9.0037 28.7440 102.5138 0.0000 -19.5849 0.0000
# 4 0.0000 0.0000 0.0000 31.2224 0.0000 -5.6081
# 5 -21.4732 -8.6205 -19.5849 0.0000 26.1597 0.0000
# 6 0.0000 0.0000 0.0000 -5.6081 0.0000 31.2844
#
#
#
# Elastic Compliance Matrix: (Units=1/GPa)
#
#
# Indices 1 2 3 4 5 6 
#
# 1 0.017676 -0.005266 0.002759 0.000000 0.014840 0.000000
# 2 -0.005266 0.017329 -0.004821 0.000000 -0.002221 0.000000
# 3 0.002759 -0.004821 0.012828 0.000000 0.010280 0.000000
# 4 0.000000 0.000000 0.000000 0.033094 0.000000 0.005933
# 5 0.014840 -0.002221 0.010280 0.000000 0.057373 0.000000
# 6 0.000000 0.000000 0.000000 0.005933 0.000000 0.033028
#
#
# Mechanical properties :
#
#
# Convention : Reuss Voigt Hill
#
# Bulk Modulus (GPa) = 30.13992 42.08024 36.11008
# Shear Modulus (GPa) = 25.37523 30.59522 27.98523
#
# Velocity S-wave (km/s) = 3.61047 3.96447 3.79160
# Velocity P-wave (km/s) = 5.73269 6.52480 6.14153
#
# Compressibility (1/GPa) = 0.03317859
#
# Stress axis : x y z
#
# Youngs Moduli (GPa) = 56.57346 57.70635 77.95352
#
# Poissons Ratio (x) = 0.30387 -0.21508
# Poissons Ratio (y) = 0.29790 0.37580
# Poissons Ratio (z) = -0.15609 0.27819
#
# Static dielectric constant tensor:
#      x y z
#    x 3.505850 0.000000 -0.052210 
#    y 0.000000 3.537190 0.000000 
#    z -0.052210 0.000000 3.756180 
# 
# 
# High freq. dielectric constant tensor:
#      x y z
#    x 1.759530 0.000000 -0.006760 
#    y 0.000000 1.754840 0.000000 
#    z -0.006760 0.000000 1.767340 
# 
# From -- ./inp_files/51778.got.cif
#   From: 2010.06.25/outbox.cif.g09.slc.cpg/sg11_26_cif.got.tgz:51778.got - 2010.06.27 23:14:04.
