data_PCOD8075450
_publ_section_title
;
Structure prediction by ZEFSAII (Michael W. Deem and Ramdas Pophale) SiO2 
 PCOD8075450
Probable space group: P 21/M
;
_chemical_formula_sum "Si O2"
_cell_formula_units_Z 32
_cell_length_a 9.293141
_cell_length_b 28.221783
_cell_length_c 12.005847
_cell_angle_alpha 90.000000
_cell_angle_beta 27.824842
_cell_angle_gamma 90.000000
_cell_volume 1469.747852
_symmetry_space_group_name_H-M "P 21/M"
_symmetry_group_IT_number 11
_symmetry_cell_setting 'monoclinic'
loop_
_space_group_symop_operation_xyz
x,y,z
-x,1/2+y,-z
-x,-y,-z
x,1/2-y,z
loop_
_atom_site_type_symbol
_atom_site_label
_atom_site_fract_x
_atom_site_fract_y
_atom_site_fract_z
Si Si1 0.345755 0.857921 0.273089
Si Si2 0.609971 0.802579 0.484079
Si Si3 0.746728 0.804418 0.644124
Si Si4 0.586726 0.388473 0.021736
Si Si5 0.737208 0.079304 0.464578
Si Si6 0.000368 0.349886 0.117045
Si Si7 0.123154 0.107368 0.809864
Si Si8 0.194031 0.023898 0.265989
O O1 0.330097 0.902662 0.364986
O O2 0.074307 0.819754 0.470641
O O3 0.339772 0.882436 0.157134
O O4 0.657687 0.829449 0.093375
O O5 0.696003 0.750000 0.384016
O O6 0.750131 0.811804 0.509732
O O7 0.752483 0.840044 0.302386
O O8 0.238452 0.807252 0.738790
O O9 0.676880 0.750000 0.724396
O O10 0.481793 0.837142 0.878240
O O11 0.303893 0.424538 0.235621
O O12 0.885450 0.410821 0.879671
O O13 0.413713 0.070889 0.619845
O O14 0.932397 0.120105 0.273258
O O15 0.944195 0.031810 0.336908
O O16 0.966092 0.386689 0.037503
O O17 0.000000 0.000000 0.500000
O O18 0.500000 0.000000 0.000000
#
# Coordination Sequence:
#
# PCOD8075450 Si02
#       8
#     4   4   4   4   4   4   4   4
#     4  11  20  39  66  90 133 179 226 285 343 404
#     4  10  21  36  56  94 135 173 231 283 334 413
#     4  11  23  37  61  98 137 176 229 289 345 412
#     4  12  23  43  68  99 135 178 231 286 350 421
#     4  10  22  43  66  97 132 173 221 283 342 418
#     4  10  20  38  63  89 123 180 217 272 345 405
#     4  10  22  38  67  91 127 183 220 273 353 403
#     4  12  27  46  77 108 138 184 234 292 363 432
#
# _framework density 21.772441000000001
#
# number of rings (size 3 to 8) (size 9 to 14) (size 15 to 20)
#    0.000    1.250    5.000    0.750    1.750    2.000 
#    0.000   10.000    0.000    0.000    0.000    0.000 
#    0.000    0.000    0.000    0.000    0.000    0.000 
#
# Total GULP energy -396612.865396 kJ/mol
# GULP energy per Si atom -12394.152044 kJ/mol
# Density = 2.172289 g / cm^3
# Si number density = 21.772441 Si / 1000 Ang^3
#
#
#
# Elastic Constant Matrix: (Units=GPa)
#
#
# Indices 1 2 3 4 5 6 
#
# 1 105.2093 6.0478 26.4843 0.0000 -17.1822 0.0000
# 2 6.0478 55.8656 15.6116 0.0000 1.1979 0.0000
# 3 26.4843 15.6116 85.3668 0.0000 -8.1214 0.0000
# 4 0.0000 0.0000 0.0000 31.9342 0.0000 -3.3302
# 5 -17.1822 1.1979 -8.1214 0.0000 45.9784 0.0000
# 6 0.0000 0.0000 0.0000 -3.3302 0.0000 19.0961
#
#
#
# Elastic Compliance Matrix: (Units=1/GPa)
#
#
# Indices 1 2 3 4 5 6 
#
# 1 0.010851 -0.000426 -0.002951 0.000000 0.003545 0.000000
# 2 -0.000426 0.018938 -0.003451 0.000000 -0.001262 0.000000
# 3 -0.002951 -0.003451 0.013390 0.000000 0.001352 0.000000
# 4 0.000000 0.000000 0.000000 0.031894 0.000000 0.005562
# 5 0.003545 -0.001262 0.001352 0.000000 0.023346 0.000000
# 6 0.000000 0.000000 0.000000 0.005562 0.000000 0.053337
#
#
# Mechanical properties :
#
#
# Convention : Reuss Voigt Hill
#
# Bulk Modulus (GPa) = 33.87368 38.08103 35.97736
# Shear Modulus (GPa) = 28.53021 32.62162 30.57592
#
# Velocity S-wave (km/s) = 3.62385 3.87499 3.75152
# Velocity P-wave (km/s) = 5.75339 6.12773 5.94351
#
# Compressibility (1/GPa) = 0.02952145
#
# Stress axis : x y z
#
# Youngs Moduli (GPa) = 92.15548 52.80469 74.68508
#
# Poissons Ratio (x) = 0.02249 0.22042
# Poissons Ratio (y) = 0.03926 0.25775
# Poissons Ratio (z) = 0.27198 0.18224
#
# Static dielectric constant tensor:
#      x y z
#    x 4.164600 0.000000 -0.272980 
#    y 0.000000 3.643560 0.000000 
#    z -0.272980 0.000000 4.149130 
# 
# 
# High freq. dielectric constant tensor:
#      x y z
#    x 1.872930 0.000000 -0.011820 
#    y 0.000000 1.813250 0.000000 
#    z -0.011820 0.000000 1.869980 
# 
# From -- ./inp_files/33195.got.cif
#   From: 2010.06.25/outbox.cif.g09.slc.cpg/sg11_17_cif.got.tgz:33195.got - 2010.06.27 23:14:04.
