data_PCOD8075366
_publ_section_title
;
Structure prediction by ZEFSAII (Michael W. Deem and Ramdas Pophale) SiO2 
 PCOD8075366
Probable space group: P 21/M
;
_chemical_formula_sum "Si O2"
_cell_formula_units_Z 24
_cell_length_a 31.038334
_cell_length_b 8.597440
_cell_length_c 8.966758
_cell_angle_alpha 90.000000
_cell_angle_beta 29.972548
_cell_angle_gamma 90.000000
_cell_volume 1195.397656
_symmetry_space_group_name_H-M "P 21/M"
_symmetry_group_IT_number 11
_symmetry_cell_setting 'monoclinic'
loop_
_space_group_symop_operation_xyz
x,y,z
-x,1/2+y,-z
-x,-y,-z
x,1/2-y,z
loop_
_atom_site_type_symbol
_atom_site_label
_atom_site_fract_x
_atom_site_fract_y
_atom_site_fract_z
Si Si1 0.330785 0.565154 0.163271
Si Si2 0.003183 0.066807 0.826600
Si Si3 0.670196 0.567284 0.159960
Si Si4 0.836480 0.065656 0.155163
Si Si5 0.497677 0.932634 0.843139
Si Si6 0.833974 0.067119 0.825476
O O1 0.330871 0.750000 0.134017
O O2 0.246398 0.508392 0.504934
O O3 0.332661 0.473276 0.004240
O O4 0.412878 0.508758 0.011739
O O5 0.995740 0.250000 0.860038
O O6 0.091438 0.021577 0.484203
O O7 0.922702 0.998822 0.973839
O O8 0.000000 0.000000 0.000000
O O9 0.687194 0.750000 0.130692
O O10 0.580723 0.512727 0.501594
O O11 0.743885 0.468628 0.018327
O O12 0.837976 0.250000 0.147337
O O13 0.831453 0.002656 0.001701
O O14 0.494685 0.750000 0.867353
O O15 0.500000 0.000000 0.000000
O O16 0.852366 0.250000 0.763540
#
# Coordination Sequence:
#
# PCOD8075366 Si02
#       6
#     4   4   4   4   4   4
#     4  10  20  38  61  85 113 152 196 237 282 344
#     4  11  22  38  59  87 119 152 191 238 287 343
#     4  11  23  38  56  86 120 151 190 240 289 340
#     4   9  20  37  59  84 112 147 192 237 282 337
#     4  10  22  38  59  86 118 153 194 239 287 341
#     4  11  22  39  61  84 112 153 195 237 289 343
#
# _framework density 20.077000000000002
#
# number of rings (size 3 to 8) (size 9 to 14) (size 15 to 20)
#    0.000    1.667    0.000    4.500    0.000    4.667 
#    0.000    5.000    0.000    0.000    0.000    0.000 
#    0.000    0.000    0.000    0.000    0.000    0.000 
#
# Total GULP energy -297713.108317 kJ/mol
# GULP energy per Si atom -12404.712847 kJ/mol
# Density = 2.003130 g / cm^3
# Si number density = 20.077000 Si / 1000 Ang^3
#
#
#
# Elastic Constant Matrix: (Units=GPa)
#
#
# Indices 1 2 3 4 5 6 
#
# 1 1247.5543 -376.0275 1726.9730 0.0000 -237.3861 0.0000
# 2 -376.0275 181.1218 -594.5118 0.0000 92.0513 0.0000
# 3 1726.9730 -594.5118 2705.2245 0.0000 -367.0383 0.0000
# 4 0.0000 0.0000 0.0000 13.5394 0.0000 7.2392
# 5 -237.3861 92.0513 -367.0383 0.0000 103.9640 0.0000
# 6 0.0000 0.0000 0.0000 7.2392 0.0000 32.3550
#
#
#
# Elastic Compliance Matrix: (Units=1/GPa)
#
#
# Indices 1 2 3 4 5 6 
#
# 1 0.006918 -0.000597 -0.004477 0.000000 0.000518 0.000000
# 2 -0.000597 0.020853 0.004364 0.000000 -0.004419 0.000000
# 3 -0.004477 0.004364 0.004368 0.000000 0.001333 0.000000
# 4 0.000000 0.000000 0.000000 0.083895 0.000000 -0.018771
# 5 0.000518 -0.004419 0.001333 0.000000 0.019421 0.000000
# 6 0.000000 0.000000 0.000000 -0.018771 0.000000 0.035107
#
#
# Mechanical properties :
#
#
# Convention : Reuss Voigt Hill
#
# Bulk Modulus (GPa) = 32.55340 627.41865 329.98603
# Shear Modulus (GPa) = 27.43937 255.13616 141.28776
#
# Velocity S-wave (km/s) = 3.70091 11.28515 8.39796
# Velocity P-wave (km/s) = 5.87467 21.97705 16.08575
#
# Compressibility (1/GPa) = 0.03071875
#
# Stress axis : x y z
#
# Youngs Moduli (GPa) = 144.54960 47.95580 228.95073
#
# Poissons Ratio (x) = 0.02861 1.02505
# Poissons Ratio (y) = 0.08624 -0.99915
# Poissons Ratio (z) = 0.64718 -0.20928
#
# Static dielectric constant tensor:
#      x y z
#    x 3.899870 0.000000 -0.073800 
#    y 0.000000 3.424740 0.000000 
#    z -0.073800 0.000000 3.855100 
# 
# 
# High freq. dielectric constant tensor:
#      x y z
#    x 1.804370 0.000000 -0.000560 
#    y 0.000000 1.766680 0.000000 
#    z -0.000560 0.000000 1.804350 
# 
# From -- ./inp_files/28931.got.cif
#   From: 2010.06.25/outbox.cif.g09.slc.cpg/sg11_15_cif.got.tgz:28931.got - 2010.06.27 23:14:04.
