data_PCOD8075720
_publ_section_title
;
Structure prediction by ZEFSAII (Michael W. Deem and Ramdas Pophale) SiO2 
 PCOD8075720
Probable space group: P 21/M
;
_chemical_formula_sum "Si O2"
_cell_formula_units_Z 32
_cell_length_a 21.147372
_cell_length_b 8.992646
_cell_length_c 26.421975
_cell_angle_alpha 90.000000
_cell_angle_beta 19.660079
_cell_angle_gamma 90.000000
_cell_volume 1690.502343
_symmetry_space_group_name_H-M "P 21/M"
_symmetry_group_IT_number 11
_symmetry_cell_setting 'monoclinic'
loop_
_space_group_symop_operation_xyz
x,y,z
-x,1/2+y,-z
-x,-y,-z
x,1/2-y,z
loop_
_atom_site_type_symbol
_atom_site_label
_atom_site_fract_x
_atom_site_fract_y
_atom_site_fract_z
Si Si1 0.347760 0.575231 0.848465
Si Si2 0.010978 0.075896 0.274832
Si Si3 0.583850 0.917462 0.862368
Si Si4 0.625395 0.576306 0.550188
Si Si5 0.787088 0.417007 0.791098
Si Si6 0.372520 0.424760 0.936601
Si Si7 0.012608 0.421921 0.044016
Si Si8 0.408622 0.580845 0.615257
O O1 0.309257 0.750000 0.881355
O O2 0.523865 0.540463 0.679581
O O3 0.394466 0.509137 0.867575
O O4 0.161771 0.499082 0.967549
O O5 0.000814 0.250000 0.292974
O O6 0.169962 0.038429 0.113557
O O7 0.814749 0.017303 0.401501
O O8 0.052989 0.996731 0.296490
O O9 0.640262 0.750000 0.803893
O O10 0.757340 0.993285 0.761282
O O11 0.405340 0.913515 0.033205
O O12 0.538502 0.015369 0.847340
O O13 0.674378 0.750000 0.509149
O O14 0.486061 0.521679 0.610671
O O15 0.854220 0.250000 0.727812
O O16 0.399387 0.250000 0.908157
O O17 0.065753 0.250000 0.995932
O O18 0.813615 0.439957 0.221372
O O19 0.000000 0.500000 0.000000
O O20 0.500000 0.500000 0.500000
O O21 0.468797 0.750000 0.565008
#
# Coordination Sequence:
#
# PCOD8075720 Si02
#       8
#     4   4   4   4   4   4   4   4
#     4  11  23  40  60  82 110 148 189 230 279 332
#     4  10  21  35  54  82 114 147 186 231 277 330
#     4   9  16  28  49  78 111 146 185 228 274 326
#     4  10  22  41  58  78 111 148 185 228 276 333
#     4   9  16  28  49  77 110 148 184 226 277 326
#     4  10  21  36  54  83 116 146 185 233 278 327
#     4  11  22  40  62  85 112 143 185 231 275 330
#     4  10  23  41  59  84 114 144 182 229 278 330
#
# _framework density 18.929283999999999
#
# number of rings (size 3 to 8) (size 9 to 14) (size 15 to 20)
#    0.000    2.000    1.250    2.250    1.750    7.000 
#    0.000    0.000    0.000    0.750    0.000    0.000 
#    0.000    0.000    0.000    0.000    0.000    0.000 
#
# Total GULP energy -396880.199580 kJ/mol
# GULP energy per Si atom -12402.506237 kJ/mol
# Density = 1.888620 g / cm^3
# Si number density = 18.929284 Si / 1000 Ang^3
#
#
#
# Elastic Constant Matrix: (Units=GPa)
#
#
# Indices 1 2 3 4 5 6 
#
# 1 109.8513 46.5079 28.8857 0.0000 11.3777 0.0000
# 2 46.5079 109.5345 36.3295 0.0000 9.4229 0.0000
# 3 28.8857 36.3295 46.7003 0.0000 8.6540 0.0000
# 4 0.0000 0.0000 0.0000 28.5288 0.0000 -3.3402
# 5 11.3777 9.4229 8.6540 0.0000 21.3472 0.0000
# 6 0.0000 0.0000 0.0000 -3.3402 0.0000 42.8472
#
#
#
# Elastic Compliance Matrix: (Units=1/GPa)
#
#
# Indices 1 2 3 4 5 6 
#
# 1 0.011978 -0.003437 -0.004145 0.000000 -0.003187 0.000000
# 2 -0.003437 0.013346 -0.008114 0.000000 -0.000770 0.000000
# 3 -0.004145 -0.008114 0.031589 0.000000 -0.007015 0.000000
# 4 0.000000 0.000000 0.000000 0.035375 0.000000 0.002758
# 5 -0.003187 -0.000770 -0.007015 0.000000 0.051727 0.000000
# 6 0.000000 0.000000 0.000000 0.002758 0.000000 0.023554
#
#
# Mechanical properties :
#
#
# Convention : Reuss Voigt Hill
#
# Bulk Modulus (GPa) = 39.18156 54.39248 46.78702
# Shear Modulus (GPa) = 24.10016 28.83550 26.46783
#
# Velocity S-wave (km/s) = 3.57202 3.90722 3.74337
# Velocity P-wave (km/s) = 6.14461 7.01085 6.59198
#
# Compressibility (1/GPa) = 0.02552221
#
# Stress axis : x y z
#
# Youngs Moduli (GPa) = 83.48428 74.92728 31.65699
#
# Poissons Ratio (x) = 0.25754 0.13121
# Poissons Ratio (y) = 0.28695 0.25686
# Poissons Ratio (z) = 0.34601 0.60794
#
# Static dielectric constant tensor:
#      x y z
#    x 3.536840 0.000000 -0.154320 
#    y 0.000000 3.591480 0.000000 
#    z -0.154320 0.000000 3.252540 
# 
# 
# High freq. dielectric constant tensor:
#      x y z
#    x 1.745590 0.000000 -0.011640 
#    y 0.000000 1.749020 0.000000 
#    z -0.011640 0.000000 1.707680 
# 
# From -- ./inp_files/72000.got.cif
#   From: 2010.06.25/outbox.cif.g09.slc.cpg/sg11_36_cif.got.tgz:72000.got - 2010.06.27 23:14:04.
