data_PCOD8075907
_publ_section_title
;
Structure prediction by ZEFSAII (Michael W. Deem and Ramdas Pophale) SiO2 
 PCOD8075907
Probable space group: P 21/M
;
_chemical_formula_sum "Si O2"
_cell_formula_units_Z 32
_cell_length_a 12.254898
_cell_length_b 8.882667
_cell_length_c 21.910771
_cell_angle_alpha 90.000000
_cell_angle_beta 136.678771
_cell_angle_gamma 90.000000
_cell_volume 1636.404022
_symmetry_space_group_name_H-M "P 21/M"
_symmetry_group_IT_number 11
_symmetry_cell_setting 'monoclinic'
loop_
_space_group_symop_operation_xyz
x,y,z
-x,1/2+y,-z
-x,-y,-z
x,1/2-y,z
loop_
_atom_site_type_symbol
_atom_site_label
_atom_site_fract_x
_atom_site_fract_y
_atom_site_fract_z
Si Si1 0.666083 0.073420 0.585733
Si Si2 0.657604 0.927094 0.132543
Si Si3 0.701071 0.072849 0.026931
Si Si4 0.619688 0.572006 0.354953
Si Si5 0.724339 0.073718 0.750157
Si Si6 0.846072 0.571190 0.554000
Si Si7 0.009129 0.927866 0.937537
Si Si8 0.177762 0.071419 0.676556
O O1 0.651431 0.250000 0.568387
O O2 0.711670 0.037803 0.673608
O O3 0.500000 0.000000 0.500000
O O4 0.807783 0.004726 0.603133
O O5 0.665825 0.750000 0.127672
O O6 0.751126 0.980315 0.230124
O O7 0.743655 0.000370 0.109428
O O8 0.474630 0.980717 0.064808
O O9 0.709827 0.250000 0.038946
O O10 0.826537 0.018753 0.027196
O O11 0.622351 0.750000 0.359274
O O12 0.437920 0.516700 0.283692
O O13 0.716348 0.511888 0.452697
O O14 0.699304 0.515793 0.324956
O O15 0.754277 0.250000 0.774336
O O16 0.865613 0.979187 0.836462
O O17 0.844739 0.750000 0.560500
O O18 0.015400 0.516032 0.598805
O O19 0.004054 0.750000 0.943071
O O20 0.000000 0.000000 0.000000
O O21 0.148721 0.250000 0.661530
#
# Coordination Sequence:
#
# PCOD8075907 Si02
#       8
#     4   4   4   4   4   4   4   4
#     4  11  22  39  63  91 123 161 205 251 302 360
#     4   9  19  36  60  85 109 146 192 239 294 352
#     4   9  20  39  60  83 114 150 189 235 291 350
#     4   9  19  38  61  83 115 159 200 241 296 359
#     4  10  22  41  64  88 119 161 203 246 301 360
#     4  11  22  38  58  85 122 160 200 245 299 352
#     4  11  25  42  63  92 123 157 198 245 300 359
#     4  10  21  36  59  87 113 150 201 246 295 353
#
# _framework density 19.555073
#
# number of rings (size 3 to 8) (size 9 to 14) (size 15 to 20)
#    0.000    2.000    1.250    1.500    3.500    2.500 
#    0.000    1.250    0.000    0.000    0.000    0.000 
#    0.000    0.000    0.000    0.000    0.000    0.000 
#
# Total GULP energy -396886.984294 kJ/mol
# GULP energy per Si atom -12402.718259 kJ/mol
# Density = 1.951056 g / cm^3
# Si number density = 19.555073 Si / 1000 Ang^3
#
#
#
# Elastic Constant Matrix: (Units=GPa)
#
#
# Indices 1 2 3 4 5 6 
#
# 1 148.6004 43.3732 48.9352 0.0000 -8.0757 0.0000
# 2 43.3732 53.4027 39.7772 0.0000 -5.4506 0.0000
# 3 48.9352 39.7772 98.5650 0.0000 -3.2320 0.0000
# 4 0.0000 0.0000 0.0000 31.5311 0.0000 2.1151
# 5 -8.0757 -5.4506 -3.2320 0.0000 31.2763 0.0000
# 6 0.0000 0.0000 0.0000 2.1151 0.0000 31.7905
#
#
#
# Elastic Compliance Matrix: (Units=1/GPa)
#
#
# Indices 1 2 3 4 5 6 
#
# 1 0.009184 -0.005682 -0.002229 0.000000 0.001151 0.000000
# 2 -0.005682 0.030690 -0.009469 0.000000 0.002903 0.000000
# 3 -0.002229 -0.009469 0.015052 0.000000 -0.000670 0.000000
# 4 0.000000 0.000000 0.000000 0.031857 0.000000 -0.002120
# 5 0.001151 0.002903 -0.000670 0.000000 0.032707 0.000000
# 6 0.000000 0.000000 0.000000 -0.002120 0.000000 0.031597
#
#
# Mechanical properties :
#
#
# Convention : Reuss Voigt Hill
#
# Bulk Modulus (GPa) = 49.58905 62.74882 56.16893
# Shear Modulus (GPa) = 25.96477 30.15176 28.05826
#
# Velocity S-wave (km/s) = 3.64782 3.93095 3.79203
# Velocity P-wave (km/s) = 6.56931 7.26368 6.92520
#
# Compressibility (1/GPa) = 0.02016574
#
# Stress axis : x y z
#
# Youngs Moduli (GPa) = 108.87975 32.58427 66.43727
#
# Poissons Ratio (x) = 0.18513 0.14810
# Poissons Ratio (y) = 0.61861 0.62911
# Poissons Ratio (z) = 0.24272 0.30855
#
# Static dielectric constant tensor:
#      x y z
#    x 3.917610 0.000000 0.007530 
#    y 0.000000 3.394470 0.000000 
#    z 0.007530 0.000000 3.730290 
# 
# 
# High freq. dielectric constant tensor:
#      x y z
#    x 1.778890 0.000000 -0.001330 
#    y 0.000000 1.745540 0.000000 
#    z -0.001330 0.000000 1.767160 
# 
# From -- ./inp_files/64446.got.cif
#   From: 2010.06.25/outbox.cif.g09.slc.cpg/sg11_33_cif.got.tgz:64446.got - 2010.06.27 23:14:04.
