data_PCOD8075000
_publ_section_title
;
Structure prediction by ZEFSAII (Michael W. Deem and Ramdas Pophale) SiO2 
 PCOD8075000
Probable space group: P 21/M
;
_chemical_formula_sum "Si O2"
_cell_formula_units_Z 28
_cell_length_a 21.772116
_cell_length_b 8.810207
_cell_length_c 14.787284
_cell_angle_alpha 90.000000
_cell_angle_beta 30.818019
_cell_angle_gamma 90.000000
_cell_volume 1453.150249
_symmetry_space_group_name_H-M "P 21/M"
_symmetry_group_IT_number 11
_symmetry_cell_setting 'monoclinic'
loop_
_space_group_symop_operation_xyz
x,y,z
-x,1/2+y,-z
-x,-y,-z
x,1/2-y,z
loop_
_atom_site_type_symbol
_atom_site_label
_atom_site_fract_x
_atom_site_fract_y
_atom_site_fract_z
Si Si1 0.304443 0.425488 0.464367
Si Si2 0.655241 0.573008 0.221528
Si Si3 0.533907 0.425418 0.051051
Si Si4 0.780444 0.569763 0.764395
Si Si5 0.143291 0.927927 0.154722
Si Si6 0.380842 0.926894 0.546778
Si Si7 0.120701 0.428173 0.550387
O O1 0.283939 0.250000 0.516211
O O2 0.426808 0.447219 0.255959
O O3 0.308257 0.524300 0.550050
O O4 0.195562 0.491981 0.540946
O O5 0.683648 0.750000 0.178336
O O6 0.673853 0.519621 0.300596
O O7 0.521221 0.533992 0.357692
O O8 0.745582 0.483575 0.043890
O O9 0.563743 0.250000 0.996900
O O10 0.500000 0.500000 0.000000
O O11 0.647066 0.509553 0.951049
O O12 0.780423 0.750000 0.766905
O O13 0.863833 0.508400 0.739128
O O14 0.829400 0.504722 0.607207
O O15 0.155698 0.750000 0.155681
O O16 0.019230 0.967613 0.260080
O O17 0.361687 0.750000 0.590164
O O18 0.144468 0.250000 0.516586
#
# Coordination Sequence:
#
# PCOD8075000 Si02
#       7
#     4   4   4   4   4   4   4
#     4  10  20  37  57  80 113 153 187 224 281 336
#     4  10  21  39  61  85 114 145 179 227 285 338
#     4  11  21  34  55  82 114 149 187 231 280 332
#     4  11  21  37  57  80 114 152 193 237 284 334
#     4  11  22  37  58  83 111 147 194 238 280 331
#     4  10  21  37  60  89 114 140 178 229 281 336
#     4   9  20  38  56  77 112 155 193 234 277 327
#
# _framework density 19.268481999999999
#
# number of rings (size 3 to 8) (size 9 to 14) (size 15 to 20)
#    0.000    1.714    1.429    3.429    0.000    5.143 
#    0.000    4.286    0.000    0.000    0.000    0.000 
#    0.000    0.000    0.000    0.000    0.000    0.000 
#
# Total GULP energy -347298.907148 kJ/mol
# GULP energy per Si atom -12403.532398 kJ/mol
# Density = 1.922463 g / cm^3
# Si number density = 19.268482 Si / 1000 Ang^3
#
#
#
# Elastic Constant Matrix: (Units=GPa)
#
#
# Indices 1 2 3 4 5 6 
#
# 1 141.1491 32.8898 39.9164 0.0000 -2.7419 0.0000
# 2 32.8898 67.2134 20.2011 0.0000 -5.9755 0.0000
# 3 39.9164 20.2011 61.8184 0.0000 -6.3133 0.0000
# 4 0.0000 0.0000 0.0000 23.6115 0.0000 1.6446
# 5 -2.7419 -5.9755 -6.3133 0.0000 22.7803 0.0000
# 6 0.0000 0.0000 0.0000 1.6446 0.0000 34.9574
#
#
#
# Elastic Compliance Matrix: (Units=1/GPa)
#
#
# Indices 1 2 3 4 5 6 
#
# 1 0.009211 -0.003087 -0.005051 0.000000 -0.001101 0.000000
# 2 -0.003087 0.017723 -0.003459 0.000000 0.003319 0.000000
# 3 -0.005051 -0.003459 0.021008 0.000000 0.004307 0.000000
# 4 0.000000 0.000000 0.000000 0.042492 0.000000 -0.001999
# 5 -0.001101 0.003319 0.004307 0.000000 0.045829 0.000000
# 6 0.000000 0.000000 0.000000 -0.001999 0.000000 0.028700
#
#
# Mechanical properties :
#
#
# Convention : Reuss Voigt Hill
#
# Bulk Modulus (GPa) = 40.40840 50.68839 45.54840
# Shear Modulus (GPa) = 25.45715 28.08141 26.76928
#
# Velocity S-wave (km/s) = 3.63875 3.82170 3.73135
# Velocity P-wave (km/s) = 6.21858 6.77033 6.50031
#
# Compressibility (1/GPa) = 0.02474733
#
# Stress axis : x y z
#
# Youngs Moduli (GPa) = 108.56427 56.42280 47.60005
#
# Poissons Ratio (x) = 0.17418 0.24044
# Poissons Ratio (y) = 0.33514 0.16467
# Poissons Ratio (z) = 0.54839 0.19519
#
# Static dielectric constant tensor:
#      x y z
#    x 3.676300 0.000000 -0.049800 
#    y 0.000000 3.468580 0.000000 
#    z -0.049800 0.000000 3.613470 
# 
# 
# High freq. dielectric constant tensor:
#      x y z
#    x 1.759350 0.000000 -0.001680 
#    y 0.000000 1.745800 0.000000 
#    z -0.001680 0.000000 1.740610 
# 
# From -- ./inp_files/37512.got.cif
#   From: 2010.06.25/outbox.cif.g09.slc.cpg/sg11_19_cif.got.tgz:37512.got - 2010.06.27 23:14:04.
