data_PCOD8075193
_publ_section_title
;
Structure prediction by ZEFSAII (Michael W. Deem and Ramdas Pophale) SiO2 
 PCOD8075193
Probable space group: P 21/M
;
_chemical_formula_sum "Si O2"
_cell_formula_units_Z 20
_cell_length_a 8.159181
_cell_length_b 16.825581
_cell_length_c 7.663539
_cell_angle_alpha 90.000000
_cell_angle_beta 54.787989
_cell_angle_gamma 90.000000
_cell_volume 859.569200
_symmetry_space_group_name_H-M "P 21/M"
_symmetry_group_IT_number 11
_symmetry_cell_setting 'monoclinic'
loop_
_space_group_symop_operation_xyz
x,y,z
-x,1/2+y,-z
-x,-y,-z
x,1/2-y,z
loop_
_atom_site_type_symbol
_atom_site_label
_atom_site_fract_x
_atom_site_fract_y
_atom_site_fract_z
Si Si1 0.774651 0.159605 0.707290
Si Si2 0.227506 0.157863 0.551424
Si Si3 0.819551 0.560286 0.075387
Si Si4 0.591643 0.087199 0.145061
Si Si5 0.131590 0.656996 0.726252
O O1 0.702248 0.250000 0.765965
O O2 0.755205 0.128583 0.519566
O O3 0.003321 0.150604 0.623489
O O4 0.632242 0.108871 0.919219
O O5 0.294765 0.250000 0.529092
O O6 0.249225 0.114131 0.721790
O O7 0.365616 0.111045 0.328838
O O8 0.627008 0.507952 0.137184
O O9 0.000000 0.500000 0.000000
O O10 0.908594 0.618257 0.871571
O O11 0.739466 0.135530 0.183097
O O12 0.094115 0.750000 0.740198
#
# Coordination Sequence:
#
# PCOD8075193 Si02
#       5
#     4   4   4   4   4
#     4  10  21  38  60  86 117 155 197 239 288 344
#     4  11  21  38  64  86 115 157 195 239 291 345
#     4  10  20  37  61  86 117 157 192 237 293 349
#     4  11  22  40  60  88 119 153 193 244 293 341
#     4  10  20  38  62  86 117 158 197 238 289 345
#
# _framework density 23.267468999999998
#
# number of rings (size 3 to 8) (size 9 to 14) (size 15 to 20)
#    0.000    1.600    4.000    3.000    0.000    0.800 
#    3.600    1.000    0.000    0.000    0.000    0.000 
#    0.000    0.000    0.000    0.000    0.000    0.000 
#
# Total GULP energy -247960.761898 kJ/mol
# GULP energy per Si atom -12398.038095 kJ/mol
# Density = 2.321451 g / cm^3
# Si number density = 23.267469 Si / 1000 Ang^3
#
#
#
# Elastic Constant Matrix: (Units=GPa)
#
#
# Indices 1 2 3 4 5 6 
#
# 1 7.8062 3.2842 19.4826 0.0000 3.6748 0.0000
# 2 3.2842 57.5597 37.9036 0.0000 9.7810 0.0000
# 3 19.4826 37.9036 164.8082 0.0000 16.7969 0.0000
# 4 0.0000 0.0000 0.0000 45.7291 0.0000 -4.4014
# 5 3.6748 9.7810 16.7969 0.0000 36.7209 0.0000
# 6 0.0000 0.0000 0.0000 -4.4014 0.0000 12.0948
#
#
#
# Elastic Compliance Matrix: (Units=1/GPa)
#
#
# Indices 1 2 3 4 5 6 
#
# 1 0.186023 0.005763 -0.022302 0.000000 -0.009950 0.000000
# 2 0.005763 0.021081 -0.005138 0.000000 -0.003842 0.000000
# 3 -0.022302 -0.005138 0.009984 0.000000 -0.000967 0.000000
# 4 0.000000 0.000000 0.000000 0.022662 0.000000 0.008247
# 5 -0.009950 -0.003842 -0.000967 0.000000 0.029694 0.000000
# 6 0.000000 0.000000 0.000000 0.008247 0.000000 0.085681
#
#
# Mechanical properties :
#
#
# Convention : Reuss Voigt Hill
#
# Bulk Modulus (GPa) = 5.75592 39.05722 22.40657
# Shear Modulus (GPa) = 10.95554 30.20921 20.58237
#
# Velocity S-wave (km/s) = 2.17227 3.60717 2.97745
# Velocity P-wave (km/s) = 2.96156 5.84564 4.63370
#
# Compressibility (1/GPa) = 0.17373411
#
# Stress axis : x y z
#
# Youngs Moduli (GPa) = 5.37567 47.43690 100.15801
#
# Poissons Ratio (x) = -0.27337 2.23371
# Poissons Ratio (y) = -0.03098 0.51461
# Poissons Ratio (z) = 0.11989 0.24373
#
# Static dielectric constant tensor:
#      x y z
#    x 3.886790 0.000000 0.102630 
#    y 0.000000 4.642710 0.000000 
#    z 0.102630 0.000000 4.848090 
# 
# 
# High freq. dielectric constant tensor:
#      x y z
#    x 1.892860 0.000000 -0.000040 
#    y 0.000000 1.930160 0.000000 
#    z -0.000040 0.000000 1.938990 
# 
# From -- ./inp_files/18242.got.cif
#   From: 2010.06.25/outbox.cif.g09.slc.cpg/sg11_10_cif.got.tgz:18242.got - 2010.06.27 23:14:04.
