data_PCOD8075686
_publ_section_title
;
Structure prediction by ZEFSAII (Michael W. Deem and Ramdas Pophale) SiO2 
 PCOD8075686
Probable space group: P 21/M
;
_chemical_formula_sum "Si O2"
_cell_formula_units_Z 28
_cell_length_a 22.781547
_cell_length_b 9.750102
_cell_length_c 19.927564
_cell_angle_alpha 90.000000
_cell_angle_beta 19.635242
_cell_angle_gamma 90.000000
_cell_volume 1487.393469
_symmetry_space_group_name_H-M "P 21/M"
_symmetry_group_IT_number 11
_symmetry_cell_setting 'monoclinic'
loop_
_space_group_symop_operation_xyz
x,y,z
-x,1/2+y,-z
-x,-y,-z
x,1/2-y,z
loop_
_atom_site_type_symbol
_atom_site_label
_atom_site_fract_x
_atom_site_fract_y
_atom_site_fract_z
Si Si1 0.466722 0.408533 0.099892
Si Si2 0.480483 0.901822 0.458509
Si Si3 0.113646 0.408436 0.555948
Si Si4 0.654938 0.597805 0.136764
Si Si5 0.283194 0.908439 0.047219
Si Si6 0.080538 0.598176 0.858456
Si Si7 0.053369 0.597801 0.738336
O O1 0.477576 0.250000 0.067334
O O2 0.271837 0.443486 0.335638
O O3 0.500000 0.500000 0.000000
O O4 0.620743 0.443516 0.986726
O O5 0.556548 0.750000 0.393781
O O6 0.580811 0.964046 0.286113
O O7 0.282099 0.888228 0.653716
O O8 0.500000 0.000000 0.500000
O O9 0.119225 0.250000 0.571484
O O10 0.152437 0.495686 0.581401
O O11 0.925146 0.443289 0.724607
O O12 0.573555 0.750000 0.211339
O O13 0.613761 0.495672 0.120077
O O14 0.859940 0.611040 0.920195
O O15 0.309915 0.750000 0.999388
O O16 0.993137 0.750000 0.957189
O O17 0.052272 0.535960 0.814654
O O18 0.000000 0.500000 0.000000
O O19 0.141555 0.750000 0.643346
#
# Coordination Sequence:
#
# PCOD8075686 Si02
#       7
#     4   4   4   4   4   4   4
#     4  10  22  38  56  82 112 142 178 220 266 318
#     4  10  21  35  51  74 104 139 179 223 270 321
#     4   9  19  36  56  79 109 142 177 218 264 317
#     4   9  18  33  53  77 104 134 172 219 267 316
#     4   9  19  36  56  79 109 142 177 218 264 317
#     4  10  21  35  51  74 104 139 179 223 270 321
#     4   9  18  33  53  77 104 134 172 219 267 316
#
# _framework density 18.824877999999998
#
# number of rings (size 3 to 8) (size 9 to 14) (size 15 to 20)
#    0.000    2.571    0.000    0.857    2.000    4.571 
#    0.000    2.857    0.000    0.000    0.000    0.000 
#    0.000    0.000    0.000    0.000    0.000    0.000 
#
# Total GULP energy -347076.261348 kJ/mol
# GULP energy per Si atom -12395.580762 kJ/mol
# Density = 1.878203 g / cm^3
# Si number density = 18.824878 Si / 1000 Ang^3
#
#
#
# Elastic Constant Matrix: (Units=GPa)
#
#
# Indices 1 2 3 4 5 6 
#
# 1 145.8027 83.2812 54.6974 0.0000 27.4406 0.0000
# 2 83.2812 94.0651 54.2292 0.0000 27.5213 0.0000
# 3 54.6974 54.2292 92.6857 0.0000 22.8450 0.0000
# 4 0.0000 0.0000 0.0000 24.3366 0.0000 8.6834
# 5 27.4406 27.5213 22.8450 0.0000 35.3968 0.0000
# 6 0.0000 0.0000 0.0000 8.6834 0.0000 33.5038
#
#
#
# Elastic Compliance Matrix: (Units=1/GPa)
#
#
# Indices 1 2 3 4 5 6 
#
# 1 0.014057 -0.011285 -0.001391 0.000000 -0.001226 0.000000
# 2 -0.011285 0.027044 -0.007298 0.000000 -0.007568 0.000000
# 3 -0.001391 -0.007298 0.016905 0.000000 -0.004158 0.000000
# 4 0.000000 0.000000 0.000000 0.045277 0.000000 -0.011735
# 5 -0.001226 -0.007568 -0.004158 0.000000 0.037769 0.000000
# 6 0.000000 0.000000 0.000000 -0.011735 0.000000 0.032889
#
#
# Mechanical properties :
#
#
# Convention : Reuss Voigt Hill
#
# Bulk Modulus (GPa) = 55.37684 79.66322 67.52003
# Shear Modulus (GPa) = 22.73691 28.00384 25.37038
#
# Velocity S-wave (km/s) = 3.47913 3.86112 3.67509
# Velocity P-wave (km/s) = 6.75424 7.89225 7.34532
#
# Compressibility (1/GPa) = 0.01805809
#
# Stress axis : x y z
#
# Youngs Moduli (GPa) = 71.13965 36.97709 59.15573
#
# Poissons Ratio (x) = 0.41729 0.08227
# Poissons Ratio (y) = 0.80281 0.43171
# Poissons Ratio (z) = 0.09893 0.26985
#
# Static dielectric constant tensor:
#      x y z
#    x 3.359900 0.000000 -0.122450 
#    y 0.000000 -1.060620 0.000000 
#    z -0.122450 0.000000 3.489090 
# 
# 
# High freq. dielectric constant tensor:
#      x y z
#    x 1.727710 0.000000 -0.005660 
#    y 0.000000 1.727380 0.000000 
#    z -0.005660 0.000000 1.733670 
# 
# From -- ./inp_files/66661.got.cif
#   From: 2010.06.25/outbox.cif.g09.slc.cpg/sg11_34_cif.got.tgz:66661.got - 2010.06.27 23:14:04.
