data_PCOD8075390
_publ_section_title
;
Structure prediction by ZEFSAII (Michael W. Deem and Ramdas Pophale) SiO2 
 PCOD8075390
Probable space group: P 21/M
;
_chemical_formula_sum "Si O2"
_cell_formula_units_Z 28
_cell_length_a 11.864956
_cell_length_b 8.649474
_cell_length_c 15.033140
_cell_angle_alpha 90.000000
_cell_angle_beta 118.693905
_cell_angle_gamma 90.000000
_cell_volume 1353.327136
_symmetry_space_group_name_H-M "P 21/M"
_symmetry_group_IT_number 11
_symmetry_cell_setting 'monoclinic'
loop_
_space_group_symop_operation_xyz
x,y,z
-x,1/2+y,-z
-x,-y,-z
x,1/2-y,z
loop_
_atom_site_type_symbol
_atom_site_label
_atom_site_fract_x
_atom_site_fract_y
_atom_site_fract_z
Si Si1 0.775982 0.425805 0.707361
Si Si2 0.881048 0.568735 0.010791
Si Si3 0.973013 0.430200 0.214195
Si Si4 0.925129 0.933469 0.385518
Si Si5 0.363138 0.926753 0.169256
Si Si6 0.376071 0.066380 0.497888
Si Si7 0.639954 0.566799 0.310245
O O1 0.822562 0.250000 0.713515
O O2 0.658293 0.435235 0.732085
O O3 0.743587 0.496506 0.599670
O O4 0.894130 0.529965 0.786990
O O5 0.903722 0.750000 0.024367
O O6 0.868636 0.499923 0.106463
O O7 0.741448 0.534169 0.916767
O O8 0.000000 0.500000 0.000000
O O9 0.949670 0.250000 0.217862
O O10 0.982857 0.509880 0.314444
O O11 0.932803 0.750000 0.396609
O O12 0.775693 0.990127 0.322138
O O13 0.000000 0.000000 0.500000
O O14 0.345037 0.750000 0.129416
O O15 0.510343 0.987049 0.207783
O O16 0.374100 0.250000 0.492412
O O17 0.365494 0.000583 0.592651
O O18 0.500000 0.000000 0.500000
O O19 0.634521 0.750000 0.311750
#
# Coordination Sequence:
#
# PCOD8075390 Si02
#       7
#     4   4   4   4   4   4   4
#     4  11  21  35  58  88 123 160 203 256 316 378
#     4  12  24  40  63  95 129 165 209 260 319 382
#     4  12  25  42  64  91 125 167 214 263 316 375
#     4  11  23  43  69  95 127 169 216 265 314 374
#     4  10  20  38  61  88 124 162 203 254 315 377
#     4  11  20  33  53  84 123 162 204 250 309 378
#     4   9  20  39  61  85 121 166 207 256 315 371
#
# _framework density 20.689751000000001
#
# number of rings (size 3 to 8) (size 9 to 14) (size 15 to 20)
#    0.000    1.143    2.857    4.714    0.000    1.714 
#    0.000    4.286    0.000    0.000    0.000    0.000 
#    0.000    0.000    0.000    0.000    0.000    0.000 
#
# Total GULP energy -347032.477770 kJ/mol
# GULP energy per Si atom -12394.017063 kJ/mol
# Density = 2.064266 g / cm^3
# Si number density = 20.689751 Si / 1000 Ang^3
#
#
#
# Elastic Constant Matrix: (Units=GPa)
#
#
# Indices 1 2 3 4 5 6 
#
# 1 92.8467 31.1485 34.7822 0.0000 20.6252 0.0000
# 2 31.1485 104.4207 45.9871 0.0000 3.0265 0.0000
# 3 34.7822 45.9871 118.3772 0.0000 9.9884 0.0000
# 4 0.0000 0.0000 0.0000 35.7048 0.0000 4.5423
# 5 20.6252 3.0265 9.9884 0.0000 36.1573 0.0000
# 6 0.0000 0.0000 0.0000 4.5423 0.0000 26.0226
#
#
#
# Elastic Compliance Matrix: (Units=1/GPa)
#
#
# Indices 1 2 3 4 5 6 
#
# 1 0.014287 -0.002982 -0.002429 0.000000 -0.007229 0.000000
# 2 -0.002982 0.012179 -0.004006 0.000000 0.001788 0.000000
# 3 -0.002429 -0.004006 0.010825 0.000000 -0.001269 0.000000
# 4 0.000000 0.000000 0.000000 0.028644 0.000000 -0.005000
# 5 -0.007229 0.001788 -0.001269 0.000000 0.031981 0.000000
# 6 0.000000 0.000000 0.000000 -0.005000 0.000000 0.039301
#
#
# Mechanical properties :
#
#
# Convention : Reuss Voigt Hill
#
# Bulk Modulus (GPa) = 54.18505 59.94224 57.06364
# Shear Modulus (GPa) = 30.82568 33.15872 31.99220
#
# Velocity S-wave (km/s) = 3.86411 4.00767 3.93655
# Velocity P-wave (km/s) = 6.79372 7.10282 6.94999
#
# Compressibility (1/GPa) = 0.01845527
#
# Stress axis : x y z
#
# Youngs Moduli (GPa) = 69.99422 82.11134 92.38210
#
# Poissons Ratio (x) = 0.24489 0.22442
# Poissons Ratio (y) = 0.20875 0.37006
# Poissons Ratio (z) = 0.17004 0.32892
#
# Static dielectric constant tensor:
#      x y z
#    x 3.854570 0.000000 0.192330 
#    y 0.000000 3.334960 0.000000 
#    z 0.192330 0.000000 4.165610 
# 
# 
# High freq. dielectric constant tensor:
#      x y z
#    x 1.801250 0.000000 0.016540 
#    y 0.000000 1.799380 0.000000 
#    z 0.016540 0.000000 1.817890 
# 
# From -- ./inp_files/49461.got.cif
#   From: 2010.06.25/outbox.cif.g09.slc.cpg/sg11_25_cif.got.tgz:49461.got - 2010.06.27 23:14:04.
