data_PCOD8075238
_publ_section_title
;
Structure prediction by ZEFSAII (Michael W. Deem and Ramdas Pophale) SiO2 
 PCOD8075238
Probable space group: P 21/M
;
_chemical_formula_sum "Si O2"
_cell_formula_units_Z 24
_cell_length_a 11.730284
_cell_length_b 8.785423
_cell_length_c 23.841557
_cell_angle_alpha 90.000000
_cell_angle_beta 150.227456
_cell_angle_gamma 90.000000
_cell_volume 1220.045043
_symmetry_space_group_name_H-M "P 21/M"
_symmetry_group_IT_number 11
_symmetry_cell_setting 'monoclinic'
loop_
_space_group_symop_operation_xyz
x,y,z
-x,1/2+y,-z
-x,-y,-z
x,1/2-y,z
loop_
_atom_site_type_symbol
_atom_site_label
_atom_site_fract_x
_atom_site_fract_y
_atom_site_fract_z
Si Si1 0.330588 0.073985 0.171451
Si Si2 0.378688 0.073831 0.526583
Si Si3 0.093016 0.425102 0.953700
Si Si4 0.741364 0.428701 0.088124
Si Si5 0.853191 0.426787 0.673641
Si Si6 0.246502 0.070827 0.595981
O O1 0.319902 0.250000 0.184461
O O2 0.584404 0.007275 0.287184
O O3 0.266295 0.052139 0.079182
O O4 0.160350 0.979828 0.138340
O O5 0.326858 0.250000 0.492039
O O6 0.642093 0.034133 0.624879
O O7 0.334985 0.030003 0.571896
O O8 0.208420 0.974281 0.415918
O O9 0.075439 0.250000 0.927325
O O10 0.186510 0.523945 0.943110
O O11 0.716330 0.250000 0.080317
O O12 0.927183 0.480041 0.212985
O O13 0.500000 0.500000 0.000000
O O14 0.914999 0.250000 0.701412
O O15 0.238544 0.250000 0.603307
O O16 0.000000 0.000000 0.500000
#
# Coordination Sequence:
#
# PCOD8075238 Si02
#       6
#     4   4   4   4   4   4
#     4  10  21  38  62  89 116 150 193 239 287 340
#     4   9  20  38  59  84 114 149 188 233 284 337
#     4  10  21  39  62  88 118 151 191 238 285 338
#     4  12  25  40  59  84 117 155 194 237 288 345
#     4  10  20  37  62  88 113 145 188 237 287 340
#     4  11  23  38  57  82 117 156 193 237 287 341
#
# _framework density 19.671405
#
# number of rings (size 3 to 8) (size 9 to 14) (size 15 to 20)
#    0.000    1.667    0.000    4.500    0.000    6.667 
#    0.000    1.667    0.000    0.000    0.000    0.000 
#    0.000    0.000    0.000    0.000    0.000    0.000 
#
# Total GULP energy -297761.235189 kJ/mol
# GULP energy per Si atom -12406.718133 kJ/mol
# Density = 1.962663 g / cm^3
# Si number density = 19.671405 Si / 1000 Ang^3
#
#
#
# Elastic Constant Matrix: (Units=GPa)
#
#
# Indices 1 2 3 4 5 6 
#
# 1 15.7802 20.1503 32.6089 0.0000 1.3533 0.0000
# 2 20.1503 123.9566 68.4102 0.0000 1.0443 0.0000
# 3 32.6089 68.4102 142.4958 0.0000 16.8051 0.0000
# 4 0.0000 0.0000 0.0000 40.2504 0.0000 0.4988
# 5 1.3533 1.0443 16.8051 0.0000 23.6099 0.0000
# 6 0.0000 0.0000 0.0000 0.4988 0.0000 35.2193
#
#
#
# Elastic Compliance Matrix: (Units=1/GPa)
#
#
# Indices 1 2 3 4 5 6 
#
# 1 0.126938 -0.005267 -0.028044 0.000000 0.012918 0.000000
# 2 -0.005267 0.011476 -0.004672 0.000000 0.003120 0.000000
# 3 -0.028044 -0.004672 0.016881 0.000000 -0.010202 0.000000
# 4 0.000000 0.000000 0.000000 0.024849 0.000000 -0.000352
# 5 0.012918 0.003120 -0.010202 0.000000 0.048738 0.000000
# 6 0.000000 0.000000 0.000000 -0.000352 0.000000 0.028398
#
#
# Mechanical properties :
#
#
# Convention : Reuss Voigt Hill
#
# Bulk Modulus (GPa) = 12.60550 58.28571 35.44560
# Shear Modulus (GPa) = 13.90089 30.55346 22.22717
#
# Velocity S-wave (km/s) = 2.66118 3.94533 3.36508
# Velocity P-wave (km/s) = 3.98302 7.10269 5.75815
#
# Compressibility (1/GPa) = 0.07933048
#
# Stress axis : x y z
#
# Youngs Moduli (GPa) = 7.87784 87.14118 59.23698
#
# Poissons Ratio (x) = 0.45897 1.66122
# Poissons Ratio (y) = 0.04149 0.27675
# Poissons Ratio (z) = 0.22092 0.40712
#
# Static dielectric constant tensor:
#      x y z
#    x 3.498980 0.000000 -0.027590 
#    y 0.000000 3.700670 0.000000 
#    z -0.027590 0.000000 3.657840 
# 
# 
# High freq. dielectric constant tensor:
#      x y z
#    x 1.761940 0.000000 -0.003840 
#    y 0.000000 1.780670 0.000000 
#    z -0.003840 0.000000 1.779220 
# 
# From -- ./inp_files/44018.got.cif
#   From: 2010.06.25/outbox.cif.g09.slc.cpg/sg11_23_cif.got.tgz:44018.got - 2010.06.27 23:14:04.
