data_PCOD8075974
_publ_section_title
;
Structure prediction by ZEFSAII (Michael W. Deem and Ramdas Pophale) SiO2 
 PCOD8075974
Probable space group: P 21/M
;
_chemical_formula_sum "Si O2"
_cell_formula_units_Z 28
_cell_length_a 18.993737
_cell_length_b 8.782478
_cell_length_c 15.430490
_cell_angle_alpha 90.000000
_cell_angle_beta 37.422996
_cell_angle_gamma 90.000000
_cell_volume 1564.201181
_symmetry_space_group_name_H-M "P 21/M"
_symmetry_group_IT_number 11
_symmetry_cell_setting 'monoclinic'
loop_
_space_group_symop_operation_xyz
x,y,z
-x,1/2+y,-z
-x,-y,-z
x,1/2-y,z
loop_
_atom_site_type_symbol
_atom_site_label
_atom_site_fract_x
_atom_site_fract_y
_atom_site_fract_z
Si Si1 0.375511 0.924868 0.623110
Si Si2 0.612399 0.571886 0.078862
Si Si3 0.647849 0.429764 0.684732
Si Si4 0.997334 0.429041 0.907715
Si Si5 0.374788 0.427550 0.122865
Si Si6 0.782102 0.423882 0.384845
Si Si7 0.764719 0.931200 0.087175
O O1 0.384343 0.750000 0.644982
O O2 0.324328 0.936565 0.577168
O O3 0.500000 0.000000 0.500000
O O4 0.292505 0.017691 0.767490
O O5 0.601421 0.750000 0.106836
O O6 0.481482 0.504262 0.208326
O O7 0.689760 0.501966 0.080245
O O8 0.676424 0.540274 0.923575
O O9 0.641792 0.250000 0.699872
O O10 0.697015 0.497218 0.727810
O O11 0.735095 0.479052 0.523765
O O12 0.980933 0.250000 0.933819
O O13 0.114631 0.464942 0.742101
O O14 0.892061 0.497847 0.955374
O O15 0.000000 0.500000 0.000000
O O16 0.384452 0.250000 0.131297
O O17 0.500000 0.500000 0.000000
O O18 0.827713 0.250000 0.343440
O O19 0.774459 0.750000 0.075718
#
# Coordination Sequence:
#
# PCOD8075974 Si02
#       7
#     4   4   4   4   4   4   4
#     4  11  22  35  52  76 108 141 174 212 262 319
#     4   8  16  31  52  78 108 141 171 207 264 320
#     4   9  17  32  53  79 109 140 173 212 262 318
#     4  12  24  39  57  77 102 137 182 226 267 313
#     4   9  16  29  49  75 107 141 175 212 256 313
#     4  10  21  37  56  76 105 142 178 219 265 316
#     4  11  21  36  57  78 103 138 179 223 266 315
#
# _framework density 17.900510000000001
#
# number of rings (size 3 to 8) (size 9 to 14) (size 15 to 20)
#    0.000    2.000    1.429    4.286    0.000    3.429 
#    0.000   10.000    0.000    0.857    0.000    0.000 
#    0.000    0.000    0.000    0.000    0.000    0.000 
#
# Total GULP energy -347129.674821 kJ/mol
# GULP energy per Si atom -12397.488386 kJ/mol
# Density = 1.785977 g / cm^3
# Si number density = 17.900510 Si / 1000 Ang^3
#
#
#
# Elastic Constant Matrix: (Units=GPa)
#
#
# Indices 1 2 3 4 5 6 
#
# 1 57.1520 28.4141 43.0540 0.0000 13.1543 0.0000
# 2 28.4141 79.3231 40.5384 0.0000 4.0280 0.0000
# 3 43.0540 40.5384 111.2167 0.0000 13.9052 0.0000
# 4 0.0000 0.0000 0.0000 31.4238 0.0000 0.9700
# 5 13.1543 4.0280 13.9052 0.0000 36.5729 0.0000
# 6 0.0000 0.0000 0.0000 0.9700 0.0000 24.7137
#
#
#
# Elastic Compliance Matrix: (Units=1/GPa)
#
#
# Indices 1 2 3 4 5 6 
#
# 1 0.027662 -0.005554 -0.007892 0.000000 -0.006337 0.000000
# 2 -0.005554 0.016615 -0.004123 0.000000 0.001735 0.000000
# 3 -0.007892 -0.004123 0.013793 0.000000 -0.001952 0.000000
# 4 0.000000 0.000000 0.000000 0.031862 0.000000 -0.001251
# 5 -0.006337 0.001735 -0.001952 0.000000 0.030173 0.000000
# 6 0.000000 0.000000 0.000000 -0.001251 0.000000 0.040512
#
#
# Mechanical properties :
#
#
# Convention : Reuss Voigt Hill
#
# Bulk Modulus (GPa) = 43.60522 52.41163 48.00843
# Shear Modulus (GPa) = 24.58220 27.58779 26.08499
#
# Velocity S-wave (km/s) = 3.70978 3.93004 3.82150
# Velocity P-wave (km/s) = 6.53931 7.06658 6.80805
#
# Compressibility (1/GPa) = 0.02293303
#
# Stress axis : x y z
#
# Youngs Moduli (GPa) = 36.15070 60.18614 72.49836
#
# Poissons Ratio (x) = 0.33426 0.57214
# Poissons Ratio (y) = 0.20077 0.29892
# Poissons Ratio (z) = 0.28529 0.24816
#
# Static dielectric constant tensor:
#      x y z
#    x 3.604670 0.000000 0.256220 
#    y 0.000000 3.327220 0.000000 
#    z 0.256220 0.000000 3.426240 
# 
# 
# High freq. dielectric constant tensor:
#      x y z
#    x 1.685850 0.000000 0.018320 
#    y 0.000000 1.688600 0.000000 
#    z 0.018320 0.000000 1.684480 
# 
# From -- ./inp_files/42321.got.cif
#   From: 2010.06.25/outbox.cif.g09.slc.cpg/sg11_22_cif.got.tgz:42321.got - 2010.06.27 23:14:04.
