data_PCOD8075574
_publ_section_title
;
Structure prediction by ZEFSAII (Michael W. Deem and Ramdas Pophale) SiO2 
 PCOD8075574
Probable space group: P 21/M
;
_chemical_formula_sum "Si O2"
_cell_formula_units_Z 24
_cell_length_a 5.277406
_cell_length_b 12.615426
_cell_length_c 19.398448
_cell_angle_alpha 90.000000
_cell_angle_beta 61.440966
_cell_angle_gamma 90.000000
_cell_volume 1134.343696
_symmetry_space_group_name_H-M "P 21/M"
_symmetry_group_IT_number 11
_symmetry_cell_setting 'monoclinic'
loop_
_space_group_symop_operation_xyz
x,y,z
-x,1/2+y,-z
-x,-y,-z
x,1/2-y,z
loop_
_atom_site_type_symbol
_atom_site_label
_atom_site_fract_x
_atom_site_fract_y
_atom_site_fract_z
Si Si1 0.094625 0.434450 0.092911
Si Si2 0.738988 0.133650 0.009557
Si Si3 0.197843 0.629934 0.285762
Si Si4 0.107415 0.049486 0.554501
Si Si5 0.378386 0.626465 0.596915
Si Si6 0.273779 0.497667 0.738417
O O1 0.400627 0.381010 0.068530
O O2 0.918807 0.375093 0.056503
O O3 0.913947 0.429042 0.186693
O O4 0.145485 0.555823 0.064137
O O5 0.789021 0.250000 0.972492
O O6 0.257054 0.750000 0.254325
O O7 0.496572 0.564798 0.243514
O O8 0.102193 0.631003 0.379176
O O9 0.941146 0.583547 0.272137
O O10 0.390231 0.114300 0.494994
O O11 0.121797 0.948349 0.604097
O O12 0.000000 0.000000 0.500000
O O13 0.292988 0.750000 0.615399
O O14 0.450660 0.575392 0.662663
#
# Coordination Sequence:
#
# PCOD8075574 Si02
#       6
#     4   4   4   4   4   4
#     4  10  22  40  62  91 126 156 193 254 292 347
#     4  10  21  39  64  91 119 160 202 236 295 360
#     4  11  23  39  62  87 119 162 202 247 300 352
#     4  10  20  40  56  82 116 154 206 255 290 354
#     4  10  22  37  58  84 116 159 201 247 303 353
#     4  11  23  42  59  90 127 152 199 247 299 359
#
# _framework density 21.157606999999999
#
# number of rings (size 3 to 8) (size 9 to 14) (size 15 to 20)
#    0.000    1.667    1.667    2.500    0.000    4.000 
#    0.000    0.000    0.000    0.000    0.000    0.000 
#    0.000    0.000    0.000    0.000    0.000    0.000 
#
# Total GULP energy -297403.115428 kJ/mol
# GULP energy per Si atom -12391.796476 kJ/mol
# Density = 2.110945 g / cm^3
# Si number density = 21.157607 Si / 1000 Ang^3
#
#
#
# Elastic Constant Matrix: (Units=GPa)
#
#
# Indices 1 2 3 4 5 6 
#
# 1 92.6303 17.0370 -5.0005 0.0000 -14.3884 0.0000
# 2 17.0370 131.8732 6.7638 0.0000 -1.3472 0.0000
# 3 -5.0005 6.7638 58.8396 0.0000 -7.5998 0.0000
# 4 0.0000 0.0000 0.0000 4.4006 0.0000 14.9072
# 5 -14.3884 -1.3472 -7.5998 0.0000 23.4096 0.0000
# 6 0.0000 0.0000 0.0000 14.9072 0.0000 -24.1366
#
#
#
# Elastic Compliance Matrix: (Units=1/GPa)
#
#
# Indices 1 2 3 4 5 6 
#
# 1 0.012524 -0.001652 0.002334 0.000000 0.008360 0.000000
# 2 -0.001652 0.007847 -0.001164 0.000000 -0.000942 0.000000
# 3 0.002334 -0.001164 0.018270 0.000000 0.007299 0.000000
# 4 0.000000 0.000000 0.000000 0.073489 0.000000 0.045388
# 5 0.008360 -0.000942 0.007299 0.000000 0.050172 0.000000
# 6 0.000000 0.000000 0.000000 0.045388 0.000000 -0.013398
#
#
# Mechanical properties :
#
#
# Convention : Reuss Voigt Hill
#
# Bulk Modulus (GPa) = 26.54167 35.66038 31.10103
# Shear Modulus (GPa) = 30.78320 18.37090 24.57705
#
# Velocity S-wave (km/s) = 3.81852 2.94987 3.41195
# Velocity P-wave (km/s) = 5.65804 5.33793 5.50031
#
# Compressibility (1/GPa) = 0.03767660
#
# Stress axis : x y z
#
# Youngs Moduli (GPa) = 79.84564 127.44382 54.73363
#
# Poissons Ratio (x) = 0.21058 -0.12776
# Poissons Ratio (y) = 0.13193 0.06371
# Poissons Ratio (z) = -0.18637 0.14835
#
# Static dielectric constant tensor:
#      x y z
#    x 3.670650 0.000000 0.425140 
#    y 0.000000 3.640700 0.000000 
#    z 0.425140 0.000000 2.345640 
# 
# 
# High freq. dielectric constant tensor:
#      x y z
#    x 1.831830 0.000000 0.000120 
#    y 0.000000 1.822800 0.000000 
#    z 0.000120 0.000000 1.825860 
# 
# From -- ./inp_files/56774.got.cif
#   From: 2010.06.25/outbox.cif.g09.slc.cpg/sg11_29_cif.got.tgz:56774.got - 2010.06.27 23:14:04.
