data_PCOD8075105
_publ_section_title
;
Structure prediction by ZEFSAII (Michael W. Deem and Ramdas Pophale) SiO2 
 PCOD8075105
Probable space group: P 21/M
;
_chemical_formula_sum "Si O2"
_cell_formula_units_Z 28
_cell_length_a 18.338183
_cell_length_b 8.752610
_cell_length_c 9.374526
_cell_angle_alpha 90.000000
_cell_angle_beta 74.729835
_cell_angle_gamma 90.000000
_cell_volume 1451.553631
_symmetry_space_group_name_H-M "P 21/M"
_symmetry_group_IT_number 11
_symmetry_cell_setting 'monoclinic'
loop_
_space_group_symop_operation_xyz
x,y,z
-x,1/2+y,-z
-x,-y,-z
x,1/2-y,z
loop_
_atom_site_type_symbol
_atom_site_label
_atom_site_fract_x
_atom_site_fract_y
_atom_site_fract_z
Si Si1 0.865031 0.570698 0.239501
Si Si2 0.297935 0.070285 0.996093
Si Si3 0.292943 0.573245 0.702714
Si Si4 0.870597 0.929695 0.914414
Si Si5 0.566057 0.570528 0.872902
Si Si6 0.436197 0.926935 0.436228
Si Si7 0.004236 0.569265 0.652262
O O1 0.874758 0.750000 0.262234
O O2 0.778502 0.525231 0.311234
O O3 0.888572 0.522876 0.067359
O O4 0.916672 0.477097 0.320081
O O5 0.297705 0.250000 0.961200
O O6 0.213733 0.014109 0.084474
O O7 0.324195 0.984153 0.839236
O O8 0.354081 0.028661 0.095154
O O9 0.270161 0.750000 0.727566
O O10 0.356065 0.546661 0.551634
O O11 0.874149 0.750000 0.896554
O O12 0.934335 0.001831 0.779306
O O13 0.553334 0.750000 0.871363
O O14 0.565405 0.504502 0.715979
O O15 0.500000 0.500000 0.000000
O O16 0.455145 0.750000 0.406322
O O17 0.500000 0.000000 0.500000
O O18 0.998996 0.750000 0.645794
O O19 0.000000 0.500000 0.500000
#
# Coordination Sequence:
#
# PCOD8075105 Si02
#       7
#     4   4   4   4   4   4   4
#     4  10  20  37  60  83 108 144 187 229 276 335
#     4   9  19  37  59  83 109 143 186 229 276 334
#     4  10  21  37  58  86 115 144 181 230 282 332
#     4   8  17  35  58  81 107 141 183 227 273 327
#     4  11  23  38  59  85 116 153 192 234 282 335
#     4  11  24  40  59  84 116 151 190 234 283 340
#     4  11  22  36  54  80 114 148 184 231 282 333
#
# _framework density 19.289677000000001
#
# number of rings (size 3 to 8) (size 9 to 14) (size 15 to 20)
#    0.000    2.000    0.000    4.286    0.000    6.857 
#    0.000    7.857    0.000    0.000    0.000    0.000 
#    0.000    0.000    0.000    0.000    0.000    0.000 
#
# Total GULP energy -347259.708732 kJ/mol
# GULP energy per Si atom -12402.132455 kJ/mol
# Density = 1.924577 g / cm^3
# Si number density = 19.289677 Si / 1000 Ang^3
#
#
#
# Elastic Constant Matrix: (Units=GPa)
#
#
# Indices 1 2 3 4 5 6 
#
# 1 117.7079 53.1331 81.0377 0.0000 17.2815 0.0000
# 2 53.1331 78.2834 58.2894 0.0000 3.0254 0.0000
# 3 81.0377 58.2894 149.2167 0.0000 12.1263 0.0000
# 4 0.0000 0.0000 0.0000 34.7885 0.0000 3.1134
# 5 17.2815 3.0254 12.1263 0.0000 31.2250 0.0000
# 6 0.0000 0.0000 0.0000 3.1134 0.0000 31.4941
#
#
#
# Elastic Compliance Matrix: (Units=1/GPa)
#
#
# Indices 1 2 3 4 5 6 
#
# 1 0.016363 -0.006520 -0.005839 0.000000 -0.006157 0.000000
# 2 -0.006520 0.020643 -0.004805 0.000000 0.003475 0.000000
# 3 -0.005839 -0.004805 0.011823 0.000000 -0.000894 0.000000
# 4 0.000000 0.000000 0.000000 0.029002 0.000000 -0.002867
# 5 -0.006157 0.003475 -0.000894 0.000000 0.035444 0.000000
# 6 0.000000 0.000000 0.000000 -0.002867 0.000000 0.032035
#
#
# Mechanical properties :
#
#
# Convention : Reuss Voigt Hill
#
# Bulk Modulus (GPa) = 68.96822 81.12537 75.04679
# Shear Modulus (GPa) = 27.10447 29.68468 28.39458
#
# Velocity S-wave (km/s) = 3.75257 3.92712 3.84084
# Velocity P-wave (km/s) = 7.38967 7.91901 7.65892
#
# Compressibility (1/GPa) = 0.01449943
#
# Stress axis : x y z
#
# Youngs Moduli (GPa) = 61.11494 48.44189 84.58395
#
# Poissons Ratio (x) = 0.31585 0.49389
# Poissons Ratio (y) = 0.39848 0.40646
# Poissons Ratio (z) = 0.35685 0.23278
#
# Static dielectric constant tensor:
#      x y z
#    x 3.835420 0.000000 -0.139130 
#    y 0.000000 3.547380 0.000000 
#    z -0.139130 0.000000 3.623310 
# 
# 
# High freq. dielectric constant tensor:
#      x y z
#    x 1.764610 0.000000 -0.001700 
#    y 0.000000 1.748720 0.000000 
#    z -0.001700 0.000000 1.752680 
# 
# From -- ./inp_files/23972.got.cif
#   From: 2010.06.25/outbox.cif.g09.slc.cpg/sg11_12_cif.got.tgz:23972.got - 2010.06.27 23:14:04.
