data_PCOD8075767
_publ_section_title
;
Structure prediction by ZEFSAII (Michael W. Deem and Ramdas Pophale) SiO2 
 PCOD8075767
Probable space group: P 21/M
;
_chemical_formula_sum "Si O2"
_cell_formula_units_Z 28
_cell_length_a 14.698674
_cell_length_b 8.945409
_cell_length_c 11.938726
_cell_angle_alpha 90.000000
_cell_angle_beta 70.683871
_cell_angle_gamma 90.000000
_cell_volume 1481.405399
_symmetry_space_group_name_H-M "P 21/M"
_symmetry_group_IT_number 11
_symmetry_cell_setting 'monoclinic'
loop_
_space_group_symop_operation_xyz
x,y,z
-x,1/2+y,-z
-x,-y,-z
x,1/2-y,z
loop_
_atom_site_type_symbol
_atom_site_label
_atom_site_fract_x
_atom_site_fract_y
_atom_site_fract_z
Si Si1 0.913536 0.075527 0.400345
Si Si2 0.871187 0.926429 0.642792
Si Si3 0.298876 0.074851 0.134733
Si Si4 0.762318 0.078746 0.285632
Si Si5 0.334957 0.427173 0.873091
Si Si6 0.411283 0.576497 0.476143
Si Si7 0.540623 0.925497 0.760423
O O1 0.901436 0.250000 0.430182
O O2 0.863963 0.034461 0.301848
O O3 0.025320 0.028200 0.347345
O O4 0.859724 0.992457 0.523515
O O5 0.859455 0.750000 0.636723
O O6 0.789060 0.995566 0.757722
O O7 0.280886 0.250000 0.137151
O O8 0.402439 0.039332 0.148257
O O9 0.300240 0.011100 0.008051
O O10 0.761975 0.250000 0.244762
O O11 0.682545 0.051491 0.412035
O O12 0.744769 0.974271 0.185520
O O13 0.347660 0.250000 0.868287
O O14 0.436430 0.500211 0.801618
O O15 0.500000 0.500000 0.500000
O O16 0.434070 0.750000 0.447204
O O17 0.394708 0.495107 0.364582
O O18 0.527531 0.750000 0.745137
#
# Coordination Sequence:
#
# PCOD8075767 Si02
#       7
#     4   4   4   4   4   4   4
#     4   9  18  33  56  83 108 134 166 209 262 314
#     4   9  17  34  58  81 106 134 168 212 260 310
#     4   9  20  36  54  77 103 137 177 218 261 307
#     4  10  21  36  52  75 108 141 171 210 262 310
#     4  11  22  36  53  73 102 140 183 219 254 309
#     4  11  21  33  51  75 106 138 173 213 257 307
#     4  11  21  35  54  76 105 137 174 219 268 314
#
# _framework density 18.900970999999998
#
# number of rings (size 3 to 8) (size 9 to 14) (size 15 to 20)
#    0.000    2.000    1.429    2.571    0.000    1.143 
#    0.000    5.000    0.000    0.000    0.000    0.000 
#    0.000    0.000    0.000    0.000    0.000    0.000 
#
# Total GULP energy -347219.767048 kJ/mol
# GULP energy per Si atom -12400.705966 kJ/mol
# Density = 1.885795 g / cm^3
# Si number density = 18.900971 Si / 1000 Ang^3
#
#
#
# Elastic Constant Matrix: (Units=GPa)
#
#
# Indices 1 2 3 4 5 6 
#
# 1 86.6754 27.4226 35.5650 0.0000 17.5832 0.0000
# 2 27.4226 61.7412 33.9802 0.0000 11.0755 0.0000
# 3 35.5650 33.9802 104.2365 0.0000 21.7006 0.0000
# 4 0.0000 0.0000 0.0000 25.4500 0.0000 4.9296
# 5 17.5832 11.0755 21.7006 0.0000 28.8868 0.0000
# 6 0.0000 0.0000 0.0000 4.9296 0.0000 20.6964
#
#
#
# Elastic Compliance Matrix: (Units=1/GPa)
#
#
# Indices 1 2 3 4 5 6 
#
# 1 0.015087 -0.004271 -0.002589 0.000000 -0.005601 0.000000
# 2 -0.004271 0.021206 -0.005102 0.000000 -0.001698 0.000000
# 3 -0.002589 -0.005102 0.013519 0.000000 -0.006624 0.000000
# 4 0.000000 0.000000 0.000000 0.041193 0.000000 -0.009812
# 5 -0.005601 -0.001698 -0.006624 0.000000 0.043654 0.000000
# 6 0.000000 0.000000 0.000000 -0.009812 0.000000 0.050655
#
#
# Mechanical properties :
#
#
# Convention : Reuss Voigt Hill
#
# Bulk Modulus (GPa) = 38.62915 49.62098 44.12506
# Shear Modulus (GPa) = 22.94950 25.38566 24.16758
#
# Velocity S-wave (km/s) = 3.48831 3.66879 3.57969
# Velocity P-wave (km/s) = 6.05859 6.65258 6.36252
#
# Compressibility (1/GPa) = 0.02588719
#
# Stress axis : x y z
#
# Youngs Moduli (GPa) = 66.28086 47.15544 73.96833
#
# Poissons Ratio (x) = 0.20142 0.19153
# Poissons Ratio (y) = 0.28311 0.37741
# Poissons Ratio (z) = 0.17162 0.24060
#
# Static dielectric constant tensor:
#      x y z
#    x 3.790080 0.000000 -0.168030 
#    y 0.000000 3.397840 0.000000 
#    z -0.168030 0.000000 3.892710 
# 
# 
# High freq. dielectric constant tensor:
#      x y z
#    x 1.739060 0.000000 0.009660 
#    y 0.000000 1.722460 0.000000 
#    z 0.009660 0.000000 1.730250 
# 
# From -- ./inp_files/37443.got.cif
#   From: 2010.06.25/outbox.cif.g09.slc.cpg/sg11_19_cif.got.tgz:37443.got - 2010.06.27 23:14:04.
