data_PCOD8075330
_publ_section_title
;
Structure prediction by ZEFSAII (Michael W. Deem and Ramdas Pophale) SiO2 
 PCOD8075330
Probable space group: P 21/M
;
_chemical_formula_sum "Si O2"
_cell_formula_units_Z 32
_cell_length_a 9.087443
_cell_length_b 23.048866
_cell_length_c 15.488126
_cell_angle_alpha 90.000000
_cell_angle_beta 150.555473
_cell_angle_gamma 90.000000
_cell_volume 1594.721784
_symmetry_space_group_name_H-M "P 21/M"
_symmetry_group_IT_number 11
_symmetry_cell_setting 'monoclinic'
loop_
_space_group_symop_operation_xyz
x,y,z
-x,1/2+y,-z
-x,-y,-z
x,1/2-y,z
loop_
_atom_site_type_symbol
_atom_site_label
_atom_site_fract_x
_atom_site_fract_y
_atom_site_fract_z
Si Si1 0.775483 0.878346 0.792818
Si Si2 0.137943 0.142846 0.579368
Si Si3 0.770771 0.183492 0.550721
Si Si4 0.687217 0.002593 0.683376
Si Si5 0.574370 0.404356 0.212961
Si Si6 0.974032 0.882214 0.162059
Si Si7 0.331300 0.021495 0.676478
Si Si8 0.759826 0.184220 0.860875
O O1 0.574584 0.837720 0.627618
O O2 0.840249 0.940059 0.780046
O O3 0.574022 0.885701 0.773600
O O4 0.088174 0.848178 0.979131
O O5 0.319612 0.086498 0.709076
O O6 0.398293 0.185450 0.680184
O O7 0.939577 0.177031 0.546442
O O8 0.916427 0.120069 0.388617
O O9 0.774826 0.250000 0.582761
O O10 0.958661 0.143619 0.710934
O O11 0.500000 0.000000 0.500000
O O12 0.485369 0.021432 0.661319
O O13 0.943671 0.050116 0.801769
O O14 0.529641 0.474582 0.186116
O O15 0.384714 0.377026 0.037486
O O16 0.156865 0.846348 0.185238
O O17 0.000000 0.000000 0.500000
O O18 0.878086 0.250000 0.920445
#
# Coordination Sequence:
#
# PCOD8075330 Si02
#       8
#     4   4   4   4   4   4   4   4
#     4   9  20  36  60  85 115 151 193 239 295 354
#     4  10  20  38  59  84 112 153 198 242 292 348
#     4  11  22  40  58  80 116 161 198 239 293 356
#     4  11  20  35  60  93 122 151 193 246 303 357
#     4   8  19  35  58  84 114 153 189 232 291 359
#     4  11  22  37  60  89 120 151 199 245 294 352
#     4   9  18  34  57  82 118 151 188 234 294 353
#     4  11  22  38  60  88 113 150 202 250 290 345
#
# _framework density 20.066196000000001
#
# number of rings (size 3 to 8) (size 9 to 14) (size 15 to 20)
#    0.000    2.000    2.500    1.875    1.750    1.500 
#    0.000    6.250    0.000    0.000    0.000    0.000 
#    0.000    0.000    0.000    0.000    0.000    0.000 
#
# Total GULP energy -396524.754612 kJ/mol
# GULP energy per Si atom -12391.398582 kJ/mol
# Density = 2.002052 g / cm^3
# Si number density = 20.066196 Si / 1000 Ang^3
#
#
#
# Elastic Constant Matrix: (Units=GPa)
#
#
# Indices 1 2 3 4 5 6 
#
# 1 19.6378 9.5859 10.9306 0.0000 9.6626 0.0000
# 2 9.5859 114.1945 27.8519 0.0000 6.3061 0.0000
# 3 10.9306 27.8519 104.1285 0.0000 14.1267 0.0000
# 4 0.0000 0.0000 0.0000 28.3832 0.0000 0.0970
# 5 9.6626 6.3061 14.1267 0.0000 18.4533 0.0000
# 6 0.0000 0.0000 0.0000 0.0970 0.0000 23.6766
#
#
#
# Elastic Compliance Matrix: (Units=1/GPa)
#
#
# Indices 1 2 3 4 5 6 
#
# 1 0.070576 -0.003591 -0.001786 0.000000 -0.034360 0.000000
# 2 -0.003591 0.009585 -0.002229 0.000000 0.000311 0.000000
# 3 -0.001786 -0.002229 0.011334 0.000000 -0.006980 0.000000
# 4 0.000000 0.000000 0.000000 0.035233 0.000000 -0.000144
# 5 -0.034360 0.000311 -0.006980 0.000000 0.077419 0.000000
# 6 0.000000 0.000000 0.000000 -0.000144 0.000000 0.042236
#
#
# Mechanical properties :
#
#
# Convention : Reuss Voigt Hill
#
# Bulk Modulus (GPa) = 13.10926 37.18864 25.14895
# Shear Modulus (GPa) = 17.42013 26.74211 22.08112
#
# Velocity S-wave (km/s) = 2.94961 3.65457 3.32085
# Velocity P-wave (km/s) = 4.25998 6.03167 5.22152
#
# Compressibility (1/GPa) = 0.07628193
#
# Stress axis : x y z
#
# Youngs Moduli (GPa) = 14.16907 104.33073 88.22902
#
# Poissons Ratio (x) = 0.37468 0.15762
# Poissons Ratio (y) = 0.05088 0.19666
# Poissons Ratio (z) = 0.02531 0.23255
#
# Static dielectric constant tensor:
#      x y z
#    x 3.242050 0.000000 0.079240 
#    y 0.000000 5.515080 0.000000 
#    z 0.079240 0.000000 4.018610 
# 
# 
# High freq. dielectric constant tensor:
#      x y z
#    x 1.741100 0.000000 0.009960 
#    y 0.000000 1.795140 0.000000 
#    z 0.009960 0.000000 1.788350 
# 
# From -- ./inp_files/48486.got.cif
#   From: 2010.06.25/outbox.cif.g09.slc.cpg/sg11_25_cif.got.tgz:48486.got - 2010.06.27 23:14:04.
