data_PCOD8075391
_publ_section_title
;
Structure prediction by ZEFSAII (Michael W. Deem and Ramdas Pophale) SiO2 
 PCOD8075391
Probable space group: P 21/M
;
_chemical_formula_sum "Si O2"
_cell_formula_units_Z 28
_cell_length_a 14.620445
_cell_length_b 8.747299
_cell_length_c 12.495333
_cell_angle_alpha 90.000000
_cell_angle_beta 121.093153
_cell_angle_gamma 90.000000
_cell_volume 1368.431148
_symmetry_space_group_name_H-M "P 21/M"
_symmetry_group_IT_number 11
_symmetry_cell_setting 'monoclinic'
loop_
_space_group_symop_operation_xyz
x,y,z
-x,1/2+y,-z
-x,-y,-z
x,1/2-y,z
loop_
_atom_site_type_symbol
_atom_site_label
_atom_site_fract_x
_atom_site_fract_y
_atom_site_fract_z
Si Si1 0.221948 0.571261 0.997461
Si Si2 0.307763 0.929857 0.639395
Si Si3 0.616085 0.068965 0.081641
Si Si4 0.603012 0.570271 0.508547
Si Si5 0.986927 0.574946 0.813538
Si Si6 0.222076 0.572490 0.239074
Si Si7 0.917962 0.575148 0.530252
O O1 0.212916 0.750000 0.968371
O O2 0.307662 0.501121 0.966041
O O3 0.103536 0.503045 0.907707
O O4 0.261039 0.538366 0.141771
O O5 0.318934 0.750000 0.632284
O O6 0.334515 0.982498 0.775501
O O7 0.390443 0.009736 0.608595
O O8 0.189549 0.979116 0.537188
O O9 0.607053 0.250000 0.067480
O O10 0.500000 0.000000 0.000000
O O11 0.500000 0.500000 0.500000
O O12 0.590766 0.750000 0.498145
O O13 0.709061 0.527640 0.637995
O O14 0.977670 0.750000 0.848248
O O15 0.901709 0.472925 0.825869
O O16 0.968941 0.564811 0.677007
O O17 0.236881 0.750000 0.276856
O O18 0.894509 0.750000 0.483536
O O19 0.000000 0.500000 0.500000
#
# Coordination Sequence:
#
# PCOD8075391 Si02
#       7
#     4   4   4   4   4   4   4
#     4   9  20  39  62  89 125 167 208 252 309 369
#     4  11  23  42  66  94 128 163 209 261 315 376
#     4  10  23  43  65  91 123 164 208 261 313 370
#     4  12  26  44  66  93 126 165 211 262 317 376
#     4  10  20  38  61  88 124 166 208 252 309 371
#     4  11  22  38  63  95 127 164 207 254 311 373
#     4  11  22  36  60  91 126 169 212 258 311 369
#
# _framework density 20.461386999999998
#
# number of rings (size 3 to 8) (size 9 to 14) (size 15 to 20)
#    0.000    1.429    1.429    3.857    2.000    4.000 
#    0.000    2.143    0.000    0.000    0.000    0.000 
#    0.000    0.000    0.000    0.000    0.000    0.000 
#
# Total GULP energy -347328.223675 kJ/mol
# GULP energy per Si atom -12404.579417 kJ/mol
# Density = 2.041482 g / cm^3
# Si number density = 20.461387 Si / 1000 Ang^3
#
#
#
# Elastic Constant Matrix: (Units=GPa)
#
#
# Indices 1 2 3 4 5 6 
#
# 1 143.5595 35.3334 28.7727 0.0000 -20.2113 0.0000
# 2 35.3334 86.4166 30.9718 0.0000 -13.9854 0.0000
# 3 28.7727 30.9718 75.9438 0.0000 -14.3088 0.0000
# 4 0.0000 0.0000 0.0000 26.1378 0.0000 3.1572
# 5 -20.2113 -13.9854 -14.3088 0.0000 39.8589 0.0000
# 6 0.0000 0.0000 0.0000 3.1572 0.0000 37.6315
#
#
#
# Elastic Compliance Matrix: (Units=1/GPa)
#
#
# Indices 1 2 3 4 5 6 
#
# 1 0.008263 -0.002336 -0.001655 0.000000 0.002776 0.000000
# 2 -0.002336 0.014550 -0.004623 0.000000 0.002261 0.000000
# 3 -0.001655 -0.004623 0.016320 0.000000 0.003398 0.000000
# 4 0.000000 0.000000 0.000000 0.038650 0.000000 -0.003243
# 5 0.002776 0.002261 0.003398 0.000000 0.028509 0.000000
# 6 0.000000 0.000000 0.000000 -0.003243 0.000000 0.026846
#
#
# Mechanical properties :
#
#
# Convention : Reuss Voigt Hill
#
# Bulk Modulus (GPa) = 45.65042 55.11954 50.38498
# Shear Modulus (GPa) = 31.71230 34.78178 33.24704
#
# Velocity S-wave (km/s) = 3.94110 4.12743 4.03534
# Velocity P-wave (km/s) = 6.56267 7.05060 6.81101
#
# Compressibility (1/GPa) = 0.02190560
#
# Stress axis : x y z
#
# Youngs Moduli (GPa) = 121.01720 68.72975 61.27459
#
# Poissons Ratio (x) = 0.16057 0.10140
# Poissons Ratio (y) = 0.28272 0.28325
# Poissons Ratio (z) = 0.20026 0.31771
#
# Static dielectric constant tensor:
#      x y z
#    x 3.603660 0.000000 0.207840 
#    y 0.000000 3.628230 0.000000 
#    z 0.207840 0.000000 3.479100 
# 
# 
# High freq. dielectric constant tensor:
#      x y z
#    x 1.815840 0.000000 -0.006950 
#    y 0.000000 1.787660 0.000000 
#    z -0.006950 0.000000 1.810100 
# 
# From -- ./inp_files/38424.got.cif
#   From: 2010.06.25/outbox.cif.g09.slc.cpg/sg11_20_cif.got.tgz:38424.got - 2010.06.27 23:14:04.
