data_PCOD8075334
_publ_section_title
;
Structure prediction by ZEFSAII (Michael W. Deem and Ramdas Pophale) SiO2 
 PCOD8075334
Probable space group: P 21/M
;
_chemical_formula_sum "Si O2"
_cell_formula_units_Z 32
_cell_length_a 15.520784
_cell_length_b 17.346265
_cell_length_c 11.943227
_cell_angle_alpha 90.000000
_cell_angle_beta 150.849158
_cell_angle_gamma 90.000000
_cell_volume 1566.277990
_symmetry_space_group_name_H-M "P 21/M"
_symmetry_group_IT_number 11
_symmetry_cell_setting 'monoclinic'
loop_
_space_group_symop_operation_xyz
x,y,z
-x,1/2+y,-z
-x,-y,-z
x,1/2-y,z
loop_
_atom_site_type_symbol
_atom_site_label
_atom_site_fract_x
_atom_site_fract_y
_atom_site_fract_z
Si Si1 0.910691 0.103077 0.863356
Si Si2 0.384895 0.660257 0.930390
Si Si3 0.325196 0.090021 0.599785
Si Si4 0.465919 0.837145 0.600400
Si Si5 0.502856 0.068971 0.150438
Si Si6 0.699084 0.839039 0.658163
Si Si7 0.025458 0.971861 0.838733
Si Si8 0.169480 0.521685 0.764272
O O1 0.745774 0.158915 0.655325
O O2 0.867943 0.060967 0.933381
O O3 0.917266 0.044878 0.765268
O O4 0.094897 0.148700 0.078711
O O5 0.329745 0.750000 0.866587
O O6 0.401982 0.628723 0.824130
O O7 0.231509 0.610481 0.817637
O O8 0.574397 0.650960 0.207274
O O9 0.370446 0.109211 0.522778
O O10 0.111506 0.092325 0.366894
O O11 0.374793 0.003624 0.687714
O O12 0.518537 0.750000 0.686055
O O13 0.539546 0.887780 0.784012
O O14 0.573973 0.866720 0.616122
O O15 0.320723 0.036301 0.891049
O O16 0.669617 0.750000 0.594426
O O17 0.149421 0.993451 0.874837
O O18 0.000000 0.500000 0.500000
#
# Coordination Sequence:
#
# PCOD8075334 Si02
#       8
#     4   4   4   4   4   4   4   4
#     4  10  21  37  61  88 130 167 204 258 315 371
#     4  11  24  42  63  90 123 163 208 264 324 381
#     4  10  20  39  65  86 120 160 203 259 313 372
#     4  11  23  38  61  90 127 171 212 260 319 380
#     4  11  22  40  63  88 118 162 212 256 314 385
#     4  10  22  38  57  92 128 163 210 259 318 381
#     4  10  20  38  59  95 119 156 211 254 306 376
#     4  11  23  40  66  93 124 159 210 268 315 381
#
# _framework density 20.430599999999998
#
# number of rings (size 3 to 8) (size 9 to 14) (size 15 to 20)
#    0.000    1.500    1.250    4.875    3.500    0.500 
#    0.000    5.625    0.000    0.000    0.000    0.000 
#    0.000    0.000    0.000    0.000    0.000    0.000 
#
# Total GULP energy -396727.706123 kJ/mol
# GULP energy per Si atom -12397.740816 kJ/mol
# Density = 2.038410 g / cm^3
# Si number density = 20.430600 Si / 1000 Ang^3
#
#
#
# Elastic Constant Matrix: (Units=GPa)
#
#
# Indices 1 2 3 4 5 6 
#
# 1 109.5222 39.9899 24.2200 0.0000 -7.2470 0.0000
# 2 39.9899 93.5812 28.6956 0.0000 -8.2637 0.0000
# 3 24.2200 28.6956 86.2677 0.0000 -6.5002 0.0000
# 4 0.0000 0.0000 0.0000 24.1175 0.0000 -2.0080
# 5 -7.2470 -8.2637 -6.5002 0.0000 24.3626 0.0000
# 6 0.0000 0.0000 0.0000 -2.0080 0.0000 34.5598
#
#
#
# Elastic Compliance Matrix: (Units=1/GPa)
#
#
# Indices 1 2 3 4 5 6 
#
# 1 0.011089 -0.004107 -0.001636 0.000000 0.001469 0.000000
# 2 -0.004107 0.013646 -0.003193 0.000000 0.002555 0.000000
# 3 -0.001636 -0.003193 0.013262 0.000000 0.001968 0.000000
# 4 0.000000 0.000000 0.000000 0.041665 0.000000 0.002421
# 5 0.001469 0.002555 0.001968 0.000000 0.042875 0.000000
# 6 0.000000 0.000000 0.000000 0.002421 0.000000 0.029076
#
#
# Mechanical properties :
#
#
# Convention : Reuss Voigt Hill
#
# Bulk Modulus (GPa) = 49.69520 52.79801 51.24660
# Shear Modulus (GPa) = 28.37757 29.70570 29.04163
#
# Velocity S-wave (km/s) = 3.73094 3.81725 3.77434
# Velocity P-wave (km/s) = 6.55260 6.73255 6.64318
#
# Compressibility (1/GPa) = 0.02012267
#
# Stress axis : x y z
#
# Youngs Moduli (GPa) = 90.17660 73.28205 75.40426
#
# Poissons Ratio (x) = 0.30099 0.12340
# Poissons Ratio (y) = 0.37038 0.24080
# Poissons Ratio (z) = 0.14757 0.23402
#
# Static dielectric constant tensor:
#      x y z
#    x 3.766360 0.000000 -0.055800 
#    y 0.000000 3.624390 0.000000 
#    z -0.055800 0.000000 3.709020 
# 
# 
# High freq. dielectric constant tensor:
#      x y z
#    x 1.804870 0.000000 -0.009180 
#    y 0.000000 1.786870 0.000000 
#    z -0.009180 0.000000 1.802780 
# 
# From -- ./inp_files/40022.got.cif
#   From: 2010.06.25/outbox.cif.g09.slc.cpg/sg11_21_cif.got.tgz:40022.got - 2010.06.27 23:14:04.
