data_PCOD8075120
_publ_section_title
;
Structure prediction by ZEFSAII (Michael W. Deem and Ramdas Pophale) SiO2 
 PCOD8075120
Probable space group: P 21/M
;
_chemical_formula_sum "Si O2"
_cell_formula_units_Z 28
_cell_length_a 28.772200
_cell_length_b 8.850428
_cell_length_c 8.949300
_cell_angle_alpha 90.000000
_cell_angle_beta 141.219489
_cell_angle_gamma 90.000000
_cell_volume 1427.366985
_symmetry_space_group_name_H-M "P 21/M"
_symmetry_group_IT_number 11
_symmetry_cell_setting 'monoclinic'
loop_
_space_group_symop_operation_xyz
x,y,z
-x,1/2+y,-z
-x,-y,-z
x,1/2-y,z
loop_
_atom_site_type_symbol
_atom_site_label
_atom_site_fract_x
_atom_site_fract_y
_atom_site_fract_z
Si Si1 0.861292 0.926868 0.826563
Si Si2 0.858539 0.928881 0.479688
Si Si3 0.997566 0.428947 0.332171
Si Si4 0.430358 0.927555 0.905704
Si Si5 0.290166 0.073348 0.050018
Si Si6 0.293676 0.423677 0.407858
Si Si7 0.570339 0.428522 0.755012
O O1 0.881138 0.750000 0.887198
O O2 0.856847 0.984959 0.645673
O O3 0.783836 0.963332 0.710284
O O4 0.923330 0.023353 0.063316
O O5 0.858775 0.750000 0.474067
O O6 0.932085 0.992249 0.584094
O O7 0.785918 0.988932 0.212144
O O8 0.000753 0.250000 0.355205
O O9 0.000000 0.500000 0.500000
O O10 0.440743 0.750000 0.925604
O O11 0.355548 0.971073 0.634017
O O12 0.426496 0.985196 0.066311
O O13 0.500000 0.000000 0.000000
O O14 0.302208 0.250000 0.045976
O O15 0.286856 0.040627 0.216725
O O16 0.356241 0.979778 0.144739
O O17 0.315761 0.250000 0.491479
O O18 0.500000 0.500000 0.500000
O O19 0.563064 0.250000 0.727498
#
# Coordination Sequence:
#
# PCOD8075120 Si02
#       7
#     4   4   4   4   4   4   4
#     4  10  20  37  60  85 113 148 188 232 283 337
#     4   9  19  36  59  84 112 148 189 231 280 335
#     4  11  22  37  57  83 115 151 191 235 281 334
#     4  11  24  40  59  84 115 148 188 233 280 334
#     4  10  20  37  60  85 112 146 187 230 276 332
#     4  10  21  37  60  87 115 148 188 231 280 336
#     4  11  24  40  58  84 114 147 186 230 278 332
#
# _framework density 19.616540000000001
#
# number of rings (size 3 to 8) (size 9 to 14) (size 15 to 20)
#    0.000    1.714    0.000    4.286    0.000   10.286 
#    0.000    4.286    0.000    0.000    0.000    0.000 
#    0.000    0.000    0.000    0.000    0.000    0.000 
#
# Total GULP energy -347336.937257 kJ/mol
# GULP energy per Si atom -12404.890616 kJ/mol
# Density = 1.957189 g / cm^3
# Si number density = 19.616540 Si / 1000 Ang^3
#
#
#
# Elastic Constant Matrix: (Units=GPa)
#
#
# Indices 1 2 3 4 5 6 
#
# 1 185.7393 45.4018 80.0113 0.0000 -2.2456 0.0000
# 2 45.4018 53.1135 42.3537 0.0000 -0.7313 0.0000
# 3 80.0113 42.3537 161.3131 0.0000 -5.4795 0.0000
# 4 0.0000 0.0000 0.0000 37.2962 0.0000 2.6689
# 5 -2.2456 -0.7313 -5.4795 0.0000 38.5094 0.0000
# 6 0.0000 0.0000 0.0000 2.6689 0.0000 31.4249
#
#
#
# Elastic Compliance Matrix: (Units=1/GPa)
#
#
# Indices 1 2 3 4 5 6 
#
# 1 0.007582 -0.004405 -0.002605 0.000000 -0.000012 0.000000
# 2 -0.004405 0.026379 -0.004756 0.000000 -0.000433 0.000000
# 3 -0.002605 -0.004756 0.008774 0.000000 0.001006 0.000000
# 4 0.000000 0.000000 0.000000 0.026976 0.000000 -0.002291
# 5 -0.000012 -0.000433 0.001006 0.000000 0.026102 0.000000
# 6 0.000000 0.000000 0.000000 -0.002291 0.000000 0.032016
#
#
# Mechanical properties :
#
#
# Convention : Reuss Voigt Hill
#
# Bulk Modulus (GPa) = 52.07033 81.74439 66.90736
# Shear Modulus (GPa) = 31.69308 36.93938 34.31623
#
# Velocity S-wave (km/s) = 4.02385 4.34415 4.18706
# Velocity P-wave (km/s) = 6.94192 8.18070 7.58663
#
# Compressibility (1/GPa) = 0.01920480
#
# Stress axis : x y z
#
# Youngs Moduli (GPa) = 131.88265 37.90859 113.97230
#
# Poissons Ratio (x) = 0.16697 0.29689
# Poissons Ratio (y) = 0.58088 0.54206
# Poissons Ratio (z) = 0.34354 0.18030
#
# Static dielectric constant tensor:
#      x y z
#    x 2.460720 0.000000 -1.561800 
#    y 0.000000 3.396840 0.000000 
#    z -1.561800 0.000000 1.151950 
# 
# 
# High freq. dielectric constant tensor:
#      x y z
#    x 1.787180 0.000000 -0.001410 
#    y 0.000000 1.747610 0.000000 
#    z -0.001410 0.000000 1.783570 
# 
# From -- ./inp_files/28238.got.cif
#   From: 2010.06.25/outbox.cif.g09.slc.cpg/sg11_15_cif.got.tgz:28238.got - 2010.06.27 23:14:04.
