data_PCOD8075357
_publ_section_title
;
Structure prediction by ZEFSAII (Michael W. Deem and Ramdas Pophale) SiO2 
 PCOD8075357
Probable space group: P 21/M
;
_chemical_formula_sum "Si O2"
_cell_formula_units_Z 20
_cell_length_a 12.286120
_cell_length_b 16.240365
_cell_length_c 13.985345
_cell_angle_alpha 90.000000
_cell_angle_beta 20.718176
_cell_angle_gamma 90.000000
_cell_volume 987.203443
_symmetry_space_group_name_H-M "P 21/M"
_symmetry_group_IT_number 11
_symmetry_cell_setting 'monoclinic'
loop_
_space_group_symop_operation_xyz
x,y,z
-x,1/2+y,-z
-x,-y,-z
x,1/2-y,z
loop_
_atom_site_type_symbol
_atom_site_label
_atom_site_fract_x
_atom_site_fract_y
_atom_site_fract_z
Si Si1 0.479527 0.250000 0.052265
Si Si2 0.183647 0.250000 0.496057
Si Si3 0.432397 0.579468 0.345246
Si Si4 0.435090 0.103284 0.407847
Si Si5 0.781006 0.841682 0.895721
Si Si6 0.102040 0.089039 0.881677
O O1 0.417093 0.250000 0.215723
O O2 0.336179 0.331304 0.118027
O O3 0.842062 0.250000 0.735819
O O4 0.231135 0.169258 0.520439
O O5 0.449906 0.480650 0.334757
O O6 0.665268 0.623744 0.229278
O O7 0.089708 0.606689 0.650544
O O8 0.519359 0.609418 0.168225
O O9 0.282233 0.083884 0.634594
O O10 0.782796 0.140163 0.134901
O O11 0.828427 0.750000 0.901092
O O12 0.000000 0.000000 0.000000
#
# Coordination Sequence:
#
# PCOD8075357 Si02
#       6
#     2   2   4   4   4   4
#     4  10  24  44  63  76 129 162 190 274 324 328
#     4  12  24  46  59  86 121 170 202 252 302 350
#     4  11  19  39  64  91 123 156 194 250 303 357
#     4  11  23  39  63  91 125 166 205 235 292 377
#     4  10  22  39  62  89 116 154 203 248 319 358
#     4  10  20  38  60  91 127 160 185 242 307 348
#
# _framework density 20.259249000000001
#
# number of rings (size 3 to 8) (size 9 to 14) (size 15 to 20)
#    0.600    0.800    0.000    9.000    0.000    0.000 
#   10.800    6.000    0.000    0.000    0.000    0.000 
#    0.000    0.000    0.000    0.000    0.000    0.000 
#
# Total GULP energy -247953.642757 kJ/mol
# GULP energy per Si atom -12397.682138 kJ/mol
# Density = 2.021314 g / cm^3
# Si number density = 20.259249 Si / 1000 Ang^3
#
#
#
# Elastic Constant Matrix: (Units=GPa)
#
#
# Indices 1 2 3 4 5 6 
#
# 1 97.8947 38.0577 19.9048 0.0000 5.6817 0.0000
# 2 38.0577 87.3352 25.0486 0.0000 -3.5726 0.0000
# 3 19.9048 25.0486 102.2833 0.0000 -2.8812 0.0000
# 4 0.0000 0.0000 0.0000 27.8329 0.0000 -7.0738
# 5 5.6817 -3.5726 -2.8812 0.0000 50.5892 0.0000
# 6 0.0000 0.0000 0.0000 -7.0738 0.0000 32.3183
#
#
#
# Elastic Compliance Matrix: (Units=1/GPa)
#
#
# Indices 1 2 3 4 5 6 
#
# 1 0.012599 -0.005214 -0.001227 0.000000 -0.001853 0.000000
# 2 -0.005214 0.014498 -0.002494 0.000000 0.001467 0.000000
# 3 -0.001227 -0.002494 0.010642 0.000000 0.000568 0.000000
# 4 0.000000 0.000000 0.000000 0.038045 0.000000 0.008327
# 5 -0.001853 0.001467 0.000568 0.000000 0.020111 0.000000
# 6 0.000000 0.000000 0.000000 0.008327 0.000000 0.032765
#
#
# Mechanical properties :
#
#
# Convention : Reuss Voigt Hill
#
# Bulk Modulus (GPa) = 50.33221 50.39283 50.36252
# Shear Modulus (GPa) = 32.64680 35.78157 34.21419
#
# Velocity S-wave (km/s) = 4.01864 4.20716 4.11398
# Velocity P-wave (km/s) = 6.81400 6.96622 6.89053
#
# Compressibility (1/GPa) = 0.01986799
#
# Stress axis : x y z
#
# Youngs Moduli (GPa) = 79.37023 68.97641 93.96355
#
# Poissons Ratio (x) = 0.35965 0.11531
# Poissons Ratio (y) = 0.41385 0.23438
# Poissons Ratio (z) = 0.09740 0.17205
#
# Static dielectric constant tensor:
#      x y z
#    x 3.665370 0.000000 -0.229920 
#    y 0.000000 3.419230 0.000000 
#    z -0.229920 0.000000 4.092490 
# 
# 
# High freq. dielectric constant tensor:
#      x y z
#    x 1.788770 0.000000 0.000180 
#    y 0.000000 1.766370 0.000000 
#    z 0.000180 0.000000 1.816170 
# 
# From -- ./inp_files/50522.got.cif
#   From: 2010.06.25/outbox.cif.g09.slc.cpg/sg11_26_cif.got.tgz:50522.got - 2010.06.27 23:14:04.
