data_PCOD8075824
_publ_section_title
;
Structure prediction by ZEFSAII (Michael W. Deem and Ramdas Pophale) SiO2 
 PCOD8075824
Probable space group: P 21/M
;
_chemical_formula_sum "Si O2"
_cell_formula_units_Z 24
_cell_length_a 10.635711
_cell_length_b 14.651619
_cell_length_c 13.196777
_cell_angle_alpha 90.000000
_cell_angle_beta 34.202916
_cell_angle_gamma 90.000000
_cell_volume 1155.987896
_symmetry_space_group_name_H-M "P 21/M"
_symmetry_group_IT_number 11
_symmetry_cell_setting 'monoclinic'
loop_
_space_group_symop_operation_xyz
x,y,z
-x,1/2+y,-z
-x,-y,-z
x,1/2-y,z
loop_
_atom_site_type_symbol
_atom_site_label
_atom_site_fract_x
_atom_site_fract_y
_atom_site_fract_z
Si Si1 0.554898 0.645115 0.437112
Si Si2 0.169800 0.424583 0.926075
Si Si3 0.739094 0.643783 0.525418
Si Si4 0.481660 0.539607 0.850163
Si Si5 0.937375 0.144996 0.271558
Si Si6 0.845981 0.480905 0.759698
O O1 0.508788 0.750000 0.488619
O O2 0.744843 0.632870 0.226331
O O3 0.639296 0.603235 0.487090
O O4 0.314564 0.603938 0.565839
O O5 0.387088 0.467411 0.833261
O O6 0.000000 0.500000 0.000000
O O7 0.044303 0.358431 0.088222
O O8 0.800188 0.750000 0.477119
O O9 0.562355 0.628519 0.734266
O O10 0.959690 0.586537 0.403993
O O11 0.688777 0.491593 0.767644
O O12 0.289964 0.567578 0.057991
O O13 0.946766 0.250000 0.304130
O O14 0.071082 0.081079 0.260643
#
# Coordination Sequence:
#
# PCOD8075824 Si02
#       6
#     4   4   4   4   4   4
#     4  10  21  36  55  84 118 148 188 240 287 340
#     4  11  21  36  60  83 112 153 193 241 297 347
#     4  11  23  38  59  87 119 156 196 237 288 349
#     4  10  22  39  59  84 114 151 195 243 290 344
#     4  10  21  37  60  87 115 153 198 241 291 350
#     4  10  22  41  60  84 120 155 193 242 292 343
#
# _framework density 20.761462000000002
#
# number of rings (size 3 to 8) (size 9 to 14) (size 15 to 20)
#    0.000    1.667    0.000    5.000    0.000    3.333 
#    0.000   13.333    0.000    0.000    0.000    0.000 
#    0.000    0.000    0.000    0.000    0.000    0.000 
#
# Total GULP energy -297647.042441 kJ/mol
# GULP energy per Si atom -12401.960102 kJ/mol
# Density = 2.071421 g / cm^3
# Si number density = 20.761462 Si / 1000 Ang^3
#
#
#
# Elastic Constant Matrix: (Units=GPa)
#
#
# Indices 1 2 3 4 5 6 
#
# 1 113.8427 28.0634 28.4822 0.0000 -12.3466 0.0000
# 2 28.0634 79.1030 31.4809 0.0000 -6.0343 0.0000
# 3 28.4822 31.4809 108.7149 0.0000 -0.5151 0.0000
# 4 0.0000 0.0000 0.0000 36.1839 0.0000 6.8211
# 5 -12.3466 -6.0343 -0.5151 0.0000 38.0151 0.0000
# 6 0.0000 0.0000 0.0000 6.8211 0.0000 14.4396
#
#
#
# Elastic Compliance Matrix: (Units=1/GPa)
#
#
# Indices 1 2 3 4 5 6 
#
# 1 0.010224 -0.002653 -0.001897 0.000000 0.002874 0.000000
# 2 -0.002653 0.015165 -0.003689 0.000000 0.001496 0.000000
# 3 -0.001897 -0.003689 0.010759 0.000000 -0.001056 0.000000
# 4 0.000000 0.000000 0.000000 0.030338 0.000000 -0.014331
# 5 0.002874 0.001496 -0.001056 0.000000 0.027462 0.000000
# 6 0.000000 0.000000 0.000000 -0.014331 0.000000 0.076024
#
#
# Mechanical properties :
#
#
# Convention : Reuss Voigt Hill
#
# Bulk Modulus (GPa) = 50.83933 53.07928 51.95931
# Shear Modulus (GPa) = 25.90579 31.96999 28.93789
#
# Velocity S-wave (km/s) = 3.53623 3.92838 3.73745
# Velocity P-wave (km/s) = 6.41979 6.79691 6.61104
#
# Compressibility (1/GPa) = 0.01966981
#
# Stress axis : x y z
#
# Youngs Moduli (GPa) = 97.80611 65.93981 92.94877
#
# Poissons Ratio (x) = 0.17495 0.17630
# Poissons Ratio (y) = 0.25950 0.34291
# Poissons Ratio (z) = 0.18551 0.24327
#
# Static dielectric constant tensor:
#      x y z
#    x 3.919020 0.000000 -0.041710 
#    y 0.000000 3.423590 0.000000 
#    z -0.041710 0.000000 3.939480 
# 
# 
# High freq. dielectric constant tensor:
#      x y z
#    x 1.821640 0.000000 -0.002080 
#    y 0.000000 1.792310 0.000000 
#    z -0.002080 0.000000 1.828680 
# 
# From -- ./inp_files/39732.got.cif
#   From: 2010.06.25/outbox.cif.g09.slc.cpg/sg11_20_cif.got.tgz:39732.got - 2010.06.27 23:14:04.
