data_PCOD8075186
_publ_section_title
;
Structure prediction by ZEFSAII (Michael W. Deem and Ramdas Pophale) SiO2 
 PCOD8075186
Probable space group: P 21/M
;
_chemical_formula_sum "Si O2"
_cell_formula_units_Z 28
_cell_length_a 25.139297
_cell_length_b 8.651164
_cell_length_c 9.006469
_cell_angle_alpha 90.000000
_cell_angle_beta 44.911079
_cell_angle_gamma 90.000000
_cell_volume 1382.904462
_symmetry_space_group_name_H-M "P 21/M"
_symmetry_group_IT_number 11
_symmetry_cell_setting 'monoclinic'
loop_
_space_group_symop_operation_xyz
x,y,z
-x,1/2+y,-z
-x,-y,-z
x,1/2-y,z
loop_
_atom_site_type_symbol
_atom_site_label
_atom_site_fract_x
_atom_site_fract_y
_atom_site_fract_z
Si Si1 0.425873 0.929101 0.333662
Si Si2 0.869589 0.433295 0.419407
Si Si3 0.289162 0.069935 0.756628
Si Si4 0.418637 0.929260 0.007485
Si Si5 0.848774 0.067683 0.128534
Si Si6 0.271794 0.567977 0.110824
Si Si7 0.986538 0.567388 0.687226
O O1 0.412920 0.750000 0.394653
O O2 0.374657 0.028515 0.545568
O O3 0.512610 0.971456 0.193580
O O4 0.403971 0.971207 0.208086
O O5 0.866643 0.250000 0.419896
O O6 0.862149 0.498402 0.267487
O O7 0.800569 0.492656 0.655895
O O8 0.947958 0.494177 0.332698
O O9 0.273879 0.250000 0.764281
O O10 0.235422 0.973148 0.753983
O O11 0.273652 0.026086 0.956188
O O12 0.439788 0.750000 0.950007
O O13 0.344802 0.973577 0.062554
O O14 0.861040 0.250000 0.096915
O O15 0.906055 0.986871 0.903555
O O16 0.266929 0.750000 0.085939
O O17 0.988687 0.750000 0.672596
O O18 0.000000 0.500000 0.500000
#
# Coordination Sequence:
#
# PCOD8075186 Si02
#       7
#     4   4   4   4   4   4   4
#     4  10  20  37  61  86 114 151 191 234 289 347
#     4   9  20  38  62  87 114 150 193 237 283 339
#     4  12  25  39  56  84 118 151 192 241 289 342
#     4   9  19  36  60  88 116 148 191 239 285 340
#     4  11  22  40  63  86 114 152 194 238 290 344
#     4  10  20  38  61  84 113 152 194 237 288 343
#     4  11  22  38  60  90 123 156 193 235 284 337
#
# _framework density 20.247240999999999
#
# number of rings (size 3 to 8) (size 9 to 14) (size 15 to 20)
#    0.000    1.714    0.000    4.714    0.000    5.143 
#    0.000    5.714    0.000    0.000    0.000    0.000 
#    0.000    0.000    0.000    0.000    0.000    0.000 
#
# Total GULP energy -347368.002136 kJ/mol
# GULP energy per Si atom -12406.000076 kJ/mol
# Density = 2.020116 g / cm^3
# Si number density = 20.247241 Si / 1000 Ang^3
#
#
#
# Elastic Constant Matrix: (Units=GPa)
#
#
# Indices 1 2 3 4 5 6 
#
# 1 58.7782 26.9232 15.5086 0.0000 -5.3780 0.0000
# 2 26.9232 59.8742 32.6207 0.0000 2.6292 0.0000
# 3 15.5086 32.6207 125.1373 0.0000 2.0609 0.0000
# 4 0.0000 0.0000 0.0000 31.0809 0.0000 -1.9722
# 5 -5.3780 2.6292 2.0609 0.0000 33.6071 0.0000
# 6 0.0000 0.0000 0.0000 -1.9722 0.0000 28.9806
#
#
#
# Elastic Compliance Matrix: (Units=1/GPa)
#
#
# Indices 1 2 3 4 5 6 
#
# 1 0.022037 -0.009991 -0.000198 0.000000 0.004320 0.000000
# 2 -0.009991 0.024046 -0.004978 0.000000 -0.003175 0.000000
# 3 -0.000198 -0.004978 0.009317 0.000000 -0.000214 0.000000
# 4 0.000000 0.000000 0.000000 0.032314 0.000000 0.002199
# 5 0.004320 -0.003175 -0.000214 0.000000 0.030708 0.000000
# 6 0.000000 0.000000 0.000000 0.002199 0.000000 0.034655
#
#
# Mechanical properties :
#
#
# Convention : Reuss Voigt Hill
#
# Bulk Modulus (GPa) = 39.89426 43.76607 41.83017
# Shear Modulus (GPa) = 26.07345 29.98286 28.02815
#
# Velocity S-wave (km/s) = 3.59242 3.85234 3.72465
# Velocity P-wave (km/s) = 6.07895 6.43818 6.26114
#
# Compressibility (1/GPa) = 0.02506626
#
# Stress axis : x y z
#
# Youngs Moduli (GPa) = 45.37812 41.58742 107.33268
#
# Poissons Ratio (x) = 0.41551 0.02123
# Poissons Ratio (y) = 0.45338 0.53427
# Poissons Ratio (z) = 0.00897 0.20701
#
# Static dielectric constant tensor:
#      x y z
#    x 3.826590 0.000000 -0.017430 
#    y 0.000000 3.482140 0.000000 
#    z -0.017430 0.000000 3.738790 
# 
# 
# High freq. dielectric constant tensor:
#      x y z
#    x 1.800190 0.000000 -0.003350 
#    y 0.000000 1.776820 0.000000 
#    z -0.003350 0.000000 1.804130 
# 
# From -- ./inp_files/28413.got.cif
#   From: 2010.06.25/outbox.cif.g09.slc.cpg/sg11_15_cif.got.tgz:28413.got - 2010.06.27 23:14:04.
