data_PCOD8075092
_publ_section_title
;
Structure prediction by ZEFSAII (Michael W. Deem and Ramdas Pophale) SiO2 
 PCOD8075092
Probable space group: P 21/M
;
_chemical_formula_sum "Si O2"
_cell_formula_units_Z 32
_cell_length_a 14.589267
_cell_length_b 8.597964
_cell_length_c 25.070681
_cell_angle_alpha 90.000000
_cell_angle_beta 30.820390
_cell_angle_gamma 90.000000
_cell_volume 1611.241746
_symmetry_space_group_name_H-M "P 21/M"
_symmetry_group_IT_number 11
_symmetry_cell_setting 'monoclinic'
loop_
_space_group_symop_operation_xyz
x,y,z
-x,1/2+y,-z
-x,-y,-z
x,1/2-y,z
loop_
_atom_site_type_symbol
_atom_site_label
_atom_site_fract_x
_atom_site_fract_y
_atom_site_fract_z
Si Si1 0.046361 0.567713 0.220531
Si Si2 0.084499 0.067074 0.510772
Si Si3 0.749891 0.568901 0.237078
Si Si4 0.469462 0.570759 0.853588
Si Si5 0.880949 0.568744 0.926571
Si Si6 0.520619 0.930529 0.705324
Si Si7 0.192243 0.567423 0.262265
Si Si8 0.672885 0.067261 0.386180
O O1 0.050061 0.750000 0.207099
O O2 0.842633 0.513523 0.328675
O O3 0.141610 0.481212 0.123798
O O4 0.149907 0.524802 0.222585
O O5 0.080925 0.250000 0.506000
O O6 0.290611 0.012822 0.414082
O O7 0.973323 0.012234 0.618012
O O8 0.000000 0.000000 0.500000
O O9 0.737203 0.750000 0.256940
O O10 0.640123 0.530985 0.238672
O O11 0.664668 0.470388 0.327678
O O12 0.957083 0.522881 0.125905
O O13 0.418797 0.750000 0.887806
O O14 0.529769 0.535908 0.763477
O O15 0.631188 0.526754 0.811468
O O16 0.298937 0.466066 0.951802
O O17 0.925127 0.750000 0.906932
O O18 0.483803 0.750000 0.711793
O O19 0.227526 0.750000 0.252390
O O20 0.684581 0.250000 0.389179
O O21 0.500000 0.000000 0.500000
#
# Coordination Sequence:
#
# PCOD8075092 Si02
#       8
#     4   4   4   4   4   4   4   4
#     4  10  21  39  61  88 120 157 199 247 300 357
#     4  10  20  37  59  86 121 161 198 242 295 349
#     4  11  23  40  62  90 120 156 199 247 300 359
#     4  11  23  40  63  89 119 158 203 251 298 354
#     4  11  23  42  65  87 117 157 197 252 308 357
#     4  10  22  39  60  89 123 161 200 243 297 354
#     4  10  22  38  60  90 123 159 199 244 297 354
#     4  11  22  38  59  86 120 158 201 248 297 354
#
# _framework density 19.860458000000001
#
# number of rings (size 3 to 8) (size 9 to 14) (size 15 to 20)
#    0.000    1.500    1.250    5.625    1.750    3.500 
#    0.000    0.000    0.000    0.000    0.000    0.000 
#    0.000    0.000    0.000    0.000    0.000    0.000 
#
# Total GULP energy -396957.241319 kJ/mol
# GULP energy per Si atom -12404.913791 kJ/mol
# Density = 1.981526 g / cm^3
# Si number density = 19.860458 Si / 1000 Ang^3
#
#
#
# Elastic Constant Matrix: (Units=GPa)
#
#
# Indices 1 2 3 4 5 6 
#
# 1 111.6444 25.7240 17.5076 0.0000 -16.9458 0.0000
# 2 25.7240 49.5322 14.4522 0.0000 -3.4033 0.0000
# 3 17.5076 14.4522 97.0511 0.0000 -21.2241 0.0000
# 4 0.0000 0.0000 0.0000 30.3959 0.0000 -3.3416
# 5 -16.9458 -3.4033 -21.2241 0.0000 18.7076 0.0000
# 6 0.0000 0.0000 0.0000 -3.3416 0.0000 35.4658
#
#
#
# Elastic Compliance Matrix: (Units=1/GPa)
#
#
# Indices 1 2 3 4 5 6 
#
# 1 0.011738 -0.005671 0.001099 0.000000 0.010848 0.000000
# 2 -0.005671 0.023848 -0.003595 0.000000 -0.004877 0.000000
# 3 0.001099 -0.003595 0.014251 0.000000 0.016510 0.000000
# 4 0.000000 0.000000 0.000000 0.033244 0.000000 0.003132
# 5 0.010848 -0.004877 0.016510 0.000000 0.081125 0.000000
# 6 0.000000 0.000000 0.000000 0.003132 0.000000 0.028491
#
#
# Mechanical properties :
#
#
# Convention : Reuss Voigt Hill
#
# Bulk Modulus (GPa) = 29.84724 41.51061 35.67892
# Shear Modulus (GPa) = 22.70683 30.28347 26.49515
#
# Velocity S-wave (km/s) = 3.38497 3.90912 3.65645
# Velocity P-wave (km/s) = 5.50803 6.42818 5.98581
#
# Compressibility (1/GPa) = 0.03350393
#
# Stress axis : x y z
#
# Youngs Moduli (GPa) = 85.19416 41.93223 70.16808
#
# Poissons Ratio (x) = 0.23781 -0.07714
# Poissons Ratio (y) = 0.48317 0.25224
# Poissons Ratio (z) = -0.09366 0.15074
#
# Static dielectric constant tensor:
#      x y z
#    x 3.557350 0.000000 -0.027570 
#    y 0.000000 3.639850 0.000000 
#    z -0.027570 0.000000 3.699110 
# 
# 
# High freq. dielectric constant tensor:
#      x y z
#    x 1.777430 0.000000 -0.004130 
#    y 0.000000 1.779540 0.000000 
#    z -0.004130 0.000000 1.779670 
# 
# From -- ./inp_files/51756.got.cif
#   From: 2010.06.25/outbox.cif.g09.slc.cpg/sg11_26_cif.got.tgz:51756.got - 2010.06.27 23:14:04.
