data_PCOD8075832
_publ_section_title
;
Structure prediction by ZEFSAII (Michael W. Deem and Ramdas Pophale) SiO2 
 PCOD8075832
Probable space group: P 21/M
;
_chemical_formula_sum "Si O2"
_cell_formula_units_Z 32
_cell_length_a 24.810445
_cell_length_b 8.799250
_cell_length_c 15.473452
_cell_angle_alpha 90.000000
_cell_angle_beta 30.434440
_cell_angle_gamma 90.000000
_cell_volume 1711.163713
_symmetry_space_group_name_H-M "P 21/M"
_symmetry_group_IT_number 11
_symmetry_cell_setting 'monoclinic'
loop_
_space_group_symop_operation_xyz
x,y,z
-x,1/2+y,-z
-x,-y,-z
x,1/2-y,z
loop_
_atom_site_type_symbol
_atom_site_label
_atom_site_fract_x
_atom_site_fract_y
_atom_site_fract_z
Si Si1 0.186950 0.075573 0.411168
Si Si2 0.693010 0.426177 0.909554
Si Si3 0.984610 0.574819 0.755977
Si Si4 0.457815 0.572884 0.644990
Si Si5 0.221185 0.576583 0.025036
Si Si6 0.482527 0.929131 0.261553
Si Si7 0.272849 0.426070 0.482595
Si Si8 0.934902 0.072455 0.167065
O O1 0.191034 0.250000 0.375699
O O2 0.245845 0.049156 0.419908
O O3 0.244169 0.971080 0.262455
O O4 0.064344 0.025559 0.588224
O O5 0.660109 0.250000 0.952004
O O6 0.768287 0.457567 0.887712
O O7 0.585588 0.522776 0.064488
O O8 0.008014 0.750000 0.703361
O O9 0.864566 0.535543 0.897056
O O10 0.000118 0.539275 0.835418
O O11 0.500000 0.500000 0.500000
O O12 0.483624 0.750000 0.609974
O O13 0.518784 0.500341 0.641428
O O14 0.332354 0.541549 0.824562
O O15 0.186005 0.750000 0.057428
O O16 0.480008 0.750000 0.274195
O O17 0.380647 0.984678 0.350214
O O18 0.286654 0.250000 0.486816
O O19 0.180317 0.494530 0.670300
O O20 0.918761 0.250000 0.172662
O O21 0.000000 0.000000 0.000000
#
# Coordination Sequence:
#
# PCOD8075832 Si02
#       8
#     4   4   4   4   4   4   4   4
#     4  10  21  37  58  82 109 143 182 224 272 326
#     4  10  21  38  58  81 111 144 181 227 273 322
#     4  10  21  36  56  81 109 142 180 224 271 321
#     4  10  21  38  58  82 113 147 185 229 275 324
#     4   9  20  37  56  79 108 143 181 222 269 320
#     4  11  22  37  58  83 111 145 184 226 275 329
#     4  10  21  38  58  81 110 144 183 228 275 324
#     4  10  21  37  56  81 111 144 183 225 273 326
#
# _framework density 18.700724000000001
#
# number of rings (size 3 to 8) (size 9 to 14) (size 15 to 20)
#    0.000    2.000    0.000    4.125    0.000    8.000 
#    0.000    2.500    0.000    0.000    0.000    0.000 
#    0.000    0.000    0.000    0.000    0.000    0.000 
#
# Total GULP energy -396969.960007 kJ/mol
# GULP energy per Si atom -12405.311250 kJ/mol
# Density = 1.865816 g / cm^3
# Si number density = 18.700724 Si / 1000 Ang^3
#
#
#
# Elastic Constant Matrix: (Units=GPa)
#
#
# Indices 1 2 3 4 5 6 
#
# 1 73.9456 48.7627 55.6635 0.0000 -8.3312 0.0000
# 2 48.7627 116.2965 50.4069 0.0000 -0.8991 0.0000
# 3 55.6635 50.4069 101.8642 0.0000 11.4072 0.0000
# 4 0.0000 0.0000 0.0000 39.9849 0.0000 -0.1994
# 5 -8.3312 -0.8991 11.4072 0.0000 35.4931 0.0000
# 6 0.0000 0.0000 0.0000 -0.1994 0.0000 34.3360
#
#
#
# Elastic Compliance Matrix: (Units=1/GPa)
#
#
# Indices 1 2 3 4 5 6 
#
# 1 0.029799 -0.006096 -0.014557 0.000000 0.011519 0.000000
# 2 -0.006096 0.012346 -0.002752 0.000000 -0.000234 0.000000
# 3 -0.014557 -0.002752 0.020253 0.000000 -0.009996 0.000000
# 4 0.000000 0.000000 0.000000 0.025010 0.000000 0.000145
# 5 0.011519 -0.000234 -0.009996 0.000000 0.034085 0.000000
# 6 0.000000 0.000000 0.000000 0.000145 0.000000 0.029125
#
#
# Mechanical properties :
#
#
# Convention : Reuss Voigt Hill
#
# Bulk Modulus (GPa) = 64.15291 66.86361 65.50826
# Shear Modulus (GPa) = 24.67634 31.11436 27.89535
#
# Velocity S-wave (km/s) = 3.63649 4.08340 3.86641
# Velocity P-wave (km/s) = 7.21190 7.62000 7.41876
#
# Compressibility (1/GPa) = 0.01558776
#
# Stress axis : x y z
#
# Youngs Moduli (GPa) = 33.55790 80.99977 49.37614
#
# Poissons Ratio (x) = 0.49379 0.71877
# Poissons Ratio (y) = 0.20457 0.13587
# Poissons Ratio (z) = 0.48850 0.22289
#
# Static dielectric constant tensor:
#      x y z
#    x 3.536210 0.000000 -0.004280 
#    y 0.000000 3.670390 0.000000 
#    z -0.004280 0.000000 3.404950 
# 
# 
# High freq. dielectric constant tensor:
#      x y z
#    x 1.724250 0.000000 -0.000220 
#    y 0.000000 1.742670 0.000000 
#    z -0.000220 0.000000 1.730640 
# 
# From -- ./inp_files/55577.got.cif
#   From: 2010.06.25/outbox.cif.g09.slc.cpg/sg11_28_cif.got.tgz:55577.got - 2010.06.27 23:14:04.
