data_PCOD8075569
_publ_section_title
;
Structure prediction by ZEFSAII (Michael W. Deem and Ramdas Pophale) SiO2 
 PCOD8075569
Probable space group: P 21/M
;
_chemical_formula_sum "Si O2"
_cell_formula_units_Z 14
_cell_length_a 8.101480
_cell_length_b 12.438427
_cell_length_c 7.006481
_cell_angle_alpha 90.000000
_cell_angle_beta 58.142802
_cell_angle_gamma 90.000000
_cell_volume 599.687168
_symmetry_space_group_name_H-M "P 21/M"
_symmetry_group_IT_number 11
_symmetry_cell_setting 'monoclinic'
loop_
_space_group_symop_operation_xyz
x,y,z
-x,1/2+y,-z
-x,-y,-z
x,1/2-y,z
loop_
_atom_site_type_symbol
_atom_site_label
_atom_site_fract_x
_atom_site_fract_y
_atom_site_fract_z
Si Si1 0.773225 0.592919 0.794805
Si Si2 0.344907 0.634503 0.182518
Si Si3 0.608463 0.250000 0.480764
Si Si4 0.980781 0.750000 0.938595
Si Si5 0.195117 0.250000 0.548744
O O1 0.801604 0.463731 0.771055
O O2 0.852601 0.645229 0.550876
O O3 0.545464 0.619087 0.947958
O O4 0.888378 0.642599 0.902703
O O5 0.250103 0.750000 0.176266
O O6 0.387244 0.643610 0.385190
O O7 0.419479 0.250000 0.468429
O O8 0.788900 0.250000 0.227172
O O9 0.941299 0.750000 0.185642
#
# Coordination Sequence:
#
# PCOD8075569 Si02
#       5
#     4   4   2   2   2
#     4  10  20  39  67  84 119 162 195 241 304 347
#     4   9  18  41  61  88 115 162 195 246 294 351
#     4  10  21  38  61  89 126 150 199 247 290 355
#     4  11  21  41  60  90 124 155 195 245 296 352
#     4  11  20  41  59  91 118 161 194 244 296 353
#
# _framework density 23.345502
#
# number of rings (size 3 to 8) (size 9 to 14) (size 15 to 20)
#    0.857    1.143    5.714    0.000    0.000    2.286 
#   10.286    1.429    0.000    0.000    0.000    0.000 
#    0.000    0.000    0.000    0.000    0.000    0.000 
#
# Total GULP energy -173520.554774 kJ/mol
# GULP energy per Si atom -12394.325341 kJ/mol
# Density = 2.329237 g / cm^3
# Si number density = 23.345502 Si / 1000 Ang^3
#
#
#
# Elastic Constant Matrix: (Units=GPa)
#
#
# Indices 1 2 3 4 5 6 
#
# 1 42.2495 12.8707 21.5260 0.0000 -0.7779 0.0000
# 2 12.8707 187.3726 45.5976 0.0000 0.8175 0.0000
# 3 21.5260 45.5976 178.6108 0.0000 5.3500 0.0000
# 4 0.0000 0.0000 0.0000 12.5342 0.0000 -8.1451
# 5 -0.7779 0.8175 5.3500 0.0000 19.7344 0.0000
# 6 0.0000 0.0000 0.0000 -8.1451 0.0000 6.1608
#
#
#
# Elastic Compliance Matrix: (Units=1/GPa)
#
#
# Indices 1 2 3 4 5 6 
#
# 1 0.025481 -0.001064 -0.002854 0.000000 0.001822 0.000000
# 2 -0.001064 0.005735 -0.001338 0.000000 0.000083 0.000000
# 3 -0.002854 -0.001338 0.006338 0.000000 -0.001775 0.000000
# 4 0.000000 0.000000 0.000000 0.566402 0.000000 0.748838
# 5 0.001822 0.000083 -0.001775 0.000000 0.051223 0.000000
# 6 0.000000 0.000000 0.000000 0.748838 0.000000 1.152353
#
#
# Mechanical properties :
#
#
# Convention : Reuss Voigt Hill
#
# Bulk Modulus (GPa) = 36.98043 63.13572 50.05807
# Shear Modulus (GPa) = 2.73664 29.56844 16.15254
#
# Velocity S-wave (km/s) = 1.08387 3.56274 2.63324
# Velocity P-wave (km/s) = 4.17627 6.63528 5.54383
#
# Compressibility (1/GPa) = 0.02704133
#
# Stress axis : x y z
#
# Youngs Moduli (GPa) = 39.24555 174.35618 157.78867
#
# Poissons Ratio (x) = 0.18547 0.45032
# Poissons Ratio (y) = 0.04175 0.21120
# Poissons Ratio (z) = 0.11200 0.23337
#
# Static dielectric constant tensor:
#      x y z
#    x 3.736500 0.000000 -0.109950 
#    y 0.000000 4.490470 0.000000 
#    z -0.109950 0.000000 4.213850 
# 
# 
# High freq. dielectric constant tensor:
#      x y z
#    x 1.907910 0.000000 -0.014850 
#    y 0.000000 1.911930 0.000000 
#    z -0.014850 0.000000 1.935170 
# 
# From -- ./inp_files/1447.got.cif
#   From: 2010.06.25/outbox.cif.g09.slc.cpg/sg11_1_cif.got.tgz:1447.got - 2010.06.27 23:14:04.
