data_PCOD8075460
_publ_section_title
;
Structure prediction by ZEFSAII (Michael W. Deem and Ramdas Pophale) SiO2 
 PCOD8075460
Probable space group: P 21/M
;
_chemical_formula_sum "Si O2"
_cell_formula_units_Z 24
_cell_length_a 14.025484
_cell_length_b 13.293874
_cell_length_c 11.472596
_cell_angle_alpha 90.000000
_cell_angle_beta 148.004035
_cell_angle_gamma 90.000000
_cell_volume 1133.422615
_symmetry_space_group_name_H-M "P 21/M"
_symmetry_group_IT_number 11
_symmetry_cell_setting 'monoclinic'
loop_
_space_group_symop_operation_xyz
x,y,z
-x,1/2+y,-z
-x,-y,-z
x,1/2-y,z
loop_
_atom_site_type_symbol
_atom_site_label
_atom_site_fract_x
_atom_site_fract_y
_atom_site_fract_z
Si Si1 0.623187 0.635354 0.504263
Si Si2 0.389379 0.368501 0.966961
Si Si3 0.946481 0.866794 0.996880
Si Si4 0.075915 0.468093 0.782523
Si Si5 0.213078 0.633565 0.076549
Si Si6 0.312443 0.482781 0.660359
O O1 0.652567 0.750000 0.493100
O O2 0.743119 0.612663 0.742392
O O3 0.417865 0.616382 0.327720
O O4 0.686112 0.564310 0.465776
O O5 0.414241 0.250000 0.002267
O O6 0.206133 0.400761 0.839885
O O7 0.383397 0.400923 0.825984
O O8 0.560985 0.419179 0.206778
O O9 0.990268 0.750000 0.051404
O O10 0.976441 0.911489 0.154000
O O11 0.088651 0.912458 0.050545
O O12 0.892036 0.486232 0.520409
O O13 0.172652 0.573904 0.914770
O O14 0.168790 0.750000 0.005492
#
# Coordination Sequence:
#
# PCOD8075460 Si02
#       6
#     4   4   4   4   4   4
#     4  10  20  38  63  93 127 167 212 257 308 369
#     4  11  26  46  65  93 127 164 212 264 318 376
#     4  10  22  38  60  93 131 170 209 257 312 372
#     4  12  23  41  66  96 129 166 208 262 318 375
#     4  10  21  36  59  94 128 167 214 253 304 368
#     4  11  24  43  68  93 122 168 213 259 318 373
#
# _framework density 21.174803000000001
#
# number of rings (size 3 to 8) (size 9 to 14) (size 15 to 20)
#    0.000    1.333    3.333    2.000    0.000    4.000 
#    0.000    1.667    0.000    0.000    0.000    0.000 
#    0.000    0.000    0.000    0.000    0.000    0.000 
#
# Total GULP energy -297740.783441 kJ/mol
# GULP energy per Si atom -12405.865977 kJ/mol
# Density = 2.112661 g / cm^3
# Si number density = 21.174803 Si / 1000 Ang^3
#
#
#
# Elastic Constant Matrix: (Units=GPa)
#
#
# Indices 1 2 3 4 5 6 
#
# 1 57.7600 27.6422 6.6598 0.0000 12.5815 0.0000
# 2 27.6422 81.0070 30.0806 0.0000 10.2093 0.0000
# 3 6.6598 30.0806 103.9982 0.0000 24.9472 0.0000
# 4 0.0000 0.0000 0.0000 23.8990 0.0000 2.6148
# 5 12.5815 10.2093 24.9472 0.0000 39.5910 0.0000
# 6 0.0000 0.0000 0.0000 2.6148 0.0000 34.1037
#
#
#
# Elastic Compliance Matrix: (Units=1/GPa)
#
#
# Indices 1 2 3 4 5 6 
#
# 1 0.022100 -0.007589 0.002350 0.000000 -0.006547 0.000000
# 2 -0.007589 0.016487 -0.004525 0.000000 0.001012 0.000000
# 3 0.002350 -0.004525 0.012574 0.000000 -0.007503 0.000000
# 4 0.000000 0.000000 0.000000 0.042197 0.000000 -0.003235
# 5 -0.006547 0.001012 -0.007503 0.000000 0.031806 0.000000
# 6 0.000000 0.000000 0.000000 -0.003235 0.000000 0.029570
#
#
# Mechanical properties :
#
#
# Convention : Reuss Voigt Hill
#
# Bulk Modulus (GPa) = 31.61270 41.28118 36.44694
# Shear Modulus (GPa) = 27.05540 31.41092 29.23316
#
# Velocity S-wave (km/s) = 3.57839 3.85568 3.71962
# Velocity P-wave (km/s) = 5.65995 6.27371 5.97472
#
# Compressibility (1/GPa) = 0.03163285
#
# Stress axis : x y z
#
# Youngs Moduli (GPa) = 45.24906 60.65341 79.53029
#
# Poissons Ratio (x) = 0.46029 -0.18692
# Poissons Ratio (y) = 0.34339 0.35991
# Poissons Ratio (z) = -0.10635 0.27449
#
# Static dielectric constant tensor:
#      x y z
#    x 3.712440 0.000000 0.179740 
#    y 0.000000 3.909520 0.000000 
#    z 0.179740 0.000000 3.889440 
# 
# 
# High freq. dielectric constant tensor:
#      x y z
#    x 1.824640 0.000000 0.012890 
#    y 0.000000 1.841210 0.000000 
#    z 0.012890 0.000000 1.837050 
# 
# From -- ./inp_files/39523.got.cif
#   From: 2010.06.25/outbox.cif.g09.slc.cpg/sg11_20_cif.got.tgz:39523.got - 2010.06.27 23:14:04.
