data_PCOD8075089
_publ_section_title
;
Structure prediction by ZEFSAII (Michael W. Deem and Ramdas Pophale) SiO2 
 PCOD8075089
Probable space group: P 21/M
;
_chemical_formula_sum "Si O2"
_cell_formula_units_Z 32
_cell_length_a 9.052387
_cell_length_b 13.561451
_cell_length_c 25.741138
_cell_angle_alpha 90.000000
_cell_angle_beta 32.781385
_cell_angle_gamma 90.000000
_cell_volume 1710.974003
_symmetry_space_group_name_H-M "P 21/M"
_symmetry_group_IT_number 11
_symmetry_cell_setting 'monoclinic'
loop_
_space_group_symop_operation_xyz
x,y,z
-x,1/2+y,-z
-x,-y,-z
x,1/2-y,z
loop_
_atom_site_type_symbol
_atom_site_label
_atom_site_fract_x
_atom_site_fract_y
_atom_site_fract_z
Si Si1 0.002781 0.468319 0.256297
Si Si2 0.916165 0.365545 0.073532
Si Si3 0.815783 0.976330 0.603026
Si Si4 0.140377 0.863981 0.596040
Si Si5 0.252710 0.360553 0.615268
Si Si6 0.275563 0.635700 0.753369
Si Si7 0.284800 0.637278 0.291398
Si Si8 0.418640 0.025401 0.884576
O O1 0.961054 0.396709 0.317635
O O2 0.807154 0.564188 0.320089
O O3 0.938312 0.414664 0.221930
O O4 0.316658 0.501166 0.159607
O O5 0.911564 0.250000 0.060766
O O6 0.816388 0.384987 0.161087
O O7 0.717623 0.422529 0.092632
O O8 0.219406 0.409474 0.979097
O O9 0.574584 0.906750 0.654757
O O10 0.982054 0.923081 0.599073
O O11 0.697960 0.079453 0.659414
O O12 0.000000 0.000000 0.500000
O O13 0.069058 0.750000 0.609654
O O14 0.462048 0.885067 0.496585
O O15 0.251770 0.250000 0.638666
O O16 0.020641 0.373811 0.640484
O O17 0.283459 0.750000 0.737559
O O18 0.363215 0.750000 0.278807
O O19 0.505716 0.591028 0.187508
#
# Coordination Sequence:
#
# PCOD8075089 Si02
#       8
#     4   4   4   4   4   4   4   4
#     4  11  21  37  60  84 117 155 197 242 289 349
#     4  10  21  39  65  90 118 150 188 243 300 353
#     4  12  24  38  56  85 121 162 197 245 297 345
#     4  11  21  36  57  82 114 158 207 244 286 343
#     4   9  19  34  56  83 112 152 200 246 285 335
#     4  11  24  40  58  87 123 156 195 242 298 346
#     4  10  20  37  59  86 116 152 199 244 293 349
#     4  10  20  39  65  90 113 150 197 243 293 353
#
# _framework density 18.702795999999999
#
# number of rings (size 3 to 8) (size 9 to 14) (size 15 to 20)
#    0.000    1.500    3.750    2.250    1.750    4.000 
#    0.000    0.625    0.000    0.000    0.000    0.000 
#    0.000    0.000    0.000    0.000    0.000    0.000 
#
# Total GULP energy -396919.847764 kJ/mol
# GULP energy per Si atom -12403.745243 kJ/mol
# Density = 1.866023 g / cm^3
# Si number density = 18.702796 Si / 1000 Ang^3
#
#
#
# Elastic Constant Matrix: (Units=GPa)
#
#
# Indices 1 2 3 4 5 6 
#
# 1 36.1881 25.0300 12.0129 0.0000 4.9756 0.0000
# 2 25.0300 125.5149 36.4697 0.0000 2.8540 0.0000
# 3 12.0129 36.4697 97.6717 0.0000 -7.7234 0.0000
# 4 0.0000 0.0000 0.0000 29.7251 0.0000 -1.1972
# 5 4.9756 2.8540 -7.7234 0.0000 25.6116 0.0000
# 6 0.0000 0.0000 0.0000 -1.1972 0.0000 27.5233
#
#
#
# Elastic Compliance Matrix: (Units=1/GPa)
#
#
# Indices 1 2 3 4 5 6 
#
# 1 0.033358 -0.005787 -0.002462 0.000000 -0.006578 0.000000
# 2 -0.005787 0.010047 -0.003114 0.000000 -0.000934 0.000000
# 3 -0.002462 -0.003114 0.012057 0.000000 0.004461 0.000000
# 4 0.000000 0.000000 0.000000 0.033701 0.000000 0.001466
# 5 -0.006578 -0.000934 0.004461 0.000000 0.041772 0.000000
# 6 0.000000 0.000000 0.000000 0.001466 0.000000 0.036397
#
#
# Mechanical properties :
#
#
# Convention : Reuss Voigt Hill
#
# Bulk Modulus (GPa) = 30.54749 45.15555 37.85152
# Shear Modulus (GPa) = 24.87947 28.96280 26.92113
#
# Velocity S-wave (km/s) = 3.65122 3.93947 3.79808
# Velocity P-wave (km/s) = 5.84327 6.69991 6.28620
#
# Compressibility (1/GPa) = 0.03273592
#
# Stress axis : x y z
#
# Youngs Moduli (GPa) = 29.97783 99.53024 82.94251
#
# Poissons Ratio (x) = 0.57601 0.20421
# Poissons Ratio (y) = 0.17349 0.25825
# Poissons Ratio (z) = 0.07381 0.30990
#
# Static dielectric constant tensor:
#      x y z
#    x -77.603800 0.000000 -31.110110 
#    y 0.000000 3.790090 0.000000 
#    z -31.110110 0.000000 -8.367200 
# 
# 
# High freq. dielectric constant tensor:
#      x y z
#    x 1.708220 0.000000 -0.011020 
#    y 0.000000 1.747600 0.000000 
#    z -0.011020 0.000000 1.730500 
# 
# From -- ./inp_files/68133.got.cif
#   From: 2010.06.25/outbox.cif.g09.slc.cpg/sg11_35_cif.got.tgz:68133.got - 2010.06.27 23:14:04.
