data_PCOD8075896
_publ_section_title
;
Structure prediction by ZEFSAII (Michael W. Deem and Ramdas Pophale) SiO2 
 PCOD8075896
Probable space group: P 21/M
;
_chemical_formula_sum "Si O2"
_cell_formula_units_Z 28
_cell_length_a 6.989945
_cell_length_b 18.158375
_cell_length_c 14.689068
_cell_angle_alpha 90.000000
_cell_angle_beta 128.699975
_cell_angle_gamma 90.000000
_cell_volume 1455.054681
_symmetry_space_group_name_H-M "P 21/M"
_symmetry_group_IT_number 11
_symmetry_cell_setting 'monoclinic'
loop_
_space_group_symop_operation_xyz
x,y,z
-x,1/2+y,-z
-x,-y,-z
x,1/2-y,z
loop_
_atom_site_type_symbol
_atom_site_label
_atom_site_fract_x
_atom_site_fract_y
_atom_site_fract_z
Si Si1 0.107803 0.061036 0.765334
Si Si2 0.325155 0.936410 0.102983
Si Si3 0.947450 0.418007 0.516284
Si Si4 0.813276 0.164009 0.785242
Si Si5 0.441022 0.336590 0.351348
Si Si6 0.915678 0.554026 0.839042
Si Si7 0.362075 0.333891 0.536952
O O1 0.395676 0.050615 0.840611
O O2 0.985680 0.087438 0.635304
O O3 0.064123 0.123506 0.829806
O O4 0.978798 0.986029 0.762218
O O5 0.280844 0.860130 0.143480
O O6 0.250148 0.004175 0.144681
O O7 0.171308 0.929749 0.964828
O O8 0.681402 0.386884 0.410276
O O9 0.000000 0.500000 0.500000
O O10 0.133989 0.368767 0.517658
O O11 0.863806 0.250000 0.800012
O O12 0.615810 0.134925 0.652382
O O13 0.488496 0.250000 0.341822
O O14 0.229980 0.370119 0.223804
O O15 0.345407 0.345466 0.424980
O O16 0.354460 0.250000 0.563863
#
# Coordination Sequence:
#
# PCOD8075896 Si02
#       7
#     4   4   4   4   4   4   4
#     4  11  21  36  61  89 118 151 198 249 301 343
#     4  10  21  41  62  90 117 156 200 252 298 345
#     4  12  23  34  61  91 119 153 203 245 298 356
#     4  10  21  36  58  88 118 150 194 244 295 351
#     4  11  24  41  59  85 124 164 196 240 303 366
#     4  10  23  40  62  85 121 157 201 243 294 361
#     4  10  21  38  56  83 122 155 192 241 294 353
#
# _framework density 19.243264
#
# number of rings (size 3 to 8) (size 9 to 14) (size 15 to 20)
#    0.000    1.429    2.857    2.571    2.000    2.857 
#    0.000    0.000    0.000    1.714    0.000    0.000 
#    0.000    0.000    0.000    0.000    0.000    0.000 
#
# Total GULP energy -347188.791872 kJ/mol
# GULP energy per Si atom -12399.599710 kJ/mol
# Density = 1.919947 g / cm^3
# Si number density = 19.243264 Si / 1000 Ang^3
#
#
#
# Elastic Constant Matrix: (Units=GPa)
#
#
# Indices 1 2 3 4 5 6 
#
# 1 114.2985 41.5477 27.0360 0.0000 8.9399 0.0000
# 2 41.5477 63.2151 39.5106 0.0000 -0.3967 0.0000
# 3 27.0360 39.5106 75.1965 0.0000 9.7426 0.0000
# 4 0.0000 0.0000 0.0000 24.6101 0.0000 0.5462
# 5 8.9399 -0.3967 9.7426 0.0000 24.9075 0.0000
# 6 0.0000 0.0000 0.0000 0.5462 0.0000 31.4025
#
#
#
# Elastic Compliance Matrix: (Units=1/GPa)
#
#
# Indices 1 2 3 4 5 6 
#
# 1 0.011984 -0.008328 0.000676 0.000000 -0.004698 0.000000
# 2 -0.008328 0.030078 -0.013967 0.000000 0.008931 0.000000
# 3 0.000676 -0.013967 0.021546 0.000000 -0.008893 0.000000
# 4 0.000000 0.000000 0.000000 0.040649 0.000000 -0.000707
# 5 -0.004698 0.008931 -0.008893 0.000000 0.045456 0.000000
# 6 0.000000 0.000000 0.000000 -0.000707 0.000000 0.031857
#
#
# Mechanical properties :
#
#
# Convention : Reuss Voigt Hill
#
# Bulk Modulus (GPa) = 49.09163 52.09985 50.59574
# Shear Modulus (GPa) = 21.58901 25.82509 23.70705
#
# Velocity S-wave (km/s) = 3.35311 3.66735 3.51375
# Velocity P-wave (km/s) = 6.36848 6.71310 6.54306
#
# Compressibility (1/GPa) = 0.02037007
#
# Stress axis : x y z
#
# Youngs Moduli (GPa) = 83.44459 33.24636 46.41175
#
# Poissons Ratio (x) = 0.27689 -0.03138
# Poissons Ratio (y) = 0.69496 0.64823
# Poissons Ratio (z) = -0.05641 0.46435
#
# Static dielectric constant tensor:
#      x y z
#    x 3.597380 0.000000 -0.065280 
#    y 0.000000 3.440230 0.000000 
#    z -0.065280 0.000000 3.534270 
# 
# 
# High freq. dielectric constant tensor:
#      x y z
#    x 1.761860 0.000000 -0.001030 
#    y 0.000000 1.747590 0.000000 
#    z -0.001030 0.000000 1.744000 
# 
# From -- ./inp_files/6875.got.cif
#   From: 2010.06.25/outbox.cif.g09.slc.cpg/sg11_4_cif.got.tgz:6875.got - 2010.06.27 23:14:04.
