data_PCOD8075802
_publ_section_title
;
Structure prediction by ZEFSAII (Michael W. Deem and Ramdas Pophale) SiO2 
 PCOD8075802
Probable space group: P 21/M
;
_chemical_formula_sum "Si O2"
_cell_formula_units_Z 32
_cell_length_a 24.016428
_cell_length_b 9.167049
_cell_length_c 16.137681
_cell_angle_alpha 90.000000
_cell_angle_beta 151.091404
_cell_angle_gamma 90.000000
_cell_volume 1717.505229
_symmetry_space_group_name_H-M "P 21/M"
_symmetry_group_IT_number 11
_symmetry_cell_setting 'monoclinic'
loop_
_space_group_symop_operation_xyz
x,y,z
-x,1/2+y,-z
-x,-y,-z
x,1/2-y,z
loop_
_atom_site_type_symbol
_atom_site_label
_atom_site_fract_x
_atom_site_fract_y
_atom_site_fract_z
Si Si1 0.571089 0.420337 0.479613
Si Si2 0.328552 0.581150 0.567254
Si Si3 0.670899 0.579340 0.765489
Si Si4 0.256945 0.590239 0.742886
Si Si5 0.468663 0.081819 0.041560
Si Si6 0.112884 0.920009 0.878516
Si Si7 0.085136 0.594705 0.661298
Si Si8 0.847166 0.922026 0.550323
O O1 0.592796 0.250000 0.525741
O O2 0.625971 0.467357 0.463515
O O3 0.636441 0.515327 0.632181
O O4 0.432836 0.452303 0.303763
O O5 0.290954 0.750000 0.518508
O O6 0.220572 0.484780 0.457754
O O7 0.434902 0.551660 0.765711
O O8 0.691701 0.750000 0.782670
O O9 0.792355 0.509219 0.948022
O O10 0.300132 0.750000 0.763606
O O11 0.349775 0.491834 0.911227
O O12 0.184747 0.628174 0.728323
O O13 0.193685 0.504156 0.586406
O O14 0.447932 0.250000 0.997615
O O15 0.500000 0.000000 0.000000
O O16 0.144037 0.750000 0.927345
O O17 0.123540 0.977891 0.797629
O O18 0.983088 0.951343 0.742001
O O19 0.025939 0.750000 0.609108
O O20 0.000000 0.500000 0.500000
O O21 0.821461 0.750000 0.507794
#
# Coordination Sequence:
#
# PCOD8075802 Si02
#       8
#     4   4   4   4   4   4   4   4
#     4   9  20  41  64  87 117 149 179 228 291 342
#     4  10  22  39  59  83 114 151 192 235 284 339
#     4  10  21  38  64  93 115 143 184 230 283 344
#     4  11  22  35  52  77 112 153 195 239 285 336
#     4  11  22  35  54  80 113 152 193 235 281 334
#     4  10  22  39  57  83 117 153 190 232 287 341
#     4  10  21  36  54  79 112 152 196 237 282 333
#     4  11  22  37  58  81 113 155 196 237 283 334
#
# _framework density 18.631675000000001
#
# number of rings (size 3 to 8) (size 9 to 14) (size 15 to 20)
#    0.000    1.750    2.500    1.500    1.750    3.500 
#    0.000    0.625    0.000    0.000    0.000    0.000 
#    0.000    0.000    0.000    0.000    0.000    0.000 
#
# Total GULP energy -396519.856360 kJ/mol
# GULP energy per Si atom -12391.245511 kJ/mol
# Density = 1.858927 g / cm^3
# Si number density = 18.631675 Si / 1000 Ang^3
#
#
#
# Elastic Constant Matrix: (Units=GPa)
#
#
# Indices 1 2 3 4 5 6 
#
# 1 130.2476 59.1850 55.0061 0.0000 -0.7466 0.0000
# 2 59.1850 115.5492 76.8712 0.0000 5.5269 0.0000
# 3 55.0061 76.8712 121.9652 0.0000 9.2123 0.0000
# 4 0.0000 0.0000 0.0000 35.2027 0.0000 1.3154
# 5 -0.7466 5.5269 9.2123 0.0000 24.7207 0.0000
# 6 0.0000 0.0000 0.0000 1.3154 0.0000 25.8922
#
#
#
# Elastic Compliance Matrix: (Units=1/GPa)
#
#
# Indices 1 2 3 4 5 6 
#
# 1 0.010469 -0.003816 -0.002474 0.000000 0.002091 0.000000
# 2 -0.003816 0.016295 -0.008505 0.000000 -0.000589 0.000000
# 3 -0.002474 -0.008505 0.014958 0.000000 -0.003748 0.000000
# 4 0.000000 0.000000 0.000000 0.028461 0.000000 -0.001446
# 5 0.002091 -0.000589 -0.003748 0.000000 0.042043 0.000000
# 6 0.000000 0.000000 0.000000 -0.001446 0.000000 0.038695
#
#
# Mechanical properties :
#
#
# Convention : Reuss Voigt Hill
#
# Bulk Modulus (GPa) = 82.42709 83.32073 82.87391
# Shear Modulus (GPa) = 27.09215 28.94311 28.01763
#
# Velocity S-wave (km/s) = 3.81739 3.94564 3.88205
# Velocity P-wave (km/s) = 7.98538 8.09781 8.04179
#
# Compressibility (1/GPa) = 0.01213193
#
# Stress axis : x y z
#
# Youngs Moduli (GPa) = 95.52365 61.36810 66.85298
#
# Poissons Ratio (x) = 0.23419 0.16540
# Poissons Ratio (y) = 0.36454 0.56857
# Poissons Ratio (z) = 0.23633 0.52192
#
# Static dielectric constant tensor:
#      x y z
#    x 3.894400 0.000000 0.219370 
#    y 0.000000 3.569300 0.000000 
#    z 0.219370 0.000000 3.214420 
# 
# 
# High freq. dielectric constant tensor:
#      x y z
#    x 1.728860 0.000000 0.008890 
#    y 0.000000 1.735370 0.000000 
#    z 0.008890 0.000000 1.713180 
# 
# From -- ./inp_files/55691.got.cif
#   From: 2010.06.25/outbox.cif.g09.slc.cpg/sg11_28_cif.got.tgz:55691.got - 2010.06.27 23:14:04.
