data_PCOD8075648
_publ_section_title
;
Structure prediction by ZEFSAII (Michael W. Deem and Ramdas Pophale) SiO2 
 PCOD8075648
Probable space group: P 21/M
;
_chemical_formula_sum "Si O2"
_cell_formula_units_Z 20
_cell_length_a 5.030598
_cell_length_b 19.143104
_cell_length_c 10.591750
_cell_angle_alpha 90.000000
_cell_angle_beta 99.893737
_cell_angle_gamma 90.000000
_cell_volume 1004.829571
_symmetry_space_group_name_H-M "P 21/M"
_symmetry_group_IT_number 11
_symmetry_cell_setting 'monoclinic'
loop_
_space_group_symop_operation_xyz
x,y,z
-x,1/2+y,-z
-x,-y,-z
x,1/2-y,z
loop_
_atom_site_type_symbol
_atom_site_label
_atom_site_fract_x
_atom_site_fract_y
_atom_site_fract_z
Si Si1 0.244370 0.907601 0.977306
Si Si2 0.192415 0.061436 0.870748
Si Si3 0.088798 0.669334 0.728253
Si Si4 0.457742 0.400010 0.382806
Si Si5 0.241617 0.036071 0.598297
O O1 0.235692 0.846176 0.872726
O O2 0.187055 0.979617 0.900703
O O3 0.528724 0.903841 0.068307
O O4 0.030010 0.895769 0.070551
O O5 0.133125 0.071498 0.716894
O O6 0.013803 0.750000 0.709562
O O7 0.287261 0.649659 0.627730
O O8 0.811944 0.625314 0.708965
O O9 0.534711 0.478183 0.342808
O O10 0.391444 0.404406 0.527122
O O11 0.000000 0.000000 0.500000
#
# Coordination Sequence:
#
# PCOD8075648 Si02
#       5
#     4   4   4   4   4
#     4  10  21  35  55  89 117 153 200 235 311 350
#     4  10  21  33  59  87 123 148 186 259 298 364
#     4  12  24  42  62  85 124 163 209 252 292 375
#     4  11  23  37  61  94 118 157 208 244 315 360
#     4  11  22  37  64  91 134 152 195 266 318 363
#
# _framework density 19.903870999999999
#
# number of rings (size 3 to 8) (size 9 to 14) (size 15 to 20)
#    0.000    1.200    4.000    1.800   11.200    0.000 
#    0.000    0.000    0.000    7.200    0.000    0.000 
#    0.000    0.000    0.000    0.000    0.000    0.000 
#
# Total GULP energy -247992.446577 kJ/mol
# GULP energy per Si atom -12399.622329 kJ/mol
# Density = 1.985857 g / cm^3
# Si number density = 19.903871 Si / 1000 Ang^3
#
#
#
# Elastic Constant Matrix: (Units=GPa)
#
#
# Indices 1 2 3 4 5 6 
#
# 1 147.2789 33.4196 56.8433 0.0000 -9.3532 0.0000
# 2 33.4196 59.8188 44.1084 0.0000 5.9365 0.0000
# 3 56.8433 44.1084 127.7955 0.0000 -24.6343 0.0000
# 4 0.0000 0.0000 0.0000 20.6189 0.0000 -4.4282
# 5 -9.3532 5.9365 -24.6343 0.0000 35.9097 0.0000
# 6 0.0000 0.0000 0.0000 -4.4282 0.0000 20.8222
#
#
#
# Elastic Compliance Matrix: (Units=1/GPa)
#
#
# Indices 1 2 3 4 5 6 
#
# 1 0.008517 -0.002934 -0.002598 0.000000 0.000921 0.000000
# 2 -0.002934 0.027393 -0.010567 0.000000 -0.012542 0.000000
# 3 -0.002598 -0.010567 0.014790 0.000000 0.011216 0.000000
# 4 0.000000 0.000000 0.000000 0.050820 0.000000 0.010808
# 5 0.000921 -0.012542 0.011216 0.000000 0.037855 0.000000
# 6 0.000000 0.000000 0.000000 0.010808 0.000000 0.050324
#
#
# Mechanical properties :
#
#
# Convention : Reuss Voigt Hill
#
# Bulk Modulus (GPa) = 54.05034 67.07066 60.56050
# Shear Modulus (GPa) = 21.92358 28.83828 25.38093
#
# Velocity S-wave (km/s) = 3.32245 3.81054 3.57483
# Velocity P-wave (km/s) = 6.47556 7.28909 6.89433
#
# Compressibility (1/GPa) = 0.01850127
#
# Stress axis : x y z
#
# Youngs Moduli (GPa) = 117.41471 36.50586 67.61310
#
# Poissons Ratio (x) = 0.10710 0.17567
# Poissons Ratio (y) = 0.34447 0.71449
# Poissons Ratio (z) = 0.30506 0.38577
#
# Static dielectric constant tensor:
#      x y z
#    x 3.926570 0.000000 -0.245500 
#    y 0.000000 3.145900 0.000000 
#    z -0.245500 0.000000 3.656800 
# 
# 
# High freq. dielectric constant tensor:
#      x y z
#    x 1.802470 0.000000 -0.013850 
#    y 0.000000 1.715730 0.000000 
#    z -0.013850 0.000000 1.777260 
# 
# From -- ./inp_files/10272.got.cif
#   From: 2010.06.25/outbox.cif.g09.slc.cpg/sg11_6_cif.got.tgz:10272.got - 2010.06.27 23:14:04.
