data_PCOD8075593
_publ_section_title
;
Structure prediction by ZEFSAII (Michael W. Deem and Ramdas Pophale) SiO2 
 PCOD8075593
Probable space group: P 21/M
;
_chemical_formula_sum "Si O2"
_cell_formula_units_Z 32
_cell_length_a 9.186376
_cell_length_b 26.665127
_cell_length_c 12.509710
_cell_angle_alpha 90.000000
_cell_angle_beta 30.300766
_cell_angle_gamma 90.000000
_cell_volume 1546.073019
_symmetry_space_group_name_H-M "P 21/M"
_symmetry_group_IT_number 11
_symmetry_cell_setting 'monoclinic'
loop_
_space_group_symop_operation_xyz
x,y,z
-x,1/2+y,-z
-x,-y,-z
x,1/2-y,z
loop_
_atom_site_type_symbol
_atom_site_label
_atom_site_fract_x
_atom_site_fract_y
_atom_site_fract_z
Si Si1 0.226379 0.131372 0.438351
Si Si2 0.508268 0.130334 0.661531
Si Si3 0.425871 0.844851 0.156242
Si Si4 0.416477 0.804613 0.943884
Si Si5 0.818192 0.536803 0.042183
Si Si6 0.292067 0.029039 0.304660
Si Si7 0.756499 0.690373 0.361306
Si Si8 0.097383 0.419871 0.221872
O O1 0.354434 0.157103 0.250165
O O2 0.329369 0.073741 0.368907
O O3 0.339657 0.162265 0.468853
O O4 0.883432 0.128734 0.654666
O O5 0.523286 0.169725 0.751980
O O6 0.276100 0.085843 0.829119
O O7 0.433922 0.165046 0.608950
O O8 0.822375 0.105818 0.449822
O O9 0.439367 0.800971 0.059312
O O10 0.678605 0.882128 0.970052
O O11 0.489030 0.750000 0.851587
O O12 0.090005 0.820027 0.121002
O O13 0.540771 0.509993 0.169319
O O14 0.009056 0.548896 0.815177
O O15 0.000000 0.500000 0.000000
O O16 0.287615 0.049656 0.186865
O O17 0.000000 0.000000 0.500000
O O18 0.694291 0.750000 0.411325
#
# Coordination Sequence:
#
# PCOD8075593 Si02
#       8
#     4   4   4   4   4   4   4   4
#     4  11  22  40  68  95 126 167 221 268 327 392
#     4  11  23  42  63  92 136 169 220 271 330 399
#     4  10  20  40  63  94 122 162 211 267 323 386
#     4  10  21  40  66  94 122 160 214 272 332 391
#     4  11  27  39  61  99 132 177 229 271 329 398
#     4  12  22  42  66  96 131 178 217 270 334 396
#     4  10  25  43  65  93 128 172 215 270 337 400
#     4  11  22  43  63  89 133 172 216 268 326 397
#
# _framework density 20.697600000000001
#
# number of rings (size 3 to 8) (size 9 to 14) (size 15 to 20)
#    0.000    1.250    3.750    1.500    3.500    3.500 
#    0.000    1.875    0.000    0.000    0.000    0.000 
#    0.000    0.000    0.000    0.000    0.000    0.000 
#
# Total GULP energy -396541.458181 kJ/mol
# GULP energy per Si atom -12391.920568 kJ/mol
# Density = 2.065049 g / cm^3
# Si number density = 20.697600 Si / 1000 Ang^3
#
#
#
# Elastic Constant Matrix: (Units=GPa)
#
#
# Indices 1 2 3 4 5 6 
#
# 1 123.6254 26.3367 19.3519 0.0000 16.4378 0.0000
# 2 26.3367 79.4965 13.1176 0.0000 10.1685 0.0000
# 3 19.3519 13.1176 71.0934 0.0000 10.3278 0.0000
# 4 0.0000 0.0000 0.0000 17.3222 0.0000 2.2118
# 5 16.4378 10.1685 10.3278 0.0000 29.6788 0.0000
# 6 0.0000 0.0000 0.0000 2.2118 0.0000 34.1810
#
#
#
# Elastic Compliance Matrix: (Units=1/GPa)
#
#
# Indices 1 2 3 4 5 6 
#
# 1 0.009342 -0.002349 -0.001553 0.000000 -0.003829 0.000000
# 2 -0.002349 0.013986 -0.001510 0.000000 -0.002965 0.000000
# 3 -0.001553 -0.001510 0.015343 0.000000 -0.003961 0.000000
# 4 0.000000 0.000000 0.000000 0.058210 0.000000 -0.003767
# 5 -0.003829 -0.002965 -0.003961 0.000000 0.038209 0.000000
# 6 0.000000 0.000000 0.000000 -0.003767 0.000000 0.029500
#
#
# Mechanical properties :
#
#
# Convention : Reuss Voigt Hill
#
# Bulk Modulus (GPa) = 35.91255 43.53642 39.72449
# Shear Modulus (GPa) = 27.07147 30.59700 28.83424
#
# Velocity S-wave (km/s) = 3.62049 3.84902 3.73650
# Velocity P-wave (km/s) = 5.90474 6.39011 6.15221
#
# Compressibility (1/GPa) = 0.02784542
#
# Stress axis : x y z
#
# Youngs Moduli (GPa) = 107.04872 71.50094 65.17643
#
# Poissons Ratio (x) = 0.16794 0.10124
# Poissons Ratio (y) = 0.25143 0.09845
# Poissons Ratio (z) = 0.16627 0.10800
#
# Static dielectric constant tensor:
#      x y z
#    x 3.812820 0.000000 0.321040 
#    y 0.000000 3.761350 0.000000 
#    z 0.321040 0.000000 3.823600 
# 
# 
# High freq. dielectric constant tensor:
#      x y z
#    x 1.814430 0.000000 0.013170 
#    y 0.000000 1.803460 0.000000 
#    z 0.013170 0.000000 1.817680 
# 
# From -- ./inp_files/33201.got.cif
#   From: 2010.06.25/outbox.cif.g09.slc.cpg/sg11_17_cif.got.tgz:33201.got - 2010.06.27 23:14:04.
