data_PCOD8075945
_publ_section_title
;
Structure prediction by ZEFSAII (Michael W. Deem and Ramdas Pophale) SiO2 
 PCOD8075945
Probable space group: P 21/M
;
_chemical_formula_sum "Si O2"
_cell_formula_units_Z 32
_cell_length_a 30.924307
_cell_length_b 8.780388
_cell_length_c 12.273097
_cell_angle_alpha 90.000000
_cell_angle_beta 150.698757
_cell_angle_gamma 90.000000
_cell_volume 1630.921401
_symmetry_space_group_name_H-M "P 21/M"
_symmetry_group_IT_number 11
_symmetry_cell_setting 'monoclinic'
loop_
_space_group_symop_operation_xyz
x,y,z
-x,1/2+y,-z
-x,-y,-z
x,1/2-y,z
loop_
_atom_site_type_symbol
_atom_site_label
_atom_site_fract_x
_atom_site_fract_y
_atom_site_fract_z
Si Si1 0.516395 0.420475 0.850713
Si Si2 0.036599 0.570360 0.908852
Si Si3 0.344928 0.571257 0.544587
Si Si4 0.316506 0.425098 0.704839
Si Si5 0.929479 0.068377 0.262081
Si Si6 0.742126 0.932117 0.852951
Si Si7 0.121801 0.076201 0.293981
Si Si8 0.565321 0.916693 0.564390
O O1 0.527952 0.250000 0.925348
O O2 0.446206 0.514544 0.767498
O O3 0.482800 0.409282 0.655619
O O4 0.608764 0.510010 0.051369
O O5 0.043694 0.750000 0.917775
O O6 0.050042 0.507087 0.815594
O O7 0.942069 0.514665 0.750115
O O8 0.111274 0.512062 0.156258
O O9 0.339824 0.750000 0.509181
O O10 0.308310 0.531286 0.581780
O O11 0.283238 0.483810 0.323836
O O12 0.336752 0.250000 0.717849
O O13 0.221967 0.439188 0.557340
O O14 0.932222 0.250000 0.274223
O O15 0.000000 0.000000 0.500000
O O16 0.833477 0.009168 0.089256
O O17 0.750032 0.750000 0.872138
O O18 0.663536 0.988300 0.762745
O O19 0.096800 0.250000 0.213560
O O20 0.578494 0.750000 0.643100
O O21 0.500000 0.000000 0.500000
#
# Coordination Sequence:
#
# PCOD8075945 Si02
#       8
#     4   4   4   4   4   4   4   4
#     4  10  21  37  53  76 111 145 182 228 277 328
#     4   9  19  37  58  80 109 144 185 232 282 335
#     4  11  21  34  55  81 111 147 185 227 276 330
#     4  11  21  33  51  79 112 147 184 223 275 335
#     4  11  23  39  60  86 118 153 193 242 295 344
#     4  10  21  39  60  85 114 146 189 234 281 337
#     4   9  19  35  56  81 109 144 185 228 278 339
#     4   9  20  38  60  82 108 144 184 232 281 332
#
# _framework density 19.620809999999999
#
# number of rings (size 3 to 8) (size 9 to 14) (size 15 to 20)
#    0.000    2.000    0.000    4.500    0.000    7.000 
#    2.250    0.000    0.000    0.000    0.000    0.000 
#    0.000    0.000    0.000    0.000    0.000    0.000 
#
# Total GULP energy -396705.382674 kJ/mol
# GULP energy per Si atom -12397.043209 kJ/mol
# Density = 1.957615 g / cm^3
# Si number density = 19.620810 Si / 1000 Ang^3
#
#
#
# Elastic Constant Matrix: (Units=GPa)
#
#
# Indices 1 2 3 4 5 6 
#
# 1 103.7706 35.9169 45.5799 0.0000 17.3576 0.0000
# 2 35.9169 78.3358 38.2976 0.0000 10.0774 0.0000
# 3 45.5799 38.2976 132.2144 0.0000 28.8204 0.0000
# 4 0.0000 0.0000 0.0000 35.6989 0.0000 0.1974
# 5 17.3576 10.0774 28.8204 0.0000 24.7671 0.0000
# 6 0.0000 0.0000 0.0000 0.1974 0.0000 27.4353
#
#
#
# Elastic Compliance Matrix: (Units=1/GPa)
#
#
# Indices 1 2 3 4 5 6 
#
# 1 0.012845 -0.004217 -0.002169 0.000000 -0.004763 0.000000
# 2 -0.004217 0.016292 -0.003302 0.000000 0.000169 0.000000
# 3 -0.002169 -0.003302 0.011581 0.000000 -0.010613 0.000000
# 4 0.000000 0.000000 0.000000 0.028013 0.000000 -0.000202
# 5 -0.004763 0.000169 -0.010613 0.000000 0.055996 0.000000
# 6 0.000000 0.000000 0.000000 -0.000202 0.000000 0.036451
#
#
# Mechanical properties :
#
#
# Convention : Reuss Voigt Hill
#
# Bulk Modulus (GPa) = 46.85383 61.54552 54.19967
# Shear Modulus (GPa) = 26.64293 30.54867 28.59580
#
# Velocity S-wave (km/s) = 3.68896 3.95010 3.82176
# Velocity P-wave (km/s) = 6.48660 7.22772 6.86717
#
# Compressibility (1/GPa) = 0.02134297
#
# Stress axis : x y z
#
# Youngs Moduli (GPa) = 77.84895 61.38137 86.34772
#
# Poissons Ratio (x) = 0.25882 0.18726
# Poissons Ratio (y) = 0.32826 0.28514
# Poissons Ratio (z) = 0.16883 0.20270
#
# Static dielectric constant tensor:
#      x y z
#    x 3.220160 0.000000 0.160290 
#    y 0.000000 3.413970 0.000000 
#    z 0.160290 0.000000 3.592210 
# 
# 
# High freq. dielectric constant tensor:
#      x y z
#    x 1.755970 0.000000 0.020170 
#    y 0.000000 1.767710 0.000000 
#    z 0.020170 0.000000 1.764290 
# 
# From -- ./inp_files/45290.got.cif
#   From: 2010.06.25/outbox.cif.g09.slc.cpg/sg11_23_cif.got.tgz:45290.got - 2010.06.27 23:14:04.
