data_PCOD8075156
_publ_section_title
;
Structure prediction by ZEFSAII (Michael W. Deem and Ramdas Pophale) SiO2 
 PCOD8075156
Probable space group: P 21/M
;
_chemical_formula_sum "Si O2"
_cell_formula_units_Z 28
_cell_length_a 12.615187
_cell_length_b 8.580684
_cell_length_c 14.750369
_cell_angle_alpha 90.000000
_cell_angle_beta 59.176162
_cell_angle_gamma 90.000000
_cell_volume 1371.145715
_symmetry_space_group_name_H-M "P 21/M"
_symmetry_group_IT_number 11
_symmetry_cell_setting 'monoclinic'
loop_
_space_group_symop_operation_xyz
x,y,z
-x,1/2+y,-z
-x,-y,-z
x,1/2-y,z
loop_
_atom_site_type_symbol
_atom_site_label
_atom_site_fract_x
_atom_site_fract_y
_atom_site_fract_z
Si Si1 0.979751 0.566873 0.781492
Si Si2 0.480372 0.926935 0.911844
Si Si3 0.806132 0.425762 0.003196
Si Si4 0.211937 0.564299 0.787707
Si Si5 0.909737 0.934317 0.614666
Si Si6 0.478793 0.935501 0.608200
Si Si7 0.644649 0.432455 0.688523
O O1 0.990090 0.750000 0.767936
O O2 0.948375 0.496064 0.696438
O O3 0.110935 0.500550 0.760202
O O4 0.872266 0.530761 0.899866
O O5 0.531805 0.750000 0.885545
O O6 0.338405 0.929226 0.949821
O O7 0.551978 0.034920 0.810606
O O8 0.500000 0.000000 0.000000
O O9 0.857137 0.250000 0.972051
O O10 0.828774 0.493964 0.094335
O O11 0.216559 0.750000 0.787177
O O12 0.346939 0.500612 0.701937
O O13 0.919570 0.750000 0.611146
O O14 0.772229 0.983349 0.652099
O O15 0.000000 0.000000 0.500000
O O16 0.482473 0.750000 0.607820
O O17 0.500000 0.000000 0.500000
O O18 0.589018 0.001052 0.620508
O O19 0.668255 0.250000 0.667829
#
# Coordination Sequence:
#
# PCOD8075156 Si02
#       7
#     4   4   4   4   4   4   4
#     4  10  22  39  62  91 124 164 206 254 312 377
#     4  11  22  38  61  91 127 168 212 263 322 383
#     4  10  20  37  60  88 124 164 203 251 312 375
#     4   9  19  39  63  89 126 165 198 250 317 377
#     4  11  25  44  66  93 127 166 213 267 322 381
#     4  11  23  42  67  96 130 167 211 265 325 386
#     4  12  25  43  66  93 127 169 217 266 321 382
#
# _framework density 20.420878999999999
#
# number of rings (size 3 to 8) (size 9 to 14) (size 15 to 20)
#    0.000    1.429    1.429    3.857    2.000    4.571 
#    0.000    1.429    0.000    0.000    0.000    0.000 
#    0.000    0.000    0.000    0.000    0.000    0.000 
#
# Total GULP energy -347270.486904 kJ/mol
# GULP energy per Si atom -12402.517389 kJ/mol
# Density = 2.037440 g / cm^3
# Si number density = 20.420879 Si / 1000 Ang^3
#
#
#
# Elastic Constant Matrix: (Units=GPa)
#
#
# Indices 1 2 3 4 5 6 
#
# 1 152.9057 27.1209 66.2602 0.0000 26.5407 0.0000
# 2 27.1209 53.8637 20.3496 0.0000 7.2058 0.0000
# 3 66.2602 20.3496 120.6811 0.0000 39.6589 0.0000
# 4 0.0000 0.0000 0.0000 33.9526 0.0000 1.0948
# 5 26.5407 7.2058 39.6589 0.0000 33.7624 0.0000
# 6 0.0000 0.0000 0.0000 1.0948 0.0000 24.5017
#
#
#
# Elastic Compliance Matrix: (Units=1/GPa)
#
#
# Indices 1 2 3 4 5 6 
#
# 1 0.009053 -0.002842 -0.003831 0.000000 -0.002010 0.000000
# 2 -0.002842 0.020726 -0.001979 0.000000 0.000135 0.000000
# 3 -0.003831 -0.001979 0.015627 0.000000 -0.014923 0.000000
# 4 0.000000 0.000000 0.000000 0.029495 0.000000 -0.001318
# 5 -0.002010 0.000135 -0.014923 0.000000 0.048699 0.000000
# 6 0.000000 0.000000 0.000000 -0.001318 0.000000 0.040872
#
#
# Mechanical properties :
#
#
# Convention : Reuss Voigt Hill
#
# Bulk Modulus (GPa) = 35.58342 61.65687 48.62014
# Shear Modulus (GPa) = 26.15828 32.69133 29.42480
#
# Velocity S-wave (km/s) = 3.58293 4.00544 3.80006
# Velocity P-wave (km/s) = 5.88042 7.18679 6.56618
#
# Compressibility (1/GPa) = 0.02810298
#
# Stress axis : x y z
#
# Youngs Moduli (GPa) = 110.46040 48.24873 63.99076
#
# Poissons Ratio (x) = 0.13713 0.24513
# Poissons Ratio (y) = 0.31394 0.12663
# Poissons Ratio (z) = 0.42314 0.09548
#
# Static dielectric constant tensor:
#      x y z
#    x 4.906890 0.000000 0.022600 
#    y 0.000000 3.704900 0.000000 
#    z 0.022600 0.000000 3.826270 
# 
# 
# High freq. dielectric constant tensor:
#      x y z
#    x 1.818910 0.000000 0.006580 
#    y 0.000000 1.783880 0.000000 
#    z 0.006580 0.000000 1.809450 
# 
# From -- ./inp_files/49131.got.cif
#   From: 2010.06.25/outbox.cif.g09.slc.cpg/sg11_25_cif.got.tgz:49131.got - 2010.06.27 23:14:04.
