data_PCOD8075080
_publ_section_title
;
Structure prediction by ZEFSAII (Michael W. Deem and Ramdas Pophale) SiO2 
 PCOD8075080
Probable space group: P 21/M
;
_chemical_formula_sum "Si O2"
_cell_formula_units_Z 28
_cell_length_a 11.478440
_cell_length_b 20.614033
_cell_length_c 9.812736
_cell_angle_alpha 90.000000
_cell_angle_beta 142.106595
_cell_angle_gamma 90.000000
_cell_volume 1426.073076
_symmetry_space_group_name_H-M "P 21/M"
_symmetry_group_IT_number 11
_symmetry_cell_setting 'monoclinic'
loop_
_space_group_symop_operation_xyz
x,y,z
-x,1/2+y,-z
-x,-y,-z
x,1/2-y,z
loop_
_atom_site_type_symbol
_atom_site_label
_atom_site_fract_x
_atom_site_fract_y
_atom_site_fract_z
Si Si1 0.446449 0.174779 0.922735
Si Si2 0.853557 0.676307 0.139172
Si Si3 0.626640 0.906029 0.408139
Si Si4 0.133076 0.402746 0.123210
Si Si5 0.014652 0.047339 0.386820
Si Si6 0.779791 0.038378 0.912746
Si Si7 0.872392 0.323629 0.379104
O O1 0.403358 0.250000 0.866297
O O2 0.296970 0.145221 0.892806
O O3 0.651716 0.159789 0.173603
O O4 0.427886 0.145969 0.755734
O O5 0.797549 0.750000 0.053757
O O6 0.852780 0.638834 0.998468
O O7 0.059389 0.671532 0.400950
O O8 0.732630 0.872203 0.634838
O O9 0.774405 0.958836 0.482043
O O10 0.436809 0.940181 0.284014
O O11 0.210679 0.474950 0.171165
O O12 0.914075 0.405604 0.971194
O O13 0.983060 0.123635 0.390737
O O14 0.000000 0.000000 0.500000
O O15 0.856289 0.022696 0.134858
O O16 0.912131 0.250000 0.360160
#
# Coordination Sequence:
#
# PCOD8075080 Si02
#       7
#     4   4   4   4   4   4   4
#     4  10  21  37  61  90 119 152 199 252 302 361
#     4  10  21  39  61  86 117 155 198 244 299 354
#     4  11  22  38  61  88 118 156 199 244 305 354
#     4  10  23  40  59  82 121 163 195 243 296 358
#     4  11  22  35  59  93 121 151 200 250 300 358
#     4  10  22  40  57  84 122 158 201 240 297 357
#     4  10  20  37  59  84 120 157 191 243 305 357
#
# _framework density 19.634336999999999
#
# number of rings (size 3 to 8) (size 9 to 14) (size 15 to 20)
#    0.000    1.714    2.857    1.286    0.000    3.429 
#    0.000    2.857    0.000    0.000    0.000    0.000 
#    0.000    0.000    0.000    0.000    0.000    0.000 
#
# Total GULP energy -347157.262898 kJ/mol
# GULP energy per Si atom -12398.473675 kJ/mol
# Density = 1.958965 g / cm^3
# Si number density = 19.634337 Si / 1000 Ang^3
#
#
#
# Elastic Constant Matrix: (Units=GPa)
#
#
# Indices 1 2 3 4 5 6 
#
# 1 114.0533 41.5602 75.4342 0.0000 0.4001 0.0000
# 2 41.5602 58.1476 37.5189 0.0000 -1.7608 0.0000
# 3 75.4342 37.5189 142.0124 0.0000 3.8620 0.0000
# 4 0.0000 0.0000 0.0000 25.0561 0.0000 -6.6652
# 5 0.4001 -1.7608 3.8620 0.0000 41.0706 0.0000
# 6 0.0000 0.0000 0.0000 -6.6652 0.0000 28.0777
#
#
#
# Elastic Compliance Matrix: (Units=1/GPa)
#
#
# Indices 1 2 3 4 5 6 
#
# 1 0.015557 -0.006968 -0.006427 0.000000 0.000154 0.000000
# 2 -0.006968 0.023934 -0.002659 0.000000 0.001344 0.000000
# 3 -0.006427 -0.002659 0.011188 0.000000 -0.001103 0.000000
# 4 0.000000 0.000000 0.000000 0.042601 0.000000 0.010113
# 5 0.000154 0.001344 -0.001103 0.000000 0.024508 0.000000
# 6 0.000000 0.000000 0.000000 0.010113 0.000000 0.038016
#
#
# Mechanical properties :
#
#
# Convention : Reuss Voigt Hill
#
# Bulk Modulus (GPa) = 53.84377 69.24887 61.54632
# Shear Modulus (GPa) = 25.75985 29.48756 27.62370
#
# Velocity S-wave (km/s) = 3.62606 3.87956 3.75495
# Velocity P-wave (km/s) = 6.70924 7.44404 7.08617
#
# Compressibility (1/GPa) = 0.01857225
#
# Stress axis : x y z
#
# Youngs Moduli (GPa) = 64.27992 41.78202 89.38208
#
# Poissons Ratio (x) = 0.29112 0.57445
# Poissons Ratio (y) = 0.44787 0.23764
# Poissons Ratio (z) = 0.41312 0.11109
#
# Static dielectric constant tensor:
#      x y z
#    x 3.686120 0.000000 0.083800 
#    y 0.000000 3.421460 0.000000 
#    z 0.083800 0.000000 3.765320 
# 
# 
# High freq. dielectric constant tensor:
#      x y z
#    x 1.766760 0.000000 0.002970 
#    y 0.000000 1.743500 0.000000 
#    z 0.002970 0.000000 1.783870 
# 
# From -- ./inp_files/19463.got.cif
#   From: 2010.06.25/outbox.cif.g09.slc.cpg/sg11_10_cif.got.tgz:19463.got - 2010.06.27 23:14:04.
