data_PCOD8075925
_publ_section_title
;
Structure prediction by ZEFSAII (Michael W. Deem and Ramdas Pophale) SiO2 
 PCOD8075925
Probable space group: P 21/M
;
_chemical_formula_sum "Si O2"
_cell_formula_units_Z 24
_cell_length_a 13.935685
_cell_length_b 13.586943
_cell_length_c 11.331371
_cell_angle_alpha 90.000000
_cell_angle_beta 147.728512
_cell_angle_gamma 90.000000
_cell_volume 1145.560960
_symmetry_space_group_name_H-M "P 21/M"
_symmetry_group_IT_number 11
_symmetry_cell_setting 'monoclinic'
loop_
_space_group_symop_operation_xyz
x,y,z
-x,1/2+y,-z
-x,-y,-z
x,1/2-y,z
loop_
_atom_site_type_symbol
_atom_site_label
_atom_site_fract_x
_atom_site_fract_y
_atom_site_fract_z
Si Si1 0.619416 0.132787 0.543100
Si Si2 0.614725 0.360301 0.986585
Si Si3 0.934033 0.047521 0.717319
Si Si4 0.210206 0.355685 0.559600
Si Si5 0.948048 0.392281 0.479510
Si Si6 0.316661 0.510263 0.163277
O O1 0.594589 0.250000 0.518156
O O2 0.800479 0.102236 0.665579
O O3 0.626524 0.092633 0.683560
O O4 0.451280 0.082286 0.302958
O O5 0.629473 0.250000 0.949604
O O6 0.410315 0.384644 0.811233
O O7 0.684757 0.438619 0.965167
O O8 0.741324 0.368283 0.233055
O O9 0.967539 0.120272 0.640534
O O10 0.860315 0.940611 0.600067
O O11 0.117741 0.031436 0.980279
O O12 0.215532 0.250000 0.495985
O O13 0.088178 0.330723 0.547384
O O14 0.000000 0.500000 0.500000
#
# Coordination Sequence:
#
# PCOD8075925 Si02
#       6
#     4   4   4   4   4   4
#     4  11  26  45  65  94 128 167 216 265 323 383
#     4  11  21  37  65  97 127 169 217 260 313 377
#     4  11  23  42  66  95 129 170 208 267 322 377
#     4  10  21  36  60  97 130 167 215 256 309 374
#     4  10  21  36  60  91 129 169 207 260 314 372
#     4  11  23  44  69  92 126 169 213 267 321 373
#
# _framework density 20.950436
#
# number of rings (size 3 to 8) (size 9 to 14) (size 15 to 20)
#    0.000    1.333    5.000    1.500    0.000    6.667 
#    0.000    1.667    0.000    0.000    0.000    0.000 
#    0.000    0.000    0.000    0.000    0.000    0.000 
#
# Total GULP energy -297476.037701 kJ/mol
# GULP energy per Si atom -12394.834904 kJ/mol
# Density = 2.090275 g / cm^3
# Si number density = 20.950436 Si / 1000 Ang^3
#
#
#
# Elastic Constant Matrix: (Units=GPa)
#
#
# Indices 1 2 3 4 5 6 
#
# 1 46.3210 18.8383 15.0738 0.0000 11.8873 0.0000
# 2 18.8383 130.2277 37.6140 0.0000 5.9902 0.0000
# 3 15.0738 37.6140 120.8090 0.0000 31.1152 0.0000
# 4 0.0000 0.0000 0.0000 -16.3885 0.0000 -12.5451
# 5 11.8873 5.9902 31.1152 0.0000 39.3708 0.0000
# 6 0.0000 0.0000 0.0000 -12.5451 0.0000 17.5769
#
#
#
# Elastic Compliance Matrix: (Units=1/GPa)
#
#
# Indices 1 2 3 4 5 6 
#
# 1 0.024711 -0.003158 -0.000379 0.000000 -0.006681 0.000000
# 2 -0.003158 0.008872 -0.002845 0.000000 0.001852 0.000000
# 3 -0.000379 -0.002845 0.011388 0.000000 -0.008452 0.000000
# 4 0.000000 0.000000 0.000000 -0.039460 0.000000 -0.028163
# 5 -0.006681 0.001852 -0.008452 0.000000 0.033815 0.000000
# 6 0.000000 0.000000 0.000000 -0.028163 0.000000 0.036792
#
#
# Mechanical properties :
#
#
# Convention : Reuss Voigt Hill
#
# Bulk Modulus (GPa) = 31.05061 48.93444 39.99252
# Shear Modulus (GPa) = 50.19179 23.16729 36.67954
#
# Velocity S-wave (km/s) = 4.89994 3.32899 4.18877
# Velocity P-wave (km/s) = 6.84585 6.17933 6.52111
#
# Compressibility (1/GPa) = 0.03220549
#
# Stress axis : x y z
#
# Youngs Moduli (GPa) = 40.46847 112.71041 87.81331
#
# Poissons Ratio (x) = 0.35590 0.03332
# Poissons Ratio (y) = 0.12779 0.24987
# Poissons Ratio (z) = 0.01536 0.32072
#
# Static dielectric constant tensor:
#      x y z
#    x 3.847070 0.000000 -0.194890 
#    y 0.000000 -9.289360 0.000000 
#    z -0.194890 0.000000 3.848110 
# 
# 
# High freq. dielectric constant tensor:
#      x y z
#    x 1.811000 0.000000 0.020210 
#    y 0.000000 1.830060 0.000000 
#    z 0.020210 0.000000 1.824930 
# 
# From -- ./inp_files/39734.got.cif
#   From: 2010.06.25/outbox.cif.g09.slc.cpg/sg11_20_cif.got.tgz:39734.got - 2010.06.27 23:14:04.
