data_PCOD8075996
_publ_section_title
;
Structure prediction by ZEFSAII (Michael W. Deem and Ramdas Pophale) SiO2 
 PCOD8075996
Probable space group: P 21/M
;
_chemical_formula_sum "Si O2"
_cell_formula_units_Z 28
_cell_length_a 7.888631
_cell_length_b 8.846073
_cell_length_c 27.600362
_cell_angle_alpha 90.000000
_cell_angle_beta 135.244787
_cell_angle_gamma 90.000000
_cell_volume 1356.090077
_symmetry_space_group_name_H-M "P 21/M"
_symmetry_group_IT_number 11
_symmetry_cell_setting 'monoclinic'
loop_
_space_group_symop_operation_xyz
x,y,z
-x,1/2+y,-z
-x,-y,-z
x,1/2-y,z
loop_
_atom_site_type_symbol
_atom_site_label
_atom_site_fract_x
_atom_site_fract_y
_atom_site_fract_z
Si Si1 0.524659 0.078095 0.785397
Si Si2 0.930681 0.423942 0.936176
Si Si3 0.071304 0.927119 0.657605
Si Si4 0.198379 0.571007 0.574409
Si Si5 0.060634 0.923651 0.203487
Si Si6 0.700824 0.425467 0.648095
Si Si7 0.266548 0.573839 0.930271
O O1 0.441719 0.250000 0.758168
O O2 0.648114 0.069518 0.864119
O O3 0.707442 0.023144 0.780389
O O4 0.291962 0.971873 0.737478
O O5 0.022023 0.250000 0.954121
O O6 0.049931 0.527910 0.920457
O O7 0.000000 0.500000 0.000000
O O8 0.025210 0.750000 0.651494
O O9 0.137059 0.979894 0.616696
O O10 0.826599 0.009497 0.625310
O O11 0.194698 0.750000 0.568788
O O12 0.457212 0.512541 0.610370
O O13 0.000000 0.500000 0.500000
O O14 0.009044 0.750000 0.180262
O O15 0.110909 0.950104 0.270029
O O16 0.816402 0.014636 0.139630
O O17 0.638928 0.250000 0.627878
O O18 0.310939 0.750000 0.936896
O O19 0.500000 0.500000 0.000000
#
# Coordination Sequence:
#
# PCOD8075996 Si02
#       7
#     4   4   4   4   4   4   4
#     4   9  18  36  60  84 116 158 204 254 311 375
#     4  10  21  37  56  82 116 157 204 255 312 375
#     4  11  24  40  63  97 131 164 209 261 312 375
#     4  11  25  45  69  97 132 171 211 260 316 377
#     4   9  19  37  60  86 117 156 205 258 314 377
#     4  11  23  41  68  97 128 168 212 260 314 376
#     4  11  22  36  56  81 114 158 205 258 315 372
#
# _framework density 20.647597999999999
#
# number of rings (size 3 to 8) (size 9 to 14) (size 15 to 20)
#    0.000    1.714    1.429    3.857    0.000    7.429 
#    0.000    1.429    0.000    0.000    0.000    0.000 
#    0.000    0.000    0.000    0.000    0.000    0.000 
#
# Total GULP energy -347138.423917 kJ/mol
# GULP energy per Si atom -12397.800854 kJ/mol
# Density = 2.060060 g / cm^3
# Si number density = 20.647598 Si / 1000 Ang^3
#
#
#
# Elastic Constant Matrix: (Units=GPa)
#
#
# Indices 1 2 3 4 5 6 
#
# 1 110.9386 46.4409 48.0814 0.0000 4.9991 0.0000
# 2 46.4409 111.2840 57.3989 0.0000 7.8706 0.0000
# 3 48.0814 57.3989 116.4716 0.0000 3.8585 0.0000
# 4 0.0000 0.0000 0.0000 39.3336 0.0000 3.6828
# 5 4.9991 7.8706 3.8585 0.0000 22.5606 0.0000
# 6 0.0000 0.0000 0.0000 3.6828 0.0000 34.4870
#
#
#
# Elastic Compliance Matrix: (Units=1/GPa)
#
#
# Indices 1 2 3 4 5 6 
#
# 1 0.011804 -0.003167 -0.003281 0.000000 -0.000950 0.000000
# 2 -0.003167 0.013133 -0.005065 0.000000 -0.003014 0.000000
# 3 -0.003281 -0.005065 0.012424 0.000000 0.000369 0.000000
# 4 0.000000 0.000000 0.000000 0.025680 0.000000 -0.002742
# 5 -0.000950 -0.003014 0.000369 0.000000 0.045524 0.000000
# 6 0.000000 0.000000 0.000000 -0.002742 0.000000 0.029289
#
#
# Mechanical properties :
#
#
# Convention : Reuss Voigt Hill
#
# Bulk Modulus (GPa) = 69.75385 71.39297 70.57341
# Shear Modulus (GPa) = 30.18237 31.72778 30.95508
#
# Velocity S-wave (km/s) = 3.82748 3.92424 3.87616
# Velocity P-wave (km/s) = 7.30679 7.42865 7.36797
#
# Compressibility (1/GPa) = 0.01433613
#
# Stress axis : x y z
#
# Youngs Moduli (GPa) = 84.71386 76.14272 80.48831
#
# Poissons Ratio (x) = 0.24112 0.26408
# Poissons Ratio (y) = 0.26827 0.40768
# Poissons Ratio (z) = 0.27795 0.38567
#
# Static dielectric constant tensor:
#      x y z
#    x 3.667680 0.000000 0.016340 
#    y 0.000000 4.621020 0.000000 
#    z 0.016340 0.000000 4.274680 
# 
# 
# High freq. dielectric constant tensor:
#      x y z
#    x 1.795750 0.000000 0.000210 
#    y 0.000000 1.810700 0.000000 
#    z 0.000210 0.000000 1.816640 
# 
# From -- ./inp_files/72758.got.cif
#   From: 2010.06.25/outbox.cif.g09.slc.cpg/sg11_37_cif.got.tgz:72758.got - 2010.06.27 23:14:04.
