data_PCOD8075019
_publ_section_title
;
Structure prediction by ZEFSAII (Michael W. Deem and Ramdas Pophale) SiO2 
 PCOD8075019
Probable space group: P 21/M
;
_chemical_formula_sum "Si O2"
_cell_formula_units_Z 32
_cell_length_a 17.798470
_cell_length_b 17.790687
_cell_length_c 11.171926
_cell_angle_alpha 90.000000
_cell_angle_beta 29.109636
_cell_angle_gamma 90.000000
_cell_volume 1720.958929
_symmetry_space_group_name_H-M "P 21/M"
_symmetry_group_IT_number 11
_symmetry_cell_setting 'monoclinic'
loop_
_space_group_symop_operation_xyz
x,y,z
-x,1/2+y,-z
-x,-y,-z
x,1/2-y,z
loop_
_atom_site_type_symbol
_atom_site_label
_atom_site_fract_x
_atom_site_fract_y
_atom_site_fract_z
Si Si1 0.978959 0.337945 0.652014
Si Si2 0.228019 0.958233 0.620292
Si Si3 0.292521 0.163073 0.084643
Si Si4 0.330507 0.662488 0.054450
Si Si5 0.708560 0.558559 0.141349
Si Si6 0.957835 0.459012 0.883422
Si Si7 0.382368 0.837650 0.251461
Si Si8 0.478378 0.439772 0.375630
O O1 0.977326 0.250000 0.688990
O O2 0.840971 0.357795 0.752511
O O3 0.960981 0.385517 0.797114
O O4 0.139441 0.361771 0.367708
O O5 0.264297 0.881237 0.501281
O O6 0.389151 0.998636 0.421978
O O7 0.139110 0.935778 0.864683
O O8 0.130155 0.016582 0.677302
O O9 0.284295 0.250000 0.060345
O O10 0.302240 0.118212 0.948210
O O11 0.439834 0.145659 0.962351
O O12 0.362412 0.750000 0.004537
O O13 0.351430 0.633039 0.160313
O O14 0.463408 0.627121 0.788088
O O15 0.625289 0.479970 0.229164
O O16 0.631024 0.594749 0.368068
O O17 0.883761 0.532809 0.923332
O O18 0.342944 0.750000 0.319725
#
# Coordination Sequence:
#
# PCOD8075019 Si02
#       8
#     4   4   4   4   4   4   4   4
#     4  10  22  39  58  82 113 148 186 229 276 330
#     4  10  22  39  58  84 114 146 186 230 278 331
#     4  10  22  38  57  83 113 147 187 229 277 331
#     4  10  22  38  57  83 113 147 187 229 277 331
#     4  10  20  37  58  82 112 142 182 232 276 324
#     4  10  22  39  58  84 114 146 186 230 278 331
#     4  10  22  39  58  82 113 148 186 229 276 330
#     4  10  20  37  58  82 112 142 182 232 276 324
#
# _framework density 18.594284999999999
#
# number of rings (size 3 to 8) (size 9 to 14) (size 15 to 20)
#    0.000    2.000    2.500    0.000    3.500    3.000 
#    0.000    2.500    0.000    4.500    0.000    0.000 
#    0.000    0.000    0.000    0.000    0.000    0.000 
#
# Total GULP energy -396871.374192 kJ/mol
# GULP energy per Si atom -12402.230444 kJ/mol
# Density = 1.855196 g / cm^3
# Si number density = 18.594285 Si / 1000 Ang^3
#
#
#
# Elastic Constant Matrix: (Units=GPa)
#
#
# Indices 1 2 3 4 5 6 
#
# 1 129.4957 53.0375 55.0668 0.0000 12.9752 0.0000
# 2 53.0375 64.8929 52.8945 0.0000 15.7360 0.0000
# 3 55.0668 52.8945 103.6485 0.0000 8.0928 0.0000
# 4 0.0000 0.0000 0.0000 26.9969 0.0000 7.6503
# 5 12.9752 15.7360 8.0928 0.0000 20.1617 0.0000
# 6 0.0000 0.0000 0.0000 7.6503 0.0000 35.7932
#
#
#
# Elastic Compliance Matrix: (Units=1/GPa)
#
#
# Indices 1 2 3 4 5 6 
#
# 1 0.011938 -0.007617 -0.002395 0.000000 -0.000777 0.000000
# 2 -0.007617 0.037115 -0.013436 0.000000 -0.018673 0.000000
# 3 -0.002395 -0.013436 0.017383 0.000000 0.005051 0.000000
# 4 0.000000 0.000000 0.000000 0.039429 0.000000 -0.008427
# 5 -0.000777 -0.018673 0.005051 0.000000 0.062646 0.000000
# 6 0.000000 0.000000 0.000000 -0.008427 0.000000 0.029740
#
#
# Mechanical properties :
#
#
# Convention : Reuss Voigt Hill
#
# Bulk Modulus (GPa) = 51.17557 68.89274 60.03416
# Shear Modulus (GPa) = 19.86810 25.72626 22.79718
#
# Velocity S-wave (km/s) = 3.27235 3.72366 3.50527
# Velocity P-wave (km/s) = 6.46990 7.45777 6.98133
#
# Compressibility (1/GPa) = 0.01954057
#
# Stress axis : x y z
#
# Youngs Moduli (GPa) = 83.76594 26.94317 57.52792
#
# Poissons Ratio (x) = 0.20522 0.13777
# Poissons Ratio (y) = 0.63801 0.77296
# Poissons Ratio (z) = 0.20061 0.36202
#
# Static dielectric constant tensor:
#      x y z
#    x 3.667800 0.000000 -0.104800 
#    y 0.000000 3.177530 0.000000 
#    z -0.104800 0.000000 3.471150 
# 
# 
# High freq. dielectric constant tensor:
#      x y z
#    x 1.737570 0.000000 -0.006090 
#    y 0.000000 1.707570 0.000000 
#    z -0.006090 0.000000 1.726660 
# 
# From -- ./inp_files/41614.got.cif
#   From: 2010.06.25/outbox.cif.g09.slc.cpg/sg11_21_cif.got.tgz:41614.got - 2010.06.27 23:14:04.
