data_PCOD8075443
_publ_section_title
;
Structure prediction by ZEFSAII (Michael W. Deem and Ramdas Pophale) SiO2 
 PCOD8075443
Probable space group: P 21/M
;
_chemical_formula_sum "Si O2"
_cell_formula_units_Z 24
_cell_length_a 22.462381
_cell_length_b 13.014301
_cell_length_c 9.029687
_cell_angle_alpha 90.000000
_cell_angle_beta 151.754935
_cell_angle_gamma 90.000000
_cell_volume 1249.206568
_symmetry_space_group_name_H-M "P 21/M"
_symmetry_group_IT_number 11
_symmetry_cell_setting 'monoclinic'
loop_
_space_group_symop_operation_xyz
x,y,z
-x,1/2+y,-z
-x,-y,-z
x,1/2-y,z
loop_
_atom_site_type_symbol
_atom_site_label
_atom_site_fract_x
_atom_site_fract_y
_atom_site_fract_z
Si Si1 0.954848 0.034509 0.241175
Si Si2 0.808872 0.868169 0.743865
Si Si3 0.443437 0.465983 0.722896
Si Si4 0.615698 0.029743 0.854292
Si Si5 0.808383 0.870548 0.398260
Si Si6 0.296516 0.867018 0.226270
O O1 0.060907 0.094736 0.385267
O O2 0.840761 0.113633 0.008183
O O3 0.000000 0.000000 0.500000
O O4 0.912581 0.934390 0.056847
O O5 0.845831 0.750000 0.847900
O O6 0.669961 0.885892 0.506908
O O7 0.809762 0.899246 0.574118
O O8 0.556990 0.416684 0.873229
O O9 0.398139 0.568086 0.539628
O O10 0.500000 0.500000 0.000000
O O11 0.703049 0.106012 0.949159
O O12 0.500000 0.000000 0.500000
O O13 0.694567 0.928832 0.069433
O O14 0.787418 0.750000 0.326444
O O15 0.334509 0.750000 0.332215
#
# Coordination Sequence:
#
# PCOD8075443 Si02
#       6
#     4   4   4   4   4   4
#     4  11  22  41  62  88 121 154 198 256 297 350
#     4  10  23  40  63  91 120 159 203 247 301 361
#     4  10  20  38  63  87 123 153 198 251 295 352
#     4  10  21  38  58  89 122 158 193 244 295 349
#     4  11  22  40  65  89 119 162 202 242 302 361
#     4  10  22  39  58  85 119 158 198 243 299 353
#
# _framework density 19.212192999999999
#
# number of rings (size 3 to 8) (size 9 to 14) (size 15 to 20)
#    0.000    1.667    3.333    1.000    0.000    5.333 
#    0.000    0.000    0.000    0.000    0.000    0.000 
#    0.000    0.000    0.000    0.000    0.000    0.000 
#
# Total GULP energy -297580.020933 kJ/mol
# GULP energy per Si atom -12399.167539 kJ/mol
# Density = 1.916847 g / cm^3
# Si number density = 19.212193 Si / 1000 Ang^3
#
#
#
# Elastic Constant Matrix: (Units=GPa)
#
#
# Indices 1 2 3 4 5 6 
#
# 1 163.0658 48.1230 48.3079 0.0000 3.2116 0.0000
# 2 48.1230 96.5512 42.4151 0.0000 -11.1605 0.0000
# 3 48.3079 42.4151 104.5284 0.0000 -8.7192 0.0000
# 4 0.0000 0.0000 0.0000 24.3006 0.0000 -6.0606
# 5 3.2116 -11.1605 -8.7192 0.0000 35.9268 0.0000
# 6 0.0000 0.0000 0.0000 -6.0606 0.0000 25.1317
#
#
#
# Elastic Compliance Matrix: (Units=1/GPa)
#
#
# Indices 1 2 3 4 5 6 
#
# 1 0.007837 -0.003035 -0.002580 0.000000 -0.002270 0.000000
# 2 -0.003035 0.014047 -0.003991 0.000000 0.003666 0.000000
# 3 -0.002580 -0.003991 0.012548 0.000000 0.002036 0.000000
# 4 0.000000 0.000000 0.000000 0.043785 0.000000 0.010559
# 5 -0.002270 0.003666 0.002036 0.000000 0.029670 0.000000
# 6 0.000000 0.000000 0.000000 0.010559 0.000000 0.042337
#
#
# Mechanical properties :
#
#
# Convention : Reuss Voigt Hill
#
# Bulk Modulus (GPa) = 65.70239 71.31525 68.50882
# Shear Modulus (GPa) = 28.65155 32.09179 30.37167
#
# Velocity S-wave (km/s) = 3.86595 4.09147 3.98031
# Velocity P-wave (km/s) = 7.36206 7.71496 7.54057
#
# Compressibility (1/GPa) = 0.01522015
#
# Stress axis : x y z
#
# Youngs Moduli (GPa) = 127.59729 71.18799 79.69129
#
# Poissons Ratio (x) = 0.21608 0.20557
# Poissons Ratio (y) = 0.38730 0.31808
# Poissons Ratio (z) = 0.32915 0.28414
#
# Static dielectric constant tensor:
#      x y z
#    x 4.482140 0.000000 0.062670 
#    y 0.000000 3.302270 0.000000 
#    z 0.062670 0.000000 3.483850 
# 
# 
# High freq. dielectric constant tensor:
#      x y z
#    x 1.778030 0.000000 0.001760 
#    y 0.000000 1.727540 0.000000 
#    z 0.001760 0.000000 1.750520 
# 
# From -- ./inp_files/16941.got.cif
#   From: 2010.06.25/outbox.cif.g09.slc.cpg/sg11_9_cif.got.tgz:16941.got - 2010.06.27 23:14:04.
