data_PCOD8075204
_publ_section_title
;
Structure prediction by ZEFSAII (Michael W. Deem and Ramdas Pophale) SiO2 
 PCOD8075204
Probable space group: P 21/M
;
_chemical_formula_sum "Si O2"
_cell_formula_units_Z 32
_cell_length_a 12.596757
_cell_length_b 8.701752
_cell_length_c 32.623725
_cell_angle_alpha 90.000000
_cell_angle_beta 26.856132
_cell_angle_gamma 90.000000
_cell_volume 1615.469911
_symmetry_space_group_name_H-M "P 21/M"
_symmetry_group_IT_number 11
_symmetry_cell_setting 'monoclinic'
loop_
_space_group_symop_operation_xyz
x,y,z
-x,1/2+y,-z
-x,-y,-z
x,1/2-y,z
loop_
_atom_site_type_symbol
_atom_site_label
_atom_site_fract_x
_atom_site_fract_y
_atom_site_fract_z
Si Si1 0.963781 0.069011 0.924062
Si Si2 0.616154 0.430739 0.375847
Si Si3 0.528804 0.569019 0.105312
Si Si4 0.966530 0.931909 0.710789
Si Si5 0.686713 0.429444 0.135071
Si Si6 0.661761 0.424845 0.685764
Si Si7 0.113851 0.072429 0.575596
Si Si8 0.334171 0.426010 0.727709
O O1 0.953816 0.250000 0.933875
O O2 0.114888 0.025883 0.831925
O O3 0.078113 0.993758 0.925113
O O4 0.700752 0.999911 0.010765
O O5 0.600901 0.250000 0.384753
O O6 0.817262 0.495382 0.336507
O O7 0.364945 0.499973 0.476599
O O8 0.673938 0.470599 0.309413
O O9 0.514621 0.750000 0.105664
O O10 0.637764 0.522416 0.110987
O O11 0.269157 0.501832 0.189007
O O12 0.946308 0.750000 0.719759
O O13 0.003307 0.981478 0.651443
O O14 0.713364 0.250000 0.115911
O O15 0.466863 0.454764 0.240740
O O16 0.583586 0.250000 0.724537
O O17 0.580277 0.455549 0.667064
O O18 0.941259 0.445408 0.595634
O O19 0.136469 0.250000 0.580778
O O20 0.312588 0.250000 0.721398
#
# Coordination Sequence:
#
# PCOD8075204 Si02
#       8
#     4   4   4   4   4   4   4   4
#     4  10  21  38  58  83 116 152 191 236 284 336
#     4  10  23  40  59  84 115 153 196 244 289 339
#     4  12  23  36  56  84 115 150 191 235 289 348
#     4  11  23  39  58  85 118 150 193 244 291 339
#     4  11  20  32  53  84 120 154 189 229 283 344
#     4   9  18  34  56  84 119 154 190 236 288 337
#     4  10  20  37  61  87 117 152 189 236 296 347
#     4   9  20  38  59  83 115 154 194 236 281 339
#
# _framework density 19.808478999999998
#
# number of rings (size 3 to 8) (size 9 to 14) (size 15 to 20)
#    0.000    1.750    1.250    4.500    0.000    4.500 
#    0.000    0.625    0.000    0.000    0.000    0.000 
#    0.000    0.000    0.000    0.000    0.000    0.000 
#
# Total GULP energy -396813.987762 kJ/mol
# GULP energy per Si atom -12400.437118 kJ/mol
# Density = 1.976339 g / cm^3
# Si number density = 19.808479 Si / 1000 Ang^3
#
#
#
# Elastic Constant Matrix: (Units=GPa)
#
#
# Indices 1 2 3 4 5 6 
#
# 1 85.1005 19.5450 50.4254 0.0000 -8.2831 0.0000
# 2 19.5450 54.6642 29.4021 0.0000 -9.7064 0.0000
# 3 50.4254 29.4021 117.3493 0.0000 -30.7901 0.0000
# 4 0.0000 0.0000 0.0000 29.9762 0.0000 2.2394
# 5 -8.2831 -9.7064 -30.7901 0.0000 25.9656 0.0000
# 6 0.0000 0.0000 0.0000 2.2394 0.0000 26.9447
#
#
#
# Elastic Compliance Matrix: (Units=1/GPa)
#
#
# Indices 1 2 3 4 5 6 
#
# 1 0.016425 -0.002603 -0.007674 0.000000 -0.004833 0.000000
# 2 -0.002603 0.021655 -0.003485 0.000000 0.003132 0.000000
# 3 -0.007674 -0.003485 0.016996 0.000000 0.016403 0.000000
# 4 0.000000 0.000000 0.000000 0.033568 0.000000 -0.002790
# 5 -0.004833 0.003132 0.016403 0.000000 0.057592 0.000000
# 6 0.000000 0.000000 0.000000 -0.002790 0.000000 0.037345
#
#
# Mechanical properties :
#
#
# Convention : Reuss Voigt Hill
#
# Bulk Modulus (GPa) = 36.29594 50.65099 43.47346
# Shear Modulus (GPa) = 22.69720 27.09339 24.89530
#
# Velocity S-wave (km/s) = 3.38869 3.70235 3.54898
# Velocity P-wave (km/s) = 5.80294 6.62589 6.22802
#
# Compressibility (1/GPa) = 0.02755129
#
# Stress axis : x y z
#
# Youngs Moduli (GPa) = 60.88135 46.17856 58.83663
#
# Poissons Ratio (x) = 0.12023 0.45150
# Poissons Ratio (y) = 0.15850 0.20507
# Poissons Ratio (z) = 0.46720 0.16095
#
# Static dielectric constant tensor:
#      x y z
#    x 3.569140 0.000000 -0.312190 
#    y 0.000000 3.532730 0.000000 
#    z -0.312190 0.000000 3.840700 
# 
# 
# High freq. dielectric constant tensor:
#      x y z
#    x 1.756910 0.000000 -0.015720 
#    y 0.000000 1.769670 0.000000 
#    z -0.015720 0.000000 1.778110 
# 
# From -- ./inp_files/73130.got.cif
#   From: 2010.06.25/outbox.cif.g09.slc.cpg/sg11_37_cif.got.tgz:73130.got - 2010.06.27 23:14:04.
