data_PCOD8075027
_publ_section_title
;
Structure prediction by ZEFSAII (Michael W. Deem and Ramdas Pophale) SiO2 
 PCOD8075027
Probable space group: P 21/M
;
_chemical_formula_sum "Si O2"
_cell_formula_units_Z 32
_cell_length_a 11.760581
_cell_length_b 9.097883
_cell_length_c 28.603668
_cell_angle_alpha 90.000000
_cell_angle_beta 148.673060
_cell_angle_gamma 90.000000
_cell_volume 1591.212044
_symmetry_space_group_name_H-M "P 21/M"
_symmetry_group_IT_number 11
_symmetry_cell_setting 'monoclinic'
loop_
_space_group_symop_operation_xyz
x,y,z
-x,1/2+y,-z
-x,-y,-z
x,1/2-y,z
loop_
_atom_site_type_symbol
_atom_site_label
_atom_site_fract_x
_atom_site_fract_y
_atom_site_fract_z
Si Si1 0.871616 0.577749 0.817026
Si Si2 0.364347 0.581882 0.412591
Si Si3 0.581664 0.578245 0.331716
Si Si4 0.160755 0.422738 0.666111
Si Si5 0.614112 0.923399 0.159845
Si Si6 0.886974 0.423556 0.004407
Si Si7 0.038774 0.576047 0.774521
Si Si8 0.234671 0.087036 0.508428
O O1 0.834306 0.750000 0.805962
O O2 0.638371 0.504086 0.733846
O O3 0.001317 0.523303 0.908323
O O4 0.002601 0.534634 0.816065
O O5 0.500000 0.500000 0.500000
O O6 0.309823 0.750000 0.408628
O O7 0.513867 0.579235 0.419181
O O8 0.140151 0.498655 0.322185
O O9 0.527356 0.750000 0.308427
O O10 0.684760 0.513137 0.320482
O O11 0.760148 0.547256 0.434921
O O12 0.155642 0.250000 0.659892
O O13 0.254986 0.474122 0.748324
O O14 0.913396 0.477668 0.573582
O O15 0.631602 0.750000 0.156239
O O16 0.722792 0.011466 0.155019
O O17 0.364765 0.972060 0.079793
O O18 0.907006 0.250000 0.003935
O O19 0.000000 0.500000 0.000000
O O20 0.030887 0.750000 0.763514
O O21 0.138972 0.250000 0.466899
#
# Coordination Sequence:
#
# PCOD8075027 Si02
#       8
#     4   4   4   4   4   4   4   4
#     4  10  22  39  61  89 120 154 196 248 301 352
#     4  11  22  37  57  83 116 158 204 249 296 350
#     4  10  20  37  58  83 115 152 195 240 291 356
#     4  10  21  35  55  82 113 151 194 240 293 350
#     4  10  22  40  60  85 118 156 196 242 297 356
#     4  10  22  42  66  93 123 155 195 244 300 361
#     4  11  23  39  59  86 119 156 200 248 297 351
#     4  10  21  35  53  80 113 149 193 240 289 347
#
# _framework density 20.110455000000002
#
# number of rings (size 3 to 8) (size 9 to 14) (size 15 to 20)
#    0.000    1.750    1.250    2.625    0.000    7.500 
#    0.000    0.000    0.000    0.000    0.000    0.000 
#    0.000    0.000    0.000    0.000    0.000    0.000 
#
# Total GULP energy -396864.398089 kJ/mol
# GULP energy per Si atom -12402.012440 kJ/mol
# Density = 2.006468 g / cm^3
# Si number density = 20.110455 Si / 1000 Ang^3
#
#
#
# Elastic Constant Matrix: (Units=GPa)
#
#
# Indices 1 2 3 4 5 6 
#
# 1 104.8444 39.5559 53.4748 0.0000 4.6839 0.0000
# 2 39.5559 44.8272 33.3669 0.0000 -0.6877 0.0000
# 3 53.4748 33.3669 103.6050 0.0000 2.7252 0.0000
# 4 0.0000 0.0000 0.0000 22.4988 0.0000 1.9032
# 5 4.6839 -0.6877 2.7252 0.0000 35.6522 0.0000
# 6 0.0000 0.0000 0.0000 1.9032 0.0000 33.1371
#
#
#
# Elastic Compliance Matrix: (Units=1/GPa)
#
#
# Indices 1 2 3 4 5 6 
#
# 1 0.016107 -0.010645 -0.004834 0.000000 -0.001952 0.000000
# 2 -0.010645 0.036436 -0.006308 0.000000 0.002583 0.000000
# 3 -0.004834 -0.006308 0.014194 0.000000 -0.000572 0.000000
# 4 0.000000 0.000000 0.000000 0.044664 0.000000 -0.002565
# 5 -0.001952 0.002583 -0.000572 0.000000 0.028399 0.000000
# 6 0.000000 0.000000 0.000000 -0.002565 0.000000 0.030325
#
#
# Mechanical properties :
#
#
# Convention : Reuss Voigt Hill
#
# Bulk Modulus (GPa) = 43.17263 56.23021 49.70142
# Shear Modulus (GPa) = 22.58172 26.71621 24.64896
#
# Velocity S-wave (km/s) = 3.35458 3.64878 3.50477
# Velocity P-wave (km/s) = 6.04307 6.76556 6.41449
#
# Compressibility (1/GPa) = 0.02316282
#
# Stress axis : x y z
#
# Youngs Moduli (GPa) = 62.08661 27.44537 70.45396
#
# Poissons Ratio (x) = 0.29214 0.34056
# Poissons Ratio (y) = 0.66088 0.44445
# Poissons Ratio (z) = 0.30011 0.17314
#
# Static dielectric constant tensor:
#      x y z
#    x 3.982540 0.000000 -0.068330 
#    y 0.000000 3.579900 0.000000 
#    z -0.068330 0.000000 3.612900 
# 
# 
# High freq. dielectric constant tensor:
#      x y z
#    x 1.803920 0.000000 -0.001450 
#    y 0.000000 1.775680 0.000000 
#    z -0.001450 0.000000 1.782500 
# 
# From -- ./inp_files/38301.got.cif
#   From: 2010.06.25/outbox.cif.g09.slc.cpg/sg11_20_cif.got.tgz:38301.got - 2010.06.27 23:14:04.
