data_PCOD8075034
_publ_section_title
;
Structure prediction by ZEFSAII (Michael W. Deem and Ramdas Pophale) SiO2 
 PCOD8075034
Probable space group: P 21/M
;
_chemical_formula_sum "Si O2"
_cell_formula_units_Z 32
_cell_length_a 11.513430
_cell_length_b 10.193233
_cell_length_c 13.993590
_cell_angle_alpha 90.000000
_cell_angle_beta 84.488140
_cell_angle_gamma 90.000000
_cell_volume 1634.681448
_symmetry_space_group_name_H-M "P 21/M"
_symmetry_group_IT_number 11
_symmetry_cell_setting 'monoclinic'
loop_
_space_group_symop_operation_xyz
x,y,z
-x,1/2+y,-z
-x,-y,-z
x,1/2-y,z
loop_
_atom_site_type_symbol
_atom_site_label
_atom_site_fract_x
_atom_site_fract_y
_atom_site_fract_z
Si Si1 0.688454 0.977378 0.444970
Si Si2 0.071368 0.098260 0.253218
Si Si3 0.191118 0.901665 0.735772
Si Si4 0.290572 0.104000 0.877550
Si Si5 0.542635 0.396049 0.623479
Si Si6 0.441866 0.599479 0.162624
Si Si7 0.738419 0.597112 0.907203
Si Si8 0.905330 0.604749 0.537583
O O1 0.595351 0.895446 0.390770
O O2 0.793634 0.890249 0.477454
O O3 0.743861 0.088034 0.371758
O O4 0.620834 0.029889 0.541685
O O5 0.057686 0.250000 0.233534
O O6 0.153243 0.040374 0.163531
O O7 0.131956 0.070181 0.350806
O O8 0.940203 0.040719 0.262365
O O9 0.196142 0.750000 0.767518
O O10 0.253777 0.990823 0.808688
O O11 0.260702 0.250000 0.838734
O O12 0.427586 0.094846 0.887384
O O13 0.226804 0.084066 0.984445
O O14 0.589361 0.250000 0.619133
O O15 0.560155 0.453582 0.727948
O O16 0.394499 0.750000 0.158569
O O17 0.369724 0.497562 0.105427
O O18 0.708903 0.750000 0.884117
O O19 0.963039 0.750000 0.530626
O O20 0.000000 0.500000 0.500000
#
# Coordination Sequence:
#
# PCOD8075034 Si02
#       8
#     4   4   4   4   4   4   4   4
#     4  11  21  36  58  85 115 155 198 231 282 346
#     4   9  20  39  58  84 118 150 187 239 290 330
#     4  11  22  38  60  83 115 154 194 238 283 340
#     4  10  22  39  60  86 115 149 190 238 292 342
#     4  10  21  36  56  84 120 153 186 237 291 339
#     4  10  20  37  58  84 120 151 181 236 293 337
#     4  10  21  39  62  85 113 150 192 237 285 346
#     4  11  22  37  60  86 117 157 196 236 281 338
#
# _framework density 19.575679000000001
#
# number of rings (size 3 to 8) (size 9 to 14) (size 15 to 20)
#    0.000    1.750    2.500    1.875    0.000    2.500 
#    0.000    1.875    0.000    0.000    0.000    0.000 
#    0.000    0.000    0.000    0.000    0.000    0.000 
#
# Total GULP energy -396646.754209 kJ/mol
# GULP energy per Si atom -12395.211069 kJ/mol
# Density = 1.953112 g / cm^3
# Si number density = 19.575679 Si / 1000 Ang^3
#
#
#
# Elastic Constant Matrix: (Units=GPa)
#
#
# Indices 1 2 3 4 5 6 
#
# 1 71.4994 32.1402 23.3113 0.0000 -1.4713 0.0000
# 2 32.1402 88.4163 40.8834 0.0000 2.6735 0.0000
# 3 23.3113 40.8834 95.6401 0.0000 -11.2318 0.0000
# 4 0.0000 0.0000 0.0000 24.1786 0.0000 2.1777
# 5 -1.4713 2.6735 -11.2318 0.0000 31.9454 0.0000
# 6 0.0000 0.0000 0.0000 2.1777 0.0000 24.2776
#
#
#
# Elastic Compliance Matrix: (Units=1/GPa)
#
#
# Indices 1 2 3 4 5 6 
#
# 1 0.016993 -0.005376 -0.001772 0.000000 0.000609 0.000000
# 2 -0.005376 0.016169 -0.006039 0.000000 -0.003724 0.000000
# 3 -0.001772 -0.006039 0.014101 0.000000 0.005382 0.000000
# 4 0.000000 0.000000 0.000000 0.041696 0.000000 -0.003740
# 5 0.000609 -0.003724 0.005382 0.000000 0.033535 0.000000
# 6 0.000000 0.000000 0.000000 -0.003740 0.000000 0.041526
#
#
# Mechanical properties :
#
#
# Convention : Reuss Voigt Hill
#
# Bulk Modulus (GPa) = 47.87134 49.80287 48.83711
# Shear Modulus (GPa) = 25.33462 26.69503 26.01482
#
# Velocity S-wave (km/s) = 3.60139 3.69681 3.64941
# Velocity P-wave (km/s) = 6.46536 6.61199 6.53908
#
# Compressibility (1/GPa) = 0.02088932
#
# Stress axis : x y z
#
# Youngs Moduli (GPa) = 58.84729 61.84511 70.91540
#
# Poissons Ratio (x) = 0.33249 0.12567
# Poissons Ratio (y) = 0.31637 0.42825
# Poissons Ratio (z) = 0.10429 0.37348
#
# Static dielectric constant tensor:
#      x y z
#    x 3.683880 0.000000 -0.149120 
#    y 0.000000 3.368130 0.000000 
#    z -0.149120 0.000000 3.727400 
# 
# 
# High freq. dielectric constant tensor:
#      x y z
#    x 1.756650 0.000000 -0.009310 
#    y 0.000000 1.747140 0.000000 
#    z -0.009310 0.000000 1.775580 
# 
# From -- ./inp_files/49327.got.cif
#   From: 2010.06.25/outbox.cif.g09.slc.cpg/sg11_25_cif.got.tgz:49327.got - 2010.06.27 23:14:04.
