data_PCOD8075864
_publ_section_title
;
Structure prediction by ZEFSAII (Michael W. Deem and Ramdas Pophale) SiO2 
 PCOD8075864
Probable space group: P 21/M
;
_chemical_formula_sum "Si O2"
_cell_formula_units_Z 28
_cell_length_a 9.463783
_cell_length_b 8.894308
_cell_length_c 26.084805
_cell_angle_alpha 90.000000
_cell_angle_beta 39.659098
_cell_angle_gamma 90.000000
_cell_volume 1401.308813
_symmetry_space_group_name_H-M "P 21/M"
_symmetry_group_IT_number 11
_symmetry_cell_setting 'monoclinic'
loop_
_space_group_symop_operation_xyz
x,y,z
-x,1/2+y,-z
-x,-y,-z
x,1/2-y,z
loop_
_atom_site_type_symbol
_atom_site_label
_atom_site_fract_x
_atom_site_fract_y
_atom_site_fract_z
Si Si1 0.277164 0.581313 0.183030
Si Si2 0.715250 0.575113 0.417274
Si Si3 0.816514 0.922100 0.272108
Si Si4 0.605722 0.424627 0.234946
Si Si5 0.647624 0.577847 0.000510
Si Si6 0.055175 0.071986 0.930309
Si Si7 0.152918 0.077896 0.316616
O O1 0.236808 0.750000 0.216748
O O2 0.517888 0.570895 0.090585
O O3 0.266507 0.460018 0.230657
O O4 0.082015 0.550325 0.195857
O O5 0.500000 0.500000 0.500000
O O6 0.695009 0.750000 0.432179
O O7 0.734096 0.534510 0.352021
O O8 0.932752 0.519483 0.387345
O O9 0.758598 0.750000 0.274719
O O10 0.694168 0.026815 0.265622
O O11 0.661191 0.250000 0.210620
O O12 0.712383 0.518633 0.158286
O O13 0.340029 0.452426 0.307641
O O14 0.700752 0.750000 0.970669
O O15 0.500000 0.500000 0.000000
O O16 0.871197 0.482700 0.941392
O O17 0.055765 0.250000 0.935983
O O18 0.000000 0.000000 0.000000
O O19 0.078238 0.250000 0.337092
#
# Coordination Sequence:
#
# PCOD8075864 Si02
#       7
#     4   4   4   4   4   4   4
#     4   9  19  35  54  77 105 141 187 233 280 335
#     4  10  21  39  64  91 118 147 183 224 272 332
#     4   9  19  36  58  85 115 148 185 229 281 336
#     4  11  23  38  57  84 115 149 193 239 284 341
#     4  11  22  36  55  80 110 146 190 241 294 345
#     4  12  25  40  57  79 112 154 199 248 299 349
#     4  10  21  36  57  84 112 143 182 226 273 330
#
# _framework density 19.981321000000001
#
# number of rings (size 3 to 8) (size 9 to 14) (size 15 to 20)
#    0.000    1.714    0.000    5.571    0.000    9.714 
#    0.000    0.714    0.000    0.000    0.000    0.000 
#    0.000    0.000    0.000    0.000    0.000    0.000 
#
# Total GULP energy -347246.178635 kJ/mol
# GULP energy per Si atom -12401.649237 kJ/mol
# Density = 1.993584 g / cm^3
# Si number density = 19.981321 Si / 1000 Ang^3
#
#
#
# Elastic Constant Matrix: (Units=GPa)
#
#
# Indices 1 2 3 4 5 6 
#
# 1 87.0789 44.7184 18.4635 0.0000 -15.1692 0.0000
# 2 44.7184 128.6336 41.8492 0.0000 -10.6108 0.0000
# 3 18.4635 41.8492 79.8976 0.0000 -18.8431 0.0000
# 4 0.0000 0.0000 0.0000 34.1591 0.0000 -0.1137
# 5 -15.1692 -10.6108 -18.8431 0.0000 25.8416 0.0000
# 6 0.0000 0.0000 0.0000 -0.1137 0.0000 37.7541
#
#
#
# Elastic Compliance Matrix: (Units=1/GPa)
#
#
# Indices 1 2 3 4 5 6 
#
# 1 0.015134 -0.004918 0.000843 0.000000 0.007479 0.000000
# 2 -0.004918 0.010972 -0.005107 0.000000 -0.002106 0.000000
# 3 0.000843 -0.005107 0.017654 0.000000 0.011271 0.000000
# 4 0.000000 0.000000 0.000000 0.029275 0.000000 0.000088
# 5 0.007479 -0.002106 0.011271 0.000000 0.050441 0.000000
# 6 0.000000 0.000000 0.000000 0.000088 0.000000 0.026487
#
#
# Mechanical properties :
#
#
# Convention : Reuss Voigt Hill
#
# Bulk Modulus (GPa) = 39.37853 56.18582 47.78218
# Shear Modulus (GPa) = 28.28166 32.25624 30.26895
#
# Velocity S-wave (km/s) = 3.76627 4.02222 3.89635
# Velocity P-wave (km/s) = 6.21800 7.05345 6.64886
#
# Compressibility (1/GPa) = 0.02539455
#
# Stress axis : x y z
#
# Youngs Moduli (GPa) = 66.07766 91.14474 56.64345
#
# Poissons Ratio (x) = 0.44828 -0.04773
# Poissons Ratio (y) = 0.32499 0.28927
# Poissons Ratio (z) = -0.05568 0.46546
#
# Static dielectric constant tensor:
#      x y z
#    x 3.642890 0.000000 -0.226020 
#    y 0.000000 3.463570 0.000000 
#    z -0.226020 0.000000 3.625630 
# 
# 
# High freq. dielectric constant tensor:
#      x y z
#    x 1.783560 0.000000 -0.017800 
#    y 0.000000 1.788880 0.000000 
#    z -0.017800 0.000000 1.764370 
# 
# From -- ./inp_files/28341.got.cif
#   From: 2010.06.25/outbox.cif.g09.slc.cpg/sg11_15_cif.got.tgz:28341.got - 2010.06.27 23:14:04.
