data_PCOD8075597
_publ_section_title
;
Structure prediction by ZEFSAII (Michael W. Deem and Ramdas Pophale) SiO2 
 PCOD8075597
Probable space group: P 21/M
;
_chemical_formula_sum "Si O2"
_cell_formula_units_Z 28
_cell_length_a 14.515836
_cell_length_b 11.559767
_cell_length_c 9.375495
_cell_angle_alpha 90.000000
_cell_angle_beta 118.175734
_cell_angle_gamma 90.000000
_cell_volume 1386.785797
_symmetry_space_group_name_H-M "P 21/M"
_symmetry_group_IT_number 11
_symmetry_cell_setting 'monoclinic'
loop_
_space_group_symop_operation_xyz
x,y,z
-x,1/2+y,-z
-x,-y,-z
x,1/2-y,z
loop_
_atom_site_type_symbol
_atom_site_label
_atom_site_fract_x
_atom_site_fract_y
_atom_site_fract_z
Si Si1 0.726558 0.118690 0.934281
Si Si2 0.282502 0.380928 0.609018
Si Si3 0.497205 0.973198 0.163013
Si Si4 0.044633 0.623779 0.366960
Si Si5 0.144368 0.970553 0.712614
Si Si6 0.537259 0.118489 0.443173
Si Si7 0.237503 0.550021 0.339123
O O1 0.741599 0.250000 0.893932
O O2 0.605224 0.098499 0.874670
O O3 0.764568 0.034348 0.833932
O O4 0.793215 0.100223 0.124343
O O5 0.247241 0.250000 0.585753
O O6 0.406073 0.393347 0.720074
O O7 0.223079 0.440899 0.695786
O O8 0.247395 0.428185 0.428549
O O9 0.502631 0.094671 0.254341
O O10 0.500000 0.000000 0.000000
O O11 0.994398 0.750000 0.316931
O O12 0.099340 0.615448 0.561302
O O13 0.130212 0.610151 0.306166
O O14 0.951755 0.533007 0.279240
O O15 0.494921 0.250000 0.456065
O O16 0.662359 0.127895 0.545200
O O17 0.500000 0.000000 0.500000
#
# Coordination Sequence:
#
# PCOD8075597 Si02
#       7
#     4   4   4   4   4   4   4
#     4  12  23  40  62  90 127 163 203 258 314 367
#     4  10  21  40  62  88 127 167 206 255 306 363
#     4  11  23  41  58  91 127 164 208 254 307 369
#     4  10  20  40  64  85 117 159 201 254 308 365
#     4  10  22  38  62  93 118 153 210 253 308 373
#     4  11  23  40  64  93 128 169 212 252 306 375
#     4  10  23  40  61  91 123 162 212 246 303 373
#
# _framework density 20.190572
#
# number of rings (size 3 to 8) (size 9 to 14) (size 15 to 20)
#    0.000    1.429    2.857    2.571    0.000    4.000 
#    0.000    2.143    0.000    0.000    0.000    0.000 
#    0.000    0.000    0.000    0.000    0.000    0.000 
#
# Total GULP energy -347050.692052 kJ/mol
# GULP energy per Si atom -12394.667573 kJ/mol
# Density = 2.014462 g / cm^3
# Si number density = 20.190572 Si / 1000 Ang^3
#
#
#
# Elastic Constant Matrix: (Units=GPa)
#
#
# Indices 1 2 3 4 5 6 
#
# 1 126.3049 28.3762 28.1732 0.0000 -4.2746 0.0000
# 2 28.3762 105.5682 25.7500 0.0000 -8.9129 0.0000
# 3 28.1732 25.7500 84.8420 0.0000 -14.1467 0.0000
# 4 0.0000 0.0000 0.0000 17.1945 0.0000 -0.9108
# 5 -4.2746 -8.9129 -14.1467 0.0000 38.6322 0.0000
# 6 0.0000 0.0000 0.0000 -0.9108 0.0000 -7.8121
#
#
#
# Elastic Compliance Matrix: (Units=1/GPa)
#
#
# Indices 1 2 3 4 5 6 
#
# 1 0.008859 -0.001813 -0.002447 0.000000 -0.000334 0.000000
# 2 -0.001813 0.010663 -0.002404 0.000000 0.001379 0.000000
# 3 -0.002447 -0.002404 0.014049 0.000000 0.004319 0.000000
# 4 0.000000 0.000000 0.000000 0.057801 0.000000 -0.006739
# 5 -0.000334 0.001379 0.004319 0.000000 0.027748 0.000000
# 6 0.000000 0.000000 0.000000 -0.006739 0.000000 -0.127222
#
#
# Mechanical properties :
#
#
# Convention : Reuss Voigt Hill
#
# Bulk Modulus (GPa) = 49.40125 53.47934 51.44029
# Shear Modulus (GPa) = 417.53866 25.23063 221.38464
#
# Velocity S-wave (km/s) = 14.39610 3.53884 10.48263
# Velocity P-wave (km/s) = 17.34506 6.57591 13.11666
#
# Compressibility (1/GPa) = 0.02024240
#
# Stress axis : x y z
#
# Youngs Moduli (GPa) = 112.87738 93.78539 71.17814
#
# Poissons Ratio (x) = 0.16999 0.17420
# Poissons Ratio (y) = 0.20459 0.17114
# Poissons Ratio (z) = 0.27626 0.22549
#
# Static dielectric constant tensor:
#      x y z
#    x 3.715110 0.000000 0.051700 
#    y 0.000000 4.034910 0.000000 
#    z 0.051700 0.000000 3.610850 
# 
# 
# High freq. dielectric constant tensor:
#      x y z
#    x 1.799080 0.000000 -0.004710 
#    y 0.000000 1.777340 0.000000 
#    z -0.004710 0.000000 1.783750 
# 
# From -- ./inp_files/21430.got.cif
#   From: 2010.06.25/outbox.cif.g09.slc.cpg/sg11_11_cif.got.tgz:21430.got - 2010.06.27 23:14:04.
