data_PCOD8075076
_publ_section_title
;
Structure prediction by ZEFSAII (Michael W. Deem and Ramdas Pophale) SiO2 
 PCOD8075076
Probable space group: P 21/M
;
_chemical_formula_sum "Si O2"
_cell_formula_units_Z 32
_cell_length_a 27.619096
_cell_length_b 8.825071
_cell_length_c 21.463255
_cell_angle_alpha 90.000000
_cell_angle_beta 161.221659
_cell_angle_gamma 90.000000
_cell_volume 1684.049213
_symmetry_space_group_name_H-M "P 21/M"
_symmetry_group_IT_number 11
_symmetry_cell_setting 'monoclinic'
loop_
_space_group_symop_operation_xyz
x,y,z
-x,1/2+y,-z
-x,-y,-z
x,1/2-y,z
loop_
_atom_site_type_symbol
_atom_site_label
_atom_site_fract_x
_atom_site_fract_y
_atom_site_fract_z
Si Si1 0.096215 0.426141 0.806397
Si Si2 0.138226 0.926299 0.297092
Si Si3 0.303848 0.424848 0.387761
Si Si4 0.652418 0.075176 0.814670
Si Si5 0.653344 0.430325 0.210814
Si Si6 0.211127 0.426621 0.137248
Si Si7 0.948542 0.424383 0.500248
Si Si8 0.191156 0.428546 0.486617
O O1 0.071117 0.250000 0.792225
O O2 0.074628 0.454810 0.706527
O O3 0.976746 0.521133 0.700342
O O4 0.261333 0.479045 0.027404
O O5 0.165025 0.750000 0.342140
O O6 0.206944 0.970940 0.314803
O O7 0.221549 0.021107 0.452740
O O8 0.962942 0.967063 0.082701
O O9 0.257958 0.250000 0.341378
O O10 0.477839 0.452069 0.614268
O O11 0.266953 0.477397 0.273004
O O12 0.696606 0.250000 0.875503
O O13 0.693264 0.021590 0.795399
O O14 0.643265 0.250000 0.200843
O O15 0.787750 0.485812 0.328881
O O16 0.686163 0.490908 0.320000
O O17 0.500000 0.500000 0.000000
O O18 0.241995 0.250000 0.163117
O O19 0.931460 0.250000 0.464226
O O20 0.000000 0.500000 0.500000
O O21 0.209526 0.250000 0.515784
#
# Coordination Sequence:
#
# PCOD8075076 Si02
#       8
#     4   4   4   4   4   4   4   4
#     4  10  20  37  59  84 115 151 194 238 282 342
#     4  11  22  37  59  86 114 152 195 238 292 348
#     4  10  23  40  55  82 119 153 192 241 294 346
#     4  11  22  36  58  86 114 150 195 239 288 345
#     4  10  21  39  61  89 121 155 194 238 284 341
#     4  10  21  38  61  83 112 151 193 242 291 348
#     4   9  20  37  59  86 116 149 188 234 282 335
#     4  11  21  36  61  88 115 152 194 241 288 339
#
# _framework density 19.001821
#
# number of rings (size 3 to 8) (size 9 to 14) (size 15 to 20)
#    0.000    1.750    1.250    4.125    0.000    5.000 
#    2.250    0.000    0.000    0.000    0.000    0.000 
#    0.000    0.000    0.000    0.000    0.000    0.000 
#
# Total GULP energy -396931.390489 kJ/mol
# GULP energy per Si atom -12404.105953 kJ/mol
# Density = 1.895857 g / cm^3
# Si number density = 19.001821 Si / 1000 Ang^3
#
#
#
# Elastic Constant Matrix: (Units=GPa)
#
#
# Indices 1 2 3 4 5 6 
#
# 1 75.3795 29.7584 13.1725 0.0000 -15.8147 0.0000
# 2 29.7584 81.1411 31.4709 0.0000 -5.7370 0.0000
# 3 13.1725 31.4709 71.5405 0.0000 -26.3690 0.0000
# 4 0.0000 0.0000 0.0000 31.3289 0.0000 -4.1209
# 5 -15.8147 -5.7370 -26.3690 0.0000 27.9093 0.0000
# 6 0.0000 0.0000 0.0000 -4.1209 0.0000 36.2608
#
#
#
# Elastic Compliance Matrix: (Units=1/GPa)
#
#
# Indices 1 2 3 4 5 6 
#
# 1 0.018251 -0.007672 0.004979 0.000000 0.013469 0.000000
# 2 -0.007672 0.018514 -0.010635 0.000000 -0.010590 0.000000
# 3 0.004979 -0.010635 0.027578 0.000000 0.026691 0.000000
# 4 0.000000 0.000000 0.000000 0.032404 0.000000 0.003683
# 5 0.013469 -0.010590 0.026691 0.000000 0.066504 0.000000
# 6 0.000000 0.000000 0.000000 0.003683 0.000000 0.027996
#
#
# Mechanical properties :
#
#
# Convention : Reuss Voigt Hill
#
# Bulk Modulus (GPa) = 26.53495 41.87385 34.20440
# Shear Modulus (GPa) = 21.69527 29.34376 25.51951
#
# Velocity S-wave (km/s) = 3.38264 3.93397 3.66868
# Velocity P-wave (km/s) = 5.40843 6.53601 5.99877
#
# Compressibility (1/GPa) = 0.03768614
#
# Stress axis : x y z
#
# Youngs Moduli (GPa) = 54.79216 54.01279 36.26121
#
# Poissons Ratio (x) = 0.41440 -0.18055
# Poissons Ratio (y) = 0.42038 0.38564
# Poissons Ratio (z) = -0.27282 0.57443
#
# Static dielectric constant tensor:
#      x y z
#    x 3.509420 0.000000 -0.130080 
#    y 0.000000 3.482310 0.000000 
#    z -0.130080 0.000000 3.579940 
# 
# 
# High freq. dielectric constant tensor:
#      x y z
#    x 1.736680 0.000000 -0.014510 
#    y 0.000000 1.744740 0.000000 
#    z -0.014510 0.000000 1.742000 
# 
# From -- ./inp_files/66991.got.cif
#   From: 2010.06.25/outbox.cif.g09.slc.cpg/sg11_34_cif.got.tgz:66991.got - 2010.06.27 23:14:04.
