data_PCOD8075759
_publ_section_title
;
Structure prediction by ZEFSAII (Michael W. Deem and Ramdas Pophale) SiO2 
 PCOD8075759
Probable space group: P 21/M
;
_chemical_formula_sum "Si O2"
_cell_formula_units_Z 28
_cell_length_a 15.193642
_cell_length_b 8.851572
_cell_length_c 12.590420
_cell_angle_alpha 90.000000
_cell_angle_beta 73.771438
_cell_angle_gamma 90.000000
_cell_volume 1625.786938
_symmetry_space_group_name_H-M "P 21/M"
_symmetry_group_IT_number 11
_symmetry_cell_setting 'monoclinic'
loop_
_space_group_symop_operation_xyz
x,y,z
-x,1/2+y,-z
-x,-y,-z
x,1/2-y,z
loop_
_atom_site_type_symbol
_atom_site_label
_atom_site_fract_x
_atom_site_fract_y
_atom_site_fract_z
Si Si1 0.888833 0.571237 0.357996
Si Si2 0.399688 0.574020 0.642809
Si Si3 0.786771 0.426753 0.194658
Si Si4 0.079943 0.072747 0.261300
Si Si5 0.601586 0.928178 0.580414
Si Si6 0.092019 0.073527 0.012669
Si Si7 0.787021 0.571349 0.603127
O O1 0.879454 0.750000 0.345871
O O2 0.842801 0.488910 0.274805
O O3 0.841845 0.512132 0.481710
O O4 0.994361 0.524881 0.328124
O O5 0.401846 0.750000 0.613430
O O6 0.321743 0.538839 0.756103
O O7 0.375131 0.487069 0.544265
O O8 0.499792 0.520556 0.652734
O O9 0.807205 0.250000 0.179182
O O10 0.819429 0.506560 0.076153
O O11 0.058564 0.250000 0.284822
O O12 0.104983 0.036610 0.131777
O O13 0.165416 0.016383 0.304372
O O14 0.607008 0.750000 0.571463
O O15 0.681191 0.987930 0.633343
O O16 0.085749 0.250000 0.992196
O O17 0.000000 0.000000 0.000000
O O18 0.788324 0.750000 0.600029
#
# Coordination Sequence:
#
# PCOD8075759 Si02
#       7
#     4   4   4   4   4   4   4
#     4  11  20  31  50  76 102 132 166 201 246 300
#     4   9  18  30  48  75 102 130 163 201 250 295
#     4  11  21  33  50  73 104 135 166 206 249 296
#     4  10  21  36  51  70  99 134 168 206 250 298
#     4   9  16  30  51  74 101 130 161 201 246 301
#     4  11  22  35  53  73  97 131 172 213 253 292
#     4   9  18  32  51  75 102 132 165 200 247 304
#
# _framework density 17.222429000000002
#
# number of rings (size 3 to 8) (size 9 to 14) (size 15 to 20)
#    0.000    2.000    2.857    1.714    0.000    1.143 
#    0.000    1.429    0.000    0.857    0.000    0.000 
#    0.000    0.000    0.000    0.000    0.000    0.286 
#
# Total GULP energy -347123.788721 kJ/mol
# GULP energy per Si atom -12397.278169 kJ/mol
# Density = 1.718323 g / cm^3
# Si number density = 17.222429 Si / 1000 Ang^3
#
#
#
# Elastic Constant Matrix: (Units=GPa)
#
#
# Indices 1 2 3 4 5 6 
#
# 1 151.8802 33.5447 74.2407 0.0000 -4.9679 0.0000
# 2 33.5447 43.6375 28.9685 0.0000 -3.0427 0.0000
# 3 74.2407 28.9685 100.7823 0.0000 -1.5952 0.0000
# 4 0.0000 0.0000 0.0000 22.5033 0.0000 -3.4125
# 5 -4.9679 -3.0427 -1.5952 0.0000 26.8444 0.0000
# 6 0.0000 0.0000 0.0000 -3.4125 0.0000 17.1677
#
#
#
# Elastic Compliance Matrix: (Units=1/GPa)
#
#
# Indices 1 2 3 4 5 6 
#
# 1 0.010793 -0.003644 -0.006884 0.000000 0.001175 0.000000
# 2 -0.003644 0.029752 -0.005830 0.000000 0.002351 0.000000
# 3 -0.006884 -0.005830 0.016654 0.000000 -0.000945 0.000000
# 4 0.000000 0.000000 0.000000 0.045819 0.000000 0.009108
# 5 0.001175 0.002351 -0.000945 0.000000 0.037680 0.000000
# 6 0.000000 0.000000 0.000000 0.009108 0.000000 0.060059
#
#
# Mechanical properties :
#
#
# Convention : Reuss Voigt Hill
#
# Bulk Modulus (GPa) = 40.84689 63.31198 52.07943
# Shear Modulus (GPa) = 20.69248 23.93948 22.31598
#
# Velocity S-wave (km/s) = 3.47000 3.73234 3.60356
# Velocity P-wave (km/s) = 6.31057 7.44412 6.90066
#
# Compressibility (1/GPa) = 0.02448167
#
# Stress axis : x y z
#
# Youngs Moduli (GPa) = 92.65679 33.61159 60.04465
#
# Poissons Ratio (x) = 0.12249 0.41335
# Poissons Ratio (y) = 0.33768 0.35005
# Poissons Ratio (z) = 0.63786 0.19595
#
# Static dielectric constant tensor:
#      x y z
#    x 3.868610 0.000000 -0.137200 
#    y 0.000000 3.170900 0.000000 
#    z -0.137200 0.000000 3.262620 
# 
# 
# High freq. dielectric constant tensor:
#      x y z
#    x 1.671390 0.000000 -0.010240 
#    y 0.000000 1.659020 0.000000 
#    z -0.010240 0.000000 1.647000 
# 
# From -- ./inp_files/37222.got.cif
#   From: 2010.06.25/outbox.cif.g09.slc.cpg/sg11_19_cif.got.tgz:37222.got - 2010.06.27 23:14:04.
