data_PCOD8075125
_publ_section_title
;
Structure prediction by ZEFSAII (Michael W. Deem and Ramdas Pophale) SiO2 
 PCOD8075125
Probable space group: P 21/M
;
_chemical_formula_sum "Si O2"
_cell_formula_units_Z 24
_cell_length_a 14.827475
_cell_length_b 9.361555
_cell_length_c 9.314173
_cell_angle_alpha 90.000000
_cell_angle_beta 80.476596
_cell_angle_gamma 90.000000
_cell_volume 1275.065406
_symmetry_space_group_name_H-M "P 21/M"
_symmetry_group_IT_number 11
_symmetry_cell_setting 'monoclinic'
loop_
_space_group_symop_operation_xyz
x,y,z
-x,1/2+y,-z
-x,-y,-z
x,1/2-y,z
loop_
_atom_site_type_symbol
_atom_site_label
_atom_site_fract_x
_atom_site_fract_y
_atom_site_fract_z
Si Si1 0.258627 0.416622 0.016856
Si Si2 0.549294 0.908765 0.604872
Si Si3 0.742967 0.918935 0.656946
Si Si4 0.565685 0.089875 0.081977
Si Si5 0.079863 0.419294 0.560898
Si Si6 0.924455 0.584722 0.106090
O O1 0.286649 0.250000 0.007201
O O2 0.238842 0.469448 0.184553
O O3 0.338570 0.509721 0.927283
O O4 0.171988 0.447391 0.941150
O O5 0.567719 0.750000 0.538681
O O6 0.646035 0.980616 0.625966
O O7 0.480010 0.900156 0.752953
O O8 0.500000 0.000000 0.500000
O O9 0.736641 0.750000 0.656876
O O10 0.824636 0.972208 0.533220
O O11 0.579940 0.250000 0.015844
O O12 0.500000 0.000000 0.000000
O O13 0.067105 0.250000 0.544432
O O14 0.079124 0.464678 0.727555
O O15 0.000000 0.500000 0.500000
O O16 0.950153 0.750000 0.088601
O O17 0.000000 0.500000 0.000000
#
# Coordination Sequence:
#
# PCOD8075125 Si02
#       6
#     4   4   4   4   4   4
#     4  10  20  37  60  85 115 153 193 237 289 341
#     4  10  22  38  57  83 115 152 192 236 280 335
#     4   9  18  36  58  80 112 150 188 230 281 338
#     4  11  22  38  59  86 118 153 194 238 283 338
#     4  10  21  38  60  86 114 149 190 232 283 342
#     4  10  22  38  61  89 116 149 191 237 289 346
#
# _framework density 18.822562999999999
#
# number of rings (size 3 to 8) (size 9 to 14) (size 15 to 20)
#    0.000    2.000    1.667    1.500    2.333    4.000 
#    0.000    1.667    0.000    0.000    0.000    0.000 
#    0.000    0.000    0.000    0.000    0.000    0.000 
#
# Total GULP energy -297610.779858 kJ/mol
# GULP energy per Si atom -12400.449161 kJ/mol
# Density = 1.877972 g / cm^3
# Si number density = 18.822563 Si / 1000 Ang^3
#
#
#
# Elastic Constant Matrix: (Units=GPa)
#
#
# Indices 1 2 3 4 5 6 
#
# 1 159.3814 65.2702 91.1842 0.0000 0.4858 0.0000
# 2 65.2702 75.3801 45.2177 0.0000 4.1587 0.0000
# 3 91.1842 45.2177 131.8437 0.0000 9.9670 0.0000
# 4 0.0000 0.0000 0.0000 29.8624 0.0000 -0.3681
# 5 0.4858 4.1587 9.9670 0.0000 43.6395 0.0000
# 6 0.0000 0.0000 0.0000 -0.3681 0.0000 36.5024
#
#
#
# Elastic Compliance Matrix: (Units=1/GPa)
#
#
# Indices 1 2 3 4 5 6 
#
# 1 0.013171 -0.007505 -0.006694 0.000000 0.002097 0.000000
# 2 -0.007505 0.020982 -0.001894 0.000000 -0.001484 0.000000
# 3 -0.006694 -0.001894 0.013070 0.000000 -0.002730 0.000000
# 4 0.000000 0.000000 0.000000 0.033491 0.000000 0.000338
# 5 0.002097 -0.001484 -0.002730 0.000000 0.023657 0.000000
# 6 0.000000 0.000000 0.000000 0.000338 0.000000 0.027399
#
#
# Mechanical properties :
#
#
# Convention : Reuss Voigt Hill
#
# Bulk Modulus (GPa) = 66.49505 85.54993 76.02249
# Shear Modulus (GPa) = 29.59168 32.99642 31.29405
#
# Velocity S-wave (km/s) = 3.96932 4.19146 4.08190
# Velocity P-wave (km/s) = 7.51075 8.30505 7.91786
#
# Compressibility (1/GPa) = 0.01503871
#
# Stress axis : x y z
#
# Youngs Moduli (GPa) = 75.92552 47.65973 76.51099
#
# Poissons Ratio (x) = 0.35767 0.51214
# Poissons Ratio (y) = 0.56980 0.14488
# Poissons Ratio (z) = 0.50823 0.09025
#
# Static dielectric constant tensor:
#      x y z
#    x 3.666820 0.000000 -0.049440 
#    y 0.000000 3.444170 0.000000 
#    z -0.049440 0.000000 3.501810 
# 
# 
# High freq. dielectric constant tensor:
#      x y z
#    x 1.745480 0.000000 -0.000040 
#    y 0.000000 1.711930 0.000000 
#    z -0.000040 0.000000 1.740490 
# 
# From -- ./inp_files/20318.got.cif
#   From: 2010.06.25/outbox.cif.g09.slc.cpg/sg11_11_cif.got.tgz:20318.got - 2010.06.27 23:14:04.
