data_PCOD8075905
_publ_section_title
;
Structure prediction by ZEFSAII (Michael W. Deem and Ramdas Pophale) SiO2 
 PCOD8075905
Probable space group: P 21/M
;
_chemical_formula_sum "Si O2"
_cell_formula_units_Z 28
_cell_length_a 7.661419
_cell_length_b 14.131023
_cell_length_c 13.230535
_cell_angle_alpha 90.000000
_cell_angle_beta 115.285552
_cell_angle_gamma 90.000000
_cell_volume 1295.149972
_symmetry_space_group_name_H-M "P 21/M"
_symmetry_group_IT_number 11
_symmetry_cell_setting 'monoclinic'
loop_
_space_group_symop_operation_xyz
x,y,z
-x,1/2+y,-z
-x,-y,-z
x,1/2-y,z
loop_
_atom_site_type_symbol
_atom_site_label
_atom_site_fract_x
_atom_site_fract_y
_atom_site_fract_z
Si Si1 0.443435 0.642795 0.238879
Si Si2 0.284054 0.643567 0.696472
Si Si3 0.069942 0.523286 0.127998
Si Si4 0.701453 0.646268 0.726535
Si Si5 0.185373 0.453290 0.759471
Si Si6 0.970099 0.859257 0.461707
Si Si7 0.610497 0.591461 0.487952
O O1 0.441273 0.750000 0.201633
O O2 0.237671 0.599609 0.161428
O O3 0.606093 0.590155 0.212860
O O4 0.478478 0.638376 0.368424
O O5 0.254182 0.750000 0.732978
O O6 0.507089 0.618055 0.737445
O O7 0.191209 0.567289 0.748089
O O8 0.182589 0.636167 0.561511
O O9 0.139380 0.430608 0.206286
O O10 0.886730 0.565575 0.144292
O O11 0.000000 0.500000 0.000000
O O12 0.773625 0.750000 0.779122
O O13 0.653824 0.655661 0.595794
O O14 0.023680 0.403757 0.648451
O O15 0.894301 0.750000 0.439286
O O16 0.820155 0.925264 0.487944
O O17 0.500000 0.500000 0.500000
#
# Coordination Sequence:
#
# PCOD8075905 Si02
#       7
#     4   4   4   4   4   4   4
#     4  11  25  46  69 103 140 175 223 277 339 407
#     4  10  21  36  62  99 136 173 216 266 334 411
#     4  12  28  47  71  96 129 180 235 285 333 390
#     4  11  22  41  65  99 138 173 216 274 337 401
#     4  11  22  42  69  92 133 176 221 274 341 395
#     4  10  21  36  58  97 137 175 217 262 328 414
#     4  11  19  35  64  98 136 173 210 265 338 402
#
# _framework density 21.619118
#
# number of rings (size 3 to 8) (size 9 to 14) (size 15 to 20)
#    0.000    1.143    2.857    4.714    2.000    5.143 
#    0.000    0.000    0.000    0.000    0.000    0.000 
#    0.000    0.000    0.000    0.000    0.000    0.000 
#
# Total GULP energy -347128.071589 kJ/mol
# GULP energy per Si atom -12397.431128 kJ/mol
# Density = 2.156991 g / cm^3
# Si number density = 21.619118 Si / 1000 Ang^3
#
#
#
# Elastic Constant Matrix: (Units=GPa)
#
#
# Indices 1 2 3 4 5 6 
#
# 1 95.5653 54.7224 49.8142 0.0000 -15.1091 0.0000
# 2 54.7224 116.9924 44.8757 0.0000 -6.6905 0.0000
# 3 49.8142 44.8757 101.6241 0.0000 -8.3758 0.0000
# 4 0.0000 0.0000 0.0000 11.2262 0.0000 3.9603
# 5 -15.1091 -6.6905 -8.3758 0.0000 26.5003 0.0000
# 6 0.0000 0.0000 0.0000 3.9603 0.0000 20.3760
#
#
#
# Elastic Compliance Matrix: (Units=1/GPa)
#
#
# Indices 1 2 3 4 5 6 
#
# 1 0.017780 -0.005775 -0.005596 0.000000 0.006911 0.000000
# 2 -0.005775 0.012203 -0.002644 0.000000 -0.001047 0.000000
# 3 -0.005596 -0.002644 0.013792 0.000000 0.000501 0.000000
# 4 0.000000 0.000000 0.000000 0.095635 0.000000 -0.018588
# 5 0.006911 -0.001047 0.000501 0.000000 0.041570 0.000000
# 6 0.000000 0.000000 0.000000 -0.018588 0.000000 0.052690
#
#
# Mechanical properties :
#
#
# Convention : Reuss Voigt Hill
#
# Bulk Modulus (GPa) = 63.51051 68.11184 65.81117
# Shear Modulus (GPa) = 18.73018 22.60514 20.66766
#
# Velocity S-wave (km/s) = 2.94661 3.23710 3.09526
# Velocity P-wave (km/s) = 6.40449 6.74874 6.57887
#
# Compressibility (1/GPa) = 0.01574543
#
# Stress axis : x y z
#
# Youngs Moduli (GPa) = 56.24163 81.94601 72.50501
#
# Poissons Ratio (x) = 0.47324 0.40573
# Poissons Ratio (y) = 0.32480 0.19172
# Poissons Ratio (z) = 0.31472 0.21669
#
# Static dielectric constant tensor:
#      x y z
#    x 3.883100 0.000000 0.041650 
#    y 0.000000 4.104650 0.000000 
#    z 0.041650 0.000000 3.580570 
# 
# 
# High freq. dielectric constant tensor:
#      x y z
#    x 1.856960 0.000000 0.003490 
#    y 0.000000 1.862310 0.000000 
#    z 0.003490 0.000000 1.803750 
# 
# From -- ./inp_files/31959.got.cif
#   From: 2010.06.25/outbox.cif.g09.slc.cpg/sg11_16_cif.got.tgz:31959.got - 2010.06.27 23:14:04.
