data_PCOD8075947
_publ_section_title
;
Structure prediction by ZEFSAII (Michael W. Deem and Ramdas Pophale) SiO2 
 PCOD8075947
Probable space group: P 21/M
;
_chemical_formula_sum "Si O2"
_cell_formula_units_Z 32
_cell_length_a 12.141213
_cell_length_b 8.929255
_cell_length_c 21.845230
_cell_angle_alpha 90.000000
_cell_angle_beta 134.294603
_cell_angle_gamma 90.000000
_cell_volume 1695.120010
_symmetry_space_group_name_H-M "P 21/M"
_symmetry_group_IT_number 11
_symmetry_cell_setting 'monoclinic'
loop_
_space_group_symop_operation_xyz
x,y,z
-x,1/2+y,-z
-x,-y,-z
x,1/2-y,z
loop_
_atom_site_type_symbol
_atom_site_label
_atom_site_fract_x
_atom_site_fract_y
_atom_site_fract_z
Si Si1 0.594438 0.426728 0.591438
Si Si2 0.868936 0.421550 0.281493
Si Si3 0.593801 0.071412 0.379650
Si Si4 0.964018 0.426634 0.891730
Si Si5 0.057803 0.925016 0.253985
Si Si6 0.769402 0.925458 0.916307
Si Si7 0.091487 0.076758 0.481149
Si Si8 0.570793 0.073213 0.231680
O O1 0.500000 0.500000 0.500000
O O2 0.562342 0.250000 0.580131
O O3 0.545746 0.499152 0.636898
O O4 0.774949 0.462511 0.653046
O O5 0.844169 0.250000 0.253670
O O6 0.708223 0.493602 0.243419
O O7 0.922631 0.505897 0.241871
O O8 0.996022 0.439539 0.382593
O O9 0.587513 0.250000 0.382978
O O10 0.582000 0.013428 0.305421
O O11 0.751170 0.010951 0.469790
O O12 0.940879 0.250000 0.883259
O O13 0.957975 0.491032 0.820754
O O14 0.824277 0.495641 0.875705
O O15 0.126915 0.473658 0.985591
O O16 0.028763 0.750000 0.240639
O O17 0.780863 0.750000 0.908173
O O18 0.593110 0.972850 0.861132
O O19 0.122028 0.250000 0.509351
O O20 0.000000 0.000000 0.500000
O O21 0.593881 0.250000 0.243568
#
# Coordination Sequence:
#
# PCOD8075947 Si02
#       8
#     4   4   4   4   4   4   4   4
#     4  11  23  38  54  76 106 141 179 222 271 321
#     4  10  21  37  54  74 104 141 182 222 257 310
#     4  11  21  35  55  79 109 139 175 224 271 319
#     4   9  18  34  55  81 110 136 168 215 266 317
#     4  10  22  38  54  75 108 144 177 217 269 320
#     4   9  17  32  58  83 105 136 172 212 263 321
#     4  11  21  35  54  77 106 142 182 223 266 313
#     4   9  18  34  53  78 107 136 173 217 266 312
#
# _framework density 18.877721000000001
#
# number of rings (size 3 to 8) (size 9 to 14) (size 15 to 20)
#    0.000    2.000    1.250    2.625    0.000    4.500 
#    0.000    1.875    0.000    0.000    0.000    0.000 
#    0.000    0.000    0.000    0.000    0.000    0.000 
#
# Total GULP energy -396839.550357 kJ/mol
# GULP energy per Si atom -12401.235949 kJ/mol
# Density = 1.883475 g / cm^3
# Si number density = 18.877721 Si / 1000 Ang^3
#
#
#
# Elastic Constant Matrix: (Units=GPa)
#
#
# Indices 1 2 3 4 5 6 
#
# 1 144.2016 42.2500 61.1265 0.0000 -2.1451 0.0000
# 2 42.2500 53.4596 32.4230 0.0000 -1.5111 0.0000
# 3 61.1265 32.4230 103.0113 0.0000 -2.5175 0.0000
# 4 0.0000 0.0000 0.0000 21.5033 0.0000 -2.7661
# 5 -2.1451 -1.5111 -2.5175 0.0000 34.7047 0.0000
# 6 0.0000 0.0000 0.0000 -2.7661 0.0000 35.0844
#
#
#
# Elastic Compliance Matrix: (Units=1/GPa)
#
#
# Indices 1 2 3 4 5 6 
#
# 1 0.010451 -0.005558 -0.004450 0.000000 0.000081 0.000000
# 2 -0.005558 0.026083 -0.004901 0.000000 0.000437 0.000000
# 3 -0.004450 -0.004901 0.013904 0.000000 0.000520 0.000000
# 4 0.000000 0.000000 0.000000 0.046981 0.000000 0.003704
# 5 0.000081 0.000437 0.000520 0.000000 0.028876 0.000000
# 6 0.000000 0.000000 0.000000 0.003704 0.000000 0.028795
#
#
# Mechanical properties :
#
#
# Convention : Reuss Voigt Hill
#
# Bulk Modulus (GPa) = 48.49812 63.58572 56.04192
# Shear Modulus (GPa) = 26.07146 29.25003 27.66075
#
# Velocity S-wave (km/s) = 3.72031 3.94057 3.83202
# Velocity P-wave (km/s) = 6.64836 7.37972 7.02356
#
# Compressibility (1/GPa) = 0.02061935
#
# Stress axis : x y z
#
# Youngs Moduli (GPa) = 95.68637 38.33898 71.92402
#
# Poissons Ratio (x) = 0.21310 0.32006
# Poissons Ratio (y) = 0.53185 0.35249
# Poissons Ratio (z) = 0.42581 0.18789
#
# Static dielectric constant tensor:
#      x y z
#    x 3.520330 0.000000 0.110560 
#    y 0.000000 3.353470 0.000000 
#    z 0.110560 0.000000 3.422490 
# 
# 
# High freq. dielectric constant tensor:
#      x y z
#    x 1.739790 0.000000 0.004950 
#    y 0.000000 1.720510 0.000000 
#    z 0.004950 0.000000 1.731920 
# 
# From -- ./inp_files/64460.got.cif
#   From: 2010.06.25/outbox.cif.g09.slc.cpg/sg11_33_cif.got.tgz:64460.got - 2010.06.27 23:14:04.
