data_PCOD8075264
_publ_section_title
;
Structure prediction by ZEFSAII (Michael W. Deem and Ramdas Pophale) SiO2 
 PCOD8075264
Probable space group: P 21/M
;
_chemical_formula_sum "Si O2"
_cell_formula_units_Z 24
_cell_length_a 19.081790
_cell_length_b 8.596703
_cell_length_c 14.573036
_cell_angle_alpha 90.000000
_cell_angle_beta 31.945130
_cell_angle_gamma 90.000000
_cell_volume 1264.865886
_symmetry_space_group_name_H-M "P 21/M"
_symmetry_group_IT_number 11
_symmetry_cell_setting 'monoclinic'
loop_
_space_group_symop_operation_xyz
x,y,z
-x,1/2+y,-z
-x,-y,-z
x,1/2-y,z
loop_
_atom_site_type_symbol
_atom_site_label
_atom_site_fract_x
_atom_site_fract_y
_atom_site_fract_z
Si Si1 0.622671 0.432509 0.918021
Si Si2 0.624435 0.933942 0.308446
Si Si3 0.095955 0.932093 0.969044
Si Si4 0.331254 0.427985 0.946293
Si Si5 0.033862 0.428563 0.228174
Si Si6 0.105666 0.433402 0.452397
O O1 0.638126 0.250000 0.883296
O O2 0.748754 0.524587 0.741610
O O3 0.500000 0.500000 0.000000
O O4 0.604172 0.464682 0.047170
O O5 0.627349 0.750000 0.311935
O O6 0.616284 0.986066 0.210954
O O7 0.500000 0.000000 0.500000
O O8 0.758419 0.995929 0.205457
O O9 0.108225 0.750000 0.942337
O O10 0.034188 0.970438 0.136173
O O11 0.000000 0.000000 0.000000
O O12 0.373338 0.250000 0.917184
O O13 0.172702 0.444836 0.127205
O O14 0.006703 0.250000 0.231771
O O15 0.917608 0.492390 0.421763
O O16 0.088385 0.250000 0.477323
O O17 0.000000 0.500000 0.500000
#
# Coordination Sequence:
#
# PCOD8075264 Si02
#       6
#     4   4   4   4   4   4
#     4  12  25  41  61  86 121 159 199 247 300 355
#     4  10  21  39  63  90 120 155 200 246 296 356
#     4  11  22  39  62  89 123 159 199 247 301 355
#     4   9  19  37  61  86 118 155 196 242 295 355
#     4  10  20  37  62  91 121 155 198 246 296 351
#     4  12  23  38  62  91 121 156 201 246 291 350
#
# _framework density 18.974343999999999
#
# number of rings (size 3 to 8) (size 9 to 14) (size 15 to 20)
#    0.000    1.333    1.667    6.500    0.000    3.333 
#    3.000    0.000    0.000    0.000    0.000    0.000 
#    0.000    0.000    0.000    0.000    0.000    0.000 
#
# Total GULP energy -297706.226286 kJ/mol
# GULP energy per Si atom -12404.426095 kJ/mol
# Density = 1.893116 g / cm^3
# Si number density = 18.974344 Si / 1000 Ang^3
#
#
#
# Elastic Constant Matrix: (Units=GPa)
#
#
# Indices 1 2 3 4 5 6 
#
# 1 120.6118 37.5057 59.3770 0.0000 -6.7560 0.0000
# 2 37.5057 101.3385 31.1063 0.0000 0.0806 0.0000
# 3 59.3770 31.1063 128.1072 0.0000 6.5509 0.0000
# 4 0.0000 0.0000 0.0000 35.6589 0.0000 2.2291
# 5 -6.7560 0.0806 6.5509 0.0000 25.1008 0.0000
# 6 0.0000 0.0000 0.0000 2.2291 0.0000 36.0980
#
#
#
# Elastic Compliance Matrix: (Units=1/GPa)
#
#
# Indices 1 2 3 4 5 6 
#
# 1 0.011930 -0.002864 -0.005067 0.000000 0.004543 0.000000
# 2 -0.002864 0.011361 -0.001409 0.000000 -0.000440 0.000000
# 3 -0.005067 -0.001409 0.010709 0.000000 -0.004154 0.000000
# 4 0.000000 0.000000 0.000000 0.028152 0.000000 -0.001738
# 5 0.004543 -0.000440 -0.004154 0.000000 0.042147 0.000000
# 6 0.000000 0.000000 0.000000 -0.001738 0.000000 0.027810
#
#
# Mechanical properties :
#
#
# Convention : Reuss Voigt Hill
#
# Bulk Modulus (GPa) = 65.26762 67.33727 66.30245
# Shear Modulus (GPa) = 32.07303 34.17612 33.12458
#
# Velocity S-wave (km/s) = 4.11583 4.24863 4.18276
# Velocity P-wave (km/s) = 7.55376 7.72227 7.63848
#
# Compressibility (1/GPa) = 0.01532153
#
# Stress axis : x y z
#
# Youngs Moduli (GPa) = 83.82010 88.02369 93.38170
#
# Poissons Ratio (x) = 0.25209 0.47312
# Poissons Ratio (y) = 0.24005 0.13154
# Poissons Ratio (z) = 0.42468 0.12399
#
# Static dielectric constant tensor:
#      x y z
#    x 3.187010 0.000000 0.588300 
#    y 0.000000 3.595560 0.000000 
#    z 0.588300 0.000000 3.097250 
# 
# 
# High freq. dielectric constant tensor:
#      x y z
#    x 1.736710 0.000000 0.012860 
#    y 0.000000 1.753020 0.000000 
#    z 0.012860 0.000000 1.735430 
# 
# From -- ./inp_files/53139.got.cif
#   From: 2010.06.25/outbox.cif.g09.slc.cpg/sg11_27_cif.got.tgz:53139.got - 2010.06.27 23:14:04.
