data_PCOD8075723
_publ_section_title
;
Structure prediction by ZEFSAII (Michael W. Deem and Ramdas Pophale) SiO2 
 PCOD8075723
Probable space group: P 21/M
;
_chemical_formula_sum "Si O2"
_cell_formula_units_Z 24
_cell_length_a 12.579328
_cell_length_b 9.005643
_cell_length_c 12.043682
_cell_angle_alpha 90.000000
_cell_angle_beta 81.802638
_cell_angle_gamma 90.000000
_cell_volume 1350.427736
_symmetry_space_group_name_H-M "P 21/M"
_symmetry_group_IT_number 11
_symmetry_cell_setting 'monoclinic'
loop_
_space_group_symop_operation_xyz
x,y,z
-x,1/2+y,-z
-x,-y,-z
x,1/2-y,z
loop_
_atom_site_type_symbol
_atom_site_label
_atom_site_fract_x
_atom_site_fract_y
_atom_site_fract_z
Si Si1 0.384121 0.421477 0.402453
Si Si2 0.821440 0.082729 0.940357
Si Si3 0.805658 0.924002 0.730611
Si Si4 0.994814 0.582844 0.241008
Si Si5 0.398537 0.422166 0.655635
Si Si6 0.790108 0.426030 0.193918
O O1 0.414809 0.250000 0.376737
O O2 0.277201 0.467909 0.353104
O O3 0.361891 0.451234 0.534972
O O4 0.480108 0.523727 0.344041
O O5 0.775103 0.250000 0.940484
O O6 0.948941 0.082884 0.889769
O O7 0.760277 0.981747 0.857136
O O8 0.804323 0.017554 0.065441
O O9 0.825119 0.750000 0.734304
O O10 0.920329 0.003590 0.687414
O O11 0.971921 0.750000 0.286031
O O12 0.883380 0.495361 0.255726
O O13 0.390158 0.250000 0.689087
O O14 0.324096 0.517905 0.747046
O O15 0.797814 0.250000 0.201041
#
# Coordination Sequence:
#
# PCOD8075723 Si02
#       6
#     4   4   4   4   4   4
#     4   9  19  38  57  75  99 129 169 211 253 301
#     4   8  18  32  49  75 105 136 166 204 247 296
#     4   9  17  31  54  77  99 132 169 205 248 300
#     4   9  18  32  50  76 106 136 168 203 248 298
#     4  10  21  35  55  78 100 130 167 211 256 297
#     4  11  20  33  51  76 107 135 169 207 249 297
#
# _framework density 17.772147
#
# number of rings (size 3 to 8) (size 9 to 14) (size 15 to 20)
#    1.000    1.667    0.000    2.000    0.000    3.333 
#    0.000    1.667    0.000    0.000    0.000    0.000 
#    0.000    0.000    0.000    0.000    0.000    0.000 
#
# Total GULP energy -297457.166335 kJ/mol
# GULP energy per Si atom -12394.048597 kJ/mol
# Density = 1.773170 g / cm^3
# Si number density = 17.772147 Si / 1000 Ang^3
#
#
#
# Elastic Constant Matrix: (Units=GPa)
#
#
# Indices 1 2 3 4 5 6 
#
# 1 23.1297 16.4310 2.6022 0.0000 8.4898 0.0000
# 2 16.4310 78.1441 11.7973 0.0000 3.8980 0.0000
# 3 2.6022 11.7973 19.9909 0.0000 -3.0221 0.0000
# 4 0.0000 0.0000 0.0000 24.7362 0.0000 -2.2518
# 5 8.4898 3.8980 -3.0221 0.0000 24.9883 0.0000
# 6 0.0000 0.0000 0.0000 -2.2518 0.0000 33.6076
#
#
#
# Elastic Compliance Matrix: (Units=1/GPa)
#
#
# Indices 1 2 3 4 5 6 
#
# 1 0.058088 -0.010674 -0.004068 0.000000 -0.018562 0.000000
# 2 -0.010674 0.016274 -0.008200 0.000000 0.000096 0.000000
# 3 -0.004068 -0.008200 0.056833 0.000000 0.009535 0.000000
# 4 0.000000 0.000000 0.000000 0.040675 0.000000 0.002725
# 5 -0.018562 0.000096 0.009535 0.000000 0.047463 0.000000
# 6 0.000000 0.000000 0.000000 0.002725 0.000000 0.029938
#
#
# Mechanical properties :
#
#
# Convention : Reuss Voigt Hill
#
# Bulk Modulus (GPa) = 11.72187 20.32508 16.02348
# Shear Modulus (GPa) = 15.45152 22.69538 19.07345
#
# Velocity S-wave (km/s) = 2.95180 3.57742 3.27956
# Velocity P-wave (km/s) = 4.26936 5.34090 4.83491
#
# Compressibility (1/GPa) = 0.08531062
#
# Stress axis : x y z
#
# Youngs Moduli (GPa) = 17.21528 61.44634 17.59541
#
# Poissons Ratio (x) = 0.65586 0.07159
# Poissons Ratio (y) = 0.18375 0.14429
# Poissons Ratio (z) = 0.07004 0.50387
#
# Static dielectric constant tensor:
#      x y z
#    x 3.091650 0.000000 0.056210 
#    y 0.000000 3.303390 0.000000 
#    z 0.056210 0.000000 3.099900 
# 
# 
# High freq. dielectric constant tensor:
#      x y z
#    x 1.673790 0.000000 0.003270 
#    y 0.000000 1.698660 0.000000 
#    z 0.003270 0.000000 1.663580 
# 
# From -- ./inp_files/36970.got.cif
#   From: 2010.06.25/outbox.cif.g09.slc.cpg/sg11_19_cif.got.tgz:36970.got - 2010.06.27 23:14:04.
