data_PCOD8075918
_publ_section_title
;
Structure prediction by ZEFSAII (Michael W. Deem and Ramdas Pophale) SiO2 
 PCOD8075918
Probable space group: P 21/M
;
_chemical_formula_sum "Si O2"
_cell_formula_units_Z 28
_cell_length_a 12.944589
_cell_length_b 22.059005
_cell_length_c 4.938806
_cell_angle_alpha 90.000000
_cell_angle_beta 100.101449
_cell_angle_gamma 90.000000
_cell_volume 1388.389494
_symmetry_space_group_name_H-M "P 21/M"
_symmetry_group_IT_number 11
_symmetry_cell_setting 'monoclinic'
loop_
_space_group_symop_operation_xyz
x,y,z
-x,1/2+y,-z
-x,-y,-z
x,1/2-y,z
loop_
_atom_site_type_symbol
_atom_site_label
_atom_site_fract_x
_atom_site_fract_y
_atom_site_fract_z
Si Si1 0.659542 0.067586 0.907666
Si Si2 0.661349 0.250000 0.282416
Si Si3 0.518163 0.250000 0.717483
Si Si4 0.903200 0.940293 0.702738
Si Si5 0.560438 0.620953 0.191780
Si Si6 0.034572 0.924310 0.252996
Si Si7 0.760836 0.375494 0.444994
Si Si8 0.670154 0.929287 0.751986
O O1 0.549684 0.094021 0.966924
O O2 0.682646 0.102274 0.641037
O O3 0.654076 0.996444 0.857954
O O4 0.747766 0.081238 0.176037
O O5 0.560434 0.250000 0.430783
O O6 0.735353 0.307268 0.356391
O O7 0.619453 0.250000 0.957613
O O8 0.446357 0.191312 0.731524
O O9 0.787552 0.915580 0.705230
O O10 0.936240 0.927203 0.411174
O O11 0.903259 0.012432 0.750565
O O12 0.985895 0.906959 0.940327
O O13 0.593909 0.581168 0.464451
O O14 0.643183 0.616133 0.984625
O O15 0.119416 0.875898 0.394167
#
# Coordination Sequence:
#
# PCOD8075918 Si02
#       8
#     4   2   2   4   4   4   4   4
#     4  12  23  39  59  95 129 161 194 251 315 381
#     4  12  22  42  64  87 122 161 208 256 302 366
#     4  12  24  44  64  85 120 165 222 248 288 364
#     4  10  21  37  59  87 122 156 201 246 298 368
#     4  12  24  41  61  88 125 168 203 257 301 362
#     4  10  21  36  60  89 119 158 196 249 307 360
#     4  12  22  38  64  91 125 161 199 254 314 371
#     4  12  24  39  62  92 129 163 203 250 312 370
#
# _framework density 20.167252999999999
#
# number of rings (size 3 to 8) (size 9 to 14) (size 15 to 20)
#    0.000    0.571    4.286    5.143    4.000    0.000 
#    0.000    0.000    0.000    5.143    0.000    0.000 
#    0.000    0.000    0.000    0.000    0.000    0.000 
#
# Total GULP energy -347406.009705 kJ/mol
# GULP energy per Si atom -12407.357489 kJ/mol
# Density = 2.012135 g / cm^3
# Si number density = 20.167253 Si / 1000 Ang^3
#
#
#
# Elastic Constant Matrix: (Units=GPa)
#
#
# Indices 1 2 3 4 5 6 
#
# 1 76.6531 34.4780 0.4548 0.0000 0.1721 0.0000
# 2 34.4780 66.8287 16.9079 0.0000 10.8240 0.0000
# 3 0.4548 16.9079 92.2665 0.0000 2.1900 0.0000
# 4 0.0000 0.0000 0.0000 22.5406 0.0000 -3.9434
# 5 0.1721 10.8240 2.1900 0.0000 30.8441 0.0000
# 6 0.0000 0.0000 0.0000 -3.9434 0.0000 23.1207
#
#
#
# Elastic Compliance Matrix: (Units=1/GPa)
#
#
# Indices 1 2 3 4 5 6 
#
# 1 0.017525 -0.009996 0.001667 0.000000 0.003292 0.000000
# 2 -0.009996 0.022313 -0.003862 0.000000 -0.007500 0.000000
# 3 0.001667 -0.003862 0.011525 0.000000 0.000527 0.000000
# 4 0.000000 0.000000 0.000000 0.045729 0.000000 0.007799
# 5 0.003292 -0.007500 0.000527 0.000000 0.034997 0.000000
# 6 0.000000 0.000000 0.000000 0.007799 0.000000 0.044581
#
#
# Mechanical properties :
#
#
# Convention : Reuss Voigt Hill
#
# Bulk Modulus (GPa) = 37.06247 37.71438 37.38842
# Shear Modulus (GPa) = 23.80443 27.56159 25.68301
#
# Velocity S-wave (km/s) = 3.43935 3.70083 3.57249
# Velocity P-wave (km/s) = 5.84719 6.08301 5.96626
#
# Compressibility (1/GPa) = 0.02698148
#
# Stress axis : x y z
#
# Youngs Moduli (GPa) = 57.06212 44.81764 86.76746
#
# Poissons Ratio (x) = 0.44801 -0.14467
# Poissons Ratio (y) = 0.57041 0.33505
# Poissons Ratio (z) = -0.09514 0.17306
#
# Static dielectric constant tensor:
#      x y z
#    x 3.603760 0.000000 -0.066550 
#    y 0.000000 3.495790 0.000000 
#    z -0.066550 0.000000 3.889960 
# 
# 
# High freq. dielectric constant tensor:
#      x y z
#    x 1.787150 0.000000 -0.008430 
#    y 0.000000 1.757240 0.000000 
#    z -0.008430 0.000000 1.809460 
# 
# From -- ./inp_files/5109.got.cif
#   From: 2010.06.25/outbox.cif.g09.slc.cpg/sg11_3_cif.got.tgz:5109.got - 2010.06.27 23:14:04.
