data_PCOD8075790
_publ_section_title
;
Structure prediction by ZEFSAII (Michael W. Deem and Ramdas Pophale) SiO2 
 PCOD8075790
Probable space group: P 21/M
;
_chemical_formula_sum "Si O2"
_cell_formula_units_Z 28
_cell_length_a 14.453758
_cell_length_b 13.811543
_cell_length_c 13.882395
_cell_angle_alpha 90.000000
_cell_angle_beta 29.848343
_cell_angle_gamma 90.000000
_cell_volume 1379.304695
_symmetry_space_group_name_H-M "P 21/M"
_symmetry_group_IT_number 11
_symmetry_cell_setting 'monoclinic'
loop_
_space_group_symop_operation_xyz
x,y,z
-x,1/2+y,-z
-x,-y,-z
x,1/2-y,z
loop_
_atom_site_type_symbol
_atom_site_label
_atom_site_fract_x
_atom_site_fract_y
_atom_site_fract_z
Si Si1 0.683261 0.491800 0.769223
Si Si2 0.527761 0.137360 0.403034
Si Si3 0.004729 0.361316 0.539820
Si Si4 0.463006 0.515048 0.783334
Si Si5 0.297517 0.136201 0.798571
Si Si6 0.122643 0.638405 0.138311
Si Si7 0.947928 0.363428 0.007367
O O1 0.804233 0.396181 0.681578
O O2 0.625847 0.486516 0.709286
O O3 0.820520 0.582890 0.664516
O O4 0.500000 0.500000 0.000000
O O5 0.504603 0.250000 0.398603
O O6 0.448213 0.077197 0.384407
O O7 0.431501 0.110482 0.589066
O O8 0.741789 0.106003 0.223330
O O9 0.027166 0.250000 0.490987
O O10 0.009711 0.377893 0.650750
O O11 0.367165 0.417080 0.830894
O O12 0.310454 0.576550 0.979945
O O13 0.293809 0.250000 0.825031
O O14 0.097306 0.091011 0.946742
O O15 0.186566 0.750000 0.072659
O O16 0.014289 0.607458 0.138438
O O17 0.980818 0.250000 0.987994
#
# Coordination Sequence:
#
# PCOD8075790 Si02
#       7
#     4   4   4   4   4   4   4
#     4  11  24  43  63  94 129 156 203 263 310 372
#     4   9  19  35  54  83 117 151 203 254 294 349
#     4  10  23  43  67  91 120 161 207 255 317 371
#     4  11  21  36  60  87 121 160 198 250 311 359
#     4  10  21  36  53  81 121 162 202 238 290 366
#     4   9  18  35  60  90 117 151 202 255 304 356
#     4   8  16  32  52  78 114 149 189 242 286 340
#
# _framework density 20.300083000000001
#
# number of rings (size 3 to 8) (size 9 to 14) (size 15 to 20)
#    0.000    2.286    1.429    1.714    2.000    4.571 
#    2.571    0.000    0.000    0.000    0.000    0.000 
#    0.000    0.000    0.000    0.000    0.000    0.000 
#
# Total GULP energy -347144.629997 kJ/mol
# GULP energy per Si atom -12398.022500 kJ/mol
# Density = 2.025388 g / cm^3
# Si number density = 20.300083 Si / 1000 Ang^3
#
#
#
# Elastic Constant Matrix: (Units=GPa)
#
#
# Indices 1 2 3 4 5 6 
#
# 1 122.2366 42.7025 34.5774 0.0000 -22.6276 0.0000
# 2 42.7025 70.5810 36.9934 0.0000 1.7468 0.0000
# 3 34.5774 36.9934 98.8923 0.0000 -6.4034 0.0000
# 4 0.0000 0.0000 0.0000 22.0428 0.0000 0.3657
# 5 -22.6276 1.7468 -6.4034 0.0000 19.6090 0.0000
# 6 0.0000 0.0000 0.0000 0.3657 0.0000 27.4332
#
#
#
# Elastic Compliance Matrix: (Units=1/GPa)
#
#
# Indices 1 2 3 4 5 6 
#
# 1 0.014796 -0.009052 -0.000643 0.000000 0.017670 0.000000
# 2 -0.009052 0.023444 -0.006555 0.000000 -0.014674 0.000000
# 3 -0.000643 -0.006555 0.013055 0.000000 0.004105 0.000000
# 4 0.000000 0.000000 0.000000 0.045376 0.000000 -0.000605
# 5 0.017670 -0.014674 0.004105 0.000000 0.074035 0.000000
# 6 0.000000 0.000000 0.000000 -0.000605 0.000000 0.036460
#
#
# Mechanical properties :
#
#
# Convention : Reuss Voigt Hill
#
# Bulk Modulus (GPa) = 53.20774 57.80627 55.50700
# Shear Modulus (GPa) = 20.33095 25.64610 22.98853
#
# Velocity S-wave (km/s) = 3.16811 3.55822 3.36882
# Velocity P-wave (km/s) = 6.29683 6.73936 6.52185
#
# Compressibility (1/GPa) = 0.01879426
#
# Stress axis : x y z
#
# Youngs Moduli (GPa) = 67.58581 42.65574 76.60102
#
# Poissons Ratio (x) = 0.38612 0.04926
# Poissons Ratio (y) = 0.61179 0.50211
# Poissons Ratio (z) = 0.04346 0.27960
#
# Static dielectric constant tensor:
#      x y z
#    x 3.813570 0.000000 -0.021500 
#    y 0.000000 3.658280 0.000000 
#    z -0.021500 0.000000 3.659070 
# 
# 
# High freq. dielectric constant tensor:
#      x y z
#    x 1.786100 0.000000 -0.005390 
#    y 0.000000 1.794840 0.000000 
#    z -0.005390 0.000000 1.786070 
# 
# From -- ./inp_files/52449.got.cif
#   From: 2010.06.25/outbox.cif.g09.slc.cpg/sg11_27_cif.got.tgz:52449.got - 2010.06.27 23:14:04.
