data_PCOD8075610
_publ_section_title
;
Structure prediction by ZEFSAII (Michael W. Deem and Ramdas Pophale) SiO2 
 PCOD8075610
Probable space group: P 21/M
;
_chemical_formula_sum "Si O2"
_cell_formula_units_Z 32
_cell_length_a 8.327697
_cell_length_b 19.395600
_cell_length_c 11.484945
_cell_angle_alpha 90.000000
_cell_angle_beta 56.055695
_cell_angle_gamma 90.000000
_cell_volume 1538.918853
_symmetry_space_group_name_H-M "P 21/M"
_symmetry_group_IT_number 11
_symmetry_cell_setting 'monoclinic'
loop_
_space_group_symop_operation_xyz
x,y,z
-x,1/2+y,-z
-x,-y,-z
x,1/2-y,z
loop_
_atom_site_type_symbol
_atom_site_label
_atom_site_fract_x
_atom_site_fract_y
_atom_site_fract_z
Si Si1 0.475272 0.925938 0.130728
Si Si2 0.805658 0.829798 0.390255
Si Si3 0.275584 0.171883 0.318771
Si Si4 0.194355 0.829798 0.109739
Si Si5 0.783282 0.549066 0.824124
Si Si6 0.783283 0.450933 0.324127
Si Si7 0.475264 0.074063 0.630729
Si Si8 0.275589 0.828117 0.818763
O O1 0.375587 0.871152 0.086284
O O2 0.500006 0.895072 0.249998
O O3 0.347298 0.995145 0.194721
O O4 0.685973 0.941374 0.990528
O O5 0.762389 0.750000 0.382793
O O6 0.833643 0.843715 0.515899
O O7 0.624425 0.871153 0.413713
O O8 0.000004 0.855441 0.249996
O O9 0.235163 0.250000 0.292985
O O10 0.198418 0.121034 0.251498
O O11 0.499995 0.159817 0.250015
O O12 0.237622 0.750000 0.117201
O O13 0.166379 0.843717 0.984091
O O14 0.000000 0.519287 0.749995
O O15 0.652704 0.504855 0.305281
O O16 0.685968 0.441370 0.490531
O O17 0.801595 0.378966 0.248498
O O18 0.235158 0.750000 0.792985
#
# Coordination Sequence:
#
# PCOD8075610 Si02
#       8
#     4   4   4   4   4   4   4   4
#     4  11  25  41  61  90 125 161 199 254 308 357
#     4  10  22  41  65  93 124 162 202 245 303 363
#     4  10  20  40  67  89 121 163 203 247 296 360
#     4  10  22  41  65  93 124 162 202 245 303 363
#     4  11  25  41  62  91 122 159 207 252 301 363
#     4  11  25  41  62  91 122 159 207 252 301 363
#     4  11  25  41  61  90 125 161 199 254 308 357
#     4  10  20  40  67  89 121 163 203 247 296 360
#
# _framework density 20.79382
#
# number of rings (size 3 to 8) (size 9 to 14) (size 15 to 20)
#    0.000    1.500    2.500    1.500    7.000    2.000 
#    0.000    0.000    0.000    0.000    0.000    0.000 
#    0.000    0.000    0.000    0.000    0.000    0.000 
#
# Total GULP energy -396945.250861 kJ/mol
# GULP energy per Si atom -12404.539089 kJ/mol
# Density = 2.074649 g / cm^3
# Si number density = 20.793820 Si / 1000 Ang^3
#
#
#
# Elastic Constant Matrix: (Units=GPa)
#
#
# Indices 1 2 3 4 5 6 
#
# 1 64.2734 25.6952 42.0436 0.0000 -7.5777 0.0000
# 2 25.6952 87.1520 25.8427 0.0000 4.4030 0.0000
# 3 42.0436 25.8427 132.9969 0.0000 -18.2354 0.0000
# 4 0.0000 0.0000 0.0000 22.8785 0.0000 5.4549
# 5 -7.5777 4.4030 -18.2354 0.0000 37.6710 0.0000
# 6 0.0000 0.0000 0.0000 5.4549 0.0000 21.1035
#
#
#
# Elastic Compliance Matrix: (Units=1/GPa)
#
#
# Indices 1 2 3 4 5 6 
#
# 1 0.021329 -0.004762 -0.005519 0.000000 0.002175 0.000000
# 2 -0.004762 0.013511 -0.001572 0.000000 -0.003298 0.000000
# 3 -0.005519 -0.001572 0.010113 0.000000 0.003969 0.000000
# 4 0.000000 0.000000 0.000000 0.046580 0.000000 -0.012040
# 5 0.002175 -0.003298 0.003969 0.000000 0.029290 0.000000
# 6 0.000000 0.000000 0.000000 -0.012040 0.000000 0.050498
#
#
# Mechanical properties :
#
#
# Convention : Reuss Voigt Hill
#
# Bulk Modulus (GPa) = 47.06518 52.39835 49.73177
# Shear Modulus (GPa) = 24.73908 29.05333 26.89621
#
# Velocity S-wave (km/s) = 3.45299 3.74198 3.60039
# Velocity P-wave (km/s) = 6.21135 6.62749 6.42279
#
# Compressibility (1/GPa) = 0.02124713
#
# Stress axis : x y z
#
# Youngs Moduli (GPa) = 46.88476 74.01403 98.87879
#
# Poissons Ratio (x) = 0.35244 0.54572
# Poissons Ratio (y) = 0.22326 0.15546
# Poissons Ratio (z) = 0.25876 0.11637
#
# Static dielectric constant tensor:
#      x y z
#    x 3.471940 0.000000 -0.048330 
#    y 0.000000 3.766790 0.000000 
#    z -0.048330 0.000000 4.084950 
# 
# 
# High freq. dielectric constant tensor:
#      x y z
#    x 1.786850 0.000000 -0.005550 
#    y 0.000000 1.818790 0.000000 
#    z -0.005550 0.000000 1.834100 
# 
# From -- ./inp_files/32801.got.cif
#   From: 2010.06.25/outbox.cif.g09.slc.cpg/sg11_17_cif.got.tgz:32801.got - 2010.06.27 23:14:04.
