data_PCOD8075560
_publ_section_title
;
Structure prediction by ZEFSAII (Michael W. Deem and Ramdas Pophale) SiO2 
 PCOD8075560
Probable space group: P 21/M
;
_chemical_formula_sum "Si O2"
_cell_formula_units_Z 22
_cell_length_a 7.825362
_cell_length_b 17.190684
_cell_length_c 14.107529
_cell_angle_alpha 90.000000
_cell_angle_beta 34.199477
_cell_angle_gamma 90.000000
_cell_volume 1066.702849
_symmetry_space_group_name_H-M "P 21/M"
_symmetry_group_IT_number 11
_symmetry_cell_setting 'monoclinic'
loop_
_space_group_symop_operation_xyz
x,y,z
-x,1/2+y,-z
-x,-y,-z
x,1/2-y,z
loop_
_atom_site_type_symbol
_atom_site_label
_atom_site_fract_x
_atom_site_fract_y
_atom_site_fract_z
Si Si1 0.842728 0.750000 0.344034
Si Si2 0.274832 0.332687 0.156299
Si Si3 0.695690 0.994633 0.265601
Si Si4 0.723580 0.088603 0.074233
Si Si5 0.032545 0.250000 0.936614
Si Si6 0.617390 0.117193 0.463516
Si Si7 0.513063 0.750000 0.108980
O O1 0.922152 0.750000 0.196634
O O2 0.648513 0.672552 0.455609
O O3 0.143779 0.750000 0.272068
O O4 0.392454 0.250000 0.146651
O O5 0.451906 0.402761 0.123727
O O6 0.919285 0.334100 0.342219
O O7 0.353052 0.327089 0.007284
O O8 0.576196 0.042141 0.229770
O O9 0.709993 0.050771 0.348156
O O10 0.482712 0.921359 0.390253
O O11 0.031202 0.963764 0.091242
O O12 0.855642 0.171635 0.048554
O O13 0.359703 0.250000 0.841951
#
# Coordination Sequence:
#
# PCOD8075560 Si02
#       7
#     2   4   4   4   2   4   2
#     4  12  21  44  66  92 131 169 220 269 304 391
#     4  10  20  39  65  94 124 162 218 268 309 375
#     4  10  24  39  62  93 133 175 203 267 333 374
#     4  11  21  42  66  94 127 173 220 261 313 389
#     4  12  20  39  72  87 128 163 228 264 296 382
#     4  11  22  42  62  93 135 168 207 272 328 374
#     4  10  21  37  64 103 111 170 216 269 316 363
#
# _framework density 20.624300000000002
#
# number of rings (size 3 to 8) (size 9 to 14) (size 15 to 20)
#    0.545    0.727    5.455    1.091    0.000    2.182 
#    3.273    7.273    0.000    0.000    0.000    0.000 
#    0.000    0.000    0.000    0.000    0.000    0.000 
#
# Total GULP energy -272647.536230 kJ/mol
# GULP energy per Si atom -12393.069829 kJ/mol
# Density = 2.057736 g / cm^3
# Si number density = 20.624300 Si / 1000 Ang^3
#
#
#
# Elastic Constant Matrix: (Units=GPa)
#
#
# Indices 1 2 3 4 5 6 
#
# 1 67.0260 -0.1926 13.4036 0.0000 -10.0371 0.0000
# 2 -0.1926 76.6842 21.4323 0.0000 0.3113 0.0000
# 3 13.4036 21.4323 81.2215 0.0000 -6.9173 0.0000
# 4 0.0000 0.0000 0.0000 19.7059 0.0000 2.2650
# 5 -10.0371 0.3113 -6.9173 0.0000 31.1483 0.0000
# 6 0.0000 0.0000 0.0000 2.2650 0.0000 28.1124
#
#
#
# Elastic Compliance Matrix: (Units=1/GPa)
#
#
# Indices 1 2 3 4 5 6 
#
# 1 0.016106 0.000706 -0.002449 0.000000 0.004639 0.000000
# 2 0.000706 0.014139 -0.003914 0.000000 -0.000783 0.000000
# 3 -0.002449 -0.003914 0.013949 0.000000 0.002348 0.000000
# 4 0.000000 0.000000 0.000000 0.051221 0.000000 -0.004127
# 5 0.004639 -0.000783 0.002348 0.000000 0.034128 0.000000
# 6 0.000000 0.000000 0.000000 -0.004127 0.000000 0.035904
#
#
# Mechanical properties :
#
#
# Convention : Reuss Voigt Hill
#
# Bulk Modulus (GPa) = 30.41368 32.69092 31.55230
# Shear Modulus (GPa) = 26.63513 28.47922 27.55717
#
# Velocity S-wave (km/s) = 3.59757 3.72002 3.65931
# Velocity P-wave (km/s) = 5.65996 5.85974 5.76071
#
# Compressibility (1/GPa) = 0.03287994
#
# Stress axis : x y z
#
# Youngs Moduli (GPa) = 62.08837 70.72415 71.68980
#
# Poissons Ratio (x) = -0.04994 0.17558
# Poissons Ratio (y) = -0.04384 0.28061
# Poissons Ratio (z) = 0.15206 0.27683
#
# Static dielectric constant tensor:
#      x y z
#    x 3.418440 0.000000 0.012250 
#    y 0.000000 3.969520 0.000000 
#    z 0.012250 0.000000 3.881090 
# 
# 
# High freq. dielectric constant tensor:
#      x y z
#    x 1.780920 0.000000 -0.004670 
#    y 0.000000 1.816670 0.000000 
#    z -0.004670 0.000000 1.808900 
# 
# From -- ./inp_files/47963.got.cif
#   From: 2010.06.25/outbox.cif.g09.slc.cpg/sg11_24_cif.got.tgz:47963.got - 2010.06.27 23:14:04.
