data_PCOD8075816
_publ_section_title
;
Structure prediction by ZEFSAII (Michael W. Deem and Ramdas Pophale) SiO2 
 PCOD8075816
Probable space group: P 21/M
;
_chemical_formula_sum "Si O2"
_cell_formula_units_Z 28
_cell_length_a 20.891262
_cell_length_b 9.196733
_cell_length_c 16.111663
_cell_angle_alpha 90.000000
_cell_angle_beta 27.371956
_cell_angle_gamma 90.000000
_cell_volume 1423.228723
_symmetry_space_group_name_H-M "P 21/M"
_symmetry_group_IT_number 11
_symmetry_cell_setting 'monoclinic'
loop_
_space_group_symop_operation_xyz
x,y,z
-x,1/2+y,-z
-x,-y,-z
x,1/2-y,z
loop_
_atom_site_type_symbol
_atom_site_label
_atom_site_fract_x
_atom_site_fract_y
_atom_site_fract_z
Si Si1 0.912516 0.580632 0.359366
Si Si2 0.202326 0.919172 0.102650
Si Si3 0.660730 0.913637 0.378315
Si Si4 0.648083 0.580005 0.922709
Si Si5 0.329906 0.920113 0.273341
Si Si6 0.066351 0.413167 0.849036
Si Si7 0.648143 0.420733 0.234627
O O1 0.868126 0.750000 0.406611
O O2 0.779885 0.484134 0.535299
O O3 0.966338 0.529532 0.206097
O O4 0.036911 0.557179 0.281819
O O5 0.237089 0.750000 0.079078
O O6 0.279628 0.977967 0.931686
O O7 0.255302 0.015067 0.117276
O O8 0.643820 0.750000 0.364299
O O9 0.766690 0.921848 0.332711
O O10 0.512881 0.970712 0.582346
O O11 0.718725 0.008601 0.234578
O O12 0.680406 0.750000 0.875983
O O13 0.485211 0.552239 0.129831
O O14 0.691807 0.501935 0.787971
O O15 0.302008 0.750000 0.291766
O O16 0.010053 0.250000 0.922490
O O17 0.000000 0.500000 0.000000
O O18 0.670198 0.250000 0.216298
#
# Coordination Sequence:
#
# PCOD8075816 Si02
#       7
#     4   4   4   4   4   4   4
#     4  10  22  38  58  86 119 155 195 237 285 343
#     4  10  21  36  57  85 115 152 192 232 284 343
#     4   9  18  32  51  77 106 144 189 235 284 331
#     4  10  22  40  63  89 116 148 187 235 290 344
#     4  10  22  41  63  89 116 147 190 235 286 346
#     4  10  21  36  55  80 112 152 196 237 283 335
#     4   9  18  33  53  78 109 144 187 234 281 333
#
# _framework density 19.673577000000002
#
# number of rings (size 3 to 8) (size 9 to 14) (size 15 to 20)
#    0.000    2.286    0.000    1.714    2.000    5.714 
#    0.000    0.000    0.000    0.000    0.000    0.000 
#    0.000    0.000    0.000    0.000    0.000    0.000 
#
# Total GULP energy -347214.484009 kJ/mol
# GULP energy per Si atom -12400.517286 kJ/mol
# Density = 1.962880 g / cm^3
# Si number density = 19.673577 Si / 1000 Ang^3
#
#
#
# Elastic Constant Matrix: (Units=GPa)
#
#
# Indices 1 2 3 4 5 6 
#
# 1 116.7754 50.8876 32.3823 0.0000 4.6760 0.0000
# 2 50.8876 86.5461 47.9569 0.0000 7.6086 0.0000
# 3 32.3823 47.9569 91.4262 0.0000 10.6364 0.0000
# 4 0.0000 0.0000 0.0000 33.2456 0.0000 3.0475
# 5 4.6760 7.6086 10.6364 0.0000 22.0174 0.0000
# 6 0.0000 0.0000 0.0000 3.0475 0.0000 34.9742
#
#
#
# Elastic Compliance Matrix: (Units=1/GPa)
#
#
# Indices 1 2 3 4 5 6 
#
# 1 0.011550 -0.006382 -0.000757 0.000000 0.000118 0.000000
# 2 -0.006382 0.019868 -0.007968 0.000000 -0.001661 0.000000
# 3 -0.000757 -0.007968 0.015942 0.000000 -0.004787 0.000000
# 4 0.000000 0.000000 0.000000 0.030321 0.000000 -0.002642
# 5 0.000118 -0.001661 -0.004787 0.000000 0.048280 0.000000
# 6 0.000000 0.000000 0.000000 -0.002642 0.000000 0.028823
#
#
# Mechanical properties :
#
#
# Convention : Reuss Voigt Hill
#
# Bulk Modulus (GPa) = 58.32095 61.91124 60.11609
# Shear Modulus (GPa) = 26.21723 28.94884 27.58303
#
# Velocity S-wave (km/s) = 3.65445 3.84012 3.74844
# Velocity P-wave (km/s) = 6.89314 7.15539 7.02549
#
# Compressibility (1/GPa) = 0.01714650
#
# Stress axis : x y z
#
# Youngs Moduli (GPa) = 86.58225 50.33135 62.72572
#
# Poissons Ratio (x) = 0.32121 0.04748
# Poissons Ratio (y) = 0.55257 0.49980
# Poissons Ratio (z) = 0.06554 0.40104
#
# Static dielectric constant tensor:
#      x y z
#    x 3.645370 0.000000 -0.106780 
#    y 0.000000 3.518400 0.000000 
#    z -0.106780 0.000000 3.608930 
# 
# 
# High freq. dielectric constant tensor:
#      x y z
#    x 1.770970 0.000000 -0.007490 
#    y 0.000000 1.758860 0.000000 
#    z -0.007490 0.000000 1.766870 
# 
# From -- ./inp_files/54480.got.cif
#   From: 2010.06.25/outbox.cif.g09.slc.cpg/sg11_28_cif.got.tgz:54480.got - 2010.06.27 23:14:04.
