data_PCOD8075775
_publ_section_title
;
Structure prediction by ZEFSAII (Michael W. Deem and Ramdas Pophale) SiO2 
 PCOD8075775
Probable space group: P 21/M
;
_chemical_formula_sum "Si O2"
_cell_formula_units_Z 28
_cell_length_a 9.082476
_cell_length_b 9.289040
_cell_length_c 29.123316
_cell_angle_alpha 90.000000
_cell_angle_beta 141.275350
_cell_angle_gamma 90.000000
_cell_volume 1537.084101
_symmetry_space_group_name_H-M "P 21/M"
_symmetry_group_IT_number 11
_symmetry_cell_setting 'monoclinic'
loop_
_space_group_symop_operation_xyz
x,y,z
-x,1/2+y,-z
-x,-y,-z
x,1/2-y,z
loop_
_atom_site_type_symbol
_atom_site_label
_atom_site_fract_x
_atom_site_fract_y
_atom_site_fract_z
Si Si1 0.915251 0.580609 0.434585
Si Si2 0.684186 0.085865 0.145293
Si Si3 0.045256 0.581873 0.286874
Si Si4 0.051044 0.090811 0.151708
Si Si5 0.391994 0.582882 0.289190
Si Si6 0.741655 0.418011 0.564601
Si Si7 0.634456 0.079978 0.992378
O O1 0.910878 0.750000 0.443796
O O2 0.655849 0.523566 0.358464
O O3 0.000000 0.500000 0.500000
O O4 0.087611 0.540215 0.435263
O O5 0.617353 0.250000 0.141665
O O6 0.859523 0.078885 0.145233
O O7 0.446648 0.995956 0.074882
O O8 0.810811 0.009582 0.219187
O O9 0.979958 0.750000 0.268900
O O10 0.252092 0.544050 0.301430
O O11 0.133545 0.533805 0.358152
O O12 0.159347 0.250000 0.176622
O O13 0.267841 0.985052 0.214117
O O14 0.914712 0.057706 0.070457
O O15 0.395789 0.750000 0.280025
O O16 0.500000 0.500000 0.500000
O O17 0.683816 0.250000 0.551624
O O18 0.570511 0.250000 0.976470
O O19 0.500000 0.000000 0.000000
#
# Coordination Sequence:
#
# PCOD8075775 Si02
#       7
#     4   4   4   4   4   4   4
#     4  10  21  36  53  75 100 128 162 201 244 293
#     4   9  16  25  39  62  91 123 158 197 239 285
#     4   9  17  30  47  67  93 127 161 196 240 290
#     4   8  15  25  38  60  90 122 156 192 233 279
#     4   9  17  29  46  67  93 124 159 196 237 285
#     4  10  21  36  54  75 100 129 163 202 246 295
#     4   9  15  23  36  58  90 125 159 196 237 283
#
# _framework density 18.21631
#
# number of rings (size 3 to 8) (size 9 to 14) (size 15 to 20)
#    0.000    2.857    0.000    2.571    0.000    6.857 
#    0.000    2.857    0.000    0.000    0.000    1.000 
#    0.000    0.000    0.000    0.000    0.000    0.000 
#
# Total GULP energy -347072.540665 kJ/mol
# GULP energy per Si atom -12395.447881 kJ/mol
# Density = 1.817485 g / cm^3
# Si number density = 18.216310 Si / 1000 Ang^3
#
#
#
# Elastic Constant Matrix: (Units=GPa)
#
#
# Indices 1 2 3 4 5 6 
#
# 1 53.3750 34.2764 57.8140 0.0000 -2.1266 0.0000
# 2 34.2764 88.8113 87.5394 0.0000 -1.5135 0.0000
# 3 57.8140 87.5394 204.2389 0.0000 -3.8706 0.0000
# 4 0.0000 0.0000 0.0000 42.2319 0.0000 -0.2091
# 5 -2.1266 -1.5135 -3.8706 0.0000 19.6043 0.0000
# 6 0.0000 0.0000 0.0000 -0.2091 0.0000 14.4878
#
#
#
# Elastic Compliance Matrix: (Units=1/GPa)
#
#
# Indices 1 2 3 4 5 6 
#
# 1 0.028414 -0.005265 -0.005757 0.000000 0.001539 0.000000
# 2 -0.005265 0.020473 -0.007293 0.000000 -0.000430 0.000000
# 3 -0.005757 -0.007293 0.009665 0.000000 0.000721 0.000000
# 4 0.000000 0.000000 0.000000 0.023680 0.000000 0.000342
# 5 0.001539 -0.000430 0.000721 0.000000 0.051285 0.000000
# 6 0.000000 0.000000 0.000000 0.000342 0.000000 0.069028
#
#
# Mechanical properties :
#
#
# Convention : Reuss Voigt Hill
#
# Bulk Modulus (GPa) = 45.61665 78.40944 62.01305
# Shear Modulus (GPa) = 20.28533 26.38450 23.33491
#
# Velocity S-wave (km/s) = 3.34066 3.80991 3.58298
# Velocity P-wave (km/s) = 6.32266 7.90512 7.15775
#
# Compressibility (1/GPa) = 0.02192182
#
# Stress axis : x y z
#
# Youngs Moduli (GPa) = 35.19397 48.84534 103.46292
#
# Poissons Ratio (x) = 0.25718 0.59566
# Poissons Ratio (y) = 0.18531 0.75452
# Poissons Ratio (z) = 0.20262 0.35621
#
# Static dielectric constant tensor:
#      x y z
#    x 2.937400 0.000000 0.005730 
#    y 0.000000 3.421910 0.000000 
#    z 0.005730 0.000000 3.957230 
# 
# 
# High freq. dielectric constant tensor:
#      x y z
#    x 1.648620 0.000000 -0.002370 
#    y 0.000000 1.706620 0.000000 
#    z -0.002370 0.000000 1.729600 
# 
# From -- ./inp_files/29071.got.cif
#   From: 2010.06.25/outbox.cif.g09.slc.cpg/sg11_15_cif.got.tgz:29071.got - 2010.06.27 23:14:04.
