data_PCOD8075227
_publ_section_title
;
Structure prediction by ZEFSAII (Michael W. Deem and Ramdas Pophale) SiO2 
 PCOD8075227
Probable space group: P 21/M
;
_chemical_formula_sum "Si O2"
_cell_formula_units_Z 28
_cell_length_a 26.844516
_cell_length_b 8.642878
_cell_length_c 9.634964
_cell_angle_alpha 90.000000
_cell_angle_beta 141.066801
_cell_angle_gamma 90.000000
_cell_volume 1404.784911
_symmetry_space_group_name_H-M "P 21/M"
_symmetry_group_IT_number 11
_symmetry_cell_setting 'monoclinic'
loop_
_space_group_symop_operation_xyz
x,y,z
-x,1/2+y,-z
-x,-y,-z
x,1/2-y,z
loop_
_atom_site_type_symbol
_atom_site_label
_atom_site_fract_x
_atom_site_fract_y
_atom_site_fract_z
Si Si1 0.729822 0.931573 0.500040
Si Si2 0.850908 0.068192 0.970697
Si Si3 0.306497 0.931097 0.867357
Si Si4 0.470564 0.426819 0.295229
Si Si5 0.812200 0.567725 0.184680
Si Si6 0.019335 0.429474 0.396879
Si Si7 0.567990 0.073338 0.239592
O O1 0.741592 0.750000 0.538092
O O2 0.802087 0.015350 0.732338
O O3 0.732555 0.979582 0.345708
O O4 0.647946 0.977840 0.395118
O O5 0.839200 0.250000 0.971424
O O6 0.944204 0.029417 0.135384
O O7 0.821671 0.979689 0.044758
O O8 0.299832 0.750000 0.826620
O O9 0.262024 0.977673 0.912065
O O10 0.398156 0.976294 0.076646
O O11 0.500000 0.500000 0.500000
O O12 0.443447 0.250000 0.259974
O O13 0.543635 0.434932 0.347338
O O14 0.795332 0.750000 0.155528
O O15 0.890786 0.518213 0.447057
O O16 0.024184 0.250000 0.432456
O O17 0.000000 0.500000 0.500000
O O18 0.582136 0.250000 0.222665
O O19 0.500000 0.000000 0.000000
#
# Coordination Sequence:
#
# PCOD8075227 Si02
#       7
#     4   4   4   4   4   4   4
#     4  12  25  41  61  87 120 159 201 246 296 352
#     4  10  20  37  61  91 122 155 199 245 292 349
#     4  12  25  42  62  86 120 159 198 245 300 354
#     4  11  25  43  64  90 121 155 196 243 294 350
#     4  10  20  37  61  90 122 157 197 243 297 352
#     4   8  16  32  57  86 118 154 193 240 291 347
#     4  11  23  41  65  89 117 156 199 240 292 352
#
# _framework density 19.931878000000001
#
# number of rings (size 3 to 8) (size 9 to 14) (size 15 to 20)
#    0.000    1.429    1.429    4.286    2.000    2.857 
#    0.000    0.714    0.000    0.000    0.000    0.000 
#    0.000    0.000    0.000    0.000    0.000    0.000 
#
# Total GULP energy -347106.839517 kJ/mol
# GULP energy per Si atom -12396.672840 kJ/mol
# Density = 1.988651 g / cm^3
# Si number density = 19.931878 Si / 1000 Ang^3
#
#
#
# Elastic Constant Matrix: (Units=GPa)
#
#
# Indices 1 2 3 4 5 6 
#
# 1 46.9092 15.5468 3.3667 0.0000 -6.6787 0.0000
# 2 15.5468 52.6457 9.7075 0.0000 7.7042 0.0000
# 3 3.3667 9.7075 107.4297 0.0000 -1.5815 0.0000
# 4 0.0000 0.0000 0.0000 35.3445 0.0000 -2.3006
# 5 -6.6787 7.7042 -1.5815 0.0000 26.7475 0.0000
# 6 0.0000 0.0000 0.0000 -2.3006 0.0000 27.8157
#
#
#
# Elastic Compliance Matrix: (Units=1/GPa)
#
#
# Indices 1 2 3 4 5 6 
#
# 1 0.025519 -0.008868 0.000133 0.000000 0.008934 0.000000
# 2 -0.008868 0.023298 -0.001960 0.000000 -0.009041 0.000000
# 3 0.000133 -0.001960 0.009498 0.000000 0.001160 0.000000
# 4 0.000000 0.000000 0.000000 0.028446 0.000000 0.002353
# 5 0.008934 -0.009041 0.001160 0.000000 0.042290 0.000000
# 6 0.000000 0.000000 0.000000 0.002353 0.000000 0.036146
#
#
# Mechanical properties :
#
#
# Convention : Reuss Voigt Hill
#
# Bulk Modulus (GPa) = 27.08175 29.35851 28.22013
# Shear Modulus (GPa) = 25.13864 29.87246 27.50555
#
# Velocity S-wave (km/s) = 3.55523 3.87554 3.71884
# Velocity P-wave (km/s) = 5.51992 5.89812 5.71215
#
# Compressibility (1/GPa) = 0.03692524
#
# Stress axis : x y z
#
# Youngs Moduli (GPa) = 39.18596 42.92165 105.28019
#
# Poissons Ratio (x) = 0.38063 -0.01401
# Poissons Ratio (y) = 0.34750 0.20640
# Poissons Ratio (z) = -0.00522 0.08415
#
# Static dielectric constant tensor:
#      x y z
#    x 3.739850 0.000000 0.365790 
#    y 0.000000 3.786450 0.000000 
#    z 0.365790 0.000000 3.845370 
# 
# 
# High freq. dielectric constant tensor:
#      x y z
#    x 1.767590 0.000000 0.015660 
#    y 0.000000 1.792740 0.000000 
#    z 0.015660 0.000000 1.784350 
# 
# From -- ./inp_files/28575.got.cif
#   From: 2010.06.25/outbox.cif.g09.slc.cpg/sg11_15_cif.got.tgz:28575.got - 2010.06.27 23:14:04.
