data_PCOD8075577
_publ_section_title
;
Structure prediction by ZEFSAII (Michael W. Deem and Ramdas Pophale) SiO2 
 PCOD8075577
Probable space group: P 21/M
;
_chemical_formula_sum "Si O2"
_cell_formula_units_Z 20
_cell_length_a 8.164685
_cell_length_b 18.593793
_cell_length_c 7.497522
_cell_angle_alpha 90.000000
_cell_angle_beta 125.643359
_cell_angle_gamma 90.000000
_cell_volume 924.983657
_symmetry_space_group_name_H-M "P 21/M"
_symmetry_group_IT_number 11
_symmetry_cell_setting 'monoclinic'
loop_
_space_group_symop_operation_xyz
x,y,z
-x,1/2+y,-z
-x,-y,-z
x,1/2-y,z
loop_
_atom_site_type_symbol
_atom_site_label
_atom_site_fract_x
_atom_site_fract_y
_atom_site_fract_z
Si Si1 0.100044 0.405353 0.875568
Si Si2 0.277197 0.830897 0.504497
Si Si3 0.538425 0.417286 0.678076
Si Si4 0.497483 0.834115 0.996030
Si Si5 0.829976 0.532677 0.728550
O O1 0.951954 0.346792 0.695470
O O2 0.015235 0.485183 0.768467
O O3 0.318876 0.386089 0.941458
O O4 0.094323 0.403444 0.090784
O O5 0.327234 0.750000 0.485766
O O6 0.432426 0.878386 0.492375
O O7 0.316847 0.844183 0.739757
O O8 0.585690 0.363537 0.869613
O O9 0.688281 0.485121 0.774059
O O10 0.301491 0.440208 0.523521
O O11 0.561555 0.750000 0.051643
#
# Coordination Sequence:
#
# PCOD8075577 Si02
#       5
#     4   4   4   4   4
#     4  10  20  40  60  87 120 152 193 244 290 350
#     4  10  21  40  60  82 119 160 196 240 291 348
#     4  10  20  40  62  87 119 154 196 244 293 349
#     4  11  23  39  61  87 116 156 200 240 290 348
#     4   9  20  39  62  89 118 155 196 236 301 352
#
# _framework density 21.622005000000001
#
# number of rings (size 3 to 8) (size 9 to 14) (size 15 to 20)
#    0.000    2.000    2.000    1.200    0.000    1.600 
#   10.800    0.000    0.000    0.000    0.000    0.000 
#    0.000    0.000    0.000    0.000    0.000    0.000 
#
# Total GULP energy -247824.907603 kJ/mol
# GULP energy per Si atom -12391.245380 kJ/mol
# Density = 2.157279 g / cm^3
# Si number density = 21.622005 Si / 1000 Ang^3
#
#
#
# Elastic Constant Matrix: (Units=GPa)
#
#
# Indices 1 2 3 4 5 6 
#
# 1 30.8921 9.1882 22.6758 0.0000 7.8164 0.0000
# 2 9.1882 66.3145 51.7607 0.0000 -4.6585 0.0000
# 3 22.6758 51.7607 127.2473 0.0000 5.7822 0.0000
# 4 0.0000 0.0000 0.0000 42.5328 0.0000 -0.2119
# 5 7.8164 -4.6585 5.7822 0.0000 36.3079 0.0000
# 6 0.0000 0.0000 0.0000 -0.2119 0.0000 29.5759
#
#
#
# Elastic Compliance Matrix: (Units=1/GPa)
#
#
# Indices 1 2 3 4 5 6 
#
# 1 0.039160 -0.001146 -0.006167 0.000000 -0.007595 0.000000
# 2 -0.001146 0.022815 -0.009288 0.000000 0.004653 0.000000
# 3 -0.006167 -0.009288 0.012822 0.000000 -0.001906 0.000000
# 4 0.000000 0.000000 0.000000 0.023512 0.000000 0.000168
# 5 -0.007595 0.004653 -0.001906 0.000000 0.030078 0.000000
# 6 0.000000 0.000000 0.000000 0.000168 0.000000 0.033812
#
#
# Mechanical properties :
#
#
# Convention : Reuss Voigt Hill
#
# Bulk Modulus (GPa) = 24.04077 43.52260 33.78169
# Shear Modulus (GPa) = 23.89302 31.07192 27.48247
#
# Velocity S-wave (km/s) = 3.32781 3.79496 3.56903
# Velocity P-wave (km/s) = 5.09004 6.27494 5.71329
#
# Compressibility (1/GPa) = 0.04159601
#
# Stress axis : x y z
#
# Youngs Moduli (GPa) = 25.53607 43.83167 77.98916
#
# Poissons Ratio (x) = 0.05022 0.48098
# Poissons Ratio (y) = 0.02926 0.72433
# Poissons Ratio (z) = 0.15749 0.40709
#
# Static dielectric constant tensor:
#      x y z
#    x 3.511190 0.000000 0.298000 
#    y 0.000000 3.949990 0.000000 
#    z 0.298000 0.000000 4.108690 
# 
# 
# High freq. dielectric constant tensor:
#      x y z
#    x 1.818220 0.000000 0.025290 
#    y 0.000000 1.840720 0.000000 
#    z 0.025290 0.000000 1.866440 
# 
# From -- ./inp_files/2210.got.cif
#   From: 2010.06.25/outbox.cif.g09.slc.cpg/sg11_2_cif.got.tgz:2210.got - 2010.06.27 23:14:04.
