data_PCOD8075579
_publ_section_title
;
Structure prediction by ZEFSAII (Michael W. Deem and Ramdas Pophale) SiO2 
 PCOD8075579
Probable space group: P 21/M
;
_chemical_formula_sum "Si O2"
_cell_formula_units_Z 32
_cell_length_a 23.945181
_cell_length_b 13.420838
_cell_length_c 16.318989
_cell_angle_alpha 90.000000
_cell_angle_beta 18.964183
_cell_angle_gamma 90.000000
_cell_volume 1704.290665
_symmetry_space_group_name_H-M "P 21/M"
_symmetry_group_IT_number 11
_symmetry_cell_setting 'monoclinic'
loop_
_space_group_symop_operation_xyz
x,y,z
-x,1/2+y,-z
-x,-y,-z
x,1/2-y,z
loop_
_atom_site_type_symbol
_atom_site_label
_atom_site_fract_x
_atom_site_fract_y
_atom_site_fract_z
Si Si1 0.570161 0.640647 0.138996
Si Si2 0.432474 0.634367 0.997072
Si Si3 0.666735 0.493929 0.437406
Si Si4 0.790095 0.550432 0.436946
Si Si5 0.812442 0.470053 0.787046
Si Si6 0.347309 0.864926 0.845161
Si Si7 0.846918 0.135286 0.054506
Si Si8 0.336430 0.861179 0.313700
O O1 0.624967 0.750000 0.090211
O O2 0.419068 0.604861 0.407615
O O3 0.505800 0.635830 0.134936
O O4 0.735670 0.574361 0.922340
O O5 0.409503 0.750000 0.009753
O O6 0.286845 0.574602 0.151866
O O7 0.406008 0.608988 0.128506
O O8 0.618876 0.600853 0.709124
O O9 0.779555 0.545781 0.352394
O O10 0.523288 0.571754 0.604875
O O11 0.787513 0.451946 0.198471
O O12 0.804539 0.439757 0.457151
O O13 0.951166 0.616606 0.240882
O O14 0.000000 0.500000 0.500000
O O15 0.792490 0.395161 0.891504
O O16 0.397816 0.750000 0.788241
O O17 0.258365 0.882215 0.881876
O O18 0.822202 0.250000 0.119542
O O19 0.253553 0.750000 0.429634
#
# Coordination Sequence:
#
# PCOD8075579 Si02
#       8
#     4   4   4   4   4   4   4   4
#     4   9  18  35  56  80 109 146 191 233 284 339
#     4  11  21  36  57  83 117 156 195 233 285 351
#     4  10  20  40  61  84 111 156 191 238 292 344
#     4  11  21  37  61  86 120 151 191 240 293 341
#     4  11  23  35  56  83 113 155 191 235 287 333
#     4  10  22  41  61  85 119 153 193 240 289 344
#     4  11  24  38  60  90 116 148 194 248 290 339
#     4   9  19  34  57  82 110 150 187 230 284 341
#
# _framework density 18.776140999999999
#
# number of rings (size 3 to 8) (size 9 to 14) (size 15 to 20)
#    0.000    1.750    3.750    2.250    1.750    2.000 
#    0.000    3.125    0.000    0.750    0.000    0.000 
#    0.000    0.000    0.000    0.000    0.000    0.000 
#
# Total GULP energy -396702.763917 kJ/mol
# GULP energy per Si atom -12396.961372 kJ/mol
# Density = 1.873341 g / cm^3
# Si number density = 18.776141 Si / 1000 Ang^3
#
#
#
# Elastic Constant Matrix: (Units=GPa)
#
#
# Indices 1 2 3 4 5 6 
#
# 1 94.0390 45.8329 37.6790 0.0000 3.7406 0.0000
# 2 45.8329 112.1271 38.0106 0.0000 -6.3725 0.0000
# 3 37.6790 38.0106 92.0269 0.0000 -2.0776 0.0000
# 4 0.0000 0.0000 0.0000 20.5156 0.0000 4.8862
# 5 3.7406 -6.3725 -2.0776 0.0000 22.3900 0.0000
# 6 0.0000 0.0000 0.0000 4.8862 0.0000 28.7295
#
#
#
# Elastic Compliance Matrix: (Units=1/GPa)
#
#
# Indices 1 2 3 4 5 6 
#
# 1 0.014860 -0.004909 -0.004153 0.000000 -0.004265 0.000000
# 2 -0.004909 0.012140 -0.002914 0.000000 0.004005 0.000000
# 3 -0.004153 -0.002914 0.013796 0.000000 0.001145 0.000000
# 4 0.000000 0.000000 0.000000 0.050801 0.000000 -0.008640
# 5 -0.004265 0.004005 0.001145 0.000000 0.046621 0.000000
# 6 0.000000 0.000000 0.000000 -0.008640 0.000000 0.036277
#
#
# Mechanical properties :
#
#
# Convention : Reuss Voigt Hill
#
# Bulk Modulus (GPa) = 59.36538 60.13754 59.75146
# Shear Modulus (GPa) = 24.50225 26.10505 25.30365
#
# Velocity S-wave (km/s) = 3.61635 3.73276 3.67502
# Velocity P-wave (km/s) = 7.00881 7.11872 7.06398
#
# Compressibility (1/GPa) = 0.01684484
#
# Stress axis : x y z
#
# Youngs Moduli (GPa) = 67.29511 82.36933 72.48316
#
# Poissons Ratio (x) = 0.40432 0.30102
# Poissons Ratio (y) = 0.33033 0.21124
# Poissons Ratio (z) = 0.27948 0.24005
#
# Static dielectric constant tensor:
#      x y z
#    x 3.581680 0.000000 0.031870 
#    y 0.000000 3.819240 0.000000 
#    z 0.031870 0.000000 3.275270 
# 
# 
# High freq. dielectric constant tensor:
#      x y z
#    x 1.735020 0.000000 0.006450 
#    y 0.000000 1.747360 0.000000 
#    z 0.006450 0.000000 1.709100 
# 
# From -- ./inp_files/39675.got.cif
#   From: 2010.06.25/outbox.cif.g09.slc.cpg/sg11_20_cif.got.tgz:39675.got - 2010.06.27 23:14:04.
