data_PCOD8075513
_publ_section_title
;
Structure prediction by ZEFSAII (Michael W. Deem and Ramdas Pophale) SiO2 
 PCOD8075513
Probable space group: P 21/M
;
_chemical_formula_sum "Si O2"
_cell_formula_units_Z 28
_cell_length_a 11.962355
_cell_length_b 17.059146
_cell_length_c 14.789525
_cell_angle_alpha 90.000000
_cell_angle_beta 150.410240
_cell_angle_gamma 90.000000
_cell_volume 1490.278296
_symmetry_space_group_name_H-M "P 21/M"
_symmetry_group_IT_number 11
_symmetry_cell_setting 'monoclinic'
loop_
_space_group_symop_operation_xyz
x,y,z
-x,1/2+y,-z
-x,-y,-z
x,1/2-y,z
loop_
_atom_site_type_symbol
_atom_site_label
_atom_site_fract_x
_atom_site_fract_y
_atom_site_fract_z
Si Si1 0.384491 0.050289 0.995216
Si Si2 0.275200 0.950232 0.335420
Si Si3 0.222818 0.840278 0.666199
Si Si4 0.130123 0.094769 0.442845
Si Si5 0.104113 0.583067 0.404426
Si Si6 0.112317 0.934429 0.910630
Si Si7 0.374519 0.658176 0.239036
O O1 0.548199 0.117050 0.145508
O O2 0.163394 0.091872 0.799076
O O3 0.500000 0.000000 0.000000
O O4 0.320082 0.991502 0.031101
O O5 0.233162 0.904909 0.400233
O O6 0.294182 0.885152 0.272461
O O7 0.500000 0.000000 0.500000
O O8 0.075169 0.011648 0.172022
O O9 0.260660 0.750000 0.713317
O O10 0.180503 0.852280 0.529836
O O11 0.007846 0.870180 0.570892
O O12 0.368328 0.138581 0.605290
O O13 0.993057 0.106143 0.252829
O O14 0.166217 0.002817 0.487156
O O15 0.204385 0.866486 0.039470
O O16 0.348692 0.750000 0.236957
#
# Coordination Sequence:
#
# PCOD8075513 Si02
#       7
#     4   4   4   4   4   4   4
#     4  10  20  39  62  86 117 163 206 239 286 366
#     4  10  20  44  66  85 114 164 208 248 290 359
#     4  12  24  37  59  94 130 158 194 255 308 349
#     4  10  21  41  62  90 121 159 204 244 293 373
#     4  10  22  39  68  85 114 163 212 243 291 367
#     4  10  22  40  66  89 115 158 212 246 293 365
#     4  12  24  38  63  95 125 155 195 258 314 347
#
# _framework density 18.788436999999998
#
# number of rings (size 3 to 8) (size 9 to 14) (size 15 to 20)
#    0.000    1.714    5.714    2.143    2.000    2.286 
#    0.000    2.143    0.000    0.000    0.000    0.000 
#    0.000    0.000    0.000    0.000    0.000    0.000 
#
# Total GULP energy -347238.396046 kJ/mol
# GULP energy per Si atom -12401.371287 kJ/mol
# Density = 1.874567 g / cm^3
# Si number density = 18.788437 Si / 1000 Ang^3
#
#
#
# Elastic Constant Matrix: (Units=GPa)
#
#
# Indices 1 2 3 4 5 6 
#
# 1 90.0176 27.4178 37.5152 0.0000 13.0235 0.0000
# 2 27.4178 72.8710 33.5100 0.0000 -2.4409 0.0000
# 3 37.5152 33.5100 70.0635 0.0000 5.3431 0.0000
# 4 0.0000 0.0000 0.0000 10.7112 0.0000 -3.4810
# 5 13.0235 -2.4409 5.3431 0.0000 33.0055 0.0000
# 6 0.0000 0.0000 0.0000 -3.4810 0.0000 13.6371
#
#
#
# Elastic Compliance Matrix: (Units=1/GPa)
#
#
# Indices 1 2 3 4 5 6 
#
# 1 0.015482 -0.003046 -0.006429 0.000000 -0.005293 0.000000
# 2 -0.003046 0.018432 -0.007472 0.000000 0.003775 0.000000
# 3 -0.006429 -0.007472 0.021402 0.000000 -0.001480 0.000000
# 4 0.000000 0.000000 0.000000 0.101805 0.000000 0.025987
# 5 -0.005293 0.003775 -0.001480 0.000000 0.032906 0.000000
# 6 0.000000 0.000000 0.000000 0.025987 0.000000 0.079963
#
#
# Mechanical properties :
#
#
# Convention : Reuss Voigt Hill
#
# Bulk Modulus (GPa) = 46.68434 47.75980 47.22207
# Shear Modulus (GPa) = 16.07588 20.43803 18.25696
#
# Velocity S-wave (km/s) = 2.92828 3.30176 3.12061
# Velocity P-wave (km/s) = 6.02781 6.32538 6.17838
#
# Compressibility (1/GPa) = 0.02142046
#
# Stress axis : x y z
#
# Youngs Moduli (GPa) = 64.59147 54.25483 46.72446
#
# Poissons Ratio (x) = 0.16525 0.30040
# Poissons Ratio (y) = 0.19674 0.34914
# Poissons Ratio (z) = 0.41528 0.40541
#
# Static dielectric constant tensor:
#      x y z
#    x 3.649560 0.000000 -0.043630 
#    y 0.000000 3.299440 0.000000 
#    z -0.043630 0.000000 3.314660 
# 
# 
# High freq. dielectric constant tensor:
#      x y z
#    x 1.743540 0.000000 0.006260 
#    y 0.000000 1.709950 0.000000 
#    z 0.006260 0.000000 1.738640 
# 
# From -- ./inp_files/50553.got.cif
#   From: 2010.06.25/outbox.cif.g09.slc.cpg/sg11_26_cif.got.tgz:50553.got - 2010.06.27 23:14:04.
