data_PCOD8075701
_publ_section_title
;
Structure prediction by ZEFSAII (Michael W. Deem and Ramdas Pophale) SiO2 
 PCOD8075701
Probable space group: P 21/M
;
_chemical_formula_sum "Si O2"
_cell_formula_units_Z 32
_cell_length_a 17.618265
_cell_length_b 14.273411
_cell_length_c 13.149802
_cell_angle_alpha 90.000000
_cell_angle_beta 30.793388
_cell_angle_gamma 90.000000
_cell_volume 1692.904100
_symmetry_space_group_name_H-M "P 21/M"
_symmetry_group_IT_number 11
_symmetry_cell_setting 'monoclinic'
loop_
_space_group_symop_operation_xyz
x,y,z
-x,1/2+y,-z
-x,-y,-z
x,1/2-y,z
loop_
_atom_site_type_symbol
_atom_site_label
_atom_site_fract_x
_atom_site_fract_y
_atom_site_fract_z
Si Si1 0.116006 0.856442 0.328858
Si Si2 0.094579 0.141543 0.607819
Si Si3 0.652392 0.053035 0.079324
Si Si4 0.096578 0.482598 0.083433
Si Si5 0.453369 0.642742 0.606224
Si Si6 0.870820 0.359622 0.456500
Si Si7 0.721511 0.508611 0.310322
Si Si8 0.674491 0.995962 0.592779
O O1 0.169935 0.750000 0.265164
O O2 0.963829 0.868989 0.440769
O O3 0.083239 0.887925 0.481667
O O4 0.252810 0.914112 0.125756
O O5 0.098737 0.250000 0.637779
O O6 0.258608 0.096324 0.427681
O O7 0.979960 0.083832 0.810014
O O8 0.610925 0.136991 0.204671
O O9 0.502258 0.005943 0.210713
O O10 0.746457 0.977794 0.036591
O O11 0.997816 0.396851 0.235522
O O12 0.128961 0.471259 0.925941
O O13 0.462994 0.750000 0.560924
O O14 0.615412 0.597572 0.416991
O O15 0.350237 0.588350 0.645300
O O16 0.849713 0.250000 0.465007
O O17 0.716562 0.411132 0.607484
O O18 0.756918 0.497654 0.388509
#
# Coordination Sequence:
#
# PCOD8075701 Si02
#       8
#     4   4   4   4   4   4   4   4
#     4   9  18  35  56  76 101 135 177 217 252 306
#     4   9  19  34  54  78 102 132 172 219 266 307
#     4   9  18  33  56  81 102 127 169 222 269 303
#     4   9  19  36  55  73 102 141 180 210 244 304
#     4   9  17  31  52  76 104 138 172 208 257 310
#     4  10  22  38  53  73 105 144 178 208 252 312
#     4   9  19  33  48  76 109 136 172 215 253 299
#     4  10  21  35  52  79 113 136 164 217 269 310
#
# _framework density 18.902428
#
# number of rings (size 3 to 8) (size 9 to 14) (size 15 to 20)
#    0.000    2.750    0.000    1.125    0.000   13.500 
#    0.000    1.875    0.000    3.000    0.000    0.000 
#    0.000    0.000    0.000    0.000    0.000    0.000 
#
# Total GULP energy -396691.054375 kJ/mol
# GULP energy per Si atom -12396.595449 kJ/mol
# Density = 1.885941 g / cm^3
# Si number density = 18.902428 Si / 1000 Ang^3
#
#
#
# Elastic Constant Matrix: (Units=GPa)
#
#
# Indices 1 2 3 4 5 6 
#
# 1 86.8722 38.4248 13.4159 0.0000 -4.9256 0.0000
# 2 38.4248 123.2193 24.0480 0.0000 -0.7182 0.0000
# 3 13.4159 24.0480 43.9370 0.0000 -2.0952 0.0000
# 4 0.0000 0.0000 0.0000 15.8423 0.0000 3.4446
# 5 -4.9256 -0.7182 -2.0952 0.0000 36.0922 0.0000
# 6 0.0000 0.0000 0.0000 3.4446 0.0000 22.7066
#
#
#
# Elastic Compliance Matrix: (Units=1/GPa)
#
#
# Indices 1 2 3 4 5 6 
#
# 1 0.013613 -0.003851 -0.001969 0.000000 0.001667 0.000000
# 2 -0.003851 0.010176 -0.004421 0.000000 -0.000580 0.000000
# 3 -0.001969 -0.004421 0.025836 0.000000 0.001143 0.000000
# 4 0.000000 0.000000 0.000000 0.065275 0.000000 -0.009902
# 5 0.001667 -0.000580 0.001143 0.000000 0.027989 0.000000
# 6 0.000000 0.000000 0.000000 -0.009902 0.000000 0.045542
#
#
# Mechanical properties :
#
#
# Convention : Reuss Voigt Hill
#
# Bulk Modulus (GPa) = 34.31571 45.08954 39.70263
# Shear Modulus (GPa) = 22.86978 26.80419 24.83699
#
# Velocity S-wave (km/s) = 3.48212 3.76976 3.62879
# Velocity P-wave (km/s) = 5.86177 6.54627 6.21346
#
# Compressibility (1/GPa) = 0.02914117
#
# Stress axis : x y z
#
# Youngs Moduli (GPa) = 73.45808 98.26996 38.70614
#
# Poissons Ratio (x) = 0.37845 0.07623
# Poissons Ratio (y) = 0.28289 0.17113
# Poissons Ratio (z) = 0.14467 0.43449
#
# Static dielectric constant tensor:
#      x y z
#    x 3.629660 0.000000 0.046000 
#    y 0.000000 3.267050 0.000000 
#    z 0.046000 0.000000 3.387430 
# 
# 
# High freq. dielectric constant tensor:
#      x y z
#    x 1.740870 0.000000 -0.000890 
#    y 0.000000 1.717880 0.000000 
#    z -0.000890 0.000000 1.724300 
# 
# From -- ./inp_files/39651.got.cif
#   From: 2010.06.25/outbox.cif.g09.slc.cpg/sg11_20_cif.got.tgz:39651.got - 2010.06.27 23:14:04.
