data_PCOD8075216
_publ_section_title
;
Structure prediction by ZEFSAII (Michael W. Deem and Ramdas Pophale) SiO2 
 PCOD8075216
Probable space group: P 21/M
;
_chemical_formula_sum "Si O2"
_cell_formula_units_Z 28
_cell_length_a 11.718235
_cell_length_b 8.951508
_cell_length_c 15.429210
_cell_angle_alpha 90.000000
_cell_angle_beta 59.827337
_cell_angle_gamma 90.000000
_cell_volume 1399.182878
_symmetry_space_group_name_H-M "P 21/M"
_symmetry_group_IT_number 11
_symmetry_cell_setting 'monoclinic'
loop_
_space_group_symop_operation_xyz
x,y,z
-x,1/2+y,-z
-x,-y,-z
x,1/2-y,z
loop_
_atom_site_type_symbol
_atom_site_label
_atom_site_fract_x
_atom_site_fract_y
_atom_site_fract_z
Si Si1 0.918583 0.579057 0.104983
Si Si2 0.931743 0.079954 0.644591
Si Si3 0.849785 0.080344 0.862197
Si Si4 0.451747 0.073561 0.430484
Si Si5 0.813834 0.420967 0.507459
Si Si6 0.398470 0.076226 0.973746
Si Si7 0.379048 0.425757 0.783465
O O1 0.905013 0.750000 0.081944
O O2 0.771006 0.514413 0.171695
O O3 0.999618 0.558170 0.163049
O O4 0.000000 0.500000 0.000000
O O5 0.986128 0.250000 0.627291
O O6 0.847037 0.041311 0.761816
O O7 0.832130 0.059047 0.603169
O O8 0.052743 0.965911 0.592647
O O9 0.802838 0.250000 0.896729
O O10 0.751013 0.972918 0.950476
O O11 0.468633 0.250000 0.430348
O O12 0.500000 0.000000 0.500000
O O13 0.299259 0.032407 0.479003
O O14 0.531020 0.014156 0.317638
O O15 0.778401 0.250000 0.497443
O O16 0.409571 0.250000 0.986664
O O17 0.429782 0.038716 0.861457
O O18 0.500000 0.000000 0.000000
O O19 0.389412 0.250000 0.758996
#
# Coordination Sequence:
#
# PCOD8075216 Si02
#       7
#     4   4   4   4   4   4   4
#     4  10  20  37  61  88 121 157 199 247 300 360
#     4   9  20  38  62  91 123 161 204 255 312 365
#     4  10  21  37  61  92 122 160 205 252 308 367
#     4  12  27  45  66  92 123 162 210 260 314 376
#     4  10  21  40  63  90 124 160 204 256 312 371
#     4  11  24  41  62  90 128 168 211 258 308 369
#     4  10  23  43  64  90 125 166 205 256 316 367
#
# _framework density 20.011680999999999
#
# number of rings (size 3 to 8) (size 9 to 14) (size 15 to 20)
#    0.000    1.714    1.429    2.143    4.000    2.857 
#    0.000    0.000    0.000    0.000    0.000    0.000 
#    0.000    0.000    0.000    0.000    0.000    0.000 
#
# Total GULP energy -347275.588400 kJ/mol
# GULP energy per Si atom -12402.699586 kJ/mol
# Density = 1.996613 g / cm^3
# Si number density = 20.011681 Si / 1000 Ang^3
#
#
#
# Elastic Constant Matrix: (Units=GPa)
#
#
# Indices 1 2 3 4 5 6 
#
# 1 106.9776 50.0958 37.3464 0.0000 7.2952 0.0000
# 2 50.0958 101.9499 57.9826 0.0000 10.0049 0.0000
# 3 37.3464 57.9826 104.5246 0.0000 17.7007 0.0000
# 4 0.0000 0.0000 0.0000 34.2165 0.0000 -3.6804
# 5 7.2952 10.0049 17.7007 0.0000 24.9336 0.0000
# 6 0.0000 0.0000 0.0000 -3.6804 0.0000 35.2928
#
#
#
# Elastic Compliance Matrix: (Units=1/GPa)
#
#
# Indices 1 2 3 4 5 6 
#
# 1 0.012311 -0.005181 -0.001440 0.000000 -0.000501 0.000000
# 2 -0.005181 0.016511 -0.007323 0.000000 0.000089 0.000000
# 3 -0.001440 -0.007323 0.015430 0.000000 -0.007594 0.000000
# 4 0.000000 0.000000 0.000000 0.029557 0.000000 0.003082
# 5 -0.000501 0.000089 -0.007594 0.000000 0.045608 0.000000
# 6 0.000000 0.000000 0.000000 0.003082 0.000000 0.028656
#
#
# Mechanical properties :
#
#
# Convention : Reuss Voigt Hill
#
# Bulk Modulus (GPa) = 61.11062 67.14465 64.12763
# Shear Modulus (GPa) = 27.56116 30.09038 28.82577
#
# Velocity S-wave (km/s) = 3.71516 3.88189 3.79944
# Velocity P-wave (km/s) = 7.00050 7.32923 7.16675
#
# Compressibility (1/GPa) = 0.01636377
#
# Stress axis : x y z
#
# Youngs Moduli (GPa) = 81.22937 60.56682 64.81026
#
# Poissons Ratio (x) = 0.31382 0.09330
# Poissons Ratio (y) = 0.42088 0.47459
# Poissons Ratio (z) = 0.11693 0.44352
#
# Static dielectric constant tensor:
#      x y z
#    x 3.960300 0.000000 0.160550 
#    y 0.000000 3.644680 0.000000 
#    z 0.160550 0.000000 3.645910 
# 
# 
# High freq. dielectric constant tensor:
#      x y z
#    x 1.791920 0.000000 0.007150 
#    y 0.000000 1.778090 0.000000 
#    z 0.007150 0.000000 1.783700 
# 
# From -- ./inp_files/48862.got.cif
#   From: 2010.06.25/outbox.cif.g09.slc.cpg/sg11_25_cif.got.tgz:48862.got - 2010.06.27 23:14:04.
