data_PCOD8075470
_publ_section_title
;
Structure prediction by ZEFSAII (Michael W. Deem and Ramdas Pophale) SiO2 
 PCOD8075470
Probable space group: P 21/M
;
_chemical_formula_sum "Si O2"
_cell_formula_units_Z 32
_cell_length_a 21.362254
_cell_length_b 8.465120
_cell_length_c 27.530416
_cell_angle_alpha 90.000000
_cell_angle_beta 18.779918
_cell_angle_gamma 90.000000
_cell_volume 1602.727350
_symmetry_space_group_name_H-M "P 21/M"
_symmetry_group_IT_number 11
_symmetry_cell_setting 'monoclinic'
loop_
_space_group_symop_operation_xyz
x,y,z
-x,1/2+y,-z
-x,-y,-z
x,1/2-y,z
loop_
_atom_site_type_symbol
_atom_site_label
_atom_site_fract_x
_atom_site_fract_y
_atom_site_fract_z
Si Si1 0.605683 0.066382 0.816570
Si Si2 0.784088 0.064271 0.158328
Si Si3 0.505785 0.563764 0.441829
Si Si4 0.114692 0.432902 0.309742
Si Si5 0.789382 0.433506 0.863381
Si Si6 0.717564 0.931456 0.634694
Si Si7 0.515328 0.068534 0.695468
Si Si8 0.171130 0.569702 0.616695
O O1 0.616099 0.250000 0.822572
O O2 0.721161 0.965955 0.771352
O O3 0.699798 0.040875 0.694838
O O4 0.385758 0.004381 0.976522
O O5 0.785160 0.250000 0.152158
O O6 0.681401 0.017266 0.284066
O O7 0.675046 0.992436 0.192005
O O8 0.000000 0.000000 0.000000
O O9 0.500000 0.500000 0.500000
O O10 0.541175 0.750000 0.414138
O O11 0.300494 0.519844 0.567839
O O12 0.053435 0.250000 0.356314
O O13 0.201611 0.472421 0.193510
O O14 0.926816 0.539518 0.457174
O O15 0.756020 0.250000 0.877462
O O16 0.984630 0.457147 0.751471
O O17 0.698374 0.750000 0.664428
O O18 0.547924 0.971621 0.720908
O O19 0.482439 0.250000 0.733229
O O20 0.704569 0.046350 0.523255
O O21 0.100677 0.750000 0.673038
#
# Coordination Sequence:
#
# PCOD8075470 Si02
#       8
#     4   4   4   4   4   4   4   4
#     4  12  26  44  62  87 124 162 201 254 313 364
#     4  11  22  39  63  92 126 163 207 254 303 359
#     4  10  21  39  63  92 126 161 205 251 304 362
#     4  12  24  42  66  91 121 160 205 250 302 366
#     4  12  24  40  63  92 123 158 205 254 303 363
#     4  12  24  41  64  93 124 159 205 252 303 362
#     4  10  20  38  64  92 123 161 205 250 300 358
#     4   9  19  37  62  89 121 160 203 247 298 360
#
# _framework density 19.965965000000001
#
# number of rings (size 3 to 8) (size 9 to 14) (size 15 to 20)
#    0.000    1.000    1.250    7.875    0.000    2.500 
#    2.250    0.000    0.000    0.000    0.000    0.000 
#    0.000    0.000    0.000    0.000    0.000    0.000 
#
# Total GULP energy -397032.224255 kJ/mol
# GULP energy per Si atom -12407.257008 kJ/mol
# Density = 1.992052 g / cm^3
# Si number density = 19.965965 Si / 1000 Ang^3
#
#
#
# Elastic Constant Matrix: (Units=GPa)
#
#
# Indices 1 2 3 4 5 6 
#
# 1 104.3962 23.6318 29.3827 0.0000 -6.1186 0.0000
# 2 23.6318 101.0226 28.1556 0.0000 -5.0079 0.0000
# 3 29.3827 28.1556 78.7815 0.0000 -15.1698 0.0000
# 4 0.0000 0.0000 0.0000 33.8607 0.0000 -1.7939
# 5 -6.1186 -5.0079 -15.1698 0.0000 25.2964 0.0000
# 6 0.0000 0.0000 0.0000 -1.7939 0.0000 36.4903
#
#
#
# Elastic Compliance Matrix: (Units=1/GPa)
#
#
# Indices 1 2 3 4 5 6 
#
# 1 0.010925 -0.001578 -0.003462 0.000000 0.000254 0.000000
# 2 -0.001578 0.011223 -0.003468 0.000000 -0.000240 0.000000
# 3 -0.003462 -0.003468 0.016880 0.000000 0.008598 0.000000
# 4 0.000000 0.000000 0.000000 0.029610 0.000000 0.001456
# 5 0.000254 -0.000240 0.008598 0.000000 0.044702 0.000000
# 6 0.000000 0.000000 0.000000 0.001456 0.000000 0.027476
#
#
# Mechanical properties :
#
#
# Convention : Reuss Voigt Hill
#
# Bulk Modulus (GPa) = 45.43219 49.61561 47.52390
# Shear Modulus (GPa) = 30.27193 32.66482 31.46838
#
# Velocity S-wave (km/s) = 3.89804 4.04917 3.97432
# Velocity P-wave (km/s) = 6.56230 6.83850 6.70182
#
# Compressibility (1/GPa) = 0.02201083
#
# Stress axis : x y z
#
# Youngs Moduli (GPa) = 91.52982 89.10467 59.24277
#
# Poissons Ratio (x) = 0.14064 0.20508
# Poissons Ratio (y) = 0.14446 0.20548
# Poissons Ratio (z) = 0.31686 0.30905
#
# Static dielectric constant tensor:
#      x y z
#    x 3.826380 0.000000 -0.148200 
#    y 0.000000 3.721010 0.000000 
#    z -0.148200 0.000000 3.557960 
# 
# 
# High freq. dielectric constant tensor:
#      x y z
#    x 1.785690 0.000000 -0.009960 
#    y 0.000000 1.793380 0.000000 
#    z -0.009960 0.000000 1.773180 
# 
# From -- ./inp_files/72106.got.cif
#   From: 2010.06.25/outbox.cif.g09.slc.cpg/sg11_37_cif.got.tgz:72106.got - 2010.06.27 23:14:04.
