data_PCOD8075283
_publ_section_title
;
Structure prediction by ZEFSAII (Michael W. Deem and Ramdas Pophale) SiO2 
 PCOD8075283
Probable space group: P 21/M
;
_chemical_formula_sum "Si O2"
_cell_formula_units_Z 32
_cell_length_a 11.932206
_cell_length_b 8.828810
_cell_length_c 31.041692
_cell_angle_alpha 90.000000
_cell_angle_beta 29.871039
_cell_angle_gamma 90.000000
_cell_volume 1628.698883
_symmetry_space_group_name_H-M "P 21/M"
_symmetry_group_IT_number 11
_symmetry_cell_setting 'monoclinic'
loop_
_space_group_symop_operation_xyz
x,y,z
-x,1/2+y,-z
-x,-y,-z
x,1/2-y,z
loop_
_atom_site_type_symbol
_atom_site_label
_atom_site_fract_x
_atom_site_fract_y
_atom_site_fract_z
Si Si1 0.682534 0.928474 0.757893
Si Si2 0.029077 0.424458 0.874432
Si Si3 0.848967 0.574945 0.608426
Si Si4 0.210906 0.571398 0.727614
Si Si5 0.133022 0.924951 0.222610
Si Si6 0.569727 0.924731 0.021023
Si Si7 0.790483 0.924931 0.093201
Si Si8 0.333450 0.924917 0.413002
O O1 0.673097 0.750000 0.767749
O O2 0.777055 0.974034 0.679857
O O3 0.855361 0.000222 0.734311
O O4 0.434779 0.994528 0.847522
O O5 0.995697 0.250000 0.872472
O O6 0.137094 0.510553 0.798561
O O7 0.190349 0.443121 0.861702
O O8 0.788753 0.494267 0.967088
O O9 0.792814 0.750000 0.617534
O O10 0.708678 0.473563 0.622143
O O11 0.114423 0.543946 0.514940
O O12 0.190212 0.750000 0.734727
O O13 0.466063 0.521715 0.633111
O O14 0.057092 0.507259 0.741252
O O15 0.067543 0.750000 0.248654
O O16 0.373735 0.947543 0.120469
O O17 0.624138 0.750000 0.994225
O O18 0.500000 0.000000 0.000000
O O19 0.779627 0.750000 0.083080
O O20 0.000000 0.000000 0.000000
O O21 0.404110 0.750000 0.389291
#
# Coordination Sequence:
#
# PCOD8075283 Si02
#       8
#     4   4   4   4   4   4   4   4
#     4  11  23  40  62  87 119 157 198 240 290 352
#     4  11  23  38  58  85 117 152 196 245 296 350
#     4   9  20  39  63  92 122 155 193 236 290 351
#     4  12  24  38  59  87 118 152 194 242 295 350
#     4  11  24  41  60  84 117 156 199 244 292 348
#     4  11  22  36  57  82 113 152 196 244 293 348
#     4  11  24  40  59  85 118 156 198 243 292 344
#     4  10  20  37  63  92 123 153 189 240 294 348
#
# _framework density 19.647583999999998
#
# number of rings (size 3 to 8) (size 9 to 14) (size 15 to 20)
#    0.000    1.250    1.250    4.875    0.000    9.000 
#    0.000    0.625    0.000    0.000    0.000    0.000 
#    0.000    0.000    0.000    0.000    0.000    0.000 
#
# Total GULP energy -397019.927821 kJ/mol
# GULP energy per Si atom -12406.872744 kJ/mol
# Density = 1.960287 g / cm^3
# Si number density = 19.647584 Si / 1000 Ang^3
#
#
#
# Elastic Constant Matrix: (Units=GPa)
#
#
# Indices 1 2 3 4 5 6 
#
# 1 102.0876 61.6193 46.7996 0.0000 -4.0380 0.0000
# 2 61.6193 139.7873 52.2405 0.0000 -3.5045 0.0000
# 3 46.7996 52.2405 95.1050 0.0000 -2.2706 0.0000
# 4 0.0000 0.0000 0.0000 31.6035 0.0000 -3.8542
# 5 -4.0380 -3.5045 -2.2706 0.0000 33.3860 0.0000
# 6 0.0000 0.0000 0.0000 -3.8542 0.0000 38.1447
#
#
#
# Elastic Compliance Matrix: (Units=1/GPa)
#
#
# Indices 1 2 3 4 5 6 
#
# 1 0.014858 -0.004783 -0.004661 0.000000 0.000978 0.000000
# 2 -0.004783 0.010554 -0.003436 0.000000 0.000296 0.000000
# 3 -0.004661 -0.003436 0.014697 0.000000 0.000075 0.000000
# 4 0.000000 0.000000 0.000000 0.032037 0.000000 0.003237
# 5 0.000978 0.000296 0.000075 0.000000 0.030107 0.000000
# 6 0.000000 0.000000 0.000000 0.003237 0.000000 0.026543
#
#
# Mechanical properties :
#
#
# Convention : Reuss Voigt Hill
#
# Bulk Modulus (GPa) = 69.69195 73.14429 71.41812
# Shear Modulus (GPa) = 31.37961 32.38156 31.88059
#
# Velocity S-wave (km/s) = 4.00074 4.06411 4.03255
# Velocity P-wave (km/s) = 7.54249 7.70270 7.62302
#
# Compressibility (1/GPa) = 0.01434886
#
# Stress axis : x y z
#
# Youngs Moduli (GPa) = 67.30468 94.75242 68.03911
#
# Poissons Ratio (x) = 0.45322 0.31710
# Poissons Ratio (y) = 0.32193 0.23381
# Poissons Ratio (z) = 0.31368 0.32560
#
# Static dielectric constant tensor:
#      x y z
#    x 3.514850 0.000000 0.025590 
#    y 0.000000 3.893040 0.000000 
#    z 0.025590 0.000000 3.483340 
# 
# 
# High freq. dielectric constant tensor:
#      x y z
#    x 1.771550 0.000000 -0.005100 
#    y 0.000000 1.781740 0.000000 
#    z -0.005100 0.000000 1.762630 
# 
# From -- ./inp_files/73100.got.cif
#   From: 2010.06.25/outbox.cif.g09.slc.cpg/sg11_37_cif.got.tgz:73100.got - 2010.06.27 23:14:04.
