data_PCOD8075085
_publ_section_title
;
Structure prediction by ZEFSAII (Michael W. Deem and Ramdas Pophale) SiO2 
 PCOD8075085
Probable space group: P 21/M
;
_chemical_formula_sum "Si O2"
_cell_formula_units_Z 28
_cell_length_a 16.353166
_cell_length_b 8.725500
_cell_length_c 11.241826
_cell_angle_alpha 90.000000
_cell_angle_beta 119.667889
_cell_angle_gamma 90.000000
_cell_volume 1393.809274
_symmetry_space_group_name_H-M "P 21/M"
_symmetry_group_IT_number 11
_symmetry_cell_setting 'monoclinic'
loop_
_space_group_symop_operation_xyz
x,y,z
-x,1/2+y,-z
-x,-y,-z
x,1/2-y,z
loop_
_atom_site_type_symbol
_atom_site_label
_atom_site_fract_x
_atom_site_fract_y
_atom_site_fract_z
Si Si1 0.662069 0.427008 0.599807
Si Si2 0.023640 0.570804 0.890885
Si Si3 0.218970 0.928246 0.922330
Si Si4 0.752187 0.426679 0.327123
Si Si5 0.423669 0.429219 0.689089
Si Si6 0.617366 0.929234 0.818129
Si Si7 0.860656 0.425233 0.634757
O O1 0.634680 0.250000 0.561051
O O2 0.602080 0.526881 0.464496
O O3 0.638006 0.476801 0.714301
O O4 0.772893 0.452526 0.659522
O O5 0.026630 0.750000 0.910028
O O6 0.124860 0.511988 0.918899
O O7 0.946096 0.530812 0.736741
O O8 0.000000 0.500000 0.000000
O O9 0.238634 0.750000 0.964600
O O10 0.205782 0.955188 0.772338
O O11 0.305444 0.029975 0.027966
O O12 0.723713 0.250000 0.328926
O O13 0.659140 0.527284 0.279558
O O14 0.831939 0.473380 0.480164
O O15 0.443979 0.250000 0.711267
O O16 0.516462 0.520482 0.796586
O O17 0.619555 0.750000 0.792221
O O18 0.894417 0.250000 0.664936
#
# Coordination Sequence:
#
# PCOD8075085 Si02
#       7
#     4   4   4   4   4   4   4
#     4  10  20  37  59  85 118 153 191 236 286 339
#     4  11  23  38  59  87 118 151 187 231 283 340
#     4  10  23  42  60  81 113 153 195 238 285 337
#     4   9  20  41  63  83 112 150 193 238 283 336
#     4  11  22  37  59  86 116 150 189 235 287 344
#     4  12  24  37  56  84 116 152 194 239 289 340
#     4   9  19  36  60  86 114 149 185 230 287 339
#
# _framework density 20.088832
#
# number of rings (size 3 to 8) (size 9 to 14) (size 15 to 20)
#    0.000    1.714    0.000    5.571    0.000    9.143 
#    0.000    0.000    0.000    0.000    0.000    0.000 
#    0.000    0.000    0.000    0.000    0.000    0.000 
#
# Total GULP energy -347350.976619 kJ/mol
# GULP energy per Si atom -12405.392022 kJ/mol
# Density = 2.004311 g / cm^3
# Si number density = 20.088832 Si / 1000 Ang^3
#
#
#
# Elastic Constant Matrix: (Units=GPa)
#
#
# Indices 1 2 3 4 5 6 
#
# 1 89.0586 28.8586 67.9091 0.0000 -0.7302 0.0000
# 2 28.8586 62.2832 27.9979 0.0000 5.5328 0.0000
# 3 67.9091 27.9979 103.4468 0.0000 9.4252 0.0000
# 4 0.0000 0.0000 0.0000 36.4398 0.0000 3.7757
# 5 -0.7302 5.5328 9.4252 0.0000 37.6845 0.0000
# 6 0.0000 0.0000 0.0000 3.7757 0.0000 28.9710
#
#
#
# Elastic Compliance Matrix: (Units=1/GPa)
#
#
# Indices 1 2 3 4 5 6 
#
# 1 0.024425 -0.004951 -0.015149 0.000000 0.004989 0.000000
# 2 -0.004951 0.019364 -0.001763 0.000000 -0.002498 0.000000
# 3 -0.015149 -0.001763 0.020560 0.000000 -0.005177 0.000000
# 4 0.000000 0.000000 0.000000 0.027818 0.000000 -0.003625
# 5 0.004989 -0.002498 -0.005177 0.000000 0.028294 0.000000
# 6 0.000000 0.000000 0.000000 -0.003625 0.000000 0.034990
#
#
# Mechanical properties :
#
#
# Convention : Reuss Voigt Hill
#
# Bulk Modulus (GPa) = 48.48753 56.03555 52.26154
# Shear Modulus (GPa) = 24.26575 29.28726 26.77650
#
# Velocity S-wave (km/s) = 3.47929 3.82237 3.65486
# Velocity P-wave (km/s) = 6.35056 6.88732 6.62437
#
# Compressibility (1/GPa) = 0.02062386
#
# Stress axis : x y z
#
# Youngs Moduli (GPa) = 40.94184 51.64191 48.63725
#
# Poissons Ratio (x) = 0.25566 0.73679
# Poissons Ratio (y) = 0.20268 0.08577
# Poissons Ratio (z) = 0.62022 0.09107
#
# Static dielectric constant tensor:
#      x y z
#    x 3.835170 0.000000 0.074320 
#    y 0.000000 3.599720 0.000000 
#    z 0.074320 0.000000 3.669030 
# 
# 
# High freq. dielectric constant tensor:
#      x y z
#    x 1.786480 0.000000 0.002500 
#    y 0.000000 1.783350 0.000000 
#    z 0.002500 0.000000 1.787530 
# 
# From -- ./inp_files/37404.got.cif
#   From: 2010.06.25/outbox.cif.g09.slc.cpg/sg11_19_cif.got.tgz:37404.got - 2010.06.27 23:14:04.
