data_PCOD8075505
_publ_section_title
;
Structure prediction by ZEFSAII (Michael W. Deem and Ramdas Pophale) SiO2 
 PCOD8075505
Probable space group: P 21/M
;
_chemical_formula_sum "Si O2"
_cell_formula_units_Z 28
_cell_length_a 14.456098
_cell_length_b 9.211219
_cell_length_c 12.512546
_cell_angle_alpha 90.000000
_cell_angle_beta 59.321179
_cell_angle_gamma 90.000000
_cell_volume 1432.956477
_symmetry_space_group_name_H-M "P 21/M"
_symmetry_group_IT_number 11
_symmetry_cell_setting 'monoclinic'
loop_
_space_group_symop_operation_xyz
x,y,z
-x,1/2+y,-z
-x,-y,-z
x,1/2-y,z
loop_
_atom_site_type_symbol
_atom_site_label
_atom_site_fract_x
_atom_site_fract_y
_atom_site_fract_z
Si Si1 0.932937 0.919249 0.450915
Si Si2 0.225242 0.915614 0.783372
Si Si3 0.226561 0.079742 0.993797
Si Si4 0.009709 0.581937 0.795146
Si Si5 0.599832 0.079231 0.493059
Si Si6 0.388522 0.079535 0.081872
Si Si7 0.685517 0.917796 0.638652
O O1 0.959484 0.750000 0.440469
O O2 0.809232 0.951752 0.545682
O O3 0.965500 0.978871 0.317453
O O4 0.000000 0.000000 0.500000
O O5 0.246339 0.750000 0.802477
O O6 0.099973 0.943676 0.832003
O O7 0.294531 0.957752 0.638587
O O8 0.263829 0.009459 0.860899
O O9 0.236622 0.250000 0.973461
O O10 0.303611 0.024537 0.043302
O O11 0.104455 0.033796 0.090259
O O12 0.008388 0.750000 0.758020
O O13 0.577511 0.250000 0.513111
O O14 0.500000 0.000000 0.500000
O O15 0.614452 0.017503 0.603328
O O16 0.408179 0.250000 0.059603
O O17 0.340783 0.038456 0.224885
O O18 0.500000 0.000000 0.000000
O O19 0.657837 0.750000 0.632113
#
# Coordination Sequence:
#
# PCOD8075505 Si02
#       7
#     4   4   4   4   4   4   4
#     4  11  22  36  60  90 122 160 200 247 300 361
#     4  10  22  39  61  90 124 158 197 249 301 354
#     4  10  22  39  62  88 121 161 201 246 298 361
#     4  10  20  39  61  87 123 158 196 248 304 358
#     4  11  24  41  63  92 124 159 201 251 304 360
#     4  10  23  42  61  86 117 155 200 247 298 351
#     4  10  22  42  64  88 121 158 201 251 303 357
#
# _framework density 19.540022
#
# number of rings (size 3 to 8) (size 9 to 14) (size 15 to 20)
#    0.000    1.714    1.429    2.143    2.000    6.286 
#    0.000    1.429    0.000    0.000    0.000    0.000 
#    0.000    0.000    0.000    0.000    0.000    0.000 
#
# Total GULP energy -347341.002487 kJ/mol
# GULP energy per Si atom -12405.035803 kJ/mol
# Density = 1.949555 g / cm^3
# Si number density = 19.540022 Si / 1000 Ang^3
#
#
#
# Elastic Constant Matrix: (Units=GPa)
#
#
# Indices 1 2 3 4 5 6 
#
# 1 127.2786 49.9868 37.4417 0.0000 16.6252 0.0000
# 2 49.9868 61.5894 29.1060 0.0000 14.4063 0.0000
# 3 37.4417 29.1060 74.1981 0.0000 26.2381 0.0000
# 4 0.0000 0.0000 0.0000 38.7284 0.0000 4.0970
# 5 16.6252 14.4063 26.2381 0.0000 34.6336 0.0000
# 6 0.0000 0.0000 0.0000 4.0970 0.0000 37.5656
#
#
#
# Elastic Compliance Matrix: (Units=1/GPa)
#
#
# Indices 1 2 3 4 5 6 
#
# 1 0.011970 -0.008403 -0.002661 0.000000 -0.000235 0.000000
# 2 -0.008403 0.026099 -0.004897 0.000000 -0.003113 0.000000
# 3 -0.002661 -0.004897 0.021267 0.000000 -0.012797 0.000000
# 4 0.000000 0.000000 0.000000 0.026122 0.000000 -0.002849
# 5 -0.000235 -0.003113 -0.012797 0.000000 0.039976 0.000000
# 6 0.000000 0.000000 0.000000 -0.002849 0.000000 0.026931
#
#
# Mechanical properties :
#
#
# Convention : Reuss Voigt Hill
#
# Bulk Modulus (GPa) = 36.47822 55.12613 45.80218
# Shear Modulus (GPa) = 25.84990 31.95429 28.90209
#
# Velocity S-wave (km/s) = 3.64114 4.04830 3.85011
# Velocity P-wave (km/s) = 6.03210 7.07989 6.57689
#
# Compressibility (1/GPa) = 0.02741361
#
# Stress axis : x y z
#
# Youngs Moduli (GPa) = 83.53966 38.31623 47.02212
#
# Poissons Ratio (x) = 0.32196 0.12514
# Poissons Ratio (y) = 0.70196 0.23027
# Poissons Ratio (z) = 0.22232 0.18763
#
# Static dielectric constant tensor:
#      x y z
#    x 3.819180 0.000000 -0.090300 
#    y 0.000000 3.452920 0.000000 
#    z -0.090300 0.000000 3.853230 
# 
# 
# High freq. dielectric constant tensor:
#      x y z
#    x 1.774510 0.000000 0.002130 
#    y 0.000000 1.758190 0.000000 
#    z 0.002130 0.000000 1.769230 
# 
# From -- ./inp_files/37873.got.cif
#   From: 2010.06.25/outbox.cif.g09.slc.cpg/sg11_19_cif.got.tgz:37873.got - 2010.06.27 23:14:04.
