data_PCOD8075838
_publ_section_title
;
Structure prediction by ZEFSAII (Michael W. Deem and Ramdas Pophale) SiO2 
 PCOD8075838
Probable space group: P 21/M
;
_chemical_formula_sum "Si O2"
_cell_formula_units_Z 24
_cell_length_a 13.713941
_cell_length_b 10.419487
_cell_length_c 19.021286
_cell_angle_alpha 90.000000
_cell_angle_beta 25.775122
_cell_angle_gamma 90.000000
_cell_volume 1181.892872
_symmetry_space_group_name_H-M "P 21/M"
_symmetry_group_IT_number 11
_symmetry_cell_setting 'monoclinic'
loop_
_space_group_symop_operation_xyz
x,y,z
-x,1/2+y,-z
-x,-y,-z
x,1/2-y,z
loop_
_atom_site_type_symbol
_atom_site_label
_atom_site_fract_x
_atom_site_fract_y
_atom_site_fract_z
Si Si1 0.305571 0.396763 0.619606
Si Si2 0.959741 0.954998 0.604946
Si Si3 0.510707 0.393350 0.127745
Si Si4 0.444368 0.609709 0.287571
Si Si5 0.083524 0.899376 0.228700
Si Si6 0.161740 0.391678 0.867561
O O1 0.500000 0.500000 0.500000
O O2 0.394309 0.250000 0.548469
O O3 0.162599 0.399476 0.783427
O O4 0.142251 0.445780 0.663700
O O5 0.184458 0.879693 0.480836
O O6 0.729108 0.875039 0.755654
O O7 0.000000 0.000000 0.500000
O O8 0.924934 0.068323 0.683627
O O9 0.578196 0.250000 0.111614
O O10 0.491313 0.494094 0.203724
O O11 0.693586 0.452627 0.955135
O O12 0.506065 0.750000 0.214496
O O13 0.589874 0.584273 0.262849
O O14 0.100974 0.750000 0.210552
O O15 0.074866 0.250000 0.946985
O O16 0.000000 0.500000 0.000000
#
# Coordination Sequence:
#
# PCOD8075838 Si02
#       6
#     4   4   4   4   4   4
#     4  10  21  38  59  85 116 151 191 236 283 335
#     4  10  21  36  56  82 111 146 186 231 281 336
#     4  10  21  38  61  88 115 149 191 234 282 338
#     4  10  21  37  57  85 120 155 189 231 281 334
#     4  10  21  38  60  85 115 150 190 236 286 338
#     4  10  21  37  58  85 118 153 191 234 281 333
#
# _framework density 20.306408000000001
#
# number of rings (size 3 to 8) (size 9 to 14) (size 15 to 20)
#    0.000    2.000    0.000    3.000    0.000    8.000 
#    0.000    3.333    0.000    0.000    0.000    0.000 
#    0.000    0.000    0.000    0.000    0.000    0.000 
#
# Total GULP energy -297365.152757 kJ/mol
# GULP energy per Si atom -12390.214698 kJ/mol
# Density = 2.026019 g / cm^3
# Si number density = 20.306408 Si / 1000 Ang^3
#
#
#
# Elastic Constant Matrix: (Units=GPa)
#
#
# Indices 1 2 3 4 5 6 
#
# 1 97.4717 32.4318 30.8755 0.0000 2.2518 0.0000
# 2 32.4318 93.9156 46.1698 0.0000 -4.9976 0.0000
# 3 30.8755 46.1698 95.0213 0.0000 -2.7960 0.0000
# 4 0.0000 0.0000 0.0000 29.9127 0.0000 0.9945
# 5 2.2518 -4.9976 -2.7960 0.0000 28.1726 0.0000
# 6 0.0000 0.0000 0.0000 0.9945 0.0000 32.2679
#
#
#
# Elastic Compliance Matrix: (Units=1/GPa)
#
#
# Indices 1 2 3 4 5 6 
#
# 1 0.012106 -0.003041 -0.002508 0.000000 -0.001756 0.000000
# 2 -0.003041 0.014846 -0.006159 0.000000 0.002265 0.000000
# 3 -0.002508 -0.006159 0.014347 0.000000 0.000532 0.000000
# 4 0.000000 0.000000 0.000000 0.033465 0.000000 -0.001031
# 5 -0.001756 0.002265 0.000532 0.000000 0.036090 0.000000
# 6 0.000000 0.000000 0.000000 -0.001031 0.000000 0.031022
#
#
# Mechanical properties :
#
#
# Convention : Reuss Voigt Hill
#
# Bulk Modulus (GPa) = 55.91584 56.15141 56.03363
# Shear Modulus (GPa) = 29.19639 29.86608 29.53124
#
# Velocity S-wave (km/s) = 3.79594 3.83922 3.81764
# Velocity P-wave (km/s) = 6.84164 6.88222 6.86196
#
# Compressibility (1/GPa) = 0.01788402
#
# Stress axis : x y z
#
# Youngs Moduli (GPa) = 82.60216 67.35643 69.70133
#
# Poissons Ratio (x) = 0.20485 0.17479
# Poissons Ratio (y) = 0.25122 0.42928
# Poissons Ratio (z) = 0.20714 0.41484
#
# Static dielectric constant tensor:
#      x y z
#    x 4.129630 0.000000 -0.514900 
#    y 0.000000 3.625270 0.000000 
#    z -0.514900 0.000000 4.060650 
# 
# 
# High freq. dielectric constant tensor:
#      x y z
#    x 1.799210 0.000000 -0.016490 
#    y 0.000000 1.788860 0.000000 
#    z -0.016490 0.000000 1.792930 
# 
# From -- ./inp_files/59113.got.cif
#   From: 2010.06.25/outbox.cif.g09.slc.cpg/sg11_30_cif.got.tgz:59113.got - 2010.06.27 23:14:04.
