data_PCOD8075961
_publ_section_title
;
Structure prediction by ZEFSAII (Michael W. Deem and Ramdas Pophale) SiO2 
 PCOD8075961
Probable space group: P 21/M
;
_chemical_formula_sum "Si O2"
_cell_formula_units_Z 24
_cell_length_a 25.191281
_cell_length_b 9.257226
_cell_length_c 12.447150
_cell_angle_alpha 90.000000
_cell_angle_beta 154.628549
_cell_angle_gamma 90.000000
_cell_volume 1243.760146
_symmetry_space_group_name_H-M "P 21/M"
_symmetry_group_IT_number 11
_symmetry_cell_setting 'monoclinic'
loop_
_space_group_symop_operation_xyz
x,y,z
-x,1/2+y,-z
-x,-y,-z
x,1/2-y,z
loop_
_atom_site_type_symbol
_atom_site_label
_atom_site_fract_x
_atom_site_fract_y
_atom_site_fract_z
Si Si1 0.374481 0.420967 0.257250
Si Si2 0.732608 0.915694 0.167280
Si Si3 0.374802 0.082994 0.803580
Si Si4 0.040635 0.589069 0.470731
Si Si5 0.806020 0.590037 0.896424
Si Si6 0.867077 0.576729 0.776251
O O1 0.500000 0.500000 0.500000
O O2 0.387843 0.250000 0.291934
O O3 0.287910 0.487874 0.192970
O O4 0.326483 0.463671 0.052647
O O5 0.776608 0.750000 0.244507
O O6 0.638512 0.942032 0.093103
O O7 0.851365 0.014758 0.399285
O O8 0.396510 0.250000 0.814505
O O9 0.244766 0.032032 0.509902
O O10 0.500000 0.000000 0.000000
O O11 0.077580 0.750000 0.576787
O O12 0.000000 0.500000 0.500000
O O13 0.936042 0.597542 0.191613
O O14 0.753964 0.750000 0.779753
O O15 0.819689 0.516258 0.805153
O O16 0.889187 0.750000 0.815103
O O17 0.000000 0.500000 0.000000
#
# Coordination Sequence:
#
# PCOD8075961 Si02
#       6
#     4   4   4   4   4   4
#     4  10  21  37  55  78 111 147 183 230 279 329
#     4  10  21  39  58  81 116 148 182 234 286 333
#     4  10  23  40  61  87 117 154 195 241 290 343
#     4  11  20  34  57  85 114 147 184 226 281 340
#     4   9  19  36  57  80 112 147 178 225 282 331
#     4  10  21  39  61  86 115 151 194 238 285 340
#
# _framework density 19.296326000000001
#
# number of rings (size 3 to 8) (size 9 to 14) (size 15 to 20)
#    0.000    2.000    1.667    1.500    2.333    2.000 
#    0.000    1.667    0.000    0.000    0.000    0.000 
#    0.000    0.000    0.000    0.000    0.000    0.000 
#
# Total GULP energy -297404.318716 kJ/mol
# GULP energy per Si atom -12391.846613 kJ/mol
# Density = 1.925241 g / cm^3
# Si number density = 19.296326 Si / 1000 Ang^3
#
#
#
# Elastic Constant Matrix: (Units=GPa)
#
#
# Indices 1 2 3 4 5 6 
#
# 1 167.7913 42.8065 72.4942 0.0000 1.8830 0.0000
# 2 42.8065 53.7248 36.2915 0.0000 13.9950 0.0000
# 3 72.4942 36.2915 108.8796 0.0000 20.7432 0.0000
# 4 0.0000 0.0000 0.0000 32.7337 0.0000 10.0752
# 5 1.8830 13.9950 20.7432 0.0000 37.0285 0.0000
# 6 0.0000 0.0000 0.0000 10.0752 0.0000 26.3888
#
#
#
# Elastic Compliance Matrix: (Units=1/GPa)
#
#
# Indices 1 2 3 4 5 6 
#
# 1 0.009613 -0.005080 -0.005575 0.000000 0.004554 0.000000
# 2 -0.005080 0.027614 -0.004347 0.000000 -0.007744 0.000000
# 3 -0.005575 -0.004347 0.015649 0.000000 -0.006840 0.000000
# 4 0.000000 0.000000 0.000000 0.034618 0.000000 -0.013217
# 5 0.004554 -0.007744 -0.006840 0.000000 0.033533 0.000000
# 6 0.000000 0.000000 0.000000 -0.013217 0.000000 0.042941
#
#
# Mechanical properties :
#
#
# Convention : Reuss Voigt Hill
#
# Bulk Modulus (GPa) = 43.72089 70.39780 57.05934
# Shear Modulus (GPa) = 24.80203 31.15041 27.97622
#
# Velocity S-wave (km/s) = 3.58903 4.02222 3.81178
# Velocity P-wave (km/s) = 6.31519 7.62448 7.00051
#
# Compressibility (1/GPa) = 0.02287236
#
# Stress axis : x y z
#
# Youngs Moduli (GPa) = 104.02083 36.21302 63.90387
#
# Poissons Ratio (x) = 0.18396 0.35628
# Poissons Ratio (y) = 0.52843 0.27777
# Poissons Ratio (z) = 0.57994 0.15741
#
# Static dielectric constant tensor:
#      x y z
#    x 4.099610 0.000000 -0.415410 
#    y 0.000000 3.413360 0.000000 
#    z -0.415410 0.000000 3.666950 
# 
# 
# High freq. dielectric constant tensor:
#      x y z
#    x 1.771550 0.000000 -0.003010 
#    y 0.000000 1.728400 0.000000 
#    z -0.003010 0.000000 1.752370 
# 
# From -- ./inp_files/27668.got.cif
#   From: 2010.06.25/outbox.cif.g09.slc.cpg/sg11_14_cif.got.tgz:27668.got - 2010.06.27 23:14:04.
