data_PCOD8075628
_publ_section_title
;
Structure prediction by ZEFSAII (Michael W. Deem and Ramdas Pophale) SiO2 
 PCOD8075628
Probable space group: P 21/M
;
_chemical_formula_sum "Si O2"
_cell_formula_units_Z 28
_cell_length_a 25.382298
_cell_length_b 8.763543
_cell_length_c 9.541687
_cell_angle_alpha 90.000000
_cell_angle_beta 140.171798
_cell_angle_gamma 90.000000
_cell_volume 1359.398161
_symmetry_space_group_name_H-M "P 21/M"
_symmetry_group_IT_number 11
_symmetry_cell_setting 'monoclinic'
loop_
_space_group_symop_operation_xyz
x,y,z
-x,1/2+y,-z
-x,-y,-z
x,1/2-y,z
loop_
_atom_site_type_symbol
_atom_site_label
_atom_site_fract_x
_atom_site_fract_y
_atom_site_fract_z
Si Si1 0.815842 0.576768 0.425083
Si Si2 0.912855 0.930083 0.363749
Si Si3 0.078267 0.075402 0.093019
Si Si4 0.340513 0.427215 0.512284
Si Si5 0.177281 0.928637 0.064068
Si Si6 0.638327 0.931050 0.125593
Si Si7 0.498033 0.072309 0.649222
O O1 0.806010 0.750000 0.355402
O O2 0.881916 0.504256 0.451850
O O3 0.846548 0.566540 0.646114
O O4 0.724630 0.503608 0.239572
O O5 0.924963 0.750000 0.387899
O O6 0.000000 0.000000 0.500000
O O7 0.838391 0.979454 0.110388
O O8 0.060560 0.250000 0.012410
O O9 0.101049 0.973882 0.006767
O O10 0.000000 0.000000 0.000000
O O11 0.314415 0.250000 0.459566
O O12 0.263095 0.526446 0.308236
O O13 0.370267 0.477060 0.728138
O O14 0.411103 0.461562 0.544106
O O15 0.175020 0.750000 0.029213
O O16 0.633191 0.750000 0.099385
O O17 0.566909 0.005401 0.890662
O O18 0.514238 0.250000 0.665276
O O19 0.500000 0.000000 0.500000
#
# Coordination Sequence:
#
# PCOD8075628 Si02
#       7
#     4   4   4   4   4   4   4
#     4   9  20  38  63  89 119 160 206 254 311 373
#     4  11  23  41  63  90 125 167 212 261 321 380
#     4  11  21  39  64  93 127 164 209 261 317 373
#     4  10  22  43  68  91 123 166 209 254 317 376
#     4  12  25  40  61  93 128 167 215 261 310 371
#     4  10  20  41  68  93 122 161 205 256 315 372
#     4  11  25  42  64  97 130 165 204 250 308 373
#
# _framework density 20.597349999999999
#
# number of rings (size 3 to 8) (size 9 to 14) (size 15 to 20)
#    0.000    1.429    1.429    3.857    2.000    2.857 
#    0.000    2.857    0.000    0.000    0.000    0.000 
#    0.000    0.000    0.000    0.000    0.000    0.000 
#
# Total GULP energy -347203.194835 kJ/mol
# GULP energy per Si atom -12400.114101 kJ/mol
# Density = 2.055047 g / cm^3
# Si number density = 20.597350 Si / 1000 Ang^3
#
#
#
# Elastic Constant Matrix: (Units=GPa)
#
#
# Indices 1 2 3 4 5 6 
#
# 1 114.6780 40.9665 20.1000 0.0000 -9.8026 0.0000
# 2 40.9665 76.7392 33.3075 0.0000 2.0694 0.0000
# 3 20.1000 33.3075 83.0657 0.0000 -5.2211 0.0000
# 4 0.0000 0.0000 0.0000 36.5743 0.0000 3.0919
# 5 -9.8026 2.0694 -5.2211 0.0000 37.1110 0.0000
# 6 0.0000 0.0000 0.0000 3.0919 0.0000 30.3713
#
#
#
# Elastic Compliance Matrix: (Units=1/GPa)
#
#
# Indices 1 2 3 4 5 6 
#
# 1 0.011161 -0.006010 -0.000086 0.000000 0.003271 0.000000
# 2 -0.006010 0.019131 -0.006441 0.000000 -0.003560 0.000000
# 3 -0.000086 -0.006441 0.014794 0.000000 0.002418 0.000000
# 4 0.000000 0.000000 0.000000 0.027579 0.000000 -0.002808
# 5 0.003271 -0.003560 0.002418 0.000000 0.028349 0.000000
# 6 0.000000 0.000000 0.000000 -0.002808 0.000000 0.033212
#
#
# Mechanical properties :
#
#
# Convention : Reuss Voigt Hill
#
# Bulk Modulus (GPa) = 49.96314 51.47010 50.71662
# Shear Modulus (GPa) = 30.12616 32.81857 31.47237
#
# Velocity S-wave (km/s) = 3.82857 3.99600 3.91318
# Velocity P-wave (km/s) = 6.62221 6.80688 6.71518
#
# Compressibility (1/GPa) = 0.02001475
#
# Stress axis : x y z
#
# Youngs Moduli (GPa) = 89.59379 52.27185 67.59561
#
# Poissons Ratio (x) = 0.31413 0.00578
# Poissons Ratio (y) = 0.53842 0.43536
# Poissons Ratio (z) = 0.00766 0.33666
#
# Static dielectric constant tensor:
#      x y z
#    x 3.986660 0.000000 -0.164070 
#    y 0.000000 3.661430 0.000000 
#    z -0.164070 0.000000 3.792750 
# 
# 
# High freq. dielectric constant tensor:
#      x y z
#    x 1.825340 0.000000 -0.000780 
#    y 0.000000 1.790330 0.000000 
#    z -0.000780 0.000000 1.815060 
# 
# From -- ./inp_files/28560.got.cif
#   From: 2010.06.25/outbox.cif.g09.slc.cpg/sg11_15_cif.got.tgz:28560.got - 2010.06.27 23:14:04.
