data_PCOD8075936
_publ_section_title
;
Structure prediction by ZEFSAII (Michael W. Deem and Ramdas Pophale) SiO2 
 PCOD8075936
Probable space group: P 21/M
;
_chemical_formula_sum "Si O2"
_cell_formula_units_Z 24
_cell_length_a 9.319547
_cell_length_b 21.440831
_cell_length_c 7.750352
_cell_angle_alpha 90.000000
_cell_angle_beta 50.443982
_cell_angle_gamma 90.000000
_cell_volume 1194.025302
_symmetry_space_group_name_H-M "P 21/M"
_symmetry_group_IT_number 11
_symmetry_cell_setting 'monoclinic'
loop_
_space_group_symop_operation_xyz
x,y,z
-x,1/2+y,-z
-x,-y,-z
x,1/2-y,z
loop_
_atom_site_type_symbol
_atom_site_label
_atom_site_fract_x
_atom_site_fract_y
_atom_site_fract_z
Si Si1 0.765838 0.497486 0.441890
Si Si2 0.895773 0.177672 0.991602
Si Si3 0.132222 0.374198 0.505968
Si Si4 0.592692 0.926580 0.270112
Si Si5 0.059801 0.391106 0.186915
Si Si6 0.482757 0.321339 0.404154
O O1 0.823125 0.552008 0.529167
O O2 0.594647 0.458929 0.656790
O O3 0.704755 0.526362 0.306731
O O4 0.938423 0.453236 0.272934
O O5 0.939326 0.250000 0.928672
O O6 0.980169 0.139141 0.768935
O O7 0.676696 0.163321 0.161838
O O8 0.990001 0.157698 0.098442
O O9 0.048642 0.357920 0.382533
O O10 0.318114 0.334136 0.394814
O O11 0.538327 0.863651 0.411711
O O12 0.724993 0.909261 0.009809
O O13 0.477208 0.250000 0.470897
#
# Coordination Sequence:
#
# PCOD8075936 Si02
#       6
#     4   4   4   4   4   4
#     4  10  21  39  59  96 130 161 204 252 308 373
#     4  11  24  43  65  87 122 165 210 262 308 365
#     4  11  25  39  64  94 127 163 205 258 311 372
#     4  10  21  36  66  93 122 166 206 250 305 372
#     4  12  23  39  66  95 124 165 205 255 312 369
#     4  10  21  42  63  85 122 166 207 255 310 362
#
# _framework density 20.100076999999999
#
# number of rings (size 3 to 8) (size 9 to 14) (size 15 to 20)
#    0.000    1.333    5.000    1.500    0.000    3.333 
#    0.000    0.000    0.000    0.000    0.000    0.000 
#    0.000    0.000    0.000    0.000    0.000    0.000 
#
# Total GULP energy -297695.853899 kJ/mol
# GULP energy per Si atom -12403.993912 kJ/mol
# Density = 2.005433 g / cm^3
# Si number density = 20.100077 Si / 1000 Ang^3
#
#
#
# Elastic Constant Matrix: (Units=GPa)
#
#
# Indices 1 2 3 4 5 6 
#
# 1 66.5812 42.5255 77.1629 0.0000 3.6936 0.0000
# 2 42.5255 100.4947 55.5004 0.0000 -14.7449 0.0000
# 3 77.1629 55.5004 132.5333 0.0000 -13.8581 0.0000
# 4 0.0000 0.0000 0.0000 16.5273 0.0000 -7.7850
# 5 3.6936 -14.7449 -13.8581 0.0000 39.7885 0.0000
# 6 0.0000 0.0000 0.0000 -7.7850 0.0000 15.5666
#
#
#
# Elastic Compliance Matrix: (Units=1/GPa)
#
#
# Indices 1 2 3 4 5 6 
#
# 1 0.063233 -0.010899 -0.034546 0.000000 -0.021941 0.000000
# 2 -0.010899 0.015182 0.000707 0.000000 0.006884 0.000000
# 3 -0.034546 0.000707 0.028773 0.000000 0.013490 0.000000
# 4 0.000000 0.000000 0.000000 0.079152 0.000000 0.039585
# 5 -0.021941 0.006884 0.013490 0.000000 0.034420 0.000000
# 6 0.000000 0.000000 0.000000 0.039585 0.000000 0.084037
#
#
# Mechanical properties :
#
#
# Convention : Reuss Voigt Hill
#
# Bulk Modulus (GPa) = 56.45121 72.22076 64.33599
# Shear Modulus (GPa) = 12.49454 22.67116 17.58285
#
# Velocity S-wave (km/s) = 2.49593 3.36209 2.96085
# Velocity P-wave (km/s) = 6.03757 7.14703 6.61560
#
# Compressibility (1/GPa) = 0.01771441
#
# Stress axis : x y z
#
# Youngs Moduli (GPa) = 15.81443 65.86736 34.75524
#
# Poissons Ratio (x) = 0.71786 1.20064
# Poissons Ratio (y) = 0.17235 -0.02459
# Poissons Ratio (z) = 0.54632 -0.04660
#
# Static dielectric constant tensor:
#      x y z
#    x 3.604950 0.000000 -0.302760 
#    y 0.000000 3.753370 0.000000 
#    z -0.302760 0.000000 3.685290 
# 
# 
# High freq. dielectric constant tensor:
#      x y z
#    x 1.773620 0.000000 -0.022880 
#    y 0.000000 1.791520 0.000000 
#    z -0.022880 0.000000 1.788800 
# 
# From -- ./inp_files/14222.got.cif
#   From: 2010.06.25/outbox.cif.g09.slc.cpg/sg11_8_cif.got.tgz:14222.got - 2010.06.27 23:14:04.
