data_PCOD8075324
_publ_section_title
;
Structure prediction by ZEFSAII (Michael W. Deem and Ramdas Pophale) SiO2 
 PCOD8075324
Probable space group: P 21/M
;
_chemical_formula_sum "Si O2"
_cell_formula_units_Z 28
_cell_length_a 27.987699
_cell_length_b 9.966519
_cell_length_c 8.977268
_cell_angle_alpha 90.000000
_cell_angle_beta 34.412640
_cell_angle_gamma 90.000000
_cell_volume 1415.200134
_symmetry_space_group_name_H-M "P 21/M"
_symmetry_group_IT_number 11
_symmetry_cell_setting 'monoclinic'
loop_
_space_group_symop_operation_xyz
x,y,z
-x,1/2+y,-z
-x,-y,-z
x,1/2-y,z
loop_
_atom_site_type_symbol
_atom_site_label
_atom_site_fract_x
_atom_site_fract_y
_atom_site_fract_z
Si Si1 0.293323 0.093256 0.863906
Si Si2 0.000652 0.470135 0.744401
Si Si3 0.753339 0.903001 0.681141
Si Si4 0.117372 0.397819 0.185556
Si Si5 0.589774 0.093631 0.608386
Si Si6 0.397308 0.402031 0.151873
Si Si7 0.102101 0.892766 0.720196
O O1 0.321118 0.250000 0.777096
O O2 0.368138 0.989459 0.634223
O O3 0.266384 0.059479 0.099697
O O4 0.214491 0.058889 0.959018
O O5 0.925370 0.508513 0.826129
O O6 0.070356 0.394042 0.466384
O O7 0.048684 0.591091 0.704908
O O8 0.961457 0.380298 0.976003
O O9 0.782624 0.750000 0.589052
O O10 0.669571 0.933003 0.803688
O O11 0.830886 0.990549 0.421932
O O12 0.114941 0.250000 0.123844
O O13 0.619755 0.250000 0.536939
O O14 0.616413 0.015414 0.689260
O O15 0.489558 0.085909 0.841425
O O16 0.385368 0.250000 0.248044
O O17 0.149465 0.750000 0.584664
#
# Coordination Sequence:
#
# PCOD8075324 Si02
#       7
#     4   4   4   4   4   4   4
#     4  10  21  38  59  85 116 154 194 233 282 342
#     4  10  22  38  57  83 115 154 193 240 288 343
#     4  10  22  40  61  84 115 155 196 236 282 345
#     4  10  20  38  59  81 111 155 199 234 279 343
#     4  10  21  38  61  90 120 149 187 236 287 339
#     4   9  20  40  63  87 116 153 192 231 281 347
#     4  11  23  38  58  87 119 151 192 244 292 337
#
# _framework density 19.785188000000002
#
# number of rings (size 3 to 8) (size 9 to 14) (size 15 to 20)
#    0.000    2.000    1.429    1.286    2.000    5.143 
#    0.000    0.714    0.000    0.000    0.000    0.000 
#    0.000    0.000    0.000    0.000    0.000    0.000 
#
# Total GULP energy -347081.482305 kJ/mol
# GULP energy per Si atom -12395.767225 kJ/mol
# Density = 1.974016 g / cm^3
# Si number density = 19.785188 Si / 1000 Ang^3
#
#
#
# Elastic Constant Matrix: (Units=GPa)
#
#
# Indices 1 2 3 4 5 6 
#
# 1 86.9855 33.6837 20.5101 0.0000 -5.5754 0.0000
# 2 33.6837 116.0500 40.0933 0.0000 -9.5892 0.0000
# 3 20.5101 40.0933 69.2792 0.0000 -6.8526 0.0000
# 4 0.0000 0.0000 0.0000 23.0619 0.0000 -3.1299
# 5 -5.5754 -9.5892 -6.8526 0.0000 20.7606 0.0000
# 6 0.0000 0.0000 0.0000 -3.1299 0.0000 17.4314
#
#
#
# Elastic Compliance Matrix: (Units=1/GPa)
#
#
# Indices 1 2 3 4 5 6 
#
# 1 0.013238 -0.003020 -0.002024 0.000000 0.001492 0.000000
# 2 -0.003020 0.011645 -0.005575 0.000000 0.002727 0.000000
# 3 -0.002024 -0.005575 0.018558 0.000000 0.003007 0.000000
# 4 0.000000 0.000000 0.000000 0.044445 0.000000 0.007980
# 5 0.001492 0.002727 0.003007 0.000000 0.050821 0.000000
# 6 0.000000 0.000000 0.000000 0.007980 0.000000 0.058800
#
#
# Mechanical properties :
#
#
# Convention : Reuss Voigt Hill
#
# Bulk Modulus (GPa) = 45.04001 51.20991 48.12496
# Shear Modulus (GPa) = 22.10953 24.11930 23.11441
#
# Velocity S-wave (km/s) = 3.34650 3.49529 3.42170
# Velocity P-wave (km/s) = 6.14378 6.49835 6.32355
#
# Compressibility (1/GPa) = 0.02220248
#
# Stress axis : x y z
#
# Youngs Moduli (GPa) = 75.53747 85.87298 53.88646
#
# Poissons Ratio (x) = 0.25933 0.10906
# Poissons Ratio (y) = 0.22812 0.30044
# Poissons Ratio (z) = 0.15288 0.47878
#
# Static dielectric constant tensor:
#      x y z
#    x 3.541250 0.000000 -0.021180 
#    y 0.000000 3.555280 0.000000 
#    z -0.021180 0.000000 3.600050 
# 
# 
# High freq. dielectric constant tensor:
#      x y z
#    x 1.773370 0.000000 -0.000940 
#    y 0.000000 1.767320 0.000000 
#    z -0.000940 0.000000 1.771650 
# 
# From -- ./inp_files/28464.got.cif
#   From: 2010.06.25/outbox.cif.g09.slc.cpg/sg11_15_cif.got.tgz:28464.got - 2010.06.27 23:14:04.
