data_PCOD8075377
_publ_section_title
;
Structure prediction by ZEFSAII (Michael W. Deem and Ramdas Pophale) SiO2 
 PCOD8075377
Probable space group: P 21/M
;
_chemical_formula_sum "Si O2"
_cell_formula_units_Z 20
_cell_length_a 5.007550
_cell_length_b 23.391612
_cell_length_c 7.599158
_cell_angle_alpha 90.000000
_cell_angle_beta 108.956986
_cell_angle_gamma 90.000000
_cell_volume 841.846893
_symmetry_space_group_name_H-M "P 21/M"
_symmetry_group_IT_number 11
_symmetry_cell_setting 'monoclinic'
loop_
_space_group_symop_operation_xyz
x,y,z
-x,1/2+y,-z
-x,-y,-z
x,1/2-y,z
loop_
_atom_site_type_symbol
_atom_site_label
_atom_site_fract_x
_atom_site_fract_y
_atom_site_fract_z
Si Si1 0.761676 0.812723 0.277679
Si Si2 0.546915 0.926223 0.110559
Si Si3 0.476547 0.570223 0.700885
Si Si4 0.622310 0.187039 0.467758
Si Si5 0.141916 0.973486 0.312755
O O1 0.780095 0.750000 0.189000
O O2 0.647639 0.860288 0.118946
O O3 0.553919 0.808921 0.394880
O O4 0.063703 0.832376 0.414361
O O5 0.310038 0.933438 0.209329
O O6 0.809153 0.966996 0.216078
O O7 0.425436 0.944243 0.895001
O O8 0.509074 0.638631 0.686578
O O9 0.766662 0.539469 0.700101
O O10 0.218791 0.545109 0.529047
O O11 0.623482 0.250000 0.375000
#
# Coordination Sequence:
#
# PCOD8075377 Si02
#       5
#     4   4   4   4   4
#     4  10  20  38  61  86 123 159 201 259 308 355
#     4  12  23  42  64  92 126 165 209 252 311 370
#     4  11  24  41  68  91 126 168 206 254 310 371
#     4  10  21  40  62  88 122 161 204 255 308 361
#     4  11  26  42  60  97 130 161 205 258 310 363
#
# _framework density 23.757287000000002
#
# number of rings (size 3 to 8) (size 9 to 14) (size 15 to 20)
#    0.000    1.200    4.000    1.200    0.000    8.800 
#    0.000    0.000    0.000    7.200    0.000    0.000 
#    0.000    0.000    0.000    0.000    0.000    0.000 
#
# Total GULP energy -248001.322688 kJ/mol
# GULP energy per Si atom -12400.066134 kJ/mol
# Density = 2.370321 g / cm^3
# Si number density = 23.757287 Si / 1000 Ang^3
#
#
#
# Elastic Constant Matrix: (Units=GPa)
#
#
# Indices 1 2 3 4 5 6 
#
# 1 85.5784 -4.0011 28.4981 0.0000 -1.1982 0.0000
# 2 -4.0011 155.1808 49.3596 0.0000 11.5034 0.0000
# 3 28.4981 49.3596 160.9798 0.0000 -7.5428 0.0000
# 4 0.0000 0.0000 0.0000 38.3379 0.0000 0.2456
# 5 -1.1982 11.5034 -7.5428 0.0000 12.3526 0.0000
# 6 0.0000 0.0000 0.0000 0.2456 0.0000 27.1346
#
#
#
# Elastic Compliance Matrix: (Units=1/GPa)
#
#
# Indices 1 2 3 4 5 6 
#
# 1 0.012628 0.001312 -0.002715 0.000000 -0.001655 0.000000
# 2 0.001312 0.008192 -0.003187 0.000000 -0.009447 0.000000
# 3 -0.002715 -0.003187 0.008026 0.000000 0.007605 0.000000
# 4 0.000000 0.000000 0.000000 0.026085 0.000000 -0.000236
# 5 -0.001655 -0.009447 0.007605 0.000000 0.094236 0.000000
# 6 0.000000 0.000000 0.000000 -0.000236 0.000000 0.036855
#
#
# Mechanical properties :
#
#
# Convention : Reuss Voigt Hill
#
# Bulk Modulus (GPa) = 50.85060 61.05022 55.95041
# Shear Modulus (GPa) = 24.78225 37.42384 31.10305
#
# Velocity S-wave (km/s) = 3.23328 3.97326 3.62221
# Velocity P-wave (km/s) = 5.94890 6.84122 6.41061
#
# Compressibility (1/GPa) = 0.01966545
#
# Stress axis : x y z
#
# Youngs Moduli (GPa) = 79.19199 122.07242 124.59383
#
# Poissons Ratio (x) = -0.16015 0.33830
# Poissons Ratio (y) = -0.10389 0.39704
# Poissons Ratio (z) = 0.21502 0.38901
#
# Static dielectric constant tensor:
#      x y z
#    x 4.064240 0.000000 -0.014530 
#    y 0.000000 5.245860 0.000000 
#    z -0.014530 0.000000 3.971620 
# 
# 
# High freq. dielectric constant tensor:
#      x y z
#    x 1.944140 0.000000 0.000210 
#    y 0.000000 1.972450 0.000000 
#    z 0.000210 0.000000 1.911430 
# 
# From -- ./inp_files/2627.got.cif
#   From: 2010.06.25/outbox.cif.g09.slc.cpg/sg11_2_cif.got.tgz:2627.got - 2010.06.27 23:14:04.
