data_PCOD8075563
_publ_section_title
;
Structure prediction by ZEFSAII (Michael W. Deem and Ramdas Pophale) SiO2 
 PCOD8075563
Probable space group: P 21/M
;
_chemical_formula_sum "Si O2"
_cell_formula_units_Z 32
_cell_length_a 14.931807
_cell_length_b 15.107684
_cell_length_c 20.657137
_cell_angle_alpha 90.000000
_cell_angle_beta 19.700818
_cell_angle_gamma 90.000000
_cell_volume 1570.906549
_symmetry_space_group_name_H-M "P 21/M"
_symmetry_group_IT_number 11
_symmetry_cell_setting 'monoclinic'
loop_
_space_group_symop_operation_xyz
x,y,z
-x,1/2+y,-z
-x,-y,-z
x,1/2-y,z
loop_
_atom_site_type_symbol
_atom_site_label
_atom_site_fract_x
_atom_site_fract_y
_atom_site_fract_z
Si Si1 0.522736 0.352018 0.839710
Si Si2 0.250254 0.557391 0.189752
Si Si3 0.808486 0.494948 0.571009
Si Si4 0.965601 0.072318 0.207294
Si Si5 0.494946 0.146980 0.281430
Si Si6 0.589048 0.847767 0.417993
Si Si7 0.154236 0.408571 0.630900
Si Si8 0.990722 0.950381 0.073447
O O1 0.581655 0.250000 0.784452
O O2 0.677568 0.378669 0.799964
O O3 0.622918 0.408903 0.709060
O O4 0.207751 0.365656 0.065424
O O5 0.003567 0.490818 0.375695
O O6 0.129782 0.614867 0.211324
O O7 0.500000 0.500000 0.000000
O O8 0.637382 0.585729 0.684001
O O9 0.000000 0.500000 0.500000
O O10 0.709988 0.127800 0.357862
O O11 0.867813 0.011101 0.332955
O O12 0.078406 0.017170 0.070105
O O13 0.423165 0.250000 0.319507
O O14 0.396903 0.111045 0.417545
O O15 0.810595 0.133265 0.063674
O O16 0.589901 0.750000 0.388635
O O17 0.788925 0.851292 0.343584
O O18 0.695912 0.913549 0.289411
O O19 0.000000 0.000000 0.000000
#
# Coordination Sequence:
#
# PCOD8075563 Si02
#       8
#     4   4   4   4   4   4   4   4
#     4  11  22  40  64  93 127 172 213 251 312 385
#     4  10  20  39  66  90 122 161 208 263 317 368
#     4   9  21  37  60  88 124 163 199 257 307 363
#     4  11  21  40  63  86 125 173 204 253 313 376
#     4  11  21  37  62  93 121 162 211 259 312 370
#     4  11  23  38  58  93 125 158 207 261 308 370
#     4  10  21  37  64  87 122 161 208 252 318 368
#     4  11  22  39  62  86 123 163 210 253 317 370
#
# _framework density 20.370404000000001
#
# number of rings (size 3 to 8) (size 9 to 14) (size 15 to 20)
#    0.000    1.500    2.500    4.125    0.000    5.000 
#    0.000    2.500    0.000    0.750    0.000    0.000 
#    0.000    0.000    0.000    0.000    0.000    0.000 
#
# Total GULP energy -396554.865374 kJ/mol
# GULP energy per Si atom -12392.339543 kJ/mol
# Density = 2.032404 g / cm^3
# Si number density = 20.370404 Si / 1000 Ang^3
#
#
#
# Elastic Constant Matrix: (Units=GPa)
#
#
# Indices 1 2 3 4 5 6 
#
# 1 96.8721 47.5302 37.5825 0.0000 -3.1058 0.0000
# 2 47.5302 139.7852 51.8994 0.0000 2.9061 0.0000
# 3 37.5825 51.8994 124.4121 0.0000 -9.4721 0.0000
# 4 0.0000 0.0000 0.0000 23.2599 0.0000 -3.1612
# 5 -3.1058 2.9061 -9.4721 0.0000 28.3240 0.0000
# 6 0.0000 0.0000 0.0000 -3.1612 0.0000 22.0546
#
#
#
# Elastic Compliance Matrix: (Units=1/GPa)
#
#
# Indices 1 2 3 4 5 6 
#
# 1 0.013026 -0.003570 -0.002369 0.000000 0.001002 0.000000
# 2 -0.003570 0.009567 -0.003096 0.000000 -0.002408 0.000000
# 3 -0.002369 -0.003096 0.010312 0.000000 0.003506 0.000000
# 4 0.000000 0.000000 0.000000 0.043847 0.000000 0.006285
# 5 0.001002 -0.002408 0.003506 0.000000 0.036835 0.000000
# 6 0.000000 0.000000 0.000000 0.006285 0.000000 0.046243
#
#
# Mechanical properties :
#
#
# Convention : Reuss Voigt Hill
#
# Bulk Modulus (GPa) = 67.41112 70.56596 68.98854
# Shear Modulus (GPa) = 27.34544 29.66484 28.50514
#
# Velocity S-wave (km/s) = 3.66787 3.82025 3.74483
# Velocity P-wave (km/s) = 7.14858 7.36042 7.25527
#
# Compressibility (1/GPa) = 0.01483435
#
# Stress axis : x y z
#
# Youngs Moduli (GPa) = 76.76971 104.52213 96.97501
#
# Poissons Ratio (x) = 0.37318 0.22975
# Poissons Ratio (y) = 0.27409 0.30023
# Poissons Ratio (z) = 0.18188 0.32359
#
# Static dielectric constant tensor:
#      x y z
#    x 3.809390 0.000000 -0.146480 
#    y 0.000000 3.631990 0.000000 
#    z -0.146480 0.000000 3.856170 
# 
# 
# High freq. dielectric constant tensor:
#      x y z
#    x 1.794740 0.000000 -0.007970 
#    y 0.000000 1.771570 0.000000 
#    z -0.007970 0.000000 1.810210 
# 
# From -- ./inp_files/65773.got.cif
#   From: 2010.06.25/outbox.cif.g09.slc.cpg/sg11_33_cif.got.tgz:65773.got - 2010.06.27 23:14:04.
