data_PCOD8075812
_publ_section_title
;
Structure prediction by ZEFSAII (Michael W. Deem and Ramdas Pophale) SiO2 
 PCOD8075812
Probable space group: P 21/M
;
_chemical_formula_sum "Si O2"
_cell_formula_units_Z 28
_cell_length_a 25.293346
_cell_length_b 9.225631
_cell_length_c 9.039487
_cell_angle_alpha 90.000000
_cell_angle_beta 135.914956
_cell_angle_gamma 90.000000
_cell_volume 1467.519762
_symmetry_space_group_name_H-M "P 21/M"
_symmetry_group_IT_number 11
_symmetry_cell_setting 'monoclinic'
loop_
_space_group_symop_operation_xyz
x,y,z
-x,1/2+y,-z
-x,-y,-z
x,1/2-y,z
loop_
_atom_site_type_symbol
_atom_site_label
_atom_site_fract_x
_atom_site_fract_y
_atom_site_fract_z
Si Si1 0.716698 0.084114 0.573223
Si Si2 0.854807 0.417765 0.375261
Si Si3 0.586871 0.917964 0.816439
Si Si4 0.865941 0.084537 0.056826
Si Si5 0.006408 0.419812 0.858579
Si Si6 0.415160 0.919526 0.482300
Si Si7 0.272999 0.080192 0.706616
O O1 0.711120 0.250000 0.507904
O O2 0.637645 0.031295 0.487475
O O3 0.736336 0.986081 0.473564
O O4 0.781348 0.065326 0.825716
O O5 0.832203 0.250000 0.348247
O O6 0.866104 0.460098 0.227948
O O7 0.788106 0.514732 0.305447
O O8 0.932042 0.454794 0.614713
O O9 0.590662 0.750000 0.782103
O O10 0.501824 0.962620 0.695481
O O11 0.612415 0.003661 0.722401
O O12 0.643005 0.956009 0.063480
O O13 0.894238 0.250000 0.092575
O O14 0.920794 0.976591 0.081792
O O15 0.016200 0.250000 0.907378
O O16 0.000000 0.500000 0.000000
O O17 0.405102 0.750000 0.433700
O O18 0.258287 0.250000 0.665688
#
# Coordination Sequence:
#
# PCOD8075812 Si02
#       7
#     4   4   4   4   4   4   4
#     4  10  21  36  55  79 107 142 183 223 265 319
#     4  10  22  40  60  81 107 142 184 224 264 319
#     4   9  19  35  54  80 111 140 177 225 271 317
#     4  10  21  38  59  82 108 139 180 227 269 315
#     4  11  23  38  58  84 113 144 178 219 268 321
#     4   9  18  35  58  80 105 142 184 222 265 320
#     4  11  23  36  53  80 113 145 178 222 273 320
#
# _framework density 19.079810999999999
#
# number of rings (size 3 to 8) (size 9 to 14) (size 15 to 20)
#    0.000    2.000    0.000    3.000    0.000    9.143 
#    0.000    0.000    0.000    0.000    0.000    0.000 
#    0.000    0.000    0.000    0.000    0.000    0.000 
#
# Total GULP energy -347328.058083 kJ/mol
# GULP energy per Si atom -12404.573503 kJ/mol
# Density = 1.903638 g / cm^3
# Si number density = 19.079811 Si / 1000 Ang^3
#
#
#
# Elastic Constant Matrix: (Units=GPa)
#
#
# Indices 1 2 3 4 5 6 
#
# 1 136.5562 63.3519 62.9712 0.0000 -7.7095 0.0000
# 2 63.3519 72.4776 42.9101 0.0000 -2.8595 0.0000
# 3 62.9712 42.9101 91.0758 0.0000 -10.6943 0.0000
# 4 0.0000 0.0000 0.0000 27.7243 0.0000 -0.3097
# 5 -7.7095 -2.8595 -10.6943 0.0000 31.8737 0.0000
# 6 0.0000 0.0000 0.0000 -0.3097 0.0000 35.6383
#
#
#
# Elastic Compliance Matrix: (Units=1/GPa)
#
#
# Indices 1 2 3 4 5 6 
#
# 1 0.014043 -0.009084 -0.005337 0.000000 0.000791 0.000000
# 2 -0.009084 0.025068 -0.005750 0.000000 -0.001878 0.000000
# 3 -0.005337 -0.005750 0.017871 0.000000 0.004189 0.000000
# 4 0.000000 0.000000 0.000000 0.036073 0.000000 0.000313
# 5 0.000791 -0.001878 0.004189 0.000000 0.032802 0.000000
# 6 0.000000 0.000000 0.000000 0.000313 0.000000 0.028062
#
#
# Mechanical properties :
#
#
# Convention : Reuss Voigt Hill
#
# Bulk Modulus (GPa) = 60.09714 70.95287 65.52500
# Shear Modulus (GPa) = 25.02401 27.77236 26.39818
#
# Velocity S-wave (km/s) = 3.62545 3.81936 3.72367
# Velocity P-wave (km/s) = 7.00652 7.53114 7.27356
#
# Compressibility (1/GPa) = 0.01663973
#
# Stress axis : x y z
#
# Youngs Moduli (GPa) = 71.21046 39.89155 55.95674
#
# Poissons Ratio (x) = 0.36237 0.29862
# Poissons Ratio (y) = 0.64687 0.32177
# Poissons Ratio (z) = 0.38003 0.22939
#
# Static dielectric constant tensor:
#      x y z
#    x 3.581950 0.000000 0.069400 
#    y 0.000000 3.515320 0.000000 
#    z 0.069400 0.000000 3.710300 
# 
# 
# High freq. dielectric constant tensor:
#      x y z
#    x 1.749470 0.000000 0.004170 
#    y 0.000000 1.740860 0.000000 
#    z 0.004170 0.000000 1.752550 
# 
# From -- ./inp_files/28621.got.cif
#   From: 2010.06.25/outbox.cif.g09.slc.cpg/sg11_15_cif.got.tgz:28621.got - 2010.06.27 23:14:04.
