data_PCOD8075226
_publ_section_title
;
Structure prediction by ZEFSAII (Michael W. Deem and Ramdas Pophale) SiO2 
 PCOD8075226
Probable space group: P 21/M
;
_chemical_formula_sum "Si O2"
_cell_formula_units_Z 32
_cell_length_a 12.550472
_cell_length_b 8.920644
_cell_length_c 31.771781
_cell_angle_alpha 90.000000
_cell_angle_beta 152.142860
_cell_angle_gamma 90.000000
_cell_volume 1662.127790
_symmetry_space_group_name_H-M "P 21/M"
_symmetry_group_IT_number 11
_symmetry_cell_setting 'monoclinic'
loop_
_space_group_symop_operation_xyz
x,y,z
-x,1/2+y,-z
-x,-y,-z
x,1/2-y,z
loop_
_atom_site_type_symbol
_atom_site_label
_atom_site_fract_x
_atom_site_fract_y
_atom_site_fract_z
Si Si1 0.485325 0.073647 0.259170
Si Si2 0.424595 0.424123 0.016594
Si Si3 0.841991 0.429990 0.313002
Si Si4 0.235159 0.428463 0.803289
Si Si5 0.109496 0.922592 0.170890
Si Si6 0.229214 0.413400 0.576511
Si Si7 0.319699 0.087306 0.511614
Si Si8 0.204847 0.929287 0.298531
O O1 0.470028 0.250000 0.251714
O O2 0.649552 0.014765 0.279118
O O3 0.229504 0.006232 0.172819
O O4 0.580279 0.017291 0.336765
O O5 0.494920 0.250000 0.040273
O O6 0.541681 0.508444 0.096190
O O7 0.500000 0.500000 0.000000
O O8 0.156965 0.443820 0.929197
O O9 0.847839 0.250000 0.313990
O O10 0.769461 0.499298 0.243984
O O11 0.096130 0.494795 0.413839
O O12 0.249145 0.250000 0.805005
O O13 0.013960 0.482726 0.751758
O O14 0.183356 0.750000 0.194742
O O15 0.179398 0.987676 0.241576
O O16 0.215329 0.250000 0.594042
O O17 0.280764 0.385987 0.546630
O O18 0.000000 0.500000 0.500000
O O19 0.339633 0.250000 0.496144
O O20 0.568885 0.004996 0.597589
O O21 0.220964 0.750000 0.303445
#
# Coordination Sequence:
#
# PCOD8075226 Si02
#       8
#     4   4   4   4   4   4   4   4
#     4  11  22  36  56  87 121 155 200 248 295 350
#     4  11  22  39  65  94 121 152 191 239 301 361
#     4  10  22  40  57  79 117 164 204 238 288 349
#     4  11  23  40  61  87 117 153 201 247 294 354
#     4  10  20  37  61  90 121 151 186 238 305 360
#     4  11  19  31  53  81 114 154 198 245 296 346
#     4   9  17  32  55  80 114 157 193 232 290 346
#     4   9  17  33  57  86 118 151 187 237 296 350
#
# _framework density 19.25243
#
# number of rings (size 3 to 8) (size 9 to 14) (size 15 to 20)
#    0.000    1.750    3.750    1.500    0.000    2.500 
#    0.000    0.625    0.000    0.000    0.000    0.000 
#    0.000    0.000    0.000    0.000    0.000    0.000 
#
# Total GULP energy -396480.787186 kJ/mol
# GULP energy per Si atom -12390.024600 kJ/mol
# Density = 1.920861 g / cm^3
# Si number density = 19.252430 Si / 1000 Ang^3
#
#
#
# Elastic Constant Matrix: (Units=GPa)
#
#
# Indices 1 2 3 4 5 6 
#
# 1 90.1064 32.8238 57.7391 0.0000 1.9846 0.0000
# 2 32.8238 35.0932 28.9979 0.0000 6.8692 0.0000
# 3 57.7391 28.9979 115.8403 0.0000 -3.1246 0.0000
# 4 0.0000 0.0000 0.0000 24.2351 0.0000 -1.9977
# 5 1.9846 6.8692 -3.1246 0.0000 33.5729 0.0000
# 6 0.0000 0.0000 0.0000 -1.9977 0.0000 26.3057
#
#
#
# Elastic Compliance Matrix: (Units=1/GPa)
#
#
# Indices 1 2 3 4 5 6 
#
# 1 0.020354 -0.013702 -0.006689 0.000000 0.000978 0.000000
# 2 -0.013702 0.047559 -0.005330 0.000000 -0.009417 0.000000
# 3 -0.006689 -0.005330 0.013374 0.000000 0.002731 0.000000
# 4 0.000000 0.000000 0.000000 0.041522 0.000000 0.003153
# 5 0.000978 -0.009417 0.002731 0.000000 0.031909 0.000000
# 6 0.000000 0.000000 0.000000 0.003153 0.000000 0.038254
#
#
# Mechanical properties :
#
#
# Convention : Reuss Voigt Hill
#
# Bulk Modulus (GPa) = 33.50527 53.35127 43.42827
# Shear Modulus (GPa) = 19.65705 24.92135 22.28920
#
# Velocity S-wave (km/s) = 3.19880 3.60175 3.40624
# Velocity P-wave (km/s) = 5.57530 6.71330 6.17059
#
# Compressibility (1/GPa) = 0.02984605
#
# Stress axis : x y z
#
# Youngs Moduli (GPa) = 49.13066 21.02666 74.77028
#
# Poissons Ratio (x) = 0.28811 0.50012
# Poissons Ratio (y) = 0.67319 0.39849
# Poissons Ratio (z) = 0.32862 0.11206
#
# Static dielectric constant tensor:
#      x y z
#    x 3.488100 0.000000 0.226960 
#    y 0.000000 3.387430 0.000000 
#    z 0.226960 0.000000 3.728630 
# 
# 
# High freq. dielectric constant tensor:
#      x y z
#    x 1.743820 0.000000 0.019800 
#    y 0.000000 1.726210 0.000000 
#    z 0.019800 0.000000 1.756600 
# 
# From -- ./inp_files/73143.got.cif
#   From: 2010.06.25/outbox.cif.g09.slc.cpg/sg11_37_cif.got.tgz:73143.got - 2010.06.27 23:14:04.
