data_PCOD8075750
_publ_section_title
;
Structure prediction by ZEFSAII (Michael W. Deem and Ramdas Pophale) SiO2 
 PCOD8075750
Probable space group: P 21/M
;
_chemical_formula_sum "Si O2"
_cell_formula_units_Z 24
_cell_length_a 10.675870
_cell_length_b 18.127979
_cell_length_c 16.014376
_cell_angle_alpha 90.000000
_cell_angle_beta 23.923701
_cell_angle_gamma 90.000000
_cell_volume 1256.824650
_symmetry_space_group_name_H-M "P 21/M"
_symmetry_group_IT_number 11
_symmetry_cell_setting 'monoclinic'
loop_
_space_group_symop_operation_xyz
x,y,z
-x,1/2+y,-z
-x,-y,-z
x,1/2-y,z
loop_
_atom_site_type_symbol
_atom_site_label
_atom_site_fract_x
_atom_site_fract_y
_atom_site_fract_z
Si Si1 0.358661 0.938268 0.027129
Si Si2 0.680323 0.575614 0.390242
Si Si3 0.668024 0.034392 0.713582
Si Si4 0.130552 0.665921 0.791797
Si Si5 0.192875 0.073392 0.874993
Si Si6 0.538072 0.664097 0.048359
O O1 0.458369 0.965565 0.874531
O O2 0.500529 0.859945 0.973522
O O3 0.988857 0.933229 0.256811
O O4 0.500000 0.000000 0.000000
O O5 0.500000 0.500000 0.500000
O O6 0.464636 0.634937 0.565727
O O7 0.764214 0.601042 0.245503
O O8 0.531588 0.059670 0.707937
O O9 0.677377 0.107427 0.767277
O O10 0.000000 0.000000 0.500000
O O11 0.185606 0.750000 0.776599
O O12 0.992263 0.634692 0.961346
O O13 0.892342 0.651833 0.860721
O O14 0.000000 0.000000 0.000000
O O15 0.439527 0.750000 0.120569
#
# Coordination Sequence:
#
# PCOD8075750 Si02
#       6
#     4   4   4   4   4   4
#     4  10  21  36  57  86 116 150 196 242 293 350
#     4  12  22  36  64  91 119 155 204 246 301 356
#     4  10  21  35  59  88 117 153 196 242 299 353
#     4  10  23  42  62  87 120 160 199 248 306 360
#     4  11  21  38  60  91 122 152 198 253 295 353
#     4   9  20  40  59  81 117 154 197 246 298 357
#
# _framework density 19.095744
#
# number of rings (size 3 to 8) (size 9 to 14) (size 15 to 20)
#    0.000    1.667    3.333    2.000    7.000    1.333 
#    0.000    0.833    0.000    0.000    0.000    0.000 
#    0.000    0.000    0.000    0.000    0.000    0.000 
#
# Total GULP energy -297471.490865 kJ/mol
# GULP energy per Si atom -12394.645453 kJ/mol
# Density = 1.905228 g / cm^3
# Si number density = 19.095744 Si / 1000 Ang^3
#
#
#
# Elastic Constant Matrix: (Units=GPa)
#
#
# Indices 1 2 3 4 5 6 
#
# 1 99.3898 42.0331 49.7597 0.0000 -8.0605 0.0000
# 2 42.0331 138.4902 66.5306 0.0000 -8.6738 0.0000
# 3 49.7597 66.5306 141.7841 0.0000 -14.1233 0.0000
# 4 0.0000 0.0000 0.0000 32.3929 0.0000 -0.0180
# 5 -8.0605 -8.6738 -14.1233 0.0000 29.6706 0.0000
# 6 0.0000 0.0000 0.0000 -0.0180 0.0000 26.6451
#
#
#
# Elastic Compliance Matrix: (Units=1/GPa)
#
#
# Indices 1 2 3 4 5 6 
#
# 1 0.012754 -0.002198 -0.003321 0.000000 0.001242 0.000000
# 2 -0.002198 0.009714 -0.003741 0.000000 0.000462 0.000000
# 3 -0.003321 -0.003741 0.010262 0.000000 0.002889 0.000000
# 4 0.000000 0.000000 0.000000 0.030871 0.000000 0.000021
# 5 0.001242 0.000462 0.002889 0.000000 0.035551 0.000000
# 6 0.000000 0.000000 0.000000 0.000021 0.000000 0.037530
#
#
# Mechanical properties :
#
#
# Convention : Reuss Voigt Hill
#
# Bulk Modulus (GPa) = 70.37185 77.36787 73.86986
# Shear Modulus (GPa) = 31.26209 32.49776 31.87993
#
# Velocity S-wave (km/s) = 4.05053 4.12980 4.09036
# Velocity P-wave (km/s) = 7.66863 7.95890 7.81511
#
# Compressibility (1/GPa) = 0.01421023
#
# Stress axis : x y z
#
# Youngs Moduli (GPa) = 78.40472 102.94685 97.45048
#
# Poissons Ratio (x) = 0.22626 0.32366
# Poissons Ratio (y) = 0.17232 0.36454
# Poissons Ratio (z) = 0.26040 0.38510
#
# Static dielectric constant tensor:
#      x y z
#    x 4.334300 0.000000 0.185020 
#    y 0.000000 2.909690 0.000000 
#    z 0.185020 0.000000 3.498240 
# 
# 
# High freq. dielectric constant tensor:
#      x y z
#    x 1.750150 0.000000 -0.011270 
#    y 0.000000 1.735150 0.000000 
#    z -0.011270 0.000000 1.734470 
# 
# From -- ./inp_files/58279.got.cif
#   From: 2010.06.25/outbox.cif.g09.slc.cpg/sg11_30_cif.got.tgz:58279.got - 2010.06.27 23:14:04.
