data_PCOD8075833
_publ_section_title
;
Structure prediction by ZEFSAII (Michael W. Deem and Ramdas Pophale) SiO2 
 PCOD8075833
Probable space group: P 21/M
;
_chemical_formula_sum "Si O2"
_cell_formula_units_Z 28
_cell_length_a 24.979739
_cell_length_b 9.071921
_cell_length_c 8.913583
_cell_angle_alpha 90.000000
_cell_angle_beta 45.412393
_cell_angle_gamma 90.000000
_cell_volume 1438.559946
_symmetry_space_group_name_H-M "P 21/M"
_symmetry_group_IT_number 11
_symmetry_cell_setting 'monoclinic'
loop_
_space_group_symop_operation_xyz
x,y,z
-x,1/2+y,-z
-x,-y,-z
x,1/2-y,z
loop_
_atom_site_type_symbol
_atom_site_label
_atom_site_fract_x
_atom_site_fract_y
_atom_site_fract_z
Si Si1 0.875490 0.924683 0.915779
Si Si2 0.262568 0.575939 0.655463
Si Si3 0.561343 0.077522 0.188382
Si Si4 0.710065 0.422928 0.739684
Si Si5 0.841748 0.580174 0.643686
Si Si6 0.992745 0.923108 0.173575
Si Si7 0.413917 0.922119 0.519227
O O1 0.883496 0.750000 0.922151
O O2 0.864564 0.970301 0.765032
O O3 0.950992 0.003803 0.819709
O O4 0.806856 0.982940 0.148969
O O5 0.247343 0.750000 0.704789
O O6 0.272979 0.530318 0.462720
O O7 0.336194 0.524012 0.600089
O O8 0.546832 0.250000 0.204656
O O9 0.587224 0.032485 0.304615
O O10 0.483702 0.998368 0.297394
O O11 0.626234 0.023471 0.947488
O O12 0.715516 0.250000 0.752445
O O13 0.769191 0.491078 0.737370
O O14 0.819305 0.750000 0.687551
O O15 0.909133 0.547922 0.396909
O O16 0.010631 0.750000 0.123670
O O17 0.000000 0.000000 0.000000
O O18 0.424035 0.750000 0.474533
#
# Coordination Sequence:
#
# PCOD8075833 Si02
#       7
#     4   4   4   4   4   4   4
#     4  11  23  39  59  84 112 145 186 228 272 324
#     4  10  21  37  56  81 112 146 185 228 276 328
#     4   9  18  33  52  76 106 141 182 226 272 324
#     4  10  21  36  56  81 110 145 184 226 274 329
#     4  10  23  40  58  82 112 145 184 228 272 323
#     4  11  23  40  61  86 116 148 182 224 274 325
#     4   9  18  33  53  76 105 142 183 226 272 324
#
# _framework density 19.463909999999998
#
# number of rings (size 3 to 8) (size 9 to 14) (size 15 to 20)
#    0.000    2.000    0.000    3.000    0.000    8.000 
#    0.000    2.857    0.000    0.000    0.000    0.000 
#    0.000    0.000    0.000    0.000    0.000    0.000 
#
# Total GULP energy -347316.860365 kJ/mol
# GULP energy per Si atom -12404.173584 kJ/mol
# Density = 1.941961 g / cm^3
# Si number density = 19.463910 Si / 1000 Ang^3
#
#
#
# Elastic Constant Matrix: (Units=GPa)
#
#
# Indices 1 2 3 4 5 6 
#
# 1 39.6901 9.9168 -10.6641 0.0000 -1.2041 0.0000
# 2 9.9168 43.8825 23.8350 0.0000 -0.1686 0.0000
# 3 -10.6641 23.8350 83.6742 0.0000 6.4433 0.0000
# 4 0.0000 0.0000 0.0000 33.3564 0.0000 -4.5177
# 5 -1.2041 -0.1686 6.4433 0.0000 32.1361 0.0000
# 6 0.0000 0.0000 0.0000 -4.5177 0.0000 35.4405
#
#
#
# Elastic Compliance Matrix: (Units=1/GPa)
#
#
# Indices 1 2 3 4 5 6 
#
# 1 0.029583 -0.010348 0.006741 0.000000 -0.000297 0.000000
# 2 -0.010348 0.030671 -0.010196 0.000000 0.001817 0.000000
# 3 0.006741 -0.010196 0.015945 0.000000 -0.002998 0.000000
# 4 0.000000 0.000000 0.000000 0.030506 0.000000 0.003889
# 5 -0.000297 0.001817 -0.002998 0.000000 0.031717 0.000000
# 6 0.000000 0.000000 0.000000 0.003889 0.000000 0.028712
#
#
# Mechanical properties :
#
#
# Convention : Reuss Voigt Hill
#
# Bulk Modulus (GPa) = 20.57855 23.71359 22.14607
# Shear Modulus (GPa) = 23.70366 29.79721 26.75043
#
# Velocity S-wave (km/s) = 3.49352 3.91691 3.71126
# Velocity P-wave (km/s) = 5.18349 5.71542 5.45594
#
# Compressibility (1/GPa) = 0.04859430
#
# Stress axis : x y z
#
# Youngs Moduli (GPa) = 33.80343 32.60367 62.71419
#
# Poissons Ratio (x) = 0.33737 -0.42274
# Poissons Ratio (y) = 0.34979 0.63941
# Poissons Ratio (z) = -0.22786 0.33242
#
# Static dielectric constant tensor:
#      x y z
#    x 3.663160 0.000000 -0.009330 
#    y 0.000000 3.192370 0.000000 
#    z -0.009330 0.000000 3.739640 
# 
# 
# High freq. dielectric constant tensor:
#      x y z
#    x 1.766110 0.000000 -0.003530 
#    y 0.000000 1.752320 0.000000 
#    z -0.003530 0.000000 1.771690 
# 
# From -- ./inp_files/24053.got.cif
#   From: 2010.06.25/outbox.cif.g09.slc.cpg/sg11_13_cif.got.tgz:24053.got - 2010.06.27 23:14:04.
