data_PCOD8075055
_publ_section_title
;
Structure prediction by ZEFSAII (Michael W. Deem and Ramdas Pophale) SiO2 
 PCOD8075055
Probable space group: P 21/M
;
_chemical_formula_sum "Si O2"
_cell_formula_units_Z 28
_cell_length_a 16.079124
_cell_length_b 8.809940
_cell_length_c 20.303930
_cell_angle_alpha 90.000000
_cell_angle_beta 150.002777
_cell_angle_gamma 90.000000
_cell_volume 1437.967222
_symmetry_space_group_name_H-M "P 21/M"
_symmetry_group_IT_number 11
_symmetry_cell_setting 'monoclinic'
loop_
_space_group_symop_operation_xyz
x,y,z
-x,1/2+y,-z
-x,-y,-z
x,1/2-y,z
loop_
_atom_site_type_symbol
_atom_site_label
_atom_site_fract_x
_atom_site_fract_y
_atom_site_fract_z
Si Si1 0.994704 0.573046 0.807926
Si Si2 0.434230 0.569877 0.271940
Si Si3 0.805658 0.929732 0.548843
Si Si4 0.049073 0.930225 0.602417
Si Si5 0.859959 0.926918 0.858769
Si Si6 0.662338 0.571689 0.931304
Si Si7 0.579228 0.428252 0.118047
O O1 0.042094 0.750000 0.833121
O O2 0.875499 0.517495 0.667246
O O3 0.898285 0.540790 0.809149
O O4 0.160825 0.474187 0.917233
O O5 0.426499 0.750000 0.271295
O O6 0.619958 0.505937 0.411100
O O7 0.318374 0.500566 0.249118
O O8 0.366694 0.520358 0.155017
O O9 0.801063 0.750000 0.541867
O O10 0.923688 0.993184 0.571959
O O11 0.042508 0.750000 0.592542
O O12 0.232924 0.987410 0.746756
O O13 0.000000 0.000000 0.500000
O O14 0.854110 0.750000 0.871107
O O15 0.000000 0.000000 0.000000
O O16 0.658568 0.750000 0.913541
O O17 0.520580 0.522376 0.885370
O O18 0.572602 0.250000 0.104101
O O19 0.500000 0.500000 0.000000
#
# Coordination Sequence:
#
# PCOD8075055 Si02
#       7
#     4   4   4   4   4   4   4
#     4  10  21  39  62  84 111 152 194 234 287 346
#     4  11  22  37  59  85 114 151 192 234 284 340
#     4   9  20  38  59  84 113 149 194 236 279 341
#     4  10  20  37  59  82 113 151 191 236 283 337
#     4  11  22  37  60  88 117 148 191 237 284 342
#     4  11  22  36  56  85 117 148 191 242 288 338
#     4  10  22  37  56  84 115 149 190 240 291 340
#
# _framework density 19.471931999999999
#
# number of rings (size 3 to 8) (size 9 to 14) (size 15 to 20)
#    0.000    1.714    1.429    3.000    0.000    4.000 
#    0.000    2.857    0.000    0.000    0.000    0.000 
#    0.000    0.000    0.000    0.000    0.000    0.000 
#
# Total GULP energy -347326.546742 kJ/mol
# GULP energy per Si atom -12404.519526 kJ/mol
# Density = 1.942761 g / cm^3
# Si number density = 19.471932 Si / 1000 Ang^3
#
#
#
# Elastic Constant Matrix: (Units=GPa)
#
#
# Indices 1 2 3 4 5 6 
#
# 1 144.6528 39.7001 73.5730 0.0000 10.4104 0.0000
# 2 39.7001 51.0164 30.2477 0.0000 6.3324 0.0000
# 3 73.5730 30.2477 156.7747 0.0000 10.3689 0.0000
# 4 0.0000 0.0000 0.0000 25.9344 0.0000 1.7881
# 5 10.4104 6.3324 10.3689 0.0000 45.7582 0.0000
# 6 0.0000 0.0000 0.0000 1.7881 0.0000 28.4154
#
#
#
# Elastic Compliance Matrix: (Units=1/GPa)
#
#
# Indices 1 2 3 4 5 6 
#
# 1 0.010470 -0.005841 -0.003738 0.000000 -0.000727 0.000000
# 2 -0.005841 0.025598 -0.002083 0.000000 -0.001742 0.000000
# 3 -0.003738 -0.002083 0.008588 0.000000 -0.000807 0.000000
# 4 0.000000 0.000000 0.000000 0.038727 0.000000 -0.002437
# 5 -0.000727 -0.001742 -0.000807 0.000000 0.022443 0.000000
# 6 0.000000 0.000000 0.000000 -0.002437 0.000000 0.035345
#
#
# Mechanical properties :
#
#
# Convention : Reuss Voigt Hill
#
# Bulk Modulus (GPa) = 46.87751 71.05396 58.96573
# Shear Modulus (GPa) = 29.13660 33.94982 31.54321
#
# Velocity S-wave (km/s) = 3.87245 4.18008 4.02920
# Velocity P-wave (km/s) = 6.64238 7.73739 7.21070
#
# Compressibility (1/GPa) = 0.02133219
#
# Stress axis : x y z
#
# Youngs Moduli (GPa) = 95.51249 39.06615 116.43883
#
# Poissons Ratio (x) = 0.22817 0.43530
# Poissons Ratio (y) = 0.55786 0.24249
# Poissons Ratio (z) = 0.35707 0.08136
#
# Static dielectric constant tensor:
#      x y z
#    x 6.733190 0.000000 4.100270 
#    y 0.000000 3.403850 0.000000 
#    z 4.100270 0.000000 9.091780 
# 
# 
# High freq. dielectric constant tensor:
#      x y z
#    x 1.775490 0.000000 0.005080 
#    y 0.000000 1.743670 0.000000 
#    z 0.005080 0.000000 1.769510 
# 
# From -- ./inp_files/65467.got.cif
#   From: 2010.06.25/outbox.cif.g09.slc.cpg/sg11_33_cif.got.tgz:65467.got - 2010.06.27 23:14:04.
