data_PCOD8075180
_publ_section_title
;
Structure prediction by ZEFSAII (Michael W. Deem and Ramdas Pophale) SiO2 
 PCOD8075180
Probable space group: P 21/M
;
_chemical_formula_sum "Si O2"
_cell_formula_units_Z 28
_cell_length_a 16.445426
_cell_length_b 8.906712
_cell_length_c 14.087367
_cell_angle_alpha 90.000000
_cell_angle_beta 45.661311
_cell_angle_gamma 90.000000
_cell_volume 1475.817320
_symmetry_space_group_name_H-M "P 21/M"
_symmetry_group_IT_number 11
_symmetry_cell_setting 'monoclinic'
loop_
_space_group_symop_operation_xyz
x,y,z
-x,1/2+y,-z
-x,-y,-z
x,1/2-y,z
loop_
_atom_site_type_symbol
_atom_site_label
_atom_site_fract_x
_atom_site_fract_y
_atom_site_fract_z
Si Si1 0.869740 0.923708 0.515746
Si Si2 0.447338 0.426871 0.740483
Si Si3 0.102319 0.579690 0.967802
Si Si4 0.671375 0.926165 0.534398
Si Si5 0.668373 0.421606 0.334442
Si Si6 0.129321 0.924663 0.289855
Si Si7 0.223149 0.073410 0.034179
O O1 0.860638 0.750000 0.553230
O O2 0.784545 0.964388 0.500674
O O3 0.997127 0.962150 0.377339
O O4 0.836281 0.023823 0.633120
O O5 0.466749 0.250000 0.722249
O O6 0.562131 0.510100 0.680716
O O7 0.420305 0.482954 0.655728
O O8 0.347884 0.472871 0.894531
O O9 0.068203 0.750000 0.018232
O O10 0.209095 0.568196 0.812405
O O11 0.126321 0.499865 0.048040
O O12 0.000000 0.500000 0.000000
O O13 0.657880 0.750000 0.528762
O O14 0.680101 0.010111 0.428176
O O15 0.625562 0.250000 0.375304
O O16 0.155560 0.750000 0.257388
O O17 0.208986 0.013988 0.152013
O O18 0.206323 0.250000 0.044590
#
# Coordination Sequence:
#
# PCOD8075180 Si02
#       7
#     4   4   4   4   4   4   4
#     4   9  21  39  57  83 113 144 180 226 279 331
#     4  10  21  38  57  80 111 148 189 230 274 326
#     4  10  21  35  52  79 113 147 186 229 271 326
#     4  11  22  36  57  82 112 147 186 231 278 326
#     4  10  21  36  54  79 111 149 189 226 273 327
#     4  10  20  37  61  86 111 143 181 227 280 334
#     4  10  21  37  58  81 109 148 185 225 279 332
#
# _framework density 18.972538
#
# number of rings (size 3 to 8) (size 9 to 14) (size 15 to 20)
#    0.000    2.000    0.000    3.000    2.000    5.143 
#    0.000    0.714    0.000    0.000    0.000    0.000 
#    0.000    0.000    0.000    0.000    0.000    0.000 
#
# Total GULP energy -347323.355245 kJ/mol
# GULP energy per Si atom -12404.405544 kJ/mol
# Density = 1.892936 g / cm^3
# Si number density = 18.972538 Si / 1000 Ang^3
#
#
#
# Elastic Constant Matrix: (Units=GPa)
#
#
# Indices 1 2 3 4 5 6 
#
# 1 71.8501 23.2683 24.2631 0.0000 -4.4961 0.0000
# 2 23.2683 80.3675 35.4411 0.0000 -3.6839 0.0000
# 3 24.2631 35.4411 88.9036 0.0000 12.9603 0.0000
# 4 0.0000 0.0000 0.0000 36.1809 0.0000 2.1715
# 5 -4.4961 -3.6839 12.9603 0.0000 11.8719 0.0000
# 6 0.0000 0.0000 0.0000 2.1715 0.0000 33.7469
#
#
#
# Elastic Compliance Matrix: (Units=1/GPa)
#
#
# Indices 1 2 3 4 5 6 
#
# 1 0.017228 -0.001910 -0.005714 0.000000 0.012170 0.000000
# 2 -0.001910 0.017337 -0.008407 0.000000 0.013834 0.000000
# 3 -0.005714 -0.008407 0.020045 0.000000 -0.026655 0.000000
# 4 0.000000 0.000000 0.000000 0.027746 0.000000 -0.001785
# 5 0.012170 0.013834 -0.026655 0.000000 0.122234 0.000000
# 6 0.000000 0.000000 0.000000 -0.001785 0.000000 0.029747
#
#
# Mechanical properties :
#
#
# Convention : Reuss Voigt Hill
#
# Bulk Modulus (GPa) = 44.35136 45.22956 44.79046
# Shear Modulus (GPa) = 18.25381 26.90317 22.57849
#
# Velocity S-wave (km/s) = 3.10517 3.76973 3.45347
# Velocity P-wave (km/s) = 6.02357 6.54515 6.28977
#
# Compressibility (1/GPa) = 0.02254722
#
# Stress axis : x y z
#
# Youngs Moduli (GPa) = 58.04623 57.67903 49.88798
#
# Poissons Ratio (x) = 0.11016 0.28508
# Poissons Ratio (y) = 0.11087 0.41941
# Poissons Ratio (z) = 0.33170 0.48491
#
# Static dielectric constant tensor:
#      x y z
#    x 3.462780 0.000000 -0.161710 
#    y 0.000000 3.663830 0.000000 
#    z -0.161710 0.000000 3.554100 
# 
# 
# High freq. dielectric constant tensor:
#      x y z
#    x 1.729060 0.000000 -0.007130 
#    y 0.000000 1.752360 0.000000 
#    z -0.007130 0.000000 1.739410 
# 
# From -- ./inp_files/37862.got.cif
#   From: 2010.06.25/outbox.cif.g09.slc.cpg/sg11_19_cif.got.tgz:37862.got - 2010.06.27 23:14:04.
