data_PCOD8075658
_publ_section_title
;
Structure prediction by ZEFSAII (Michael W. Deem and Ramdas Pophale) SiO2 
 PCOD8075658
Probable space group: P 21/M
;
_chemical_formula_sum "Si O2"
_cell_formula_units_Z 32
_cell_length_a 12.778373
_cell_length_b 9.375356
_cell_length_c 14.195872
_cell_angle_alpha 90.000000
_cell_angle_beta 90.704625
_cell_angle_gamma 90.000000
_cell_volume 1700.562355
_symmetry_space_group_name_H-M "P 21/M"
_symmetry_group_IT_number 11
_symmetry_cell_setting 'monoclinic'
loop_
_space_group_symop_operation_xyz
x,y,z
-x,1/2+y,-z
-x,-y,-z
x,1/2-y,z
loop_
_atom_site_type_symbol
_atom_site_label
_atom_site_fract_x
_atom_site_fract_y
_atom_site_fract_z
Si Si1 0.705221 0.917488 0.393815
Si Si2 0.011530 0.919846 0.098854
Si Si3 0.794729 0.086960 0.773879
Si Si4 0.510606 0.415082 0.404490
Si Si5 0.815012 0.916992 0.213277
Si Si6 0.627620 0.917400 0.086795
Si Si7 0.722954 0.587837 0.608348
Si Si8 0.393178 0.587046 0.096242
O O1 0.675239 0.750000 0.391903
O O2 0.802751 0.951146 0.324873
O O3 0.733913 0.966486 0.500159
O O4 0.605250 0.005449 0.351252
O O5 0.006454 0.750000 0.080982
O O6 0.119961 0.965948 0.149338
O O7 0.921211 0.977305 0.168886
O O8 0.000000 0.000000 0.000000
O O9 0.817930 0.250000 0.748515
O O10 0.679297 0.064001 0.814288
O O11 0.800397 0.001468 0.675882
O O12 0.500000 0.500000 0.500000
O O13 0.540150 0.250000 0.422389
O O14 0.396632 0.426273 0.354388
O O15 0.816665 0.750000 0.197351
O O16 0.713136 0.980069 0.159544
O O17 0.640563 0.750000 0.072400
O O18 0.511979 0.956147 0.124382
O O19 0.649748 0.988991 0.987120
O O20 0.760986 0.750000 0.613889
O O21 0.388246 0.750000 0.060937
#
# Coordination Sequence:
#
# PCOD8075658 Si02
#       8
#     4   4   4   4   4   4   4   4
#     4   9  18  33  53  76 105 142 180 220 261 309
#     4  10  21  38  58  81 105 134 177 222 268 319
#     4  10  21  34  52  76 103 137 175 216 262 312
#     4   9  17  30  48  74 106 141 177 215 258 308
#     4   9  18  33  55  77 100 136 179 215 258 320
#     4   9  17  30  49  72  96 128 167 203 252 315
#     4   9  19  33  49  74 106 138 176 215 257 308
#     4   9  18  31  46  70 101 129 161 204 258 312
#
# _framework density 18.817305999999999
#
# number of rings (size 3 to 8) (size 9 to 14) (size 15 to 20)
#    0.000    2.750    0.000    1.875    1.750    3.500 
#    0.000    1.875    0.000    0.000    0.000    0.000 
#    0.000    0.000    0.000    0.000    0.000    0.000 
#
# Total GULP energy -396581.209621 kJ/mol
# GULP energy per Si atom -12393.162801 kJ/mol
# Density = 1.877448 g / cm^3
# Si number density = 18.817306 Si / 1000 Ang^3
#
#
#
# Elastic Constant Matrix: (Units=GPa)
#
#
# Indices 1 2 3 4 5 6 
#
# 1 82.6310 29.6715 50.3151 0.0000 -3.4574 0.0000
# 2 29.6715 52.1375 39.8488 0.0000 5.7451 0.0000
# 3 50.3151 39.8488 108.2459 0.0000 2.3608 0.0000
# 4 0.0000 0.0000 0.0000 29.0034 0.0000 5.2077
# 5 -3.4574 5.7451 2.3608 0.0000 32.5509 0.0000
# 6 0.0000 0.0000 0.0000 5.2077 0.0000 18.8225
#
#
#
# Elastic Compliance Matrix: (Units=1/GPa)
#
#
# Indices 1 2 3 4 5 6 
#
# 1 0.018250 -0.005878 -0.006394 0.000000 0.003440 0.000000
# 2 -0.005878 0.029114 -0.007872 0.000000 -0.005192 0.000000
# 3 -0.006394 -0.007872 0.015117 0.000000 -0.000386 0.000000
# 4 0.000000 0.000000 0.000000 0.036281 0.000000 -0.010038
# 5 0.003440 -0.005192 -0.000386 0.000000 0.032031 0.000000
# 6 0.000000 0.000000 0.000000 -0.010038 0.000000 0.055905
#
#
# Mechanical properties :
#
#
# Convention : Reuss Voigt Hill
#
# Bulk Modulus (GPa) = 45.06139 53.63170 49.34655
# Shear Modulus (GPa) = 21.33242 24.28730 22.80986
#
# Velocity S-wave (km/s) = 3.37064 3.59651 3.48541
# Velocity P-wave (km/s) = 6.25676 6.76829 6.51754
#
# Compressibility (1/GPa) = 0.02219195
#
# Stress axis : x y z
#
# Youngs Moduli (GPa) = 54.79412 34.34743 66.15126
#
# Poissons Ratio (x) = 0.20190 0.42298
# Poissons Ratio (y) = 0.32209 0.52077
# Poissons Ratio (z) = 0.35036 0.27040
#
# Static dielectric constant tensor:
#      x y z
#    x 3.792100 0.000000 -0.139710 
#    y 0.000000 3.395330 0.000000 
#    z -0.139710 0.000000 3.367540 
# 
# 
# High freq. dielectric constant tensor:
#      x y z
#    x 1.720890 0.000000 -0.003830 
#    y 0.000000 1.712210 0.000000 
#    z -0.003830 0.000000 1.724110 
# 
# From -- ./inp_files/49359.got.cif
#   From: 2010.06.25/outbox.cif.g09.slc.cpg/sg11_25_cif.got.tgz:49359.got - 2010.06.27 23:14:04.
