data_PCOD8075022
_publ_section_title
;
Structure prediction by ZEFSAII (Michael W. Deem and Ramdas Pophale) SiO2 
 PCOD8075022
Probable space group: P 21/M
;
_chemical_formula_sum "Si O2"
_cell_formula_units_Z 28
_cell_length_a 12.454317
_cell_length_b 8.855949
_cell_length_c 15.850980
_cell_angle_alpha 90.000000
_cell_angle_beta 56.025129
_cell_angle_gamma 90.000000
_cell_volume 1449.818943
_symmetry_space_group_name_H-M "P 21/M"
_symmetry_group_IT_number 11
_symmetry_cell_setting 'monoclinic'
loop_
_space_group_symop_operation_xyz
x,y,z
-x,1/2+y,-z
-x,-y,-z
x,1/2-y,z
loop_
_atom_site_type_symbol
_atom_site_label
_atom_site_fract_x
_atom_site_fract_y
_atom_site_fract_z
Si Si1 0.184994 0.077244 0.504138
Si Si2 0.947028 0.425314 0.721661
Si Si3 0.992447 0.926422 0.874751
Si Si4 0.269645 0.427258 0.282240
Si Si5 0.570275 0.425973 0.546524
Si Si6 0.794582 0.074297 0.083874
Si Si7 0.522322 0.928052 0.230162
O O1 0.227996 0.250000 0.497564
O O2 0.195458 0.031564 0.401601
O O3 0.040308 0.049133 0.600406
O O4 0.280633 0.975790 0.517819
O O5 0.933465 0.250000 0.750985
O O6 0.008678 0.514273 0.772983
O O7 0.806996 0.492257 0.759944
O O8 0.957428 0.750000 0.891782
O O9 0.127010 0.957256 0.864295
O O10 0.877313 0.019675 0.968081
O O11 0.273111 0.250000 0.263214
O O12 0.415471 0.490581 0.218871
O O13 0.500000 0.500000 0.500000
O O14 0.563295 0.250000 0.536549
O O15 0.500132 0.477421 0.663336
O O16 0.762223 0.250000 0.087540
O O17 0.663481 0.979934 0.140836
O O18 0.507572 0.750000 0.224531
#
# Coordination Sequence:
#
# PCOD8075022 Si02
#       7
#     4   4   4   4   4   4   4
#     4   9  20  36  54  79 112 152 191 231 278 329
#     4  11  22  36  57  84 116 150 190 236 283 332
#     4  10  22  39  59  86 115 146 187 232 281 337
#     4  10  20  37  58  82 114 151 193 235 277 332
#     4  10  21  34  51  78 113 149 188 232 275 329
#     4  10  21  39  62  86 113 146 185 231 285 339
#     4  10  21  37  58  82 111 150 188 228 283 338
#
# _framework density 19.312757000000001
#
# number of rings (size 3 to 8) (size 9 to 14) (size 15 to 20)
#    0.000    2.000    0.000    3.000    2.000    5.143 
#    0.000    0.714    0.000    0.000    0.000    0.000 
#    0.000    0.000    0.000    0.000    0.000    0.000 
#
# Total GULP energy -347323.966436 kJ/mol
# GULP energy per Si atom -12404.427373 kJ/mol
# Density = 1.926880 g / cm^3
# Si number density = 19.312757 Si / 1000 Ang^3
#
#
#
# Elastic Constant Matrix: (Units=GPa)
#
#
# Indices 1 2 3 4 5 6 
#
# 1 89.5702 30.5674 25.4214 0.0000 -6.4512 0.0000
# 2 30.5674 56.8806 13.3095 0.0000 2.2986 0.0000
# 3 25.4214 13.3095 47.0209 0.0000 -5.0935 0.0000
# 4 0.0000 0.0000 0.0000 32.1312 0.0000 -0.4736
# 5 -6.4512 2.2986 -5.0935 0.0000 27.3325 0.0000
# 6 0.0000 0.0000 0.0000 -0.4736 0.0000 38.3800
#
#
#
# Elastic Compliance Matrix: (Units=1/GPa)
#
#
# Indices 1 2 3 4 5 6 
#
# 1 0.015512 -0.007046 -0.006054 0.000000 0.003126 0.000000
# 2 -0.007046 0.022215 -0.002920 0.000000 -0.004076 0.000000
# 3 -0.006054 -0.002920 0.025758 0.000000 0.003617 0.000000
# 4 0.000000 0.000000 0.000000 0.031128 0.000000 0.000384
# 5 0.003126 -0.004076 0.003617 0.000000 0.038341 0.000000
# 6 0.000000 0.000000 0.000000 0.000384 0.000000 0.026060
#
#
# Mechanical properties :
#
#
# Convention : Reuss Voigt Hill
#
# Bulk Modulus (GPa) = 31.80037 36.89648 34.34842
# Shear Modulus (GPa) = 24.80942 27.84699 26.32820
#
# Velocity S-wave (km/s) = 3.58804 3.80135 3.69623
# Velocity P-wave (km/s) = 5.80234 6.19784 6.00335
#
# Compressibility (1/GPa) = 0.03144617
#
# Stress axis : x y z
#
# Youngs Moduli (GPa) = 64.46523 45.01421 38.82240
#
# Poissons Ratio (x) = 0.31717 0.23501
# Poissons Ratio (y) = 0.45423 0.11337
# Poissons Ratio (z) = 0.39024 0.13145
#
# Static dielectric constant tensor:
#      x y z
#    x 3.514220 0.000000 0.010600 
#    y 0.000000 3.598180 0.000000 
#    z 0.010600 0.000000 3.352750 
# 
# 
# High freq. dielectric constant tensor:
#      x y z
#    x 1.756170 0.000000 -0.001980 
#    y 0.000000 1.765670 0.000000 
#    z -0.001980 0.000000 1.734610 
# 
# From -- ./inp_files/37878.got.cif
#   From: 2010.06.25/outbox.cif.g09.slc.cpg/sg11_19_cif.got.tgz:37878.got - 2010.06.27 23:14:04.
