data_PCOD8075966
_publ_section_title
;
Structure prediction by ZEFSAII (Michael W. Deem and Ramdas Pophale) SiO2 
 PCOD8075966
Probable space group: P 21/M
;
_chemical_formula_sum "Si O2"
_cell_formula_units_Z 32
_cell_length_a 21.789560
_cell_length_b 8.779433
_cell_length_c 28.222504
_cell_angle_alpha 90.000000
_cell_angle_beta 18.814321
_cell_angle_gamma 90.000000
_cell_volume 1741.178466
_symmetry_space_group_name_H-M "P 21/M"
_symmetry_group_IT_number 11
_symmetry_cell_setting 'monoclinic'
loop_
_space_group_symop_operation_xyz
x,y,z
-x,1/2+y,-z
-x,-y,-z
x,1/2-y,z
loop_
_atom_site_type_symbol
_atom_site_label
_atom_site_fract_x
_atom_site_fract_y
_atom_site_fract_z
Si Si1 0.374134 0.569519 0.447756
Si Si2 0.326322 0.072697 0.846674
Si Si3 0.308566 0.569805 0.160166
Si Si4 0.359692 0.576203 0.308928
Si Si5 0.800892 0.571087 0.660400
Si Si6 0.443177 0.070191 0.590858
Si Si7 0.034676 0.429298 0.923768
Si Si8 0.055320 0.572714 0.612826
O O1 0.379673 0.750000 0.437944
O O2 0.548403 0.507611 0.288541
O O3 0.405820 0.517543 0.478858
O O4 0.170966 0.514758 0.575080
O O5 0.280158 0.250000 0.873070
O O6 0.439075 0.044607 0.812993
O O7 0.129671 0.980451 0.992494
O O8 0.327000 0.750000 0.149525
O O9 0.274151 0.502949 0.237031
O O10 0.135229 0.525821 0.251997
O O11 0.500000 0.500000 0.000000
O O12 0.348931 0.750000 0.298955
O O13 0.348472 0.464037 0.272347
O O14 0.186052 0.544282 0.471462
O O15 0.823919 0.750000 0.651442
O O16 0.000000 0.500000 0.500000
O O17 0.446054 0.250000 0.583833
O O18 0.234475 0.010970 0.757289
O O19 0.500000 0.000000 0.500000
O O20 0.038452 0.250000 0.926582
O O21 0.000000 0.500000 0.000000
O O22 0.000231 0.750000 0.657291
#
# Coordination Sequence:
#
# PCOD8075966 Si02
#       8
#     4   4   4   4   4   4   4   4
#     4   8  15  32  56  80 109 146 184 227 277 334
#     4   9  17  33  56  83 114 147 186 232 283 340
#     4  12  25  41  60  85 118 154 193 238 289 346
#     4   9  18  33  57  86 116 150 189 234 285 339
#     4  12  23  37  59  87 118 151 190 236 284 339
#     4  10  21  37  55  79 112 148 188 229 277 331
#     4  11  21  34  55  81 111 145 185 235 284 335
#     4   9  17  33  59  84 109 146 191 235 282 337
#
# _framework density 18.378357000000001
#
# number of rings (size 3 to 8) (size 9 to 14) (size 15 to 20)
#    0.000    2.000    2.500    4.125    0.000    1.500 
#    0.000    3.750    0.000    4.500    0.000    0.000 
#    0.000    0.000    0.000    0.000    0.000    0.000 
#
# Total GULP energy -396771.809740 kJ/mol
# GULP energy per Si atom -12399.119054 kJ/mol
# Density = 1.833653 g / cm^3
# Si number density = 18.378357 Si / 1000 Ang^3
#
#
#
# Elastic Constant Matrix: (Units=GPa)
#
#
# Indices 1 2 3 4 5 6 
#
# 1 148.3809 49.1139 77.8114 0.0000 -8.0255 0.0000
# 2 49.1139 90.0182 53.8226 0.0000 -2.3246 0.0000
# 3 77.8114 53.8226 126.3940 0.0000 -7.0564 0.0000
# 4 0.0000 0.0000 0.0000 29.4242 0.0000 -2.6690
# 5 -8.0255 -2.3246 -7.0564 0.0000 31.8003 0.0000
# 6 0.0000 0.0000 0.0000 -2.6690 0.0000 32.9925
#
#
#
# Elastic Compliance Matrix: (Units=1/GPa)
#
#
# Indices 1 2 3 4 5 6 
#
# 1 0.010395 -0.002488 -0.005269 0.000000 0.001272 0.000000
# 2 -0.002488 0.015502 -0.005105 0.000000 -0.000627 0.000000
# 3 -0.005269 -0.005105 0.013400 0.000000 0.001271 0.000000
# 4 0.000000 0.000000 0.000000 0.034237 0.000000 0.002770
# 5 0.001272 -0.000627 0.001271 0.000000 0.032003 0.000000
# 6 0.000000 0.000000 0.000000 0.002770 0.000000 0.030534
#
#
# Mechanical properties :
#
#
# Convention : Reuss Voigt Hill
#
# Bulk Modulus (GPa) = 73.67050 80.69877 77.18463
# Shear Modulus (GPa) = 30.06274 31.11309 30.58792
#
# Velocity S-wave (km/s) = 4.04885 4.11897 4.08406
# Velocity P-wave (km/s) = 7.87592 8.16249 8.02048
#
# Compressibility (1/GPa) = 0.01357395
#
# Stress axis : x y z
#
# Youngs Moduli (GPa) = 96.20242 64.50637 74.62766
#
# Poissons Ratio (x) = 0.16052 0.39318
# Poissons Ratio (y) = 0.23939 0.38094
# Poissons Ratio (z) = 0.50685 0.32927
#
# Static dielectric constant tensor:
#      x y z
#    x 4.120470 0.000000 -0.267770 
#    y 0.000000 3.278850 0.000000 
#    z -0.267770 0.000000 3.469080 
# 
# 
# High freq. dielectric constant tensor:
#      x y z
#    x 1.723880 0.000000 -0.020520 
#    y 0.000000 1.698650 0.000000 
#    z -0.020520 0.000000 1.695420 
# 
# From -- ./inp_files/72068.got.cif
#   From: 2010.06.25/outbox.cif.g09.slc.cpg/sg11_37_cif.got.tgz:72068.got - 2010.06.27 23:14:04.
