data_PCOD8075539
_publ_section_title
;
Structure prediction by ZEFSAII (Michael W. Deem and Ramdas Pophale) SiO2 
 PCOD8075539
Probable space group: P 21/M
;
_chemical_formula_sum "Si O2"
_cell_formula_units_Z 28
_cell_length_a 24.929282
_cell_length_b 8.750192
_cell_length_c 9.576776
_cell_angle_alpha 90.000000
_cell_angle_beta 138.829004
_cell_angle_gamma 90.000000
_cell_volume 1375.232539
_symmetry_space_group_name_H-M "P 21/M"
_symmetry_group_IT_number 11
_symmetry_cell_setting 'monoclinic'
loop_
_space_group_symop_operation_xyz
x,y,z
-x,1/2+y,-z
-x,-y,-z
x,1/2-y,z
loop_
_atom_site_type_symbol
_atom_site_label
_atom_site_fract_x
_atom_site_fract_y
_atom_site_fract_z
Si Si1 0.823107 0.429503 0.358581
Si Si2 0.913093 0.930347 0.290620
Si Si3 0.078283 0.075389 0.217318
Si Si4 0.357267 0.432165 0.569807
Si Si5 0.183162 0.076975 0.156931
Si Si6 0.650814 0.069661 0.143853
Si Si7 0.503420 0.069811 0.659993
O O1 0.822639 0.250000 0.327471
O O2 0.840308 0.520493 0.250768
O O3 0.897814 0.471837 0.605344
O O4 0.738403 0.486326 0.259136
O O5 0.925299 0.750000 0.314348
O O6 0.881265 0.996423 0.078474
O O7 0.000000 0.000000 0.500000
O O8 0.061328 0.250000 0.230316
O O9 0.150824 0.066999 0.249658
O O10 0.000000 0.000000 0.000000
O O11 0.354299 0.250000 0.575009
O O12 0.272997 0.498967 0.338739
O O13 0.371924 0.493636 0.754101
O O14 0.428466 0.489963 0.607281
O O15 0.193966 0.250000 0.127123
O O16 0.650045 0.250000 0.165776
O O17 0.585754 0.018871 0.899624
O O18 0.499068 0.250000 0.634802
O O19 0.500000 0.000000 0.500000
#
# Coordination Sequence:
#
# PCOD8075539 Si02
#       7
#     4   4   4   4   4   4   4
#     4  11  23  39  58  85 123 162 201 245 295 356
#     4  11  23  40  61  86 119 159 204 252 307 361
#     4  11  21  37  61  88 119 154 198 249 302 354
#     4  10  20  39  64  89 117 155 201 245 296 358
#     4   9  20  37  58  85 116 149 195 250 293 346
#     4  10  22  40  60  89 125 158 196 248 300 349
#     4  10  23  40  62  92 125 158 195 242 296 356
#
# _framework density 20.360191
#
# number of rings (size 3 to 8) (size 9 to 14) (size 15 to 20)
#    0.000    1.714    1.429    2.571    2.000    2.857 
#    0.000    3.571    0.000    0.000    0.000    0.000 
#    0.000    0.000    0.000    0.000    0.000    0.000 
#
# Total GULP energy -347185.386496 kJ/mol
# GULP energy per Si atom -12399.478089 kJ/mol
# Density = 2.031385 g / cm^3
# Si number density = 20.360191 Si / 1000 Ang^3
#
#
#
# Elastic Constant Matrix: (Units=GPa)
#
#
# Indices 1 2 3 4 5 6 
#
# 1 98.7736 28.0243 33.7772 0.0000 -1.0068 0.0000
# 2 28.0243 47.2040 27.4095 0.0000 -0.1922 0.0000
# 3 33.7772 27.4095 132.4336 0.0000 -1.2601 0.0000
# 4 0.0000 0.0000 0.0000 28.5308 0.0000 -5.0440
# 5 -1.0068 -0.1922 -1.2601 0.0000 41.0443 0.0000
# 6 0.0000 0.0000 0.0000 -5.0440 0.0000 31.5934
#
#
#
# Elastic Compliance Matrix: (Units=1/GPa)
#
#
# Indices 1 2 3 4 5 6 
#
# 1 0.012580 -0.006371 -0.001888 0.000000 0.000221 0.000000
# 2 -0.006371 0.027305 -0.004028 0.000000 -0.000152 0.000000
# 3 -0.001888 -0.004028 0.008868 0.000000 0.000207 0.000000
# 4 0.000000 0.000000 0.000000 0.036068 0.000000 0.005758
# 5 0.000221 -0.000152 0.000207 0.000000 0.024375 0.000000
# 6 0.000000 0.000000 0.000000 0.005758 0.000000 0.032571
#
#
# Mechanical properties :
#
#
# Convention : Reuss Voigt Hill
#
# Bulk Modulus (GPa) = 41.35747 50.75924 46.05835
# Shear Modulus (GPa) = 28.66963 32.84707 30.75835
#
# Velocity S-wave (km/s) = 3.75657 4.02095 3.89100
# Velocity P-wave (km/s) = 6.25881 6.82218 6.54656
#
# Compressibility (1/GPa) = 0.02417943
#
# Stress axis : x y z
#
# Youngs Moduli (GPa) = 79.49363 36.62283 112.76505
#
# Poissons Ratio (x) = 0.23334 0.21286
# Poissons Ratio (y) = 0.50648 0.45419
# Poissons Ratio (z) = 0.15006 0.14751
#
# Static dielectric constant tensor:
#      x y z
#    x 3.965220 0.000000 0.022160 
#    y 0.000000 3.538830 0.000000 
#    z 0.022160 0.000000 3.954750 
# 
# 
# High freq. dielectric constant tensor:
#      x y z
#    x 1.806160 0.000000 0.003010 
#    y 0.000000 1.775100 0.000000 
#    z 0.003010 0.000000 1.812470 
# 
# From -- ./inp_files/28561.got.cif
#   From: 2010.06.25/outbox.cif.g09.slc.cpg/sg11_15_cif.got.tgz:28561.got - 2010.06.27 23:14:04.
