data_PCOD8075751
_publ_section_title
;
Structure prediction by ZEFSAII (Michael W. Deem and Ramdas Pophale) SiO2 
 PCOD8075751
Probable space group: P 21/M
;
_chemical_formula_sum "Si O2"
_cell_formula_units_Z 20
_cell_length_a 7.481635
_cell_length_b 25.921962
_cell_length_c 8.475690
_cell_angle_alpha 90.000000
_cell_angle_beta 142.899586
_cell_angle_gamma 90.000000
_cell_volume 991.541015
_symmetry_space_group_name_H-M "P 21/M"
_symmetry_group_IT_number 11
_symmetry_cell_setting 'monoclinic'
loop_
_space_group_symop_operation_xyz
x,y,z
-x,1/2+y,-z
-x,-y,-z
x,1/2-y,z
loop_
_atom_site_type_symbol
_atom_site_label
_atom_site_fract_x
_atom_site_fract_y
_atom_site_fract_z
Si Si1 0.784123 0.494803 0.493045
Si Si2 0.634407 0.692265 0.475424
Si Si3 0.965581 0.351835 0.984689
Si Si4 0.739627 0.932265 0.019536
Si Si5 0.448987 0.096729 0.762582
O O1 0.653253 0.551865 0.432878
O O2 0.000000 0.500000 0.500000
O O3 0.980548 0.471817 0.774335
O O4 0.515306 0.456126 0.267728
O O5 0.687981 0.750000 0.447833
O O6 0.725121 0.649992 0.404816
O O7 0.287174 0.683783 0.274419
O O8 0.822737 0.684674 0.765356
O O9 0.156788 0.379072 0.984313
O O10 0.800909 0.394057 0.982163
O O11 0.607612 0.920136 0.098862
#
# Coordination Sequence:
#
# PCOD8075751 Si02
#       5
#     4   4   4   4   4
#     4  10  21  35  59  90 124 159 182 237 285 348
#     4  10  22  42  61  81 115 151 196 253 299 329
#     4  10  23  38  61  85 115 153 193 243 288 343
#     4  11  22  38  60  88 125 153 194 227 293 353
#     4   9  23  37  63  83 122 150 199 230 293 341
#
# _framework density 20.170622999999999
#
# number of rings (size 3 to 8) (size 9 to 14) (size 15 to 20)
#    1.200    0.800    0.000    4.200    8.400    1.600 
#    0.000    2.000    0.000    0.000    0.000    0.000 
#    0.000    0.000    0.000    0.000    0.000    0.000 
#
# Total GULP energy -247802.038059 kJ/mol
# GULP energy per Si atom -12390.101903 kJ/mol
# Density = 2.012471 g / cm^3
# Si number density = 20.170623 Si / 1000 Ang^3
#
#
#
# Elastic Constant Matrix: (Units=GPa)
#
#
# Indices 1 2 3 4 5 6 
#
# 1 43.6399 4.4311 12.4860 0.0000 4.4249 0.0000
# 2 4.4311 100.5568 19.5294 0.0000 4.1748 0.0000
# 3 12.4860 19.5294 114.2309 0.0000 28.8292 0.0000
# 4 0.0000 0.0000 0.0000 31.0788 0.0000 -6.0951
# 5 4.4249 4.1748 28.8292 0.0000 17.8579 0.0000
# 6 0.0000 0.0000 0.0000 -6.0951 0.0000 24.0637
#
#
#
# Elastic Compliance Matrix: (Units=1/GPa)
#
#
# Indices 1 2 3 4 5 6 
#
# 1 0.023774 -0.000584 -0.001766 0.000000 -0.002903 0.000000
# 2 -0.000584 0.010306 -0.001901 0.000000 0.000805 0.000000
# 3 -0.001766 -0.001901 0.015272 0.000000 -0.023772 0.000000
# 4 0.000000 0.000000 0.000000 0.033858 0.000000 0.008576
# 5 -0.002903 0.000805 -0.023772 0.000000 0.094906 0.000000
# 6 0.000000 0.000000 0.000000 0.008576 0.000000 0.043729
#
#
# Mechanical properties :
#
#
# Convention : Reuss Voigt Hill
#
# Bulk Modulus (GPa) = 24.48035 36.81340 30.64688
# Shear Modulus (GPa) = 20.49486 29.39884 24.94685
#
# Velocity S-wave (km/s) = 3.19105 3.82187 3.52062
# Velocity P-wave (km/s) = 5.07347 6.14542 5.63499
#
# Compressibility (1/GPa) = 0.04084909
#
# Stress axis : x y z
#
# Youngs Moduli (GPa) = 42.06321 97.02899 65.47987
#
# Poissons Ratio (x) = 0.05667 0.11564
# Poissons Ratio (y) = 0.02457 0.12449
# Poissons Ratio (z) = 0.07429 0.18447
#
# Static dielectric constant tensor:
#      x y z
#    x 3.298590 0.000000 0.245290 
#    y 0.000000 3.783980 0.000000 
#    z 0.245290 0.000000 3.946280 
# 
# 
# High freq. dielectric constant tensor:
#      x y z
#    x 1.752960 0.000000 0.017110 
#    y 0.000000 1.784030 0.000000 
#    z 0.017110 0.000000 1.800700 
# 
# From -- ./inp_files/10255.got.cif
#   From: 2010.06.25/outbox.cif.g09.slc.cpg/sg11_6_cif.got.tgz:10255.got - 2010.06.27 23:14:04.
