data_PCOD8075631
_publ_section_title
;
Structure prediction by ZEFSAII (Michael W. Deem and Ramdas Pophale) SiO2 
 PCOD8075631
Probable space group: P 21/M
;
_chemical_formula_sum "Si O2"
_cell_formula_units_Z 24
_cell_length_a 4.847900
_cell_length_b 21.917183
_cell_length_c 11.191650
_cell_angle_alpha 90.000000
_cell_angle_beta 65.516014
_cell_angle_gamma 90.000000
_cell_volume 1082.207931
_symmetry_space_group_name_H-M "P 21/M"
_symmetry_group_IT_number 11
_symmetry_cell_setting 'monoclinic'
loop_
_space_group_symop_operation_xyz
x,y,z
-x,1/2+y,-z
-x,-y,-z
x,1/2-y,z
loop_
_atom_site_type_symbol
_atom_site_label
_atom_site_fract_x
_atom_site_fract_y
_atom_site_fract_z
Si Si1 0.319416 0.558225 0.391023
Si Si2 0.186840 0.250000 0.617592
Si Si3 0.663215 0.924351 0.563669
Si Si4 0.767685 0.852101 0.195332
Si Si5 0.400132 0.819081 0.035337
Si Si6 0.647952 0.817523 0.738244
Si Si7 0.160410 0.750000 0.557671
O O1 0.302302 0.486157 0.363648
O O2 0.403232 0.567108 0.513713
O O3 0.569240 0.588227 0.259535
O O4 0.985280 0.588773 0.437894
O O5 0.205566 0.310420 0.692410
O O6 0.903459 0.250000 0.576474
O O7 0.484130 0.250000 0.479991
O O8 0.537961 0.870209 0.669463
O O9 0.614642 0.819111 0.111278
O O10 0.117024 0.866135 0.096890
O O11 0.268471 0.750000 0.049187
O O12 0.594767 0.837631 0.884364
O O13 0.491943 0.750000 0.743403
O O14 0.009218 0.809665 0.646755
#
# Coordination Sequence:
#
# PCOD8075631 Si02
#       7
#     4   2   4   4   4   4   2
#     4  10  22  37  63  85 119 148 187 233 301 342
#     4  12  20  32  54  80 114 138 174 242 276 326
#     4  10  20  42  60  87 116 151 183 242 292 342
#     4  12  22  36  58  83 118 148 199 224 291 339
#     4  11  22  40  54  82 115 165 183 241 280 335
#     4   9  22  40  60  84 117 150 201 230 284 338
#     4  10  22  32  54  84 106 136 184 230 276 328
#
# _framework density 22.176884999999999
#
# number of rings (size 3 to 8) (size 9 to 14) (size 15 to 20)
#    0.500    1.000    1.667    4.000    0.000    2.667 
#    0.000    1.667    0.000    0.000    0.000    0.000 
#    0.000    0.000    0.000    0.000    0.000    0.000 
#
# Total GULP energy -297440.116194 kJ/mol
# GULP energy per Si atom -12393.338175 kJ/mol
# Density = 2.212641 g / cm^3
# Si number density = 22.176885 Si / 1000 Ang^3
#
#
#
# Elastic Constant Matrix: (Units=GPa)
#
#
# Indices 1 2 3 4 5 6 
#
# 1 71.3476 3.2180 14.0261 0.0000 -4.9658 0.0000
# 2 3.2180 84.3477 36.6322 0.0000 3.0492 0.0000
# 3 14.0261 36.6322 114.1532 0.0000 0.5290 0.0000
# 4 0.0000 0.0000 0.0000 24.8117 0.0000 -4.5166
# 5 -4.9658 3.0492 0.5290 0.0000 13.6644 0.0000
# 6 0.0000 0.0000 0.0000 -4.5166 0.0000 19.1191
#
#
#
# Elastic Compliance Matrix: (Units=1/GPa)
#
#
# Indices 1 2 3 4 5 6 
#
# 1 0.014756 0.000046 -0.001853 0.000000 0.005424 0.000000
# 2 0.000046 0.013892 -0.004450 0.000000 -0.002911 0.000000
# 3 -0.001853 -0.004450 0.010416 0.000000 -0.000084 0.000000
# 4 0.000000 0.000000 0.000000 0.042115 0.000000 0.009949
# 5 0.005424 -0.002911 -0.000084 0.000000 0.075807 0.000000
# 6 0.000000 0.000000 0.000000 0.009949 0.000000 0.054654
#
#
# Mechanical properties :
#
#
# Convention : Reuss Voigt Hill
#
# Bulk Modulus (GPa) = 37.66590 41.95567 39.81079
# Shear Modulus (GPa) = 21.45893 25.91719 23.68806
#
# Velocity S-wave (km/s) = 3.11404 3.42227 3.27179
# Velocity P-wave (km/s) = 5.47274 5.88011 5.68008
#
# Compressibility (1/GPa) = 0.02654922
#
# Stress axis : x y z
#
# Youngs Moduli (GPa) = 67.77096 71.98465 96.00392
#
# Poissons Ratio (x) = -0.00329 0.17788
# Poissons Ratio (y) = -0.00309 0.42722
# Poissons Ratio (z) = 0.12557 0.32034
#
# Static dielectric constant tensor:
#      x y z
#    x 3.900090 0.000000 -0.114920 
#    y 0.000000 3.951880 0.000000 
#    z -0.114920 0.000000 4.030900 
# 
# 
# High freq. dielectric constant tensor:
#      x y z
#    x 1.876250 0.000000 -0.000460 
#    y 0.000000 1.848390 0.000000 
#    z -0.000460 0.000000 1.866570 
# 
# From -- ./inp_files/30078.got.cif
#   From: 2010.06.25/outbox.cif.g09.slc.cpg/sg11_16_cif.got.tgz:30078.got - 2010.06.27 23:14:04.
