data_PCOD8075154
_publ_section_title
;
Structure prediction by ZEFSAII (Michael W. Deem and Ramdas Pophale) SiO2 
 PCOD8075154
Probable space group: P 21/M
;
_chemical_formula_sum "Si O2"
_cell_formula_units_Z 32
_cell_length_a 22.314454
_cell_length_b 8.987599
_cell_length_c 15.051716
_cell_angle_alpha 90.000000
_cell_angle_beta 148.260416
_cell_angle_gamma 90.000000
_cell_volume 1588.000709
_symmetry_space_group_name_H-M "P 21/M"
_symmetry_group_IT_number 11
_symmetry_cell_setting 'monoclinic'
loop_
_space_group_symop_operation_xyz
x,y,z
-x,1/2+y,-z
-x,-y,-z
x,1/2-y,z
loop_
_atom_site_type_symbol
_atom_site_label
_atom_site_fract_x
_atom_site_fract_y
_atom_site_fract_z
Si Si1 0.227826 0.074548 0.634229
Si Si2 0.339186 0.077084 0.953190
Si Si3 0.376804 0.426333 0.341325
Si Si4 0.996134 0.077941 0.257396
Si Si5 0.301614 0.581485 0.418167
Si Si6 0.258531 0.922858 0.026192
Si Si7 0.046971 0.580471 0.144122
Si Si8 0.402321 0.919677 0.726215
O O1 0.235469 0.250000 0.642489
O O2 0.258228 0.018920 0.771604
O O3 0.100172 0.018916 0.449817
O O4 0.318841 0.020497 0.677589
O O5 0.317674 0.250000 0.949928
O O6 0.467959 0.052044 0.081757
O O7 0.317579 0.977002 0.011272
O O8 0.500000 0.500000 0.500000
O O9 0.389487 0.250000 0.349811
O O10 0.310575 0.467945 0.348002
O O11 0.305729 0.484788 0.168432
O O12 0.014942 0.250000 0.257599
O O13 0.876759 0.051129 0.156386
O O14 0.990720 0.989704 0.159359
O O15 0.316560 0.750000 0.400419
O O16 0.182282 0.562476 0.317977
O O17 0.394730 0.544048 0.611060
O O18 0.286891 0.750000 0.077780
O O19 0.007828 0.750000 0.090559
O O20 0.000000 0.500000 0.000000
O O21 0.364986 0.750000 0.695772
#
# Coordination Sequence:
#
# PCOD8075154 Si02
#       8
#     4   4   4   4   4   4   4   4
#     4  10  21  38  61  90 123 159 202 251 306 364
#     4  10  22  39  61  89 121 160 203 253 311 365
#     4  12  25  41  63  90 121 160 203 249 301 362
#     4  10  22  40  60  85 123 162 201 254 305 357
#     4  10  21  37  57  85 120 156 197 246 298 357
#     4  11  24  42  62  87 120 162 209 255 305 362
#     4  11  22  36  57  85 116 154 198 244 298 358
#     4  10  20  37  60  88 122 156 196 249 307 364
#
# _framework density 20.151123999999999
#
# number of rings (size 3 to 8) (size 9 to 14) (size 15 to 20)
#    0.000    1.500    1.250    3.750    0.000    8.000 
#    0.000    0.000    0.000    0.000    0.000    0.000 
#    0.000    0.000    0.000    0.000    0.000    0.000 
#
# Total GULP energy -396922.167355 kJ/mol
# GULP energy per Si atom -12403.817730 kJ/mol
# Density = 2.010526 g / cm^3
# Si number density = 20.151124 Si / 1000 Ang^3
#
#
#
# Elastic Constant Matrix: (Units=GPa)
#
#
# Indices 1 2 3 4 5 6 
#
# 1 72.0007 27.5034 21.8081 0.0000 -2.8946 0.0000
# 2 27.5034 77.1277 34.3598 0.0000 -1.7189 0.0000
# 3 21.8081 34.3598 117.9650 0.0000 -7.5587 0.0000
# 4 0.0000 0.0000 0.0000 26.8563 0.0000 -1.0421
# 5 -2.8946 -1.7189 -7.5587 0.0000 31.5308 0.0000
# 6 0.0000 0.0000 0.0000 -1.0421 0.0000 35.7728
#
#
#
# Elastic Compliance Matrix: (Units=1/GPa)
#
#
# Indices 1 2 3 4 5 6 
#
# 1 0.016336 -0.005154 -0.001463 0.000000 0.000868 0.000000
# 2 -0.005154 0.016527 -0.003893 0.000000 -0.000506 0.000000
# 3 -0.001463 -0.003893 0.010013 0.000000 0.002054 0.000000
# 4 0.000000 0.000000 0.000000 0.037277 0.000000 0.001086
# 5 0.000868 -0.000506 0.002054 0.000000 0.032260 0.000000
# 6 0.000000 0.000000 0.000000 0.001086 0.000000 0.027986
#
#
# Mechanical properties :
#
#
# Convention : Reuss Voigt Hill
#
# Bulk Modulus (GPa) = 45.75722 48.27065 47.01393
# Shear Modulus (GPa) = 29.63775 31.06012 30.34894
#
# Velocity S-wave (km/s) = 3.83923 3.93027 3.88502
# Velocity P-wave (km/s) = 6.51224 6.67850 6.59589
#
# Compressibility (1/GPa) = 0.02185447
#
# Stress axis : x y z
#
# Youngs Moduli (GPa) = 61.21609 60.50860 99.86838
#
# Poissons Ratio (x) = 0.31186 0.14612
# Poissons Ratio (y) = 0.31551 0.38882
# Poissons Ratio (z) = 0.08957 0.23558
#
# Static dielectric constant tensor:
#      x y z
#    x 3.504070 0.000000 0.104100 
#    y 0.000000 3.715520 0.000000 
#    z 0.104100 0.000000 4.193010 
# 
# 
# High freq. dielectric constant tensor:
#      x y z
#    x 1.783210 0.000000 0.000620 
#    y 0.000000 1.783160 0.000000 
#    z 0.000620 0.000000 1.805470 
# 
# From -- ./inp_files/55681.got.cif
#   From: 2010.06.25/outbox.cif.g09.slc.cpg/sg11_28_cif.got.tgz:55681.got - 2010.06.27 23:14:04.
