data_PCOD8075136
_publ_section_title
;
Structure prediction by ZEFSAII (Michael W. Deem and Ramdas Pophale) SiO2 
 PCOD8075136
Probable space group: P 21/M
;
_chemical_formula_sum "Si O2"
_cell_formula_units_Z 24
_cell_length_a 9.363995
_cell_length_b 9.068155
_cell_length_c 14.832741
_cell_angle_alpha 90.000000
_cell_angle_beta 81.017114
_cell_angle_gamma 90.000000
_cell_volume 1244.061856
_symmetry_space_group_name_H-M "P 21/M"
_symmetry_group_IT_number 11
_symmetry_cell_setting 'monoclinic'
loop_
_space_group_symop_operation_xyz
x,y,z
-x,1/2+y,-z
-x,-y,-z
x,1/2-y,z
loop_
_atom_site_type_symbol
_atom_site_label
_atom_site_fract_x
_atom_site_fract_y
_atom_site_fract_z
Si Si1 0.389070 0.415491 0.450167
Si Si2 0.915862 0.585664 0.435180
Si Si3 0.891027 0.579018 0.076125
Si Si4 0.349605 0.426798 0.248064
Si Si5 0.051570 0.922868 0.240626
Si Si6 0.441416 0.427099 0.914523
O O1 0.500000 0.500000 0.500000
O O2 0.444921 0.250000 0.432499
O O3 0.251034 0.424441 0.527183
O O4 0.363223 0.478885 0.351631
O O5 0.974979 0.750000 0.434276
O O6 0.000000 0.500000 0.500000
O O7 0.954268 0.522548 0.333652
O O8 0.901457 0.750000 0.053856
O O9 0.726099 0.526788 0.079156
O O10 0.945401 0.539222 0.169813
O O11 0.000000 0.500000 0.000000
O O12 0.356853 0.250000 0.237470
O O13 0.197984 0.482513 0.222387
O O14 0.476682 0.504044 0.179321
O O15 0.092928 0.750000 0.238469
O O16 0.462557 0.250000 0.914657
O O17 0.500000 0.500000 0.000000
#
# Coordination Sequence:
#
# PCOD8075136 Si02
#       6
#     4   4   4   4   4   4
#     4  10  23  39  58  86 122 160 202 250 297 352
#     4  10  20  37  60  86 118 156 199 247 294 349
#     4  10  23  41  62  89 117 150 193 242 294 350
#     4  11  23  40  60  89 124 158 199 247 299 355
#     4  10  21  38  62  88 116 155 201 245 298 358
#     4  11  24  42  65  91 122 159 197 242 296 356
#
# _framework density 19.291643000000001
#
# number of rings (size 3 to 8) (size 9 to 14) (size 15 to 20)
#    0.000    1.667    1.667    2.000    2.333    6.667 
#    0.000    0.000    0.000    0.000    0.000    0.000 
#    0.000    0.000    0.000    0.000    0.000    0.000 
#
# Total GULP energy -297526.854254 kJ/mol
# GULP energy per Si atom -12396.952261 kJ/mol
# Density = 1.924773 g / cm^3
# Si number density = 19.291643 Si / 1000 Ang^3
#
#
#
# Elastic Constant Matrix: (Units=GPa)
#
#
# Indices 1 2 3 4 5 6 
#
# 1 153.3632 65.2966 84.5793 0.0000 9.7680 0.0000
# 2 65.2966 68.4432 52.8318 0.0000 1.5048 0.0000
# 3 84.5793 52.8318 149.3277 0.0000 -8.5539 0.0000
# 4 0.0000 0.0000 0.0000 34.9573 0.0000 0.9531
# 5 9.7680 1.5048 -8.5539 0.0000 39.2531 0.0000
# 6 0.0000 0.0000 0.0000 0.9531 0.0000 36.4298
#
#
#
# Elastic Compliance Matrix: (Units=1/GPa)
#
#
# Indices 1 2 3 4 5 6 
#
# 1 0.013000 -0.008891 -0.004439 0.000000 -0.003861 0.000000
# 2 -0.008891 0.026397 -0.004288 0.000000 0.000266 0.000000
# 3 -0.004439 -0.004288 0.010937 0.000000 0.003652 0.000000
# 4 0.000000 0.000000 0.000000 0.028627 0.000000 -0.000749
# 5 -0.003861 0.000266 0.003652 0.000000 0.027222 0.000000
# 6 0.000000 0.000000 0.000000 -0.000749 0.000000 0.027470
#
#
# Mechanical properties :
#
#
# Convention : Reuss Voigt Hill
#
# Bulk Modulus (GPa) = 66.23219 86.28327 76.25773
# Shear Modulus (GPa) = 28.74869 33.35647 31.05258
#
# Velocity S-wave (km/s) = 3.86452 4.16271 4.01638
# Velocity P-wave (km/s) = 7.37016 8.24179 7.81813
#
# Compressibility (1/GPa) = 0.01509840
#
# Stress axis : x y z
#
# Youngs Moduli (GPa) = 76.92437 37.88297 91.43211
#
# Poissons Ratio (x) = 0.33682 0.40584
# Poissons Ratio (y) = 0.68393 0.39207
# Poissons Ratio (z) = 0.34144 0.16245
#
# Static dielectric constant tensor:
#      x y z
#    x 3.199740 0.000000 0.410060 
#    y 0.000000 3.587580 0.000000 
#    z 0.410060 0.000000 3.056100 
# 
# 
# High freq. dielectric constant tensor:
#      x y z
#    x 1.759420 0.000000 -0.002170 
#    y 0.000000 1.748880 0.000000 
#    z -0.002170 0.000000 1.771550 
# 
# From -- ./inp_files/20395.got.cif
#   From: 2010.06.25/outbox.cif.g09.slc.cpg/sg11_11_cif.got.tgz:20395.got - 2010.06.27 23:14:04.
