data_PCOD8075760
_publ_section_title
;
Structure prediction by ZEFSAII (Michael W. Deem and Ramdas Pophale) SiO2 
 PCOD8075760
Probable space group: P 21/M
;
_chemical_formula_sum "Si O2"
_cell_formula_units_Z 32
_cell_length_a 16.829710
_cell_length_b 9.182086
_cell_length_c 11.716679
_cell_angle_alpha 90.000000
_cell_angle_beta 85.862788
_cell_angle_gamma 90.000000
_cell_volume 1805.881843
_symmetry_space_group_name_H-M "P 21/M"
_symmetry_group_IT_number 11
_symmetry_cell_setting 'monoclinic'
loop_
_space_group_symop_operation_xyz
x,y,z
-x,1/2+y,-z
-x,-y,-z
x,1/2-y,z
loop_
_atom_site_type_symbol
_atom_site_label
_atom_site_fract_x
_atom_site_fract_y
_atom_site_fract_z
Si Si1 0.681334 0.581817 0.715732
Si Si2 0.088675 0.916651 0.245634
Si Si3 0.578579 0.915388 0.522480
Si Si4 0.811271 0.418786 0.557145
Si Si5 0.251502 0.581879 0.101748
Si Si6 0.031420 0.921027 0.885044
Si Si7 0.736834 0.577991 0.373339
Si Si8 0.784394 0.081653 0.150879
O O1 0.709263 0.750000 0.712727
O O2 0.597727 0.567427 0.656247
O O3 0.743126 0.480986 0.644348
O O4 0.680120 0.518051 0.844819
O O5 0.064404 0.750000 0.222880
O O6 0.107048 0.938279 0.378999
O O7 0.164452 0.958184 0.159450
O O8 0.016126 0.021990 0.220634
O O9 0.561239 0.750000 0.492588
O O10 0.653592 0.970006 0.439778
O O11 0.500000 0.000000 0.500000
O O12 0.794807 0.250000 0.533017
O O13 0.810104 0.506134 0.437623
O O14 0.270898 0.750000 0.124898
O O15 0.253828 0.547355 0.967752
O O16 0.018461 0.750000 0.901470
O O17 0.123181 0.960456 0.857864
O O18 0.000000 0.000000 0.000000
O O19 0.748588 0.750000 0.373870
O O20 0.737635 0.518412 0.245187
O O21 0.772762 0.250000 0.184879
#
# Coordination Sequence:
#
# PCOD8075760 Si02
#       8
#     4   4   4   4   4   4   4   4
#     4   9  17  29  47  77 108 129 163 212 250 289
#     4   9  17  31  49  72  99 127 169 220 261 300
#     4   9  19  34  54  81 109 131 159 202 247 298
#     4   9  17  31  51  71  97 134 169 207 255 306
#     4   9  17  31  49  71 101 135 173 213 251 300
#     4  11  21  33  49  71 101 134 173 219 261 302
#     4  10  21  36  53  78 106 130 167 213 252 300
#     4  10  21  36  51  71 102 139 176 211 253 309
#
# _framework density 17.719874999999998
#
# number of rings (size 3 to 8) (size 9 to 14) (size 15 to 20)
#    0.000    2.500    1.250    3.000    0.000    7.000 
#    0.000    0.625    0.000    0.750    0.000    0.000 
#    0.000    0.000    0.000    0.000    0.000    0.000 
#
# Total GULP energy -396657.005050 kJ/mol
# GULP energy per Si atom -12395.531408 kJ/mol
# Density = 1.767954 g / cm^3
# Si number density = 17.719875 Si / 1000 Ang^3
#
#
#
# Elastic Constant Matrix: (Units=GPa)
#
#
# Indices 1 2 3 4 5 6 
#
# 1 73.2472 50.1434 47.2702 0.0000 18.1945 0.0000
# 2 50.1434 89.5092 56.4913 0.0000 11.4477 0.0000
# 3 47.2702 56.4913 115.2149 0.0000 15.8946 0.0000
# 4 0.0000 0.0000 0.0000 35.0326 0.0000 6.5150
# 5 18.1945 11.4477 15.8946 0.0000 22.1726 0.0000
# 6 0.0000 0.0000 0.0000 6.5150 0.0000 29.3416
#
#
#
# Elastic Compliance Matrix: (Units=1/GPa)
#
#
# Indices 1 2 3 4 5 6 
#
# 1 0.027065 -0.010991 -0.003811 0.000000 -0.013802 0.000000
# 2 -0.010991 0.020819 -0.006059 0.000000 0.002614 0.000000
# 3 -0.003811 -0.006059 0.013706 0.000000 -0.003570 0.000000
# 4 0.000000 0.000000 0.000000 0.029774 0.000000 -0.006611
# 5 -0.013802 0.002614 -0.003570 0.000000 0.057636 0.000000
# 6 0.000000 0.000000 0.000000 -0.006611 0.000000 0.035549
#
#
# Mechanical properties :
#
#
# Convention : Reuss Voigt Hill
#
# Bulk Modulus (GPa) = 50.33280 65.08678 57.70979
# Shear Modulus (GPa) = 21.46896 25.58047 23.52471
#
# Velocity S-wave (km/s) = 3.48455 3.80360 3.64756
# Velocity P-wave (km/s) = 6.68250 7.49003 7.09776
#
# Compressibility (1/GPa) = 0.01986776
#
# Stress axis : x y z
#
# Youngs Moduli (GPa) = 36.94866 48.03274 72.95997
#
# Poissons Ratio (x) = 0.52795 0.27802
# Poissons Ratio (y) = 0.40612 0.44206
# Poissons Ratio (z) = 0.14080 0.29103
#
# Static dielectric constant tensor:
#      x y z
#    x 3.099190 0.000000 0.402670 
#    y 0.000000 3.402650 0.000000 
#    z 0.402670 0.000000 3.595710 
# 
# 
# High freq. dielectric constant tensor:
#      x y z
#    x 1.644700 0.000000 0.031090 
#    y 0.000000 1.694060 0.000000 
#    z 0.031090 0.000000 1.687660 
# 
# From -- ./inp_files/40702.got.cif
#   From: 2010.06.25/outbox.cif.g09.slc.cpg/sg11_21_cif.got.tgz:40702.got - 2010.06.27 23:14:04.
