data_PCOD8075549
_publ_section_title
;
Structure prediction by ZEFSAII (Michael W. Deem and Ramdas Pophale) SiO2 
 PCOD8075549
Probable space group: P 21/M
;
_chemical_formula_sum "Si O2"
_cell_formula_units_Z 32
_cell_length_a 17.289676
_cell_length_b 17.096421
_cell_length_c 9.258743
_cell_angle_alpha 90.000000
_cell_angle_beta 35.372307
_cell_angle_gamma 90.000000
_cell_volume 1584.302031
_symmetry_space_group_name_H-M "P 21/M"
_symmetry_group_IT_number 11
_symmetry_cell_setting 'monoclinic'
loop_
_space_group_symop_operation_xyz
x,y,z
-x,1/2+y,-z
-x,-y,-z
x,1/2-y,z
loop_
_atom_site_type_symbol
_atom_site_label
_atom_site_fract_x
_atom_site_fract_y
_atom_site_fract_z
Si Si1 0.954760 0.342117 0.179159
Si Si2 0.443418 0.414407 0.119911
Si Si3 0.340210 0.659759 0.388314
Si Si4 0.793839 0.657792 0.691338
Si Si5 0.186692 0.161030 0.016965
Si Si6 0.938112 0.340798 0.881114
Si Si7 0.411173 0.092236 0.507430
Si Si8 0.338054 0.579750 0.688834
O O1 0.966802 0.250000 0.178933
O O2 0.804750 0.371293 0.443666
O O3 0.990019 0.365478 0.960924
O O4 0.061253 0.381338 0.126870
O O5 0.305976 0.396471 0.247163
O O6 0.416621 0.402215 0.328094
O O7 0.500000 0.500000 0.000000
O O8 0.554442 0.352701 0.899195
O O9 0.329959 0.750000 0.445612
O O10 0.385669 0.615471 0.463791
O O11 0.755745 0.750000 0.733269
O O12 0.784810 0.624944 0.868638
O O13 0.944659 0.642287 0.409807
O O14 0.147723 0.250000 0.106702
O O15 0.316141 0.159179 0.716856
O O16 0.894898 0.250000 0.945524
O O17 0.807941 0.391617 0.039175
O O18 0.559309 0.104910 0.342952
O O19 0.340648 0.013246 0.669695
#
# Coordination Sequence:
#
# PCOD8075549 Si02
#       8
#     4   4   4   4   4   4   4   4
#     4   8  16  33  58  87 115 144 190 245 291 343
#     4  12  24  40  57  87 122 158 198 247 296 356
#     4  10  20  39  65  88 116 158 202 245 296 353
#     4  10  22  40  63  88 119 157 199 249 301 353
#     4  10  21  38  61  89 120 156 198 244 295 352
#     4   9  18  37  64  90 117 150 198 252 297 350
#     4  11  24  38  58  83 125 159 195 247 294 356
#     4  10  21  40  59  88 120 157 197 242 303 356
#
# _framework density 20.198167999999999
#
# number of rings (size 3 to 8) (size 9 to 14) (size 15 to 20)
#    0.000    2.000    1.250    3.000    1.750    5.000 
#    2.250    3.750    0.000    0.000    0.000    0.000 
#    0.000    0.000    0.000    0.000    0.000    0.000 
#
# Total GULP energy -396769.212015 kJ/mol
# GULP energy per Si atom -12399.037875 kJ/mol
# Density = 2.015220 g / cm^3
# Si number density = 20.198168 Si / 1000 Ang^3
#
#
#
# Elastic Constant Matrix: (Units=GPa)
#
#
# Indices 1 2 3 4 5 6 
#
# 1 183.9526 32.6937 73.7591 0.0000 -2.8574 0.0000
# 2 32.6937 40.0010 17.6565 0.0000 -14.6509 0.0000
# 3 73.7591 17.6565 136.9728 0.0000 4.1981 0.0000
# 4 0.0000 0.0000 0.0000 29.5660 0.0000 -5.0538
# 5 -2.8574 -14.6509 4.1981 0.0000 24.9600 0.0000
# 6 0.0000 0.0000 0.0000 -5.0538 0.0000 26.1068
#
#
#
# Elastic Compliance Matrix: (Units=1/GPa)
#
#
# Indices 1 2 3 4 5 6 
#
# 1 0.007750 -0.005467 -0.003415 0.000000 -0.001747 0.000000
# 2 -0.005467 0.039030 -0.002785 0.000000 0.022752 0.000000
# 3 -0.003415 -0.002785 0.009610 0.000000 -0.003642 0.000000
# 4 0.000000 0.000000 0.000000 0.034980 0.000000 0.006772
# 5 -0.001747 0.022752 -0.003642 0.000000 0.053832 0.000000
# 6 0.000000 0.000000 0.000000 0.006772 0.000000 0.039615
#
#
# Mechanical properties :
#
#
# Convention : Reuss Voigt Hill
#
# Bulk Modulus (GPa) = 30.25063 67.68279 48.96671
# Shear Modulus (GPa) = 22.81344 31.91434 27.36389
#
# Velocity S-wave (km/s) = 3.36442 3.97931 3.68471
# Velocity P-wave (km/s) = 5.48652 7.39563 6.51142
#
# Compressibility (1/GPa) = 0.03305716
#
# Stress axis : x y z
#
# Youngs Moduli (GPa) = 129.03250 25.62139 104.05509
#
# Poissons Ratio (x) = 0.14007 0.35536
# Poissons Ratio (y) = 0.70539 0.28976
# Poissons Ratio (z) = 0.44066 0.07135
#
# Static dielectric constant tensor:
#      x y z
#    x 3.887890 0.000000 -0.062010 
#    y 0.000000 3.478220 0.000000 
#    z -0.062010 0.000000 3.706290 
# 
# 
# High freq. dielectric constant tensor:
#      x y z
#    x 1.796380 0.000000 -0.005460 
#    y 0.000000 1.766300 0.000000 
#    z -0.005460 0.000000 1.795320 
# 
# From -- ./inp_files/23083.got.cif
#   From: 2010.06.25/outbox.cif.g09.slc.cpg/sg11_12_cif.got.tgz:23083.got - 2010.06.27 23:14:04.
