data_PCOD8075921
_publ_section_title
;
Structure prediction by ZEFSAII (Michael W. Deem and Ramdas Pophale) SiO2 
 PCOD8075921
Probable space group: P 21/M
;
_chemical_formula_sum "Si O2"
_cell_formula_units_Z 28
_cell_length_a 21.145544
_cell_length_b 10.614757
_cell_length_c 7.732191
_cell_angle_alpha 90.000000
_cell_angle_beta 53.827975
_cell_angle_gamma 90.000000
_cell_volume 1401.002091
_symmetry_space_group_name_H-M "P 21/M"
_symmetry_group_IT_number 11
_symmetry_cell_setting 'monoclinic'
loop_
_space_group_symop_operation_xyz
x,y,z
-x,1/2+y,-z
-x,-y,-z
x,1/2-y,z
loop_
_atom_site_type_symbol
_atom_site_label
_atom_site_fract_x
_atom_site_fract_y
_atom_site_fract_z
Si Si1 0.342631 0.110828 0.121071
Si Si2 0.984875 0.610352 0.162662
Si Si3 0.611179 0.109367 0.703321
Si Si4 0.128725 0.605299 0.162775
Si Si5 0.172384 0.028566 0.440935
Si Si6 0.524594 0.889126 0.336000
Si Si7 0.227225 0.892771 0.692931
O O1 0.362623 0.250000 0.166878
O O2 0.248919 0.104234 0.253949
O O3 0.379807 0.999317 0.171797
O O4 0.384281 0.098455 0.866119
O O5 0.002843 0.750000 0.053539
O O6 0.895899 0.616596 0.374098
O O7 0.040444 0.586270 0.237708
O O8 0.000000 0.500000 0.000000
O O9 0.621139 0.250000 0.770762
O O10 0.526731 0.097538 0.754172
O O11 0.678836 0.090735 0.448393
O O12 0.150930 0.750000 0.155303
O O13 0.137466 0.543071 0.334052
O O14 0.186920 0.541293 0.924677
O O15 0.197151 0.938385 0.556458
O O16 0.510264 0.750000 0.443463
O O17 0.500000 0.000000 0.500000
O O18 0.199261 0.750000 0.748043
#
# Coordination Sequence:
#
# PCOD8075921 Si02
#       7
#     4   4   4   4   4   4   4
#     4  10  22  39  59  86 121 153 189 240 298 354
#     4  11  23  41  63  88 121 158 201 248 297 356
#     4   9  19  36  60  85 113 153 201 242 287 345
#     4  10  21  36  60  90 119 156 200 248 298 349
#     4  11  21  37  62  86 121 158 197 238 305 359
#     4  10  22  38  57  85 120 156 195 243 290 346
#     4   9  18  34  56  88 123 151 194 250 292 346
#
# _framework density 19.985695
#
# number of rings (size 3 to 8) (size 9 to 14) (size 15 to 20)
#    0.000    2.000    1.429    1.714    2.000    2.286 
#    0.000    1.429    0.000    0.000    0.000    0.000 
#    0.000    0.000    0.000    0.000    0.000    0.000 
#
# Total GULP energy -346949.781417 kJ/mol
# GULP energy per Si atom -12391.063622 kJ/mol
# Density = 1.994021 g / cm^3
# Si number density = 19.985695 Si / 1000 Ang^3
#
#
#
# Elastic Constant Matrix: (Units=GPa)
#
#
# Indices 1 2 3 4 5 6 
#
# 1 79.7932 34.6950 39.6277 0.0000 -17.1217 0.0000
# 2 34.6950 137.4245 55.5841 0.0000 0.5498 0.0000
# 3 39.6277 55.5841 97.3564 0.0000 -13.1650 0.0000
# 4 0.0000 0.0000 0.0000 32.1152 0.0000 2.3167
# 5 -17.1217 0.5498 -13.1650 0.0000 40.1163 0.0000
# 6 0.0000 0.0000 0.0000 2.3167 0.0000 24.1725
#
#
#
# Elastic Compliance Matrix: (Units=1/GPa)
#
#
# Indices 1 2 3 4 5 6 
#
# 1 0.017236 -0.002411 -0.004855 0.000000 0.005796 0.000000
# 2 -0.002411 0.009953 -0.005085 0.000000 -0.002834 0.000000
# 3 -0.004855 -0.005085 0.015571 0.000000 0.003107 0.000000
# 4 0.000000 0.000000 0.000000 0.031355 0.000000 -0.003005
# 5 0.005796 -0.002834 0.003107 0.000000 0.028460 0.000000
# 6 0.000000 0.000000 0.000000 -0.003005 0.000000 0.041657
#
#
# Mechanical properties :
#
#
# Convention : Reuss Voigt Hill
#
# Bulk Modulus (GPa) = 55.37598 63.82086 59.59842
# Shear Modulus (GPa) = 28.57916 31.59196 30.08556
#
# Velocity S-wave (km/s) = 3.78561 3.98015 3.88410
# Velocity P-wave (km/s) = 6.84659 7.28867 7.07109
#
# Compressibility (1/GPa) = 0.01805837
#
# Stress axis : x y z
#
# Youngs Moduli (GPa) = 58.01945 100.46959 64.22169
#
# Poissons Ratio (x) = 0.24220 0.31182
# Poissons Ratio (y) = 0.13987 0.32654
# Poissons Ratio (z) = 0.28171 0.51085
#
# Static dielectric constant tensor:
#      x y z
#    x 3.809620 0.000000 -0.408470 
#    y 0.000000 3.770890 0.000000 
#    z -0.408470 0.000000 3.634390 
# 
# 
# High freq. dielectric constant tensor:
#      x y z
#    x 1.784060 0.000000 -0.028120 
#    y 0.000000 1.777740 0.000000 
#    z -0.028120 0.000000 1.770880 
# 
# From -- ./inp_files/8751.got.cif
#   From: 2010.06.25/outbox.cif.g09.slc.cpg/sg11_5_cif.got.tgz:8751.got - 2010.06.27 23:14:04.
