data_PCOD8075247
_publ_section_title
;
Structure prediction by ZEFSAII (Michael W. Deem and Ramdas Pophale) SiO2 
 PCOD8075247
Probable space group: P 21/M
;
_chemical_formula_sum "Si O2"
_cell_formula_units_Z 32
_cell_length_a 16.574178
_cell_length_b 18.115075
_cell_length_c 12.366381
_cell_angle_alpha 90.000000
_cell_angle_beta 25.989213
_cell_angle_gamma 90.000000
_cell_volume 1627.005564
_symmetry_space_group_name_H-M "P 21/M"
_symmetry_group_IT_number 11
_symmetry_cell_setting 'monoclinic'
loop_
_space_group_symop_operation_xyz
x,y,z
-x,1/2+y,-z
-x,-y,-z
x,1/2-y,z
loop_
_atom_site_type_symbol
_atom_site_label
_atom_site_fract_x
_atom_site_fract_y
_atom_site_fract_z
Si Si1 0.809574 0.595087 0.863165
Si Si2 0.185088 0.835398 0.342202
Si Si3 0.286137 0.579470 0.781923
Si Si4 0.157884 0.924688 0.173213
Si Si5 0.696207 0.908594 0.242376
Si Si6 0.540887 0.666687 0.027553
Si Si7 0.930648 0.664504 0.143703
Si Si8 0.177873 0.333334 0.490523
O O1 0.865445 0.510927 0.775526
O O2 0.630403 0.612247 0.006684
O O3 0.978289 0.646784 0.626834
O O4 0.762854 0.611288 0.042948
O O5 0.196344 0.750000 0.294551
O O6 0.253953 0.884698 0.158402
O O7 0.324532 0.851867 0.273848
O O8 0.270835 0.493902 0.768148
O O9 0.481142 0.612331 0.509719
O O10 0.275343 0.590244 0.924055
O O11 0.124012 0.621591 0.915303
O O12 0.955281 0.890664 0.407836
O O13 0.813295 0.859908 0.183018
O O14 0.569379 0.750000 0.035739
O O15 0.626793 0.657971 0.803562
O O16 0.979225 0.750000 0.073533
O O17 0.809344 0.648171 0.397379
O O18 0.099957 0.250000 0.569546
#
# Coordination Sequence:
#
# PCOD8075247 Si02
#       8
#     4   4   4   4   4   4   4   4
#     4  11  23  40  57  86 121 152 192 238 286 344
#     4  11  23  38  59  84 114 156 193 232 292 350
#     4   9  21  41  61  86 118 154 195 244 292 338
#     4  10  20  37  62  89 114 149 195 244 289 339
#     4  10  22  40  62  84 116 162 198 231 290 355
#     4  10  22  38  57  82 115 156 192 233 291 346
#     4  10  21  36  59  90 118 149 194 246 291 340
#     4   9  18  36  58  84 119 150 185 242 295 335
#
# _framework density 19.668033000000001
#
# number of rings (size 3 to 8) (size 9 to 14) (size 15 to 20)
#    0.000    2.000    1.250    1.500    1.750    3.500 
#    0.000    3.750    0.000    0.000    0.000    0.000 
#    0.000    0.000    0.000    0.000    0.000    0.000 
#
# Total GULP energy -396862.797377 kJ/mol
# GULP energy per Si atom -12401.962418 kJ/mol
# Density = 1.962327 g / cm^3
# Si number density = 19.668033 Si / 1000 Ang^3
#
#
#
# Elastic Constant Matrix: (Units=GPa)
#
#
# Indices 1 2 3 4 5 6 
#
# 1 106.1384 32.0638 25.5158 0.0000 -4.0390 0.0000
# 2 32.0638 58.0494 15.9780 0.0000 -2.7987 0.0000
# 3 25.5158 15.9780 48.9218 0.0000 -5.1465 0.0000
# 4 0.0000 0.0000 0.0000 19.2648 0.0000 -0.4391
# 5 -4.0390 -2.7987 -5.1465 0.0000 24.8540 0.0000
# 6 0.0000 0.0000 0.0000 -0.4391 0.0000 35.6134
#
#
#
# Elastic Compliance Matrix: (Units=1/GPa)
#
#
# Indices 1 2 3 4 5 6 
#
# 1 0.012174 -0.005459 -0.004522 0.000000 0.000427 0.000000
# 2 -0.005459 0.021395 -0.004069 0.000000 0.000679 0.000000
# 3 -0.004522 -0.004069 0.024537 0.000000 0.003888 0.000000
# 4 0.000000 0.000000 0.000000 0.051923 0.000000 0.000640
# 5 0.000427 0.000679 0.003888 0.000000 0.041186 0.000000
# 6 0.000000 0.000000 0.000000 0.000640 0.000000 0.028087
#
#
# Mechanical properties :
#
#
# Convention : Reuss Voigt Hill
#
# Bulk Modulus (GPa) = 33.32599 40.02498 36.67549
# Shear Modulus (GPa) = 22.99873 25.24990 24.12432
#
# Velocity S-wave (km/s) = 3.42328 3.58691 3.50605
# Velocity P-wave (km/s) = 5.71018 6.12772 5.92263
#
# Compressibility (1/GPa) = 0.03000661
#
# Stress axis : x y z
#
# Youngs Moduli (GPa) = 82.14133 46.74028 40.75491
#
# Poissons Ratio (x) = 0.25517 0.18428
# Poissons Ratio (y) = 0.44843 0.16582
# Poissons Ratio (z) = 0.37141 0.19018
#
# Static dielectric constant tensor:
#      x y z
#    x 3.558970 0.000000 0.081080 
#    y 0.000000 3.605390 0.000000 
#    z 0.081080 0.000000 3.557350 
# 
# 
# High freq. dielectric constant tensor:
#      x y z
#    x 1.767180 0.000000 0.002530 
#    y 0.000000 1.768640 0.000000 
#    z 0.002530 0.000000 1.763440 
# 
# From -- ./inp_files/39951.got.cif
#   From: 2010.06.25/outbox.cif.g09.slc.cpg/sg11_20_cif.got.tgz:39951.got - 2010.06.27 23:14:04.
