data_PCOD8075367
_publ_section_title
;
Structure prediction by ZEFSAII (Michael W. Deem and Ramdas Pophale) SiO2 
 PCOD8075367
Probable space group: P 21/M
;
_chemical_formula_sum "Si O2"
_cell_formula_units_Z 32
_cell_length_a 23.883621
_cell_length_b 9.244717
_cell_length_c 15.052575
_cell_angle_alpha 90.000000
_cell_angle_beta 150.653967
_cell_angle_gamma 90.000000
_cell_volume 1628.824056
_symmetry_space_group_name_H-M "P 21/M"
_symmetry_group_IT_number 11
_symmetry_cell_setting 'monoclinic'
loop_
_space_group_symop_operation_xyz
x,y,z
-x,1/2+y,-z
-x,-y,-z
x,1/2-y,z
loop_
_atom_site_type_symbol
_atom_site_label
_atom_site_fract_x
_atom_site_fract_y
_atom_site_fract_z
Si Si1 0.956205 0.409259 0.020815
Si Si2 0.299685 0.594787 0.387963
Si Si3 0.236771 0.082895 0.984072
Si Si4 0.001099 0.420053 0.740362
Si Si5 0.402150 0.917261 0.712231
Si Si6 0.387446 0.084785 0.360545
Si Si7 0.248778 0.579522 0.659882
Si Si8 0.362425 0.577667 0.999470
O O1 0.015088 0.250000 0.107848
O O2 0.976014 0.493964 0.138648
O O3 0.825442 0.385522 0.820669
O O4 0.000000 0.500000 0.000000
O O5 0.363366 0.750000 0.456701
O O6 0.307718 0.565220 0.504190
O O7 0.351477 0.458621 0.409485
O O8 0.257162 0.250000 0.985728
O O9 0.101457 0.048658 0.807004
O O10 0.295864 0.982186 0.992862
O O11 0.291661 0.047204 0.155499
O O12 0.999065 0.250000 0.760809
O O13 0.880647 0.475963 0.533939
O O14 0.438936 0.750000 0.776595
O O15 0.339964 0.981819 0.713946
O O16 0.512635 0.009603 0.838346
O O17 0.419108 0.250000 0.404385
O O18 0.500000 0.000000 0.500000
O O19 0.249133 0.750000 0.649284
O O20 0.287963 0.531107 0.811391
O O21 0.374247 0.750000 0.024466
#
# Coordination Sequence:
#
# PCOD8075367 Si02
#       8
#     4   4   4   4   4   4   4   4
#     4  11  22  36  57  86 120 155 193 237 287 344
#     4  10  21  36  56  83 113 149 190 230 281 342
#     4  10  22  39  59  84 117 157 197 240 295 355
#     4  10  20  40  64  85 116 157 199 243 295 356
#     4  10  20  38  61  85 116 154 194 239 295 361
#     4  11  22  36  55  82 114 152 192 234 284 342
#     4   9  20  39  63  87 115 153 196 244 305 359
#     4  11  23  38  59  88 117 152 198 250 299 349
#
# _framework density 19.646075
#
# number of rings (size 3 to 8) (size 9 to 14) (size 15 to 20)
#    0.000    1.750    1.250    3.000    0.000    8.000 
#    0.000    3.750    0.000    0.000    0.000    0.000 
#    0.000    0.000    0.000    0.000    0.000    0.000 
#
# Total GULP energy -396662.549678 kJ/mol
# GULP energy per Si atom -12395.704677 kJ/mol
# Density = 1.960136 g / cm^3
# Si number density = 19.646075 Si / 1000 Ang^3
#
#
#
# Elastic Constant Matrix: (Units=GPa)
#
#
# Indices 1 2 3 4 5 6 
#
# 1 82.5194 47.4428 2.6441 0.0000 7.8624 0.0000
# 2 47.4428 84.0048 32.9702 0.0000 -1.5790 0.0000
# 3 2.6441 32.9702 70.9196 0.0000 4.7340 0.0000
# 4 0.0000 0.0000 0.0000 11.4815 0.0000 9.4776
# 5 7.8624 -1.5790 4.7340 0.0000 33.4248 0.0000
# 6 0.0000 0.0000 0.0000 9.4776 0.0000 16.7150
#
#
#
# Elastic Compliance Matrix: (Units=1/GPa)
#
#
# Indices 1 2 3 4 5 6 
#
# 1 0.020772 -0.014333 0.006320 0.000000 -0.006458 0.000000
# 2 -0.014333 0.024543 -0.011285 0.000000 0.006129 0.000000
# 3 0.006320 -0.011285 0.019430 0.000000 -0.004772 0.000000
# 4 0.000000 0.000000 0.000000 0.163728 0.000000 -0.092835
# 5 -0.006458 0.006129 -0.004772 0.000000 0.032402 0.000000
# 6 0.000000 0.000000 0.000000 -0.092835 0.000000 0.112465
#
#
# Mechanical properties :
#
#
# Convention : Reuss Voigt Hill
#
# Bulk Modulus (GPa) = 38.24249 44.83979 41.54114
# Shear Modulus (GPa) = 11.88635 22.61673 17.25154
#
# Velocity S-wave (km/s) = 2.46239 3.39663 2.96652
# Velocity P-wave (km/s) = 5.25285 6.18515 5.73797
#
# Compressibility (1/GPa) = 0.02614893
#
# Stress axis : x y z
#
# Youngs Moduli (GPa) = 48.14269 40.74482 51.46795
#
# Poissons Ratio (x) = 0.58399 -0.32528
# Poissons Ratio (y) = 0.69002 0.58080
# Poissons Ratio (z) = -0.30426 0.45979
#
# Static dielectric constant tensor:
#      x y z
#    x 3.414570 0.000000 -0.130690 
#    y 0.000000 2.666970 0.000000 
#    z -0.130690 0.000000 3.721460 
# 
# 
# High freq. dielectric constant tensor:
#      x y z
#    x 1.770460 0.000000 0.001060 
#    y 0.000000 1.758420 0.000000 
#    z 0.001060 0.000000 1.772110 
# 
# From -- ./inp_files/55658.got.cif
#   From: 2010.06.25/outbox.cif.g09.slc.cpg/sg11_28_cif.got.tgz:55658.got - 2010.06.27 23:14:04.
