data_PCOD8075484
_publ_section_title
;
Structure prediction by ZEFSAII (Michael W. Deem and Ramdas Pophale) SiO2 
 PCOD8075484
Probable space group: P 21/M
;
_chemical_formula_sum "Si O2"
_cell_formula_units_Z 24
_cell_length_a 19.747644
_cell_length_b 8.499179
_cell_length_c 9.392287
_cell_angle_alpha 90.000000
_cell_angle_beta 130.997933
_cell_angle_gamma 90.000000
_cell_volume 1189.753805
_symmetry_space_group_name_H-M "P 21/M"
_symmetry_group_IT_number 11
_symmetry_cell_setting 'monoclinic'
loop_
_space_group_symop_operation_xyz
x,y,z
-x,1/2+y,-z
-x,-y,-z
x,1/2-y,z
loop_
_atom_site_type_symbol
_atom_site_label
_atom_site_fract_x
_atom_site_fract_y
_atom_site_fract_z
Si Si1 0.390136 0.250000 0.618880
Si Si2 0.693588 0.750000 0.781416
Si Si3 0.815690 0.060107 0.906975
Si Si4 0.868675 0.421068 0.661118
Si Si5 0.315122 0.501772 0.709339
Si Si6 0.534616 0.250000 0.038515
Si Si7 0.355160 0.250000 0.968693
Si Si8 0.014533 0.929540 0.674107
O O1 0.387325 0.250000 0.444664
O O2 0.334427 0.399348 0.596620
O O3 0.491506 0.250000 0.820153
O O4 0.744459 0.580882 0.836790
O O5 0.642737 0.750000 0.860272
O O6 0.784363 0.250000 0.875022
O O7 0.854593 0.027375 0.804054
O O8 0.891921 0.019354 0.126742
O O9 0.914780 0.250000 0.720278
O O10 0.774788 0.403482 0.446809
O O11 0.933525 0.540626 0.671486
O O12 0.404036 0.600366 0.857618
O O13 0.301416 0.400556 0.833980
O O14 0.456227 0.250000 0.047416
O O15 0.017362 0.750000 0.645393
O O16 0.000000 0.000000 0.500000
#
# Coordination Sequence:
#
# PCOD8075484 Si02
#       8
#     2   2   4   4   4   2   2   4
#     4  10  20  38  66  92 121 165 221 244 329 390
#     4  12  24  42  71  92 134 174 213 278 321 383
#     4  10  25  45  63  96 132 173 220 266 324 384
#     4  11  22  39  66  95 121 165 223 260 320 383
#     4  10  20  39  64  94 123 166 208 269 313 389
#     4  10  20  44  67  94 132 166 210 277 320 392
#     4  10  24  38  62  94 125 163 218 255 334 387
#     4  11  26  42  64  92 132 172 213 271 323 382
#
# _framework density 20.172243000000002
#
# number of rings (size 3 to 8) (size 9 to 14) (size 15 to 20)
#    0.000    1.667    2.500    3.000    8.167    0.000 
#    1.500    3.333    0.000    0.000    0.000    0.000 
#    0.000    0.000    0.000    0.000    0.000    0.000 
#
# Total GULP energy -297316.637814 kJ/mol
# GULP energy per Si atom -12388.193242 kJ/mol
# Density = 2.012633 g / cm^3
# Si number density = 20.172243 Si / 1000 Ang^3
#
#
#
# Elastic Constant Matrix: (Units=GPa)
#
#
# Indices 1 2 3 4 5 6 
#
# 1 63.5959 31.3634 61.2956 0.0000 -18.0341 0.0000
# 2 31.3634 71.2390 59.7246 0.0000 1.5068 0.0000
# 3 61.2956 59.7246 164.7765 0.0000 -22.0964 0.0000
# 4 0.0000 0.0000 0.0000 26.8363 0.0000 0.9401
# 5 -18.0341 1.5068 -22.0964 0.0000 38.6332 0.0000
# 6 0.0000 0.0000 0.0000 0.9401 0.0000 17.8156
#
#
#
# Elastic Compliance Matrix: (Units=1/GPa)
#
#
# Indices 1 2 3 4 5 6 
#
# 1 0.028447 -0.007113 -0.006700 0.000000 0.009725 0.000000
# 2 -0.007113 0.023031 -0.006788 0.000000 -0.008101 0.000000
# 3 -0.006700 -0.006788 0.011521 0.000000 0.003727 0.000000
# 4 0.000000 0.000000 0.000000 0.037332 0.000000 -0.001970
# 5 0.009725 -0.008101 0.003727 0.000000 0.032871 0.000000
# 6 0.000000 0.000000 0.000000 -0.001970 0.000000 0.056235
#
#
# Mechanical properties :
#
#
# Convention : Reuss Voigt Hill
#
# Bulk Modulus (GPa) = 45.87618 67.15317 56.51467
# Shear Modulus (GPa) = 21.01670 26.47221 23.74445
#
# Velocity S-wave (km/s) = 3.23129 3.62651 3.43459
# Velocity P-wave (km/s) = 6.05915 7.13425 6.61857
#
# Compressibility (1/GPa) = 0.02179781
#
# Stress axis : x y z
#
# Youngs Moduli (GPa) = 35.15260 43.41955 86.79456
#
# Poissons Ratio (x) = 0.30883 0.58153
# Poissons Ratio (y) = 0.25003 0.58919
# Poissons Ratio (z) = 0.23553 0.29474
#
# Static dielectric constant tensor:
#      x y z
#    x 3.303890 0.000000 -0.044400 
#    y 0.000000 4.290690 0.000000 
#    z -0.044400 0.000000 3.723890 
# 
# 
# High freq. dielectric constant tensor:
#      x y z
#    x 1.756810 0.000000 -0.002290 
#    y 0.000000 1.807780 0.000000 
#    z -0.002290 0.000000 1.805980 
# 
# From -- ./inp_files/25989.got.cif
#   From: 2010.06.25/outbox.cif.g09.slc.cpg/sg11_13_cif.got.tgz:25989.got - 2010.06.27 23:14:04.
