data_PCOD8075323
_publ_section_title
;
Structure prediction by ZEFSAII (Michael W. Deem and Ramdas Pophale) SiO2 
 PCOD8075323
Probable space group: P 21/M
;
_chemical_formula_sum "Si O2"
_cell_formula_units_Z 32
_cell_length_a 23.791981
_cell_length_b 9.332076
_cell_length_c 14.307460
_cell_angle_alpha 90.000000
_cell_angle_beta 32.863596
_cell_angle_gamma 90.000000
_cell_volume 1723.788239
_symmetry_space_group_name_H-M "P 21/M"
_symmetry_group_IT_number 11
_symmetry_cell_setting 'monoclinic'
loop_
_space_group_symop_operation_xyz
x,y,z
-x,1/2+y,-z
-x,-y,-z
x,1/2-y,z
loop_
_atom_site_type_symbol
_atom_site_label
_atom_site_fract_x
_atom_site_fract_y
_atom_site_fract_z
Si Si1 0.894263 0.417554 0.164372
Si Si2 0.440236 0.583043 0.163513
Si Si3 0.799521 0.083646 0.498443
Si Si4 0.701046 0.420193 0.318358
Si Si5 0.898538 0.917180 0.528073
Si Si6 0.323124 0.583868 0.857918
Si Si7 0.496581 0.581392 0.292460
Si Si8 0.868951 0.086867 0.746424
O O1 0.915767 0.250000 0.120424
O O2 0.849152 0.449799 0.329312
O O3 0.810130 0.475750 0.207022
O O4 0.000000 0.500000 0.000000
O O5 0.451318 0.750000 0.126801
O O6 0.320370 0.538210 0.334488
O O7 0.492305 0.543092 0.189299
O O8 0.500000 0.500000 0.000000
O O9 0.812019 0.250000 0.507326
O O10 0.858958 0.987383 0.489205
O O11 0.703216 0.250000 0.318277
O O12 0.684283 0.476937 0.236812
O O13 0.607173 0.477195 0.513134
O O14 0.872697 0.750000 0.562472
O O15 0.020133 0.950338 0.364818
O O16 0.841442 0.985950 0.697298
O O17 0.355498 0.750000 0.813348
O O18 0.405976 0.496095 0.799832
O O19 0.211788 0.559010 0.058908
O O20 0.508281 0.750000 0.292497
O O21 0.865501 0.250000 0.714972
#
# Coordination Sequence:
#
# PCOD8075323 Si02
#       8
#     4   4   4   4   4   4   4   4
#     4  10  21  38  61  86 115 152 190 231 280 336
#     4  10  22  39  59  83 113 151 191 231 282 338
#     4  10  21  39  60  84 116 155 189 227 286 347
#     4   9  18  37  61  80 108 149 185 221 275 341
#     4  10  21  36  58  83 110 147 189 232 276 326
#     4  10  21  35  57  84 108 142 186 227 276 333
#     4  10  20  38  59  81 110 144 184 229 278 332
#     4   9  20  38  55  79 113 148 183 226 281 338
#
# _framework density 18.563763999999999
#
# number of rings (size 3 to 8) (size 9 to 14) (size 15 to 20)
#    0.000    2.250    1.250    0.750    3.500    2.500 
#    0.000    1.250    0.000    0.000    0.000    0.000 
#    0.000    0.000    0.000    0.000    0.000    0.000 
#
# Total GULP energy -396875.455949 kJ/mol
# GULP energy per Si atom -12402.357998 kJ/mol
# Density = 1.852151 g / cm^3
# Si number density = 18.563764 Si / 1000 Ang^3
#
#
#
# Elastic Constant Matrix: (Units=GPa)
#
#
# Indices 1 2 3 4 5 6 
#
# 1 159.7069 67.7117 68.4836 0.0000 5.2960 0.0000
# 2 67.7117 64.7216 52.7366 0.0000 3.6015 0.0000
# 3 68.4836 52.7366 125.1274 0.0000 14.7779 0.0000
# 4 0.0000 0.0000 0.0000 8.4587 0.0000 -7.8586
# 5 5.2960 3.6015 14.7779 0.0000 25.5811 0.0000
# 6 0.0000 0.0000 0.0000 -7.8586 0.0000 33.8980
#
#
#
# Elastic Compliance Matrix: (Units=1/GPa)
#
#
# Indices 1 2 3 4 5 6 
#
# 1 0.011533 -0.010532 -0.001896 0.000000 0.000190 0.000000
# 2 -0.010532 0.033311 -0.008563 0.000000 0.002437 0.000000
# 3 -0.001896 -0.008563 0.013361 0.000000 -0.006121 0.000000
# 4 0.000000 0.000000 0.000000 0.150675 0.000000 0.034931
# 5 0.000190 0.002437 -0.006121 0.000000 0.042245 0.000000
# 6 0.000000 0.000000 0.000000 0.034931 0.000000 0.037598
#
#
# Mechanical properties :
#
#
# Convention : Reuss Voigt Hill
#
# Bulk Modulus (GPa) = 61.63731 80.82442 71.23087
# Shear Modulus (GPa) = 14.87593 24.29582 19.58588
#
# Velocity S-wave (km/s) = 2.83387 3.62163 3.25169
# Velocity P-wave (km/s) = 6.63196 7.81803 7.24929
#
# Compressibility (1/GPa) = 0.01622394
#
# Stress axis : x y z
#
# Youngs Moduli (GPa) = 86.70412 30.02015 74.84235
#
# Poissons Ratio (x) = 0.31617 0.14190
# Poissons Ratio (y) = 0.91316 0.64087
# Poissons Ratio (z) = 0.16440 0.25706
#
# Static dielectric constant tensor:
#      x y z
#    x 3.516030 0.000000 0.170560 
#    y 0.000000 3.263920 0.000000 
#    z 0.170560 0.000000 3.112660 
# 
# 
# High freq. dielectric constant tensor:
#      x y z
#    x 1.733950 0.000000 0.001850 
#    y 0.000000 1.701640 0.000000 
#    z 0.001850 0.000000 1.730790 
# 
# From -- ./inp_files/55586.got.cif
#   From: 2010.06.25/outbox.cif.g09.slc.cpg/sg11_28_cif.got.tgz:55586.got - 2010.06.27 23:14:04.
