data_PCOD8075110
_publ_section_title
;
Structure prediction by ZEFSAII (Michael W. Deem and Ramdas Pophale) SiO2 
 PCOD8075110
Probable space group: P 21/M
;
_chemical_formula_sum "Si O2"
_cell_formula_units_Z 28
_cell_length_a 10.266242
_cell_length_b 8.867154
_cell_length_c 30.059640
_cell_angle_alpha 90.000000
_cell_angle_beta 146.497036
_cell_angle_gamma 90.000000
_cell_volume 1510.438206
_symmetry_space_group_name_H-M "P 21/M"
_symmetry_group_IT_number 11
_symmetry_cell_setting 'monoclinic'
loop_
_space_group_symop_operation_xyz
x,y,z
-x,1/2+y,-z
-x,-y,-z
x,1/2-y,z
loop_
_atom_site_type_symbol
_atom_site_label
_atom_site_fract_x
_atom_site_fract_y
_atom_site_fract_z
Si Si1 0.157627 0.928765 0.165788
Si Si2 0.649239 0.576303 0.165591
Si Si3 0.618620 0.925296 0.596742
Si Si4 0.115846 0.923777 0.990419
Si Si5 0.151677 0.572347 0.420496
Si Si6 0.066496 0.074536 0.232895
Si Si7 0.641276 0.571436 0.264527
O O1 0.146622 0.750000 0.158234
O O2 0.418281 0.993582 0.228057
O O3 0.968234 0.997919 0.078504
O O4 0.093160 0.975265 0.196944
O O5 0.735294 0.750000 0.188828
O O6 0.829404 0.471311 0.190566
O O7 0.631758 0.515322 0.210991
O O8 0.396411 0.558557 0.070768
O O9 0.642361 0.750000 0.591886
O O10 0.345158 0.979023 0.512421
O O11 0.704917 0.959342 0.671124
O O12 0.784955 0.012459 0.610106
O O13 0.039744 0.750000 0.968859
O O14 0.000000 0.000000 0.000000
O O15 0.146855 0.750000 0.414760
O O16 0.887182 0.515330 0.357405
O O17 0.052151 0.250000 0.216164
O O18 0.623026 0.750000 0.259814
#
# Coordination Sequence:
#
# PCOD8075110 Si02
#       7
#     4   4   4   4   4   4   4
#     4  11  23  40  59  81 111 149 190 231 278 332
#     4  10  20  37  60  84 109 144 187 228 270 329
#     4   9  18  31  50  80 114 143 176 224 275 324
#     4  11  22  38  60  86 115 144 183 231 279 329
#     4   9  16  30  55  81 107 141 182 226 270 319
#     4  11  23  38  54  82 118 150 184 226 282 335
#     4   9  17  33  57  84 108 139 187 230 268 322
#
# _framework density 18.537666000000002
#
# number of rings (size 3 to 8) (size 9 to 14) (size 15 to 20)
#    0.000    2.000    2.857    1.286    0.000    2.286 
#    0.000    2.143    0.000    0.000    0.000    0.000 
#    0.000    0.000    0.000    0.000    0.000    0.000 
#
# Total GULP energy -347153.269972 kJ/mol
# GULP energy per Si atom -12398.331070 kJ/mol
# Density = 1.849547 g / cm^3
# Si number density = 18.537666 Si / 1000 Ang^3
#
#
#
# Elastic Constant Matrix: (Units=GPa)
#
#
# Indices 1 2 3 4 5 6 
#
# 1 81.1079 19.0886 37.9444 0.0000 1.9904 0.0000
# 2 19.0886 54.0171 34.9660 0.0000 0.4608 0.0000
# 3 37.9444 34.9660 111.3064 0.0000 3.1154 0.0000
# 4 0.0000 0.0000 0.0000 24.3470 0.0000 -0.6012
# 5 1.9904 0.4608 3.1154 0.0000 28.4949 0.0000
# 6 0.0000 0.0000 0.0000 -0.6012 0.0000 24.7266
#
#
#
# Elastic Compliance Matrix: (Units=1/GPa)
#
#
# Indices 1 2 3 4 5 6 
#
# 1 0.014938 -0.002495 -0.004294 0.000000 -0.000534 0.000000
# 2 -0.002495 0.023660 -0.006596 0.000000 0.000513 0.000000
# 3 -0.004294 -0.006596 0.012547 0.000000 -0.000965 0.000000
# 4 0.000000 0.000000 0.000000 0.041098 0.000000 0.000999
# 5 -0.000534 0.000513 -0.000965 0.000000 0.035229 0.000000
# 6 0.000000 0.000000 0.000000 0.000999 0.000000 0.040467
#
#
# Mechanical properties :
#
#
# Convention : Reuss Voigt Hill
#
# Bulk Modulus (GPa) = 41.02540 47.82551 44.42546
# Shear Modulus (GPa) = 24.65079 25.80918 25.22999
#
# Velocity S-wave (km/s) = 3.65055 3.73534 3.69319
# Velocity P-wave (km/s) = 6.32041 6.66774 6.49640
#
# Compressibility (1/GPa) = 0.02437514
#
# Stress axis : x y z
#
# Youngs Moduli (GPa) = 66.94220 42.26564 79.69922
#
# Poissons Ratio (x) = 0.10545 0.34221
# Poissons Ratio (y) = 0.16702 0.52573
# Poissons Ratio (z) = 0.28743 0.27880
#
# Static dielectric constant tensor:
#      x y z
#    x 3.341050 0.000000 0.332870 
#    y 0.000000 3.365940 0.000000 
#    z 0.332870 0.000000 2.231630 
# 
# 
# High freq. dielectric constant tensor:
#      x y z
#    x 1.700150 0.000000 0.010570 
#    y 0.000000 1.709550 0.000000 
#    z 0.010570 0.000000 1.738890 
# 
# From -- ./inp_files/28440.got.cif
#   From: 2010.06.25/outbox.cif.g09.slc.cpg/sg11_15_cif.got.tgz:28440.got - 2010.06.27 23:14:04.
