data_PCOD8075399
_publ_section_title
;
Structure prediction by ZEFSAII (Michael W. Deem and Ramdas Pophale) SiO2 
 PCOD8075399
Probable space group: P 21/M
;
_chemical_formula_sum "Si O2"
_cell_formula_units_Z 32
_cell_length_a 25.256438
_cell_length_b 8.518150
_cell_length_c 23.944035
_cell_angle_alpha 90.000000
_cell_angle_beta 17.782704
_cell_angle_gamma 90.000000
_cell_volume 1573.239878
_symmetry_space_group_name_H-M "P 21/M"
_symmetry_group_IT_number 11
_symmetry_cell_setting 'monoclinic'
loop_
_space_group_symop_operation_xyz
x,y,z
-x,1/2+y,-z
-x,-y,-z
x,1/2-y,z
loop_
_atom_site_type_symbol
_atom_site_label
_atom_site_fract_x
_atom_site_fract_y
_atom_site_fract_z
Si Si1 0.833786 0.431306 0.912585
Si Si2 0.689321 0.433889 0.449634
Si Si3 0.994974 0.065023 0.066651
Si Si4 0.699612 0.566360 0.159381
Si Si5 0.978312 0.435113 0.460372
Si Si6 0.697769 0.933480 0.940330
Si Si7 0.205471 0.566563 0.535270
Si Si8 0.659618 0.933109 0.712721
O O1 0.889854 0.250000 0.854297
O O2 0.706764 0.471089 0.989175
O O3 0.999991 0.542613 0.740340
O O4 0.734206 0.466045 0.069702
O O5 0.725309 0.250000 0.416680
O O6 0.828447 0.507091 0.266615
O O7 0.495080 0.472155 0.624116
O O8 0.720375 0.499889 0.480720
O O9 0.980104 0.250000 0.077941
O O10 0.169619 0.013892 0.923282
O O11 0.000000 0.000000 0.000000
O O12 0.720896 0.750000 0.123454
O O13 0.955826 0.250000 0.484115
O O14 0.809468 0.509833 0.602904
O O15 0.000000 0.500000 0.500000
O O16 0.145811 0.485853 0.256706
O O17 0.704409 0.750000 0.946799
O O18 0.517214 0.978841 0.092214
O O19 0.246608 0.750000 0.484867
O O20 0.295881 0.468942 0.396020
O O21 0.632239 0.750000 0.748642
#
# Coordination Sequence:
#
# PCOD8075399 Si02
#       8
#     4   4   4   4   4   4   4   4
#     4  12  23  36  60  94 128 159 197 253 312 363
#     4   9  19  36  60  86 112 150 199 242 290 359
#     4  10  21  38  57  82 113 152 200 247 298 357
#     4  10  20  38  62  84 114 157 199 243 299 368
#     4  11  25  45  69  93 124 168 217 264 314 370
#     4  11  24  43  67  93 126 171 214 250 307 381
#     4  11  20  37  63  90 123 165 204 243 303 377
#     4  12  25  41  65  98 133 164 205 263 318 369
#
# _framework density 20.340191999999998
#
# number of rings (size 3 to 8) (size 9 to 14) (size 15 to 20)
#    0.000    1.250    2.500    4.125    0.000    4.000 
#    0.000    1.250    0.000    0.000    0.000    0.000 
#    0.000    0.000    0.000    0.000    0.000    0.000 
#
# Total GULP energy -396954.621470 kJ/mol
# GULP energy per Si atom -12404.831921 kJ/mol
# Density = 2.029390 g / cm^3
# Si number density = 20.340192 Si / 1000 Ang^3
#
#
#
# Elastic Constant Matrix: (Units=GPa)
#
#
# Indices 1 2 3 4 5 6 
#
# 1 160.9263 37.6684 73.5078 0.0000 0.7677 0.0000
# 2 37.6684 56.2177 26.4590 0.0000 0.2455 0.0000
# 3 73.5078 26.4590 132.2621 0.0000 -28.8002 0.0000
# 4 0.0000 0.0000 0.0000 22.9333 0.0000 1.1007
# 5 0.7677 0.2455 -28.8002 0.0000 20.0948 0.0000
# 6 0.0000 0.0000 0.0000 1.1007 0.0000 32.4777
#
#
#
# Elastic Compliance Matrix: (Units=1/GPa)
#
#
# Indices 1 2 3 4 5 6 
#
# 1 0.010567 -0.003428 -0.007655 0.000000 -0.011333 0.000000
# 2 -0.003428 0.021810 -0.003616 0.000000 -0.005318 0.000000
# 3 -0.007655 -0.003616 0.018333 0.000000 0.026612 0.000000
# 4 0.000000 0.000000 0.000000 0.043676 0.000000 -0.001480
# 5 -0.011333 -0.005318 0.026612 0.000000 0.088403 0.000000
# 6 0.000000 0.000000 0.000000 -0.001480 0.000000 0.030841
#
#
# Mechanical properties :
#
#
# Convention : Reuss Voigt Hill
#
# Bulk Modulus (GPa) = 46.92004 69.40851 58.16427
# Shear Modulus (GPa) = 19.98951 29.21922 24.60437
#
# Velocity S-wave (km/s) = 3.13830 3.79427 3.48177
# Velocity P-wave (km/s) = 6.02077 7.30706 6.69488
#
# Compressibility (1/GPa) = 0.02131286
#
# Stress axis : x y z
#
# Youngs Moduli (GPa) = 94.63329 45.85058 54.54576
#
# Poissons Ratio (x) = 0.15718 0.41754
# Poissons Ratio (y) = 0.32442 0.19722
# Poissons Ratio (z) = 0.72440 0.16578
#
# Static dielectric constant tensor:
#      x y z
#    x 3.929440 0.000000 0.066250 
#    y 0.000000 13.447610 0.000000 
#    z 0.066250 0.000000 4.008330 
# 
# 
# High freq. dielectric constant tensor:
#      x y z
#    x 1.794130 0.000000 -0.007190 
#    y 0.000000 1.782150 0.000000 
#    z -0.007190 0.000000 1.809850 
# 
# From -- ./inp_files/69975.got.cif
#   From: 2010.06.25/outbox.cif.g09.slc.cpg/sg11_35_cif.got.tgz:69975.got - 2010.06.27 23:14:04.
