data_PCOD8075488
_publ_section_title
;
Structure prediction by ZEFSAII (Michael W. Deem and Ramdas Pophale) SiO2 
 PCOD8075488
Probable space group: P 21/M
;
_chemical_formula_sum "Si O2"
_cell_formula_units_Z 28
_cell_length_a 9.380171
_cell_length_b 18.699183
_cell_length_c 15.009719
_cell_angle_alpha 90.000000
_cell_angle_beta 31.526942
_cell_angle_gamma 90.000000
_cell_volume 1376.651863
_symmetry_space_group_name_H-M "P 21/M"
_symmetry_group_IT_number 11
_symmetry_cell_setting 'monoclinic'
loop_
_space_group_symop_operation_xyz
x,y,z
-x,1/2+y,-z
-x,-y,-z
x,1/2-y,z
loop_
_atom_site_type_symbol
_atom_site_label
_atom_site_fract_x
_atom_site_fract_y
_atom_site_fract_z
Si Si1 0.621288 0.669182 0.949306
Si Si2 0.714824 0.043041 0.827834
Si Si3 0.481226 0.668565 0.680519
Si Si4 0.336624 0.032015 0.505487
Si Si5 0.611653 0.431084 0.685960
Si Si6 0.860620 0.830589 0.009623
Si Si7 0.882930 0.667439 0.628676
O O1 0.526535 0.750000 0.981759
O O2 0.769160 0.637493 0.783107
O O3 0.345768 0.626731 0.120998
O O4 0.833893 0.662761 0.917061
O O5 0.674513 0.027274 0.744436
O O6 0.017730 0.023561 0.696691
O O7 0.500000 0.000000 0.000000
O O8 0.509019 0.750000 0.629946
O O9 0.589922 0.615535 0.546006
O O10 0.650531 0.656791 0.679701
O O11 0.169368 0.650789 0.870926
O O12 0.500000 0.000000 0.500000
O O13 0.421150 0.990768 0.371238
O O14 0.332401 0.386442 0.837427
O O15 0.854567 0.376910 0.537408
O O16 0.783846 0.750000 0.080726
O O17 0.970020 0.750000 0.591522
#
# Coordination Sequence:
#
# PCOD8075488 Si02
#       7
#     4   4   4   4   4   4   4
#     4   9  20  37  65  94 121 161 213 259 308 374
#     4  11  24  41  64  90 126 166 210 262 313 373
#     4  10  23  42  64  90 127 165 205 258 318 376
#     4  12  28  43  62  95 130 169 214 261 325 381
#     4  11  23  41  64  92 127 167 211 265 308 378
#     4   9  20  40  64  93 127 166 207 258 316 373
#     4  10  20  38  67  96 123 163 210 259 316 375
#
# _framework density 20.339200999999999
#
# number of rings (size 3 to 8) (size 9 to 14) (size 15 to 20)
#    0.000    1.714    1.429    1.714    8.000    2.857 
#    0.000    0.714    0.000    0.000    0.000    0.000 
#    0.000    0.000    0.000    0.000    0.000    0.000 
#
# Total GULP energy -347319.852121 kJ/mol
# GULP energy per Si atom -12404.280433 kJ/mol
# Density = 2.029291 g / cm^3
# Si number density = 20.339201 Si / 1000 Ang^3
#
#
#
# Elastic Constant Matrix: (Units=GPa)
#
#
# Indices 1 2 3 4 5 6 
#
# 1 107.1386 57.3342 66.2342 0.0000 1.9589 0.0000
# 2 57.3342 90.9360 61.2810 0.0000 -2.7707 0.0000
# 3 66.2342 61.2810 127.3143 0.0000 -4.5917 0.0000
# 4 0.0000 0.0000 0.0000 40.5121 0.0000 1.5577
# 5 1.9589 -2.7707 -4.5917 0.0000 37.4086 0.0000
# 6 0.0000 0.0000 0.0000 1.5577 0.0000 27.3449
#
#
#
# Elastic Compliance Matrix: (Units=1/GPa)
#
#
# Indices 1 2 3 4 5 6 
#
# 1 0.016241 -0.006747 -0.005274 0.000000 -0.001997 0.000000
# 2 -0.006747 0.019081 -0.005636 0.000000 0.001075 0.000000
# 3 -0.005274 -0.005636 0.013365 0.000000 0.001499 0.000000
# 4 0.000000 0.000000 0.000000 0.024738 0.000000 -0.001409
# 5 -0.001997 0.001075 0.001499 0.000000 0.027100 0.000000
# 6 0.000000 0.000000 0.000000 -0.001409 0.000000 0.036650
#
#
# Mechanical properties :
#
#
# Convention : Reuss Voigt Hill
#
# Bulk Modulus (GPa) = 74.76889 77.23196 76.00043
# Shear Modulus (GPa) = 28.25720 30.42244 29.33982
#
# Velocity S-wave (km/s) = 3.73137 3.87169 3.80218
# Velocity P-wave (km/s) = 7.44345 7.61847 7.53147
#
# Compressibility (1/GPa) = 0.01337455
#
# Stress axis : x y z
#
# Youngs Moduli (GPa) = 61.57267 52.40806 74.82195
#
# Poissons Ratio (x) = 0.35357 0.39460
# Poissons Ratio (y) = 0.41540 0.42168
# Poissons Ratio (z) = 0.32473 0.29536
#
# Static dielectric constant tensor:
#      x y z
#    x 3.804870 0.000000 0.031730 
#    y 0.000000 4.017010 0.000000 
#    z 0.031730 0.000000 3.724030 
# 
# 
# High freq. dielectric constant tensor:
#      x y z
#    x 1.788180 0.000000 -0.001440 
#    y 0.000000 1.811900 0.000000 
#    z -0.001440 0.000000 1.795080 
# 
# From -- ./inp_files/48304.got.cif
#   From: 2010.06.25/outbox.cif.g09.slc.cpg/sg11_25_cif.got.tgz:48304.got - 2010.06.27 23:14:04.
