data_PCOD8075173
_publ_section_title
;
Structure prediction by ZEFSAII (Michael W. Deem and Ramdas Pophale) SiO2 
 PCOD8075173
Probable space group: P 21/M
;
_chemical_formula_sum "Si O2"
_cell_formula_units_Z 28
_cell_length_a 8.398753
_cell_length_b 12.983846
_cell_length_c 12.296186
_cell_angle_alpha 90.000000
_cell_angle_beta 112.778575
_cell_angle_gamma 90.000000
_cell_volume 1236.298309
_symmetry_space_group_name_H-M "P 21/M"
_symmetry_group_IT_number 11
_symmetry_cell_setting 'monoclinic'
loop_
_space_group_symop_operation_xyz
x,y,z
-x,1/2+y,-z
-x,-y,-z
x,1/2-y,z
loop_
_atom_site_type_symbol
_atom_site_label
_atom_site_fract_x
_atom_site_fract_y
_atom_site_fract_z
Si Si1 0.113614 0.637306 0.750628
Si Si2 0.843686 0.480087 0.688815
Si Si3 0.127614 0.871298 0.089148
Si Si4 0.402118 0.631985 0.986789
Si Si5 0.265678 0.127790 0.038407
Si Si6 0.202889 0.865713 0.536367
Si Si7 0.414511 0.370023 0.312232
O O1 0.041440 0.750000 0.768380
O O2 0.310619 0.629306 0.843806
O O3 0.089072 0.627218 0.614572
O O4 0.004826 0.546605 0.775935
O O5 0.807865 0.394502 0.771622
O O6 0.883721 0.429604 0.583267
O O7 0.687061 0.559446 0.628345
O O8 0.124326 0.750000 0.067215
O O9 0.271138 0.920993 0.042148
O O10 0.931078 0.914608 0.021548
O O11 0.428993 0.750000 0.031939
O O12 0.595761 0.582320 0.017136
O O13 0.267569 0.250000 0.021399
O O14 0.338381 0.099000 0.175364
O O15 0.215485 0.750000 0.496110
O O16 0.389786 0.905545 0.621952
O O17 0.388730 0.250000 0.331597
#
# Coordination Sequence:
#
# PCOD8075173 Si02
#       7
#     4   4   4   4   4   4   4
#     4  10  20  37  61  85 110 147 198 247 289 333
#     4  12  23  36  55  89 123 151 184 235 296 360
#     4  10  22  38  57  87 124 161 192 229 294 363
#     4   9  17  35  61  85 114 154 200 246 288 336
#     4   9  17  35  61  85 114 154 200 246 288 336
#     4  10  21  40  62  81 111 155 194 236 292 349
#     4  10  20  37  61  85 110 147 198 247 289 333
#
# _framework density 22.648256
#
# number of rings (size 3 to 8) (size 9 to 14) (size 15 to 20)
#    0.000    2.000    1.429    2.571    0.000    4.571 
#    2.571    1.429    0.000    0.000    0.000    0.000 
#    0.000    0.000    0.000    0.000    0.000    0.000 
#
# Total GULP energy -346997.321256 kJ/mol
# GULP energy per Si atom -12392.761473 kJ/mol
# Density = 2.259671 g / cm^3
# Si number density = 22.648256 Si / 1000 Ang^3
#
#
#
# Elastic Constant Matrix: (Units=GPa)
#
#
# Indices 1 2 3 4 5 6 
#
# 1 125.8300 42.8500 20.8005 0.0000 -3.4777 0.0000
# 2 42.8500 31.9692 27.2822 0.0000 0.4220 0.0000
# 3 20.8005 27.2822 88.4727 0.0000 -13.9964 0.0000
# 4 0.0000 0.0000 0.0000 7.4020 0.0000 -1.5932
# 5 -3.4777 0.4220 -13.9964 0.0000 33.0988 0.0000
# 6 0.0000 0.0000 0.0000 -1.5932 0.0000 35.6414
#
#
#
# Elastic Compliance Matrix: (Units=1/GPa)
#
#
# Indices 1 2 3 4 5 6 
#
# 1 0.015950 -0.025477 0.004740 0.000000 0.004005 0.000000
# 2 -0.025477 0.084496 -0.022141 0.000000 -0.013117 0.000000
# 3 0.004740 -0.022141 0.018368 0.000000 0.008548 0.000000
# 4 0.000000 0.000000 0.000000 0.136412 0.000000 0.006098
# 5 0.004005 -0.013117 0.008548 0.000000 0.034415 0.000000
# 6 0.000000 0.000000 0.000000 0.006098 0.000000 0.028330
#
#
# Mechanical properties :
#
#
# Convention : Reuss Voigt Hill
#
# Bulk Modulus (GPa) = 30.24942 47.57081 38.91012
# Shear Modulus (GPa) = 12.05553 25.58437 18.81995
#
# Velocity S-wave (km/s) = 2.30965 3.36466 2.88578
# Velocity P-wave (km/s) = 4.52745 6.01202 5.32176
#
# Compressibility (1/GPa) = 0.03305849
#
# Stress axis : x y z
#
# Youngs Moduli (GPa) = 62.69523 11.83487 54.44104
#
# Poissons Ratio (x) = 0.30151 -0.25804
# Poissons Ratio (y) = 1.59726 1.20540
# Poissons Ratio (z) = -0.29716 0.26204
#
# Static dielectric constant tensor:
#      x y z
#    x 4.370390 0.000000 -0.026400 
#    y 0.000000 4.045180 0.000000 
#    z -0.026400 0.000000 3.654620 
# 
# 
# High freq. dielectric constant tensor:
#      x y z
#    x 1.902340 0.000000 -0.005420 
#    y 0.000000 1.907340 0.000000 
#    z -0.005420 0.000000 1.862220 
# 
# From -- ./inp_files/17799.got.cif
#   From: 2010.06.25/outbox.cif.g09.slc.cpg/sg11_9_cif.got.tgz:17799.got - 2010.06.27 23:14:04.
