data_PCOD8075567
_publ_section_title
;
Structure prediction by ZEFSAII (Michael W. Deem and Ramdas Pophale) SiO2 
 PCOD8075567
Probable space group: P 21/M
;
_chemical_formula_sum "Si O2"
_cell_formula_units_Z 32
_cell_length_a 12.023631
_cell_length_b 15.323130
_cell_length_c 17.642855
_cell_angle_alpha 90.000000
_cell_angle_beta 153.241306
_cell_angle_gamma 90.000000
_cell_volume 1463.491541
_symmetry_space_group_name_H-M "P 21/M"
_symmetry_group_IT_number 11
_symmetry_cell_setting 'monoclinic'
loop_
_space_group_symop_operation_xyz
x,y,z
-x,1/2+y,-z
-x,-y,-z
x,1/2-y,z
loop_
_atom_site_type_symbol
_atom_site_label
_atom_site_fract_x
_atom_site_fract_y
_atom_site_fract_z
Si Si1 0.420622 0.847982 0.154825
Si Si2 0.488680 0.655312 0.774510
Si Si3 0.269792 0.903333 0.791882
Si Si4 0.901185 0.510592 0.023623
Si Si5 0.636576 0.084833 0.607910
Si Si6 0.283086 0.408712 0.520290
Si Si7 0.331294 0.391955 0.844042
Si Si8 0.778565 0.114088 0.535521
O O1 0.319936 0.750000 0.111321
O O2 0.600028 0.881265 0.329581
O O3 0.584802 0.842308 0.179830
O O4 0.192095 0.915573 0.004338
O O5 0.613514 0.750000 0.865790
O O6 0.292101 0.635618 0.721243
O O7 0.355175 0.665386 0.612540
O O8 0.681709 0.578456 0.890214
O O9 0.999021 0.875559 0.658145
O O10 0.315374 0.006103 0.815954
O O11 0.476527 0.864972 0.973427
O O12 0.103838 0.551729 0.201304
O O13 0.000000 0.500000 0.000000
O O14 0.460687 0.132618 0.562765
O O15 0.680993 0.143545 0.559782
O O16 0.500000 0.000000 0.500000
O O17 0.276989 0.512596 0.511532
O O18 0.064772 0.359565 0.708246
#
# Coordination Sequence:
#
# PCOD8075567 Si02
#       8
#     4   4   4   4   4   4   4   4
#     4  12  25  41  66 100 132 172 221 273 339 399
#     4  12  25  43  70 102 134 178 228 278 340 400
#     4  10  21  39  69  99 131 178 225 274 334 399
#     4  12  23  46  72  96 137 177 222 280 334 401
#     4  10  21  39  71 101 128 178 224 270 340 399
#     4  10  20  40  65  95 135 174 222 264 331 397
#     4  10  21  38  66  98 134 175 223 276 337 396
#     4  10  20  39  66  99 131 180 223 274 333 403
#
# _framework density 21.865516
#
# number of rings (size 3 to 8) (size 9 to 14) (size 15 to 20)
#    0.000    1.250    3.750    2.250    5.250    5.000 
#    0.000    2.500    0.000    0.750    0.000    0.000 
#    0.000    0.000    0.000    0.000    0.000    0.000 
#
# Total GULP energy -396685.474105 kJ/mol
# GULP energy per Si atom -12396.421066 kJ/mol
# Density = 2.181575 g / cm^3
# Si number density = 21.865516 Si / 1000 Ang^3
#
#
#
# Elastic Constant Matrix: (Units=GPa)
#
#
# Indices 1 2 3 4 5 6 
#
# 1 175.8769 34.2813 67.0891 0.0000 0.6829 0.0000
# 2 34.2813 81.0554 24.2854 0.0000 13.4641 0.0000
# 3 67.0891 24.2854 137.8105 0.0000 -0.3147 0.0000
# 4 0.0000 0.0000 0.0000 1.5332 0.0000 -0.2433
# 5 0.6829 13.4641 -0.3147 0.0000 41.6940 0.0000
# 6 0.0000 0.0000 0.0000 -0.2433 0.0000 0.7832
#
#
#
# Elastic Compliance Matrix: (Units=1/GPa)
#
#
# Indices 1 2 3 4 5 6 
#
# 1 0.007331 -0.002247 -0.003172 0.000000 0.000582 0.000000
# 2 -0.002247 0.014502 -0.001472 0.000000 -0.004658 0.000000
# 3 -0.003172 -0.001472 0.009061 0.000000 0.000596 0.000000
# 4 0.000000 0.000000 0.000000 0.686020 0.000000 0.213084
# 5 0.000582 -0.004658 0.000596 0.000000 0.025483 0.000000
# 6 0.000000 0.000000 0.000000 0.213084 0.000000 1.343039
#
#
# Mechanical properties :
#
#
# Convention : Reuss Voigt Hill
#
# Bulk Modulus (GPa) = 58.43622 71.78382 65.11002
# Shear Modulus (GPa) = 2.37538 26.74122 14.55830
#
# Velocity S-wave (km/s) = 1.04342 3.50092 2.58313
# Velocity P-wave (km/s) = 5.31366 7.01732 6.22406
#
# Compressibility (1/GPa) = 0.01711267
#
# Stress axis : x y z
#
# Youngs Moduli (GPa) = 136.39939 68.95411 110.35990
#
# Poissons Ratio (x) = 0.15494 0.35004
# Poissons Ratio (y) = 0.30649 0.16249
# Poissons Ratio (z) = 0.43263 0.10153
#
# Static dielectric constant tensor:
#      x y z
#    x 4.831140 0.000000 0.197320 
#    y 0.000000 3.875410 0.000000 
#    z 0.197320 0.000000 4.067410 
# 
# 
# High freq. dielectric constant tensor:
#      x y z
#    x 1.878580 0.000000 -0.003960 
#    y 0.000000 1.836350 0.000000 
#    z -0.003960 0.000000 1.862850 
# 
# From -- ./inp_files/59487.got.cif
#   From: 2010.06.25/outbox.cif.g09.slc.cpg/sg11_30_cif.got.tgz:59487.got - 2010.06.27 23:14:04.
