data_PCOD8075955
_publ_section_title
;
Structure prediction by ZEFSAII (Michael W. Deem and Ramdas Pophale) SiO2 
 PCOD8075955
Probable space group: P 21/M
;
_chemical_formula_sum "Si O2"
_cell_formula_units_Z 32
_cell_length_a 30.038932
_cell_length_b 8.752657
_cell_length_c 21.961393
_cell_angle_alpha 90.000000
_cell_angle_beta 18.661764
_cell_angle_gamma 90.000000
_cell_volume 1847.601076
_symmetry_space_group_name_H-M "P 21/M"
_symmetry_group_IT_number 11
_symmetry_cell_setting 'monoclinic'
loop_
_space_group_symop_operation_xyz
x,y,z
-x,1/2+y,-z
-x,-y,-z
x,1/2-y,z
loop_
_atom_site_type_symbol
_atom_site_label
_atom_site_fract_x
_atom_site_fract_y
_atom_site_fract_z
Si Si1 0.928358 0.070151 0.292862
Si Si2 0.347904 0.572793 0.413512
Si Si3 0.924480 0.425229 0.434143
Si Si4 0.637062 0.568362 0.989539
Si Si5 0.624630 0.074463 0.875079
Si Si6 0.937375 0.076088 0.986721
Si Si7 0.817783 0.426526 0.260902
Si Si8 0.084097 0.570487 0.335354
O O1 0.917982 0.250000 0.306899
O O2 0.783462 0.002031 0.453452
O O3 0.954050 0.011586 0.327908
O O4 0.058097 0.022182 0.081254
O O5 0.356328 0.750000 0.386249
O O6 0.325627 0.547024 0.515492
O O7 0.493468 0.499929 0.203455
O O8 0.973879 0.250000 0.378564
O O9 0.760288 0.437763 0.657597
O O10 0.009254 0.533056 0.369260
O O11 0.645981 0.750000 0.982550
O O12 0.651908 0.519077 0.900748
O O13 0.761146 0.496798 0.867940
O O14 0.589841 0.250000 0.935762
O O15 0.500000 0.000000 0.000000
O O16 0.937607 0.250000 0.965017
O O17 0.071090 0.041856 0.854808
O O18 0.805489 0.042438 0.203496
O O19 0.866650 0.250000 0.207949
O O20 0.090958 0.750000 0.336802
O O21 0.000000 0.500000 0.500000
#
# Coordination Sequence:
#
# PCOD8075955 Si02
#       8
#     4   4   4   4   4   4   4   4
#     4   9  17  31  49  70 101 135 164 197 242 296
#     4   8  15  29  49  72  99 133 165 196 239 296
#     4  10  21  37  55  73  96 131 170 207 247 296
#     4  11  21  35  55  76  98 127 167 210 253 296
#     4  11  22  35  52  73 101 132 165 201 244 299
#     4   9  15  23  40  67  97 129 165 201 237 282
#     4   8  14  26  42  62  94 134 168 196 234 287
#     4  12  24  39  57  75  96 126 165 211 257 298
#
# _framework density 17.319755000000001
#
# number of rings (size 3 to 8) (size 9 to 14) (size 15 to 20)
#    0.000    2.250    1.250    3.750    0.000    3.500 
#    0.000    7.500    0.000    0.000    0.000    0.875 
#    0.000    0.000    0.000    0.000    0.000    0.000 
#
# Total GULP energy -396570.609342 kJ/mol
# GULP energy per Si atom -12392.831542 kJ/mol
# Density = 1.728033 g / cm^3
# Si number density = 17.319755 Si / 1000 Ang^3
#
#
#
# Elastic Constant Matrix: (Units=GPa)
#
#
# Indices 1 2 3 4 5 6 
#
# 1 117.7400 31.9932 56.3222 0.0000 20.3836 0.0000
# 2 31.9932 59.9566 23.8816 0.0000 0.8735 0.0000
# 3 56.3222 23.8816 52.5514 0.0000 14.1138 0.0000
# 4 0.0000 0.0000 0.0000 21.0323 0.0000 0.7268
# 5 20.3836 0.8735 14.1138 0.0000 35.5414 0.0000
# 6 0.0000 0.0000 0.0000 0.7268 0.0000 26.7291
#
#
#
# Elastic Compliance Matrix: (Units=1/GPa)
#
#
# Indices 1 2 3 4 5 6 
#
# 1 0.018052 -0.002743 -0.017170 0.000000 -0.003468 0.000000
# 2 -0.002743 0.021191 -0.007805 0.000000 0.004152 0.000000
# 3 -0.017170 -0.007805 0.042851 0.000000 -0.006978 0.000000
# 4 0.000000 0.000000 0.000000 0.047591 0.000000 -0.001294
# 5 -0.003468 0.004152 -0.006978 0.000000 0.032794 0.000000
# 6 0.000000 0.000000 0.000000 -0.001294 0.000000 0.037448
#
#
# Mechanical properties :
#
#
# Convention : Reuss Voigt Hill
#
# Bulk Modulus (GPa) = 37.51090 50.51578 44.01334
# Shear Modulus (GPa) = 18.92154 24.53064 21.72609
#
# Velocity S-wave (km/s) = 3.30886 3.76751 3.54561
# Velocity P-wave (km/s) = 6.02519 6.93941 6.49840
#
# Compressibility (1/GPa) = 0.02665892
#
# Stress axis : x y z
#
# Youngs Moduli (GPa) = 55.39434 47.18993 23.33641
#
# Poissons Ratio (x) = 0.12946 0.40068
# Poissons Ratio (y) = 0.15197 0.18214
# Poissons Ratio (z) = 0.95110 0.36831
#
# Static dielectric constant tensor:
#      x y z
#    x 3.379060 0.000000 0.341640 
#    y 0.000000 3.171870 0.000000 
#    z 0.341640 0.000000 3.392450 
# 
# 
# High freq. dielectric constant tensor:
#      x y z
#    x 1.658660 0.000000 0.032810 
#    y 0.000000 1.663040 0.000000 
#    z 0.032810 0.000000 1.649940 
# 
# From -- ./inp_files/40642.got.cif
#   From: 2010.06.25/outbox.cif.g09.slc.cpg/sg11_21_cif.got.tgz:40642.got - 2010.06.27 23:14:04.
