data_PCOD8075845
_publ_section_title
;
Structure prediction by ZEFSAII (Michael W. Deem and Ramdas Pophale) SiO2 
 PCOD8075845
Probable space group: P 21/M
;
_chemical_formula_sum "Si O2"
_cell_formula_units_Z 24
_cell_length_a 23.129627
_cell_length_b 9.198900
_cell_length_c 11.396692
_cell_angle_alpha 90.000000
_cell_angle_beta 149.672702
_cell_angle_gamma 90.000000
_cell_volume 1224.396805
_symmetry_space_group_name_H-M "P 21/M"
_symmetry_group_IT_number 11
_symmetry_cell_setting 'monoclinic'
loop_
_space_group_symop_operation_xyz
x,y,z
-x,1/2+y,-z
-x,-y,-z
x,1/2-y,z
loop_
_atom_site_type_symbol
_atom_site_label
_atom_site_fract_x
_atom_site_fract_y
_atom_site_fract_z
Si Si1 0.264382 0.420408 0.337026
Si Si2 0.063788 0.919367 0.879693
Si Si3 0.379201 0.080127 0.785611
Si Si4 0.605105 0.414013 0.633890
Si Si5 0.815865 0.918885 0.385657
Si Si6 0.173323 0.588758 0.832431
O O1 0.261508 0.250000 0.302492
O O2 0.310155 0.451382 0.546476
O O3 0.349826 0.502056 0.400245
O O4 0.136145 0.485628 0.099142
O O5 0.098862 0.750000 0.955984
O O6 0.093832 0.969547 0.799223
O O7 0.928761 0.945604 0.664050
O O8 0.404081 0.250000 0.843950
O O9 0.296934 0.020501 0.745906
O O10 0.500000 0.000000 0.000000
O O11 0.500000 0.500000 0.500000
O O12 0.570265 0.250000 0.536068
O O13 0.696533 0.409883 0.897500
O O14 0.799489 0.750000 0.334612
O O15 0.836529 0.987510 0.296260
O O16 0.133931 0.750000 0.726225
#
# Coordination Sequence:
#
# PCOD8075845 Si02
#       6
#     4   4   4   4   4   4
#     4  10  21  38  58  82 114 148 190 239 284 337
#     4   9  19  37  59  85 117 148 184 234 291 344
#     4  10  24  42  58  81 113 151 194 241 286 335
#     4  10  21  36  56  83 114 149 190 235 286 338
#     4  10  21  37  58  84 114 151 192 234 283 341
#     4   9  19  34  53  83 117 146 181 229 283 341
#
# _framework density 19.601489000000001
#
# number of rings (size 3 to 8) (size 9 to 14) (size 15 to 20)
#    0.000    2.333    0.000    2.500    2.333    6.667 
#    0.000    0.000    0.000    0.000    0.000    0.000 
#    0.000    0.000    0.000    0.000    0.000    0.000 
#
# Total GULP energy -297570.904962 kJ/mol
# GULP energy per Si atom -12398.787707 kJ/mol
# Density = 1.955688 g / cm^3
# Si number density = 19.601489 Si / 1000 Ang^3
#
#
#
# Elastic Constant Matrix: (Units=GPa)
#
#
# Indices 1 2 3 4 5 6 
#
# 1 58.8487 41.1334 59.4144 0.0000 7.4244 0.0000
# 2 41.1334 91.3697 53.8409 0.0000 -0.2659 0.0000
# 3 59.4144 53.8409 100.7150 0.0000 12.4573 0.0000
# 4 0.0000 0.0000 0.0000 38.2316 0.0000 0.1031
# 5 7.4244 -0.2659 12.4573 0.0000 33.6137 0.0000
# 6 0.0000 0.0000 0.0000 0.1031 0.0000 27.0459
#
#
#
# Elastic Compliance Matrix: (Units=1/GPa)
#
#
# Indices 1 2 3 4 5 6 
#
# 1 0.044731 -0.006874 -0.022517 0.000000 -0.001589 0.000000
# 2 -0.006874 0.017425 -0.005728 0.000000 0.003779 0.000000
# 3 -0.022517 -0.005728 0.026898 0.000000 -0.005040 0.000000
# 4 0.000000 0.000000 0.000000 0.026157 0.000000 -0.000100
# 5 -0.001589 0.003779 -0.005040 0.000000 0.031999 0.000000
# 6 0.000000 0.000000 0.000000 -0.000100 0.000000 0.036975
#
#
# Mechanical properties :
#
#
# Convention : Reuss Voigt Hill
#
# Bulk Modulus (GPa) = 53.14214 62.19010 57.66612
# Shear Modulus (GPa) = 19.17972 26.21456 22.69714
#
# Velocity S-wave (km/s) = 3.13146 3.66098 3.40653
# Velocity P-wave (km/s) = 6.34389 7.04745 6.70490
#
# Compressibility (1/GPa) = 0.01881746
#
# Stress axis : x y z
#
# Youngs Moduli (GPa) = 22.35592 57.38863 37.17798
#
# Poissons Ratio (x) = 0.39446 0.83713
# Poissons Ratio (y) = 0.15366 0.21294
# Poissons Ratio (z) = 0.50338 0.32870
#
# Static dielectric constant tensor:
#      x y z
#    x 2.640520 0.000000 -0.623050 
#    y 0.000000 3.607580 0.000000 
#    z -0.623050 0.000000 2.993030 
# 
# 
# High freq. dielectric constant tensor:
#      x y z
#    x 1.760150 0.000000 0.009960 
#    y 0.000000 1.762300 0.000000 
#    z 0.009960 0.000000 1.769820 
# 
# From -- ./inp_files/43886.got.cif
#   From: 2010.06.25/outbox.cif.g09.slc.cpg/sg11_22_cif.got.tgz:43886.got - 2010.06.27 23:14:04.
