data_PCOD8075919
_publ_section_title
;
Structure prediction by ZEFSAII (Michael W. Deem and Ramdas Pophale) SiO2 
 PCOD8075919
Probable space group: P 21/M
;
_chemical_formula_sum "Si O2"
_cell_formula_units_Z 28
_cell_length_a 8.776278
_cell_length_b 13.020653
_cell_length_c 12.608985
_cell_angle_alpha 90.000000
_cell_angle_beta 115.117360
_cell_angle_gamma 90.000000
_cell_volume 1304.617055
_symmetry_space_group_name_H-M "P 21/M"
_symmetry_group_IT_number 11
_symmetry_cell_setting 'monoclinic'
loop_
_space_group_symop_operation_xyz
x,y,z
-x,1/2+y,-z
-x,-y,-z
x,1/2-y,z
loop_
_atom_site_type_symbol
_atom_site_label
_atom_site_fract_x
_atom_site_fract_y
_atom_site_fract_z
Si Si1 0.448769 0.549613 0.653169
Si Si2 0.382794 0.869993 0.004612
Si Si3 0.753916 0.964452 0.884999
Si Si4 0.601941 0.369211 0.584969
Si Si5 0.815528 0.129954 0.271345
Si Si6 0.761244 0.633292 0.096778
Si Si7 0.939888 0.485345 0.737115
O O1 0.595479 0.584403 0.776300
O O2 0.476732 0.429467 0.628558
O O3 0.466711 0.620820 0.554421
O O4 0.270828 0.569053 0.656863
O O5 0.382965 0.750000 0.031635
O O6 0.573675 0.913865 0.052714
O O7 0.291371 0.926970 0.073988
O O8 0.285455 0.891912 0.866781
O O9 0.905114 0.982482 0.848006
O O10 0.815908 0.882742 0.990486
O O11 0.613425 0.250000 0.622415
O O12 0.784420 0.424222 0.641218
O O13 0.823307 0.250000 0.301350
O O14 0.006856 0.086388 0.315129
O O15 0.758789 0.750000 0.127171
O O16 0.891856 0.583094 0.216315
#
# Coordination Sequence:
#
# PCOD8075919 Si02
#       7
#     4   4   4   4   4   4   4
#     4  10  22  41  70  91 119 163 216 266 308 365
#     4  10  21  36  60  89 122 168 212 253 309 373
#     4  11  21  38  59  87 124 157 203 259 307 370
#     4  10  23  45  67  93 125 165 210 260 319 375
#     4  11  22  40  64  93 129 168 211 260 313 370
#     4  11  21  34  55  86 120 159 205 254 310 371
#     4  11  24  39  58  89 130 167 205 254 316 376
#
# _framework density 21.462236000000001
#
# number of rings (size 3 to 8) (size 9 to 14) (size 15 to 20)
#    0.000    1.429    2.857    2.571    0.000    4.571 
#    0.000    9.286    0.000    0.000    0.000    0.000 
#    0.000    0.000    0.000    0.000    0.000    0.000 
#
# Total GULP energy -347193.572203 kJ/mol
# GULP energy per Si atom -12399.770436 kJ/mol
# Density = 2.141339 g / cm^3
# Si number density = 21.462236 Si / 1000 Ang^3
#
#
#
# Elastic Constant Matrix: (Units=GPa)
#
#
# Indices 1 2 3 4 5 6 
#
# 1 115.3264 71.3079 17.6205 0.0000 -20.0611 0.0000
# 2 71.3079 113.5757 30.9690 0.0000 0.7606 0.0000
# 3 17.6205 30.9690 64.7988 0.0000 -5.9735 0.0000
# 4 0.0000 0.0000 0.0000 26.7053 0.0000 2.4526
# 5 -20.0611 0.7606 -5.9735 0.0000 29.5869 0.0000
# 6 0.0000 0.0000 0.0000 2.4526 0.0000 30.0594
#
#
#
# Elastic Compliance Matrix: (Units=1/GPa)
#
#
# Indices 1 2 3 4 5 6 
#
# 1 0.017980 -0.011920 0.001997 0.000000 0.012901 0.000000
# 2 -0.011920 0.018072 -0.006301 0.000000 -0.009819 0.000000
# 3 0.001997 -0.006301 0.018383 0.000000 0.005227 0.000000
# 4 0.000000 0.000000 0.000000 0.037728 0.000000 -0.003078
# 5 0.012901 -0.009819 0.005227 0.000000 0.043854 0.000000
# 6 0.000000 0.000000 0.000000 -0.003078 0.000000 0.033519
#
#
# Mechanical properties :
#
#
# Convention : Reuss Voigt Hill
#
# Bulk Modulus (GPa) = 45.48111 59.27731 52.37921
# Shear Modulus (GPa) = 23.88769 28.85723 26.37246
#
# Velocity S-wave (km/s) = 3.33980 3.67080 3.50920
# Velocity P-wave (km/s) = 6.00912 6.75616 6.39356
#
# Compressibility (1/GPa) = 0.02198715
#
# Stress axis : x y z
#
# Youngs Moduli (GPa) = 55.61702 55.33355 54.39873
#
# Poissons Ratio (x) = 0.65955 -0.10862
# Poissons Ratio (y) = 0.66293 0.34277
# Poissons Ratio (z) = -0.11105 0.34866
#
# Static dielectric constant tensor:
#      x y z
#    x 3.903870 0.000000 -0.014750 
#    y 0.000000 3.880210 0.000000 
#    z -0.014750 0.000000 3.817050 
# 
# 
# High freq. dielectric constant tensor:
#      x y z
#    x 1.841650 0.000000 -0.001720 
#    y 0.000000 1.841720 0.000000 
#    z -0.001720 0.000000 1.833820 
# 
# From -- ./inp_files/31741.got.cif
#   From: 2010.06.25/outbox.cif.g09.slc.cpg/sg11_16_cif.got.tgz:31741.got - 2010.06.27 23:14:04.
