data_PCOD8075626
_publ_section_title
;
Structure prediction by ZEFSAII (Michael W. Deem and Ramdas Pophale) SiO2 
 PCOD8075626
Probable space group: P 21/M
;
_chemical_formula_sum "Si O2"
_cell_formula_units_Z 28
_cell_length_a 5.142507
_cell_length_b 19.447199
_cell_length_c 13.330258
_cell_angle_alpha 90.000000
_cell_angle_beta 71.920569
_cell_angle_gamma 90.000000
_cell_volume 1267.303815
_symmetry_space_group_name_H-M "P 21/M"
_symmetry_group_IT_number 11
_symmetry_cell_setting 'monoclinic'
loop_
_space_group_symop_operation_xyz
x,y,z
-x,1/2+y,-z
-x,-y,-z
x,1/2-y,z
loop_
_atom_site_type_symbol
_atom_site_label
_atom_site_fract_x
_atom_site_fract_y
_atom_site_fract_z
Si Si1 0.726658 0.750000 0.699207
Si Si2 0.655547 0.250000 0.451108
Si Si3 0.728405 0.521698 0.581332
Si Si4 0.394174 0.141122 0.116181
Si Si5 0.587000 0.615209 0.435374
Si Si6 0.005607 0.673834 0.006212
Si Si7 0.912959 0.589643 0.208478
Si Si8 0.582824 0.002292 0.805440
O O1 0.518226 0.750000 0.630509
O O2 0.685813 0.681907 0.772491
O O3 0.028221 0.750000 0.615582
O O4 0.593832 0.184014 0.531009
O O5 0.658530 0.595719 0.541438
O O6 0.537921 0.455590 0.590219
O O7 0.757774 0.533740 0.695479
O O8 0.000000 0.500000 0.500000
O O9 0.666184 0.174755 0.038438
O O10 0.136976 0.137556 0.071662
O O11 0.475444 0.060904 0.114918
O O12 0.834960 0.625645 0.325264
O O13 0.891300 0.750000 0.014407
O O14 0.899851 0.646151 0.124389
O O15 0.706022 0.529763 0.199672
O O16 0.223859 0.561467 0.172439
#
# Coordination Sequence:
#
# PCOD8075626 Si02
#       8
#     2   2   4   4   4   4   4   4
#     4  12  26  46  64 100 134 168 224 268 334 402
#     4  12  28  40  68 102 136 170 220 274 326 380
#     4  10  20  41  67  91 136 176 217 260 334 395
#     4  12  25  45  71  94 132 169 223 277 336 385
#     4  10  24  41  64 100 135 178 217 269 320 401
#     4  12  25  46  69  94 131 182 215 270 334 396
#     4  11  25  43  67  99 133 171 225 264 329 389
#     4  11  24  41  69 101 129 171 218 280 327 384
#
# _framework density 22.094147
#
# number of rings (size 3 to 8) (size 9 to 14) (size 15 to 20)
#    0.000    0.857    2.857    3.429    5.000    3.429 
#    0.000    0.000    1.571    0.000    0.000    0.000 
#    0.000    0.000    0.000    0.000    0.000    0.000 
#
# Total GULP energy -346911.672697 kJ/mol
# GULP energy per Si atom -12389.702596 kJ/mol
# Density = 2.204386 g / cm^3
# Si number density = 22.094147 Si / 1000 Ang^3
#
#
#
# Elastic Constant Matrix: (Units=GPa)
#
#
# Indices 1 2 3 4 5 6 
#
# 1 78.6805 4.2754 6.1563 0.0000 3.8107 0.0000
# 2 4.2754 75.6552 40.4236 0.0000 -10.7680 0.0000
# 3 6.1563 40.4236 80.4741 0.0000 6.5558 0.0000
# 4 0.0000 0.0000 0.0000 36.4795 0.0000 -2.1670
# 5 3.8107 -10.7680 6.5558 0.0000 29.7239 0.0000
# 6 0.0000 0.0000 0.0000 -2.1670 0.0000 24.4083
#
#
#
# Elastic Compliance Matrix: (Units=1/GPa)
#
#
# Indices 1 2 3 4 5 6 
#
# 1 0.012874 -0.000736 -0.000467 0.000000 -0.001814 0.000000
# 2 -0.000736 0.020628 -0.011122 0.000000 0.010020 0.000000
# 3 -0.000467 -0.011122 0.018708 0.000000 -0.008095 0.000000
# 4 0.000000 0.000000 0.000000 0.027558 0.000000 0.002447
# 5 -0.001814 0.010020 -0.008095 0.000000 0.039291 0.000000
# 6 0.000000 0.000000 0.000000 0.002447 0.000000 0.041187
#
#
# Mechanical properties :
#
#
# Convention : Reuss Voigt Hill
#
# Bulk Modulus (GPa) = 36.28445 37.39116 36.83780
# Shear Modulus (GPa) = 25.76202 30.38596 28.07399
#
# Velocity S-wave (km/s) = 3.41840 3.71252 3.56849
# Velocity P-wave (km/s) = 5.66029 5.94452 5.80415
#
# Compressibility (1/GPa) = 0.02756001
#
# Stress axis : x y z
#
# Youngs Moduli (GPa) = 77.67566 48.47713 53.45196
#
# Poissons Ratio (x) = 0.03568 0.02498
# Poissons Ratio (y) = 0.05717 0.59449
# Poissons Ratio (z) = 0.03630 0.53916
#
# Static dielectric constant tensor:
#      x y z
#    x 3.838930 0.000000 0.112120 
#    y 0.000000 3.886140 0.000000 
#    z 0.112120 0.000000 4.153840 
# 
# 
# High freq. dielectric constant tensor:
#      x y z
#    x 1.864910 0.000000 -0.000010 
#    y 0.000000 1.871070 0.000000 
#    z -0.000010 0.000000 1.883460 
# 
# From -- ./inp_files/45998.got.cif
#   From: 2010.06.25/outbox.cif.g09.slc.cpg/sg11_23_cif.got.tgz:45998.got - 2010.06.27 23:14:04.
