data_PCOD8075614
_publ_section_title
;
Structure prediction by ZEFSAII (Michael W. Deem and Ramdas Pophale) SiO2 
 PCOD8075614
Probable space group: P 21/M
;
_chemical_formula_sum "Si O2"
_cell_formula_units_Z 28
_cell_length_a 11.036124
_cell_length_b 19.389567
_cell_length_c 6.993175
_cell_angle_alpha 90.000000
_cell_angle_beta 65.481495
_cell_angle_gamma 90.000000
_cell_volume 1361.501227
_symmetry_space_group_name_H-M "P 21/M"
_symmetry_group_IT_number 11
_symmetry_cell_setting 'monoclinic'
loop_
_space_group_symop_operation_xyz
x,y,z
-x,1/2+y,-z
-x,-y,-z
x,1/2-y,z
loop_
_atom_site_type_symbol
_atom_site_label
_atom_site_fract_x
_atom_site_fract_y
_atom_site_fract_z
Si Si1 0.052069 0.577202 0.943058
Si Si2 0.880937 0.169390 0.734204
Si Si3 0.917106 0.671293 0.740439
Si Si4 0.525633 0.965780 0.779103
Si Si5 0.611775 0.326211 0.693649
Si Si6 0.671577 0.053894 0.409670
Si Si7 0.610658 0.826121 0.859972
O O1 0.176333 0.570611 0.721757
O O2 0.944037 0.622950 0.903972
O O3 0.089771 0.616296 0.113592
O O4 0.000000 0.500000 0.000000
O O5 0.889773 0.250000 0.794118
O O6 0.732140 0.151906 0.757553
O O7 0.989324 0.153401 0.500240
O O8 0.941122 0.750000 0.788668
O O9 0.764839 0.657878 0.787784
O O10 0.395095 0.978347 0.735808
O O11 0.550474 0.884211 0.763576
O O12 0.654298 0.000782 0.597200
O O13 0.500000 0.000000 0.000000
O O14 0.642557 0.250000 0.595787
O O15 0.600829 0.374940 0.517420
O O16 0.468928 0.329566 0.889041
O O17 0.591432 0.750000 0.779630
#
# Coordination Sequence:
#
# PCOD8075614 Si02
#       7
#     4   4   4   4   4   4   4
#     4  12  27  38  63  97 129 168 221 263 320 387
#     4  10  22  43  67  90 124 171 213 262 324 382
#     4  10  23  44  66  91 130 169 211 266 322 382
#     4  11  24  42  67  89 133 166 209 263 325 382
#     4  10  20  40  69  97 123 158 214 268 314 380
#     4  11  25  41  62  96 124 172 209 259 331 374
#     4  10  22  41  67  94 124 168 212 263 320 377
#
# _framework density 20.565534
#
# number of rings (size 3 to 8) (size 9 to 14) (size 15 to 20)
#    0.000    1.429    2.857    1.286    4.000    1.714 
#    0.000    0.000    0.000    0.000    0.000    0.000 
#    0.000    0.000    0.000    0.000    0.000    0.000 
#
# Total GULP energy -347157.953884 kJ/mol
# GULP energy per Si atom -12398.498353 kJ/mol
# Density = 2.051873 g / cm^3
# Si number density = 20.565534 Si / 1000 Ang^3
#
#
#
# Elastic Constant Matrix: (Units=GPa)
#
#
# Indices 1 2 3 4 5 6 
#
# 1 63.5447 23.9520 35.8115 0.0000 -13.3343 0.0000
# 2 23.9520 133.9228 48.5638 0.0000 12.6872 0.0000
# 3 35.8115 48.5638 97.5552 0.0000 1.9461 0.0000
# 4 0.0000 0.0000 0.0000 41.3533 0.0000 4.6828
# 5 -13.3343 12.6872 1.9461 0.0000 34.8399 0.0000
# 6 0.0000 0.0000 0.0000 4.6828 0.0000 32.5259
#
#
#
# Elastic Compliance Matrix: (Units=1/GPa)
#
#
# Indices 1 2 3 4 5 6 
#
# 1 0.022929 -0.002352 -0.007446 0.000000 0.010048 0.000000
# 2 -0.002352 0.009693 -0.003878 0.000000 -0.004214 0.000000
# 3 -0.007446 -0.003878 0.014960 0.000000 -0.002273 0.000000
# 4 0.000000 0.000000 0.000000 0.024583 0.000000 -0.003539
# 5 0.010048 -0.004214 -0.002273 0.000000 0.034210 0.000000
# 6 0.000000 0.000000 0.000000 -0.003539 0.000000 0.031254
#
#
# Mechanical properties :
#
#
# Convention : Reuss Voigt Hill
#
# Bulk Modulus (GPa) = 49.43482 56.85301 53.14391
# Shear Modulus (GPa) = 29.11659 34.19020 31.65340
#
# Velocity S-wave (km/s) = 3.76679 4.08180 3.92745
# Velocity P-wave (km/s) = 6.55806 7.06538 6.81644
#
# Compressibility (1/GPa) = 0.02022866
#
# Stress axis : x y z
#
# Youngs Moduli (GPa) = 43.61375 103.16696 66.84624
#
# Poissons Ratio (x) = 0.24270 0.49775
# Poissons Ratio (y) = 0.10260 0.25921
# Poissons Ratio (z) = 0.32476 0.40004
#
# Static dielectric constant tensor:
#      x y z
#    x 3.558260 0.000000 -0.086730 
#    y 0.000000 7.709040 0.000000 
#    z -0.086730 0.000000 3.479500 
# 
# 
# High freq. dielectric constant tensor:
#      x y z
#    x 1.799580 0.000000 -0.014730 
#    y 0.000000 1.823170 0.000000 
#    z -0.014730 0.000000 1.800330 
# 
# From -- ./inp_files/5019.got.cif
#   From: 2010.06.25/outbox.cif.g09.slc.cpg/sg11_3_cif.got.tgz:5019.got - 2010.06.27 23:14:04.
