data_PCOD8075823
_publ_section_title
;
Structure prediction by ZEFSAII (Michael W. Deem and Ramdas Pophale) SiO2 
 PCOD8075823
Probable space group: P 21/M
;
_chemical_formula_sum "Si O2"
_cell_formula_units_Z 32
_cell_length_a 9.817724
_cell_length_b 16.129732
_cell_length_c 12.130762
_cell_angle_alpha 90.000000
_cell_angle_beta 123.773794
_cell_angle_gamma 90.000000
_cell_volume 1596.804951
_symmetry_space_group_name_H-M "P 21/M"
_symmetry_group_IT_number 11
_symmetry_cell_setting 'monoclinic'
loop_
_space_group_symop_operation_xyz
x,y,z
-x,1/2+y,-z
-x,-y,-z
x,1/2-y,z
loop_
_atom_site_type_symbol
_atom_site_label
_atom_site_fract_x
_atom_site_fract_y
_atom_site_fract_z
Si Si1 0.564142 0.091894 0.496793
Si Si2 0.136202 0.848114 0.482950
Si Si3 0.849408 0.847924 0.197278
Si Si4 0.891033 0.845794 0.560271
Si Si5 0.398550 0.153179 0.740066
Si Si6 0.227679 0.102280 0.271728
Si Si7 0.039411 0.343130 0.981831
Si Si8 0.705365 0.080390 0.781291
O O1 0.696834 0.098307 0.457144
O O2 0.402695 0.143027 0.386243
O O3 0.653632 0.130023 0.645703
O O4 0.500000 0.000000 0.500000
O O5 0.174384 0.750000 0.492604
O O6 0.014022 0.878708 0.331779
O O7 0.053064 0.869902 0.563237
O O8 0.843874 0.750000 0.208856
O O9 0.686070 0.879643 0.185196
O O10 0.853502 0.879287 0.072443
O O11 0.900911 0.750000 0.599841
O O12 0.727635 0.861964 0.416469
O O13 0.885487 0.901087 0.669283
O O14 0.450023 0.250000 0.769059
O O15 0.556665 0.094606 0.798849
O O16 0.139768 0.156614 0.139713
O O17 0.263226 0.014268 0.233857
O O18 0.993766 0.250000 0.930196
O O19 0.868606 0.390176 0.915434
#
# Coordination Sequence:
#
# PCOD8075823 Si02
#       8
#     4   4   4   4   4   4   4   4
#     4  10  21  36  55  83 120 148 189 232 282 342
#     4   9  17  33  59  86 112 147 196 242 277 334
#     4   8  16  32  55  83 110 141 189 240 287 331
#     4   9  18  34  57  86 117 148 187 239 296 338
#     4   9  17  32  57  85 110 143 192 247 284 329
#     4  11  23  38  54  84 125 153 185 233 298 351
#     4  11  22  38  59  83 111 150 196 242 290 341
#     4  11  21  37  57  82 114 154 197 231 276 350
#
# _framework density 20.040018
#
# number of rings (size 3 to 8) (size 9 to 14) (size 15 to 20)
#    0.000    2.250    2.500    2.625    0.000    1.500 
#    0.000    6.875    0.000    3.000    0.000    0.000 
#    0.000    0.000    0.000    0.000    0.000    0.000 
#
# Total GULP energy -396526.745689 kJ/mol
# GULP energy per Si atom -12391.460803 kJ/mol
# Density = 1.999441 g / cm^3
# Si number density = 20.040018 Si / 1000 Ang^3
#
#
#
# Elastic Constant Matrix: (Units=GPa)
#
#
# Indices 1 2 3 4 5 6 
#
# 1 182.1097 38.7198 50.7052 0.0000 -9.0988 0.0000
# 2 38.7198 45.0153 4.8494 0.0000 1.2787 0.0000
# 3 50.7052 4.8494 91.6635 0.0000 -4.1196 0.0000
# 4 0.0000 0.0000 0.0000 8.1524 0.0000 3.5458
# 5 -9.0988 1.2787 -4.1196 0.0000 29.2633 0.0000
# 6 0.0000 0.0000 0.0000 3.5458 0.0000 27.7500
#
#
#
# Elastic Compliance Matrix: (Units=1/GPa)
#
#
# Indices 1 2 3 4 5 6 
#
# 1 0.008141 -0.006630 -0.004052 0.000000 0.002251 0.000000
# 2 -0.006630 0.027780 0.002064 0.000000 -0.002985 0.000000
# 3 -0.004052 0.002064 0.013064 0.000000 0.000489 0.000000
# 4 0.000000 0.000000 0.000000 0.129881 0.000000 -0.016596
# 5 0.002251 -0.002985 0.000489 0.000000 0.035072 0.000000
# 6 0.000000 0.000000 0.000000 -0.016596 0.000000 0.038157
#
#
# Mechanical properties :
#
#
# Convention : Reuss Voigt Hill
#
# Bulk Modulus (GPa) = 31.49720 56.37080 43.93400
# Shear Modulus (GPa) = 17.86265 28.00074 22.93170
#
# Velocity S-wave (km/s) = 2.98879 3.74202 3.38641
# Velocity P-wave (km/s) = 5.25944 6.84547 6.10419
#
# Compressibility (1/GPa) = 0.03174886
#
# Stress axis : x y z
#
# Youngs Moduli (GPa) = 122.82754 35.99685 76.54911
#
# Poissons Ratio (x) = 0.23867 0.31015
# Poissons Ratio (y) = 0.81439 -0.15799
# Poissons Ratio (z) = 0.49766 -0.07429
#
# Static dielectric constant tensor:
#      x y z
#    x 3.909720 0.000000 0.009250 
#    y 0.000000 3.238830 0.000000 
#    z 0.009250 0.000000 3.798980 
# 
# 
# High freq. dielectric constant tensor:
#      x y z
#    x 1.797290 0.000000 -0.005460 
#    y 0.000000 1.750150 0.000000 
#    z -0.005460 0.000000 1.758790 
# 
# From -- ./inp_files/32667.got.cif
#   From: 2010.06.25/outbox.cif.g09.slc.cpg/sg11_17_cif.got.tgz:32667.got - 2010.06.27 23:14:04.
