data_PCOD8075670
_publ_section_title
;
Structure prediction by ZEFSAII (Michael W. Deem and Ramdas Pophale) SiO2 
 PCOD8075670
Probable space group: P 21/M
;
_chemical_formula_sum "Si O2"
_cell_formula_units_Z 28
_cell_length_a 9.702289
_cell_length_b 26.341762
_cell_length_c 5.310061
_cell_angle_alpha 90.000000
_cell_angle_beta 114.290835
_cell_angle_gamma 90.000000
_cell_volume 1236.973751
_symmetry_space_group_name_H-M "P 21/M"
_symmetry_group_IT_number 11
_symmetry_cell_setting 'monoclinic'
loop_
_space_group_symop_operation_xyz
x,y,z
-x,1/2+y,-z
-x,-y,-z
x,1/2-y,z
loop_
_atom_site_type_symbol
_atom_site_label
_atom_site_fract_x
_atom_site_fract_y
_atom_site_fract_z
Si Si1 0.022486 0.546054 0.834262
Si Si2 0.232048 0.507405 0.599944
Si Si3 0.130010 0.607144 0.315398
Si Si4 0.840562 0.642843 0.328972
Si Si5 0.268118 0.190945 0.238326
Si Si6 0.558086 0.926479 0.120028
Si Si7 0.551233 0.121395 0.451039
O O1 0.178514 0.536649 0.808398
O O2 0.874450 0.542462 0.541489
O O3 0.029090 0.600838 0.984168
O O4 0.000000 0.500000 0.000000
O O5 0.216444 0.551597 0.379784
O O6 0.399374 0.485389 0.783146
O O7 0.013716 0.619711 0.456014
O O8 0.275777 0.644549 0.416997
O O9 0.815383 0.668910 0.578638
O O10 0.715333 0.601128 0.174779
O O11 0.832293 0.682513 0.088639
O O12 0.292328 0.250000 0.300913
O O13 0.434818 0.167152 0.324693
O O14 0.475508 0.904329 0.300489
O O15 0.458305 0.919148 0.791013
#
# Coordination Sequence:
#
# PCOD8075670 Si02
#       7
#     4   4   4   4   4   4   4
#     4   9  19  33  52  83 116 166 213 261 296 334
#     4  10  21  34  58  82 128 178 227 253 288 355
#     4  11  24  37  59  93 131 167 209 263 319 352
#     4  10  22  38  69  93 120 157 212 260 301 381
#     4  10  22  45  69  92 118 157 201 255 325 401
#     4  10  22  40  58  88 125 175 220 248 294 358
#     4  10  25  40  61  91 128 162 204 261 322 373
#
# _framework density 22.635888000000001
#
# number of rings (size 3 to 8) (size 9 to 14) (size 15 to 20)
#    0.000    2.000    0.000    3.000   14.000    1.143 
#    0.000    1.429    0.000    0.000    0.000    0.000 
#    0.000    0.000    0.000    0.000    0.000    0.000 
#
# Total GULP energy -346873.744816 kJ/mol
# GULP energy per Si atom -12388.348029 kJ/mol
# Density = 2.258437 g / cm^3
# Si number density = 22.635888 Si / 1000 Ang^3
#
#
#
# Elastic Constant Matrix: (Units=GPa)
#
#
# Indices 1 2 3 4 5 6 
#
# 1 119.0644 15.1735 41.6053 0.0000 6.8533 0.0000
# 2 15.1735 50.4038 26.6654 0.0000 11.4903 0.0000
# 3 41.6053 26.6654 112.1101 0.0000 -10.9448 0.0000
# 4 0.0000 0.0000 0.0000 24.7259 0.0000 -3.3505
# 5 6.8533 11.4903 -10.9448 0.0000 35.2119 0.0000
# 6 0.0000 0.0000 0.0000 -3.3505 0.0000 17.5736
#
#
#
# Elastic Compliance Matrix: (Units=1/GPa)
#
#
# Indices 1 2 3 4 5 6 
#
# 1 0.009988 -0.000202 -0.003962 0.000000 -0.003110 0.000000
# 2 -0.000202 0.026152 -0.007193 0.000000 -0.010730 0.000000
# 3 -0.003962 -0.007193 0.012794 0.000000 0.007095 0.000000
# 4 0.000000 0.000000 0.000000 0.041516 0.000000 0.007915
# 5 -0.003110 -0.010730 0.007095 0.000000 0.034712 0.000000
# 6 0.000000 0.000000 0.000000 0.007915 0.000000 0.058413
#
#
# Mechanical properties :
#
#
# Convention : Reuss Voigt Hill
#
# Bulk Modulus (GPa) = 38.13897 49.82966 43.98431
# Shear Modulus (GPa) = 23.25279 28.71120 25.98200
#
# Velocity S-wave (km/s) = 3.20856 3.56531 3.39163
# Velocity P-wave (km/s) = 5.53280 6.24580 5.90008
#
# Compressibility (1/GPa) = 0.02621990
#
# Stress axis : x y z
#
# Youngs Moduli (GPa) = 100.11931 38.23803 78.16311
#
# Poissons Ratio (x) = 0.00771 0.30971
# Poissons Ratio (y) = 0.02019 0.56222
# Poissons Ratio (z) = 0.39670 0.27504
#
# Static dielectric constant tensor:
#      x y z
#    x 4.112590 0.000000 0.259090 
#    y 0.000000 3.686130 0.000000 
#    z 0.259090 0.000000 4.663100 
# 
# 
# High freq. dielectric constant tensor:
#      x y z
#    x 1.900380 0.000000 -0.001000 
#    y 0.000000 1.839870 0.000000 
#    z -0.001000 0.000000 1.920240 
# 
# From -- ./inp_files/3458.got.cif
#   From: 2010.06.25/outbox.cif.g09.slc.cpg/sg11_2_cif.got.tgz:3458.got - 2010.06.27 23:14:04.
