data_PCOD8075506
_publ_section_title
;
Structure prediction by ZEFSAII (Michael W. Deem and Ramdas Pophale) SiO2 
 PCOD8075506
Probable space group: P 21/M
;
_chemical_formula_sum "Si O2"
_cell_formula_units_Z 28
_cell_length_a 12.291122
_cell_length_b 8.833201
_cell_length_c 13.679339
_cell_angle_alpha 90.000000
_cell_angle_beta 67.816433
_cell_angle_gamma 90.000000
_cell_volume 1375.231630
_symmetry_space_group_name_H-M "P 21/M"
_symmetry_group_IT_number 11
_symmetry_cell_setting 'monoclinic'
loop_
_space_group_symop_operation_xyz
x,y,z
-x,1/2+y,-z
-x,-y,-z
x,1/2-y,z
loop_
_atom_site_type_symbol
_atom_site_label
_atom_site_fract_x
_atom_site_fract_y
_atom_site_fract_z
Si Si1 0.018019 0.929743 0.790199
Si Si2 0.683643 0.077177 0.690382
Si Si3 0.481064 0.076742 0.609591
Si Si4 0.069906 0.071428 0.388216
Si Si5 0.195983 0.077940 0.013253
Si Si6 0.400395 0.422602 0.095127
Si Si7 0.263258 0.571195 0.792361
O O1 0.009665 0.750000 0.789732
O O2 0.149089 0.985626 0.770855
O O3 0.980086 0.994667 0.697303
O O4 0.929887 0.985609 0.906287
O O5 0.724117 0.250000 0.693510
O O6 0.606015 0.062824 0.620020
O O7 0.794737 0.968857 0.643615
O O8 0.604137 0.020994 0.805987
O O9 0.444630 0.250000 0.606776
O O10 0.500000 0.000000 0.500000
O O11 0.378963 0.999703 0.706962
O O12 0.054347 0.250000 0.396891
O O13 0.000000 0.000000 0.500000
O O14 0.186801 0.250000 0.977175
O O15 0.277718 0.070990 0.080508
O O16 0.248847 0.974917 0.910103
O O17 0.434340 0.250000 0.108976
O O18 0.500000 0.500000 0.000000
O O19 0.275632 0.750000 0.782329
#
# Coordination Sequence:
#
# PCOD8075506 Si02
#       7
#     4   4   4   4   4   4   4
#     4   9  20  40  63  89 127 166 201 250 311 367
#     4  11  24  43  65  92 125 162 208 261 314 370
#     4  11  26  46  66  90 123 164 208 259 313 371
#     4  11  23  42  66  95 128 166 208 257 316 375
#     4  10  20  39  61  87 125 167 205 250 309 367
#     4  11  22  37  61  90 125 167 207 255 311 372
#     4  11  23  39  63  94 126 164 208 256 308 370
#
# _framework density 20.360208
#
# number of rings (size 3 to 8) (size 9 to 14) (size 15 to 20)
#    0.000    1.429    1.429    3.429    2.000    6.857 
#    0.000    2.857    0.000    0.000    0.000    0.000 
#    0.000    0.000    0.000    0.000    0.000    0.000 
#
# Total GULP energy -347299.509229 kJ/mol
# GULP energy per Si atom -12403.553901 kJ/mol
# Density = 2.031387 g / cm^3
# Si number density = 20.360208 Si / 1000 Ang^3
#
#
#
# Elastic Constant Matrix: (Units=GPa)
#
#
# Indices 1 2 3 4 5 6 
#
# 1 66.7930 30.2071 19.3576 0.0000 5.8229 0.0000
# 2 30.2071 84.8885 34.2800 0.0000 10.4055 0.0000
# 3 19.3576 34.2800 128.1148 0.0000 9.3267 0.0000
# 4 0.0000 0.0000 0.0000 39.0291 0.0000 0.1061
# 5 5.8229 10.4055 9.3267 0.0000 32.5963 0.0000
# 6 0.0000 0.0000 0.0000 0.1061 0.0000 30.4669
#
#
#
# Elastic Compliance Matrix: (Units=1/GPa)
#
#
# Indices 1 2 3 4 5 6 
#
# 1 0.018021 -0.005848 -0.001082 0.000000 -0.001043 0.000000
# 2 -0.005848 0.015456 -0.003032 0.000000 -0.003022 0.000000
# 3 -0.001082 -0.003032 0.008881 0.000000 -0.001380 0.000000
# 4 0.000000 0.000000 0.000000 0.025622 0.000000 -0.000089
# 5 -0.001043 -0.003022 -0.001380 0.000000 0.032224 0.000000
# 6 0.000000 0.000000 0.000000 -0.000089 0.000000 0.032823
#
#
# Mechanical properties :
#
#
# Convention : Reuss Voigt Hill
#
# Bulk Modulus (GPa) = 44.57640 49.72061 47.14851
# Shear Modulus (GPa) = 31.16659 33.48190 32.32425
#
# Velocity S-wave (km/s) = 3.91674 4.05962 3.98882
# Velocity P-wave (km/s) = 6.51121 6.81524 6.66496
#
# Compressibility (1/GPa) = 0.02243340
#
# Stress axis : x y z
#
# Youngs Moduli (GPa) = 55.49135 64.70053 112.60302
#
# Poissons Ratio (x) = 0.37835 0.12187
# Poissons Ratio (y) = 0.32450 0.34141
# Poissons Ratio (z) = 0.06006 0.19617
#
# Static dielectric constant tensor:
#      x y z
#    x 4.043170 0.000000 -0.265320 
#    y 0.000000 3.724860 0.000000 
#    z -0.265320 0.000000 5.172950 
# 
# 
# High freq. dielectric constant tensor:
#      x y z
#    x 1.806560 0.000000 -0.002780 
#    y 0.000000 1.790510 0.000000 
#    z -0.002780 0.000000 1.808330 
# 
# From -- ./inp_files/49164.got.cif
#   From: 2010.06.25/outbox.cif.g09.slc.cpg/sg11_25_cif.got.tgz:49164.got - 2010.06.27 23:14:04.
