data_PCOD8075416
_publ_section_title
;
Structure prediction by ZEFSAII (Michael W. Deem and Ramdas Pophale) SiO2 
 PCOD8075416
Probable space group: P 21/M
;
_chemical_formula_sum "Si O2"
_cell_formula_units_Z 32
_cell_length_a 14.921311
_cell_length_b 9.001321
_cell_length_c 11.872417
_cell_angle_alpha 90.000000
_cell_angle_beta 92.919762
_cell_angle_gamma 90.000000
_cell_volume 1592.532219
_symmetry_space_group_name_H-M "P 21/M"
_symmetry_group_IT_number 11
_symmetry_cell_setting 'monoclinic'
loop_
_space_group_symop_operation_xyz
x,y,z
-x,1/2+y,-z
-x,-y,-z
x,1/2-y,z
loop_
_atom_site_type_symbol
_atom_site_label
_atom_site_fract_x
_atom_site_fract_y
_atom_site_fract_z
Si Si1 0.217228 0.580153 0.024258
Si Si2 0.483466 0.078736 0.273384
Si Si3 0.825160 0.573823 0.750287
Si Si4 0.333486 0.426019 0.668249
Si Si5 0.002550 0.424316 0.378464
Si Si6 0.328300 0.420789 0.419063
Si Si7 0.172377 0.921764 0.774129
Si Si8 0.419468 0.924005 0.061285
O O1 0.210422 0.750000 0.062529
O O2 0.159710 0.550771 0.907141
O O3 0.175245 0.485380 0.122420
O O4 0.321571 0.542065 0.002411
O O5 0.496814 0.250000 0.239743
O O6 0.432327 0.062580 0.389189
O O7 0.578461 0.999870 0.275361
O O8 0.416804 0.997445 0.183547
O O9 0.822035 0.750000 0.760104
O O10 0.912916 0.519468 0.688602
O O11 0.740482 0.507286 0.675035
O O12 0.347216 0.250000 0.668652
O O13 0.318023 0.492300 0.541777
O O14 0.250160 0.469846 0.738459
O O15 0.008415 0.250000 0.400598
O O16 0.000000 0.500000 0.500000
O O17 0.916360 0.467453 0.298822
O O18 0.300233 0.250000 0.426674
O O19 0.198472 0.750000 0.753519
O O20 0.439466 0.750000 0.069313
O O21 0.500000 0.000000 0.000000
#
# Coordination Sequence:
#
# PCOD8075416 Si02
#       8
#     4   4   4   4   4   4   4   4
#     4  10  22  39  58  83 118 155 197 247 296 352
#     4  11  21  36  56  81 115 157 197 243 304 361
#     4  10  20  38  62  88 118 156 199 245 298 356
#     4  11  22  37  58  86 117 154 201 250 298 355
#     4  10  22  40  65  93 123 157 196 243 298 358
#     4   9  19  35  56  82 116 153 192 243 298 354
#     4  10  22  41  60  85 121 158 194 240 301 358
#     4  11  22  36  56  83 115 157 206 254 300 353
#
# _framework density 20.093785
#
# number of rings (size 3 to 8) (size 9 to 14) (size 15 to 20)
#    0.000    1.750    1.250    3.000    0.000    4.500 
#    0.000    3.125    0.000    0.000    0.000    0.000 
#    0.000    0.000    0.000    0.000    0.000    0.000 
#
# Total GULP energy -396789.864743 kJ/mol
# GULP energy per Si atom -12399.683273 kJ/mol
# Density = 2.004805 g / cm^3
# Si number density = 20.093785 Si / 1000 Ang^3
#
#
#
# Elastic Constant Matrix: (Units=GPa)
#
#
# Indices 1 2 3 4 5 6 
#
# 1 121.0952 42.4241 47.3016 0.0000 0.0544 0.0000
# 2 42.4241 71.7799 40.0570 0.0000 -1.6989 0.0000
# 3 47.3016 40.0570 119.3193 0.0000 2.6698 0.0000
# 4 0.0000 0.0000 0.0000 34.5197 0.0000 -1.9447
# 5 0.0544 -1.6989 2.6698 0.0000 39.1548 0.0000
# 6 0.0000 0.0000 0.0000 -1.9447 0.0000 16.5778
#
#
#
# Elastic Compliance Matrix: (Units=1/GPa)
#
#
# Indices 1 2 3 4 5 6 
#
# 1 0.011079 -0.005044 -0.002698 0.000000 -0.000050 0.000000
# 2 -0.005044 0.019490 -0.004570 0.000000 0.001164 0.000000
# 3 -0.002698 -0.004570 0.011006 0.000000 -0.000945 0.000000
# 4 0.000000 0.000000 0.000000 0.029162 0.000000 0.003421
# 5 -0.000050 0.001164 -0.000945 0.000000 0.025655 0.000000
# 6 0.000000 0.000000 0.000000 0.003421 0.000000 0.060723
#
#
# Mechanical properties :
#
#
# Convention : Reuss Voigt Hill
#
# Bulk Modulus (GPa) = 58.98828 63.52884 61.25856
# Shear Modulus (GPa) = 26.68287 30.21124 28.44706
#
# Velocity S-wave (km/s) = 3.64801 3.88172 3.76668
# Velocity P-wave (km/s) = 6.86762 7.19549 7.03347
#
# Compressibility (1/GPa) = 0.01695252
#
# Stress axis : x y z
#
# Youngs Moduli (GPa) = 90.26357 51.30813 90.86359
#
# Poissons Ratio (x) = 0.25878 0.24511
# Poissons Ratio (y) = 0.45526 0.41522
# Poissons Ratio (z) = 0.24349 0.23446
#
# Static dielectric constant tensor:
#      x y z
#    x 3.562020 0.000000 0.019570 
#    y 0.000000 3.504710 0.000000 
#    z 0.019570 0.000000 3.725580 
# 
# 
# High freq. dielectric constant tensor:
#      x y z
#    x 1.786850 0.000000 0.001240 
#    y 0.000000 1.768290 0.000000 
#    z 0.001240 0.000000 1.797560 
# 
# From -- ./inp_files/38302.got.cif
#   From: 2010.06.25/outbox.cif.g09.slc.cpg/sg11_20_cif.got.tgz:38302.got - 2010.06.27 23:14:04.
