data_PCOD8075328
_publ_section_title
;
Structure prediction by ZEFSAII (Michael W. Deem and Ramdas Pophale) SiO2 
 PCOD8075328
Probable space group: P 21/M
;
_chemical_formula_sum "Si O2"
_cell_formula_units_Z 32
_cell_length_a 14.553796
_cell_length_b 13.941959
_cell_length_c 21.879898
_cell_angle_alpha 90.000000
_cell_angle_beta 160.032899
_cell_angle_gamma 90.000000
_cell_volume 1516.042271
_symmetry_space_group_name_H-M "P 21/M"
_symmetry_group_IT_number 11
_symmetry_cell_setting 'monoclinic'
loop_
_space_group_symop_operation_xyz
x,y,z
-x,1/2+y,-z
-x,-y,-z
x,1/2-y,z
loop_
_atom_site_type_symbol
_atom_site_label
_atom_site_fract_x
_atom_site_fract_y
_atom_site_fract_z
Si Si1 0.588567 0.137898 0.599613
Si Si2 0.693155 0.536444 0.370642
Si Si3 0.805208 0.140570 0.272337
Si Si4 0.729932 0.015212 0.794343
Si Si5 0.502009 0.538074 0.116444
Si Si6 0.976240 0.139893 0.240411
Si Si7 0.614261 0.140789 0.478909
Si Si8 0.016134 0.640482 0.399477
O O1 0.635665 0.250000 0.636863
O O2 0.780362 0.086167 0.768779
O O3 0.666082 0.102470 0.579960
O O4 0.282712 0.107228 0.423104
O O5 0.492053 0.561691 0.299802
O O6 0.536437 0.550299 0.210053
O O7 0.803993 0.427236 0.444393
O O8 0.944236 0.609463 0.528557
O O9 0.723515 0.250000 0.235211
O O10 0.895414 0.124977 0.259584
O O11 0.550147 0.072537 0.126880
O O12 0.630529 0.913620 0.706467
O O13 0.000000 0.000000 0.000000
O O14 0.707241 0.607457 0.208170
O O15 0.202141 0.570493 0.913140
O O16 0.937000 0.250000 0.195163
O O17 0.515882 0.250000 0.420825
O O18 0.887727 0.129283 0.610797
O O19 0.047705 0.750000 0.441737
#
# Coordination Sequence:
#
# PCOD8075328 Si02
#       8
#     4   4   4   4   4   4   4   4
#     4  10  21  41  65  90 119 155 201 250 303 360
#     4  10  22  37  55  86 119 157 200 239 300 357
#     4  10  20  38  59  82 118 161 199 245 304 354
#     4  11  23  39  61  89 119 156 197 250 303 356
#     4  11  22  35  58  90 123 153 203 251 288 355
#     4  10  21  37  59  86 119 157 196 248 305 350
#     4   9  20  39  63  88 117 158 201 244 302 362
#     4   9  18  36  59  85 121 158 197 246 302 358
#
# _framework density 21.107589000000001
#
# number of rings (size 3 to 8) (size 9 to 14) (size 15 to 20)
#    0.000    2.000    1.250    2.625    1.750    3.000 
#    0.000    0.000    0.000    0.000    0.000    0.000 
#    0.000    0.000    0.000    0.000    0.000    0.000 
#
# Total GULP energy -396898.461058 kJ/mol
# GULP energy per Si atom -12403.076908 kJ/mol
# Density = 2.105955 g / cm^3
# Si number density = 21.107589 Si / 1000 Ang^3
#
#
#
# Elastic Constant Matrix: (Units=GPa)
#
#
# Indices 1 2 3 4 5 6 
#
# 1 96.9211 37.4595 32.5525 0.0000 -25.0253 0.0000
# 2 37.4595 99.0076 42.2315 0.0000 -17.4045 0.0000
# 3 32.5525 42.2315 103.9020 0.0000 -21.8010 0.0000
# 4 0.0000 0.0000 0.0000 20.4935 0.0000 -0.2686
# 5 -25.0253 -17.4045 -21.8010 0.0000 27.0994 0.0000
# 6 0.0000 0.0000 0.0000 -0.2686 0.0000 27.3003
#
#
#
# Elastic Compliance Matrix: (Units=1/GPa)
#
#
# Indices 1 2 3 4 5 6 
#
# 1 0.014662 -0.003232 -0.001052 0.000000 0.010617 0.000000
# 2 -0.003232 0.013435 -0.003927 0.000000 0.002485 0.000000
# 3 -0.001052 -0.003927 0.013014 0.000000 0.006976 0.000000
# 4 0.000000 0.000000 0.000000 0.048802 0.000000 0.000480
# 5 0.010617 0.002485 0.006976 0.000000 0.053914 0.000000
# 6 0.000000 0.000000 0.000000 0.000480 0.000000 0.036634
#
#
# Mechanical properties :
#
#
# Convention : Reuss Voigt Hill
#
# Bulk Modulus (GPa) = 40.50440 58.25754 49.38097
# Shear Modulus (GPa) = 24.37693 27.48443 25.93068
#
# Velocity S-wave (km/s) = 3.40205 3.61239 3.50880
# Velocity P-wave (km/s) = 5.88754 6.71263 6.31358
#
# Compressibility (1/GPa) = 0.02468868
#
# Stress axis : x y z
#
# Youngs Moduli (GPa) = 68.20525 74.43350 76.84158
#
# Poissons Ratio (x) = 0.24057 0.08084
# Poissons Ratio (y) = 0.22044 0.30173
# Poissons Ratio (z) = 0.07175 0.29228
#
# Static dielectric constant tensor:
#      x y z
#    x 4.009480 0.000000 -0.005690 
#    y 0.000000 3.953750 0.000000 
#    z -0.005690 0.000000 3.503030 
# 
# 
# High freq. dielectric constant tensor:
#      x y z
#    x 1.839800 0.000000 -0.008190 
#    y 0.000000 1.832920 0.000000 
#    z -0.008190 0.000000 1.801780 
# 
# From -- ./inp_files/65778.got.cif
#   From: 2010.06.25/outbox.cif.g09.slc.cpg/sg11_33_cif.got.tgz:65778.got - 2010.06.27 23:14:04.
