data_PCOD8075148
_publ_section_title
;
Structure prediction by ZEFSAII (Michael W. Deem and Ramdas Pophale) SiO2 
 PCOD8075148
Probable space group: P 21/M
;
_chemical_formula_sum "Si O2"
_cell_formula_units_Z 28
_cell_length_a 9.753665
_cell_length_b 8.598097
_cell_length_c 27.806144
_cell_angle_alpha 90.000000
_cell_angle_beta 38.126580
_cell_angle_gamma 90.000000
_cell_volume 1439.720483
_symmetry_space_group_name_H-M "P 21/M"
_symmetry_group_IT_number 11
_symmetry_cell_setting 'monoclinic'
loop_
_space_group_symop_operation_xyz
x,y,z
-x,1/2+y,-z
-x,-y,-z
x,1/2-y,z
loop_
_atom_site_type_symbol
_atom_site_label
_atom_site_fract_x
_atom_site_fract_y
_atom_site_fract_z
Si Si1 0.507666 0.568428 0.204033
Si Si2 0.847139 0.933329 0.631955
Si Si3 0.270403 0.573662 0.049892
Si Si4 0.819176 0.067908 0.195371
Si Si5 0.350492 0.933215 0.498739
Si Si6 0.530376 0.066067 0.641075
Si Si7 0.232754 0.574144 0.947488
O O1 0.455735 0.750000 0.220911
O O2 0.293177 0.475488 0.281880
O O3 0.720701 0.528567 0.177911
O O4 0.566140 0.518695 0.133628
O O5 0.840243 0.750000 0.624428
O O6 0.096905 0.993116 0.572349
O O7 0.744596 0.016452 0.613298
O O8 0.252344 0.750000 0.073455
O O9 0.077212 0.474330 0.128727
O O10 0.500000 0.500000 0.000000
O O11 0.263135 0.564380 0.995173
O O12 0.786960 0.250000 0.195020
O O13 0.690919 0.019229 0.279179
O O14 0.356596 0.750000 0.501864
O O15 0.442249 0.986461 0.421591
O O16 0.500000 0.000000 0.500000
O O17 0.501282 0.250000 0.654143
O O18 0.235713 0.750000 0.927418
O O19 0.000000 0.500000 0.000000
#
# Coordination Sequence:
#
# PCOD8075148 Si02
#       7
#     4   4   4   4   4   4   4
#     4  11  21  35  58  89 119 152 194 243 293 340
#     4  10  20  37  60  88 117 150 193 241 288 343
#     4  11  24  41  60  85 118 156 198 242 292 348
#     4  11  21  36  60  87 117 154 195 241 292 344
#     4  10  23  40  60  86 119 155 191 234 288 346
#     4  10  20  37  61  89 116 149 193 241 289 343
#     4  11  22  37  61  88 117 154 196 241 291 345
#
# _framework density 19.448219000000002
#
# number of rings (size 3 to 8) (size 9 to 14) (size 15 to 20)
#    0.000    1.429    1.429    6.429    0.000    4.000 
#    2.571    0.000    0.000    0.000    0.000    0.000 
#    0.000    0.000    0.000    0.000    0.000    0.000 
#
# Total GULP energy -347273.272768 kJ/mol
# GULP energy per Si atom -12402.616885 kJ/mol
# Density = 1.940395 g / cm^3
# Si number density = 19.448219 Si / 1000 Ang^3
#
#
#
# Elastic Constant Matrix: (Units=GPa)
#
#
# Indices 1 2 3 4 5 6 
#
# 1 90.4723 30.7177 62.5069 0.0000 -12.2516 0.0000
# 2 30.7177 81.4595 30.2499 0.0000 1.6156 0.0000
# 3 62.5069 30.2499 142.4947 0.0000 -7.9829 0.0000
# 4 0.0000 0.0000 0.0000 34.2792 0.0000 -1.7223
# 5 -12.2516 1.6156 -7.9829 0.0000 30.2870 0.0000
# 6 0.0000 0.0000 0.0000 -1.7223 0.0000 30.4185
#
#
#
# Elastic Compliance Matrix: (Units=1/GPa)
#
#
# Indices 1 2 3 4 5 6 
#
# 1 0.017875 -0.004409 -0.006584 0.000000 0.005731 0.000000
# 2 -0.004409 0.014480 -0.001302 0.000000 -0.002899 0.000000
# 3 -0.006584 -0.001302 0.010188 0.000000 0.000091 0.000000
# 4 0.000000 0.000000 0.000000 0.029255 0.000000 0.001656
# 5 0.005731 -0.002899 0.000091 0.000000 0.035514 0.000000
# 6 0.000000 0.000000 0.000000 0.001656 0.000000 0.032969
#
#
# Mechanical properties :
#
#
# Convention : Reuss Voigt Hill
#
# Bulk Modulus (GPa) = 55.70551 62.37505 59.04028
# Shear Modulus (GPa) = 29.26457 31.72709 30.49583
#
# Velocity S-wave (km/s) = 3.88331 4.04339 3.96416
# Velocity P-wave (km/s) = 6.98656 7.34443 7.16773
#
# Compressibility (1/GPa) = 0.01795154
#
# Stress axis : x y z
#
# Youngs Moduli (GPa) = 55.94395 69.06188 98.15942
#
# Poissons Ratio (x) = 0.30451 0.64628
# Poissons Ratio (y) = 0.24667 0.12782
# Poissons Ratio (z) = 0.36834 0.08993
#
# Static dielectric constant tensor:
#      x y z
#    x 3.316170 0.000000 -0.004390 
#    y 0.000000 3.728130 0.000000 
#    z -0.004390 0.000000 3.708560 
# 
# 
# High freq. dielectric constant tensor:
#      x y z
#    x 1.734610 0.000000 0.001830 
#    y 0.000000 1.770100 0.000000 
#    z 0.001830 0.000000 1.776000 
# 
# From -- ./inp_files/70780.got.cif
#   From: 2010.06.25/outbox.cif.g09.slc.cpg/sg11_36_cif.got.tgz:70780.got - 2010.06.27 23:14:04.
