data_PCOD8075897
_publ_section_title
;
Structure prediction by ZEFSAII (Michael W. Deem and Ramdas Pophale) SiO2 
 PCOD8075897
Probable space group: P 21/M
;
_chemical_formula_sum "Si O2"
_cell_formula_units_Z 32
_cell_length_a 14.634447
_cell_length_b 8.938130
_cell_length_c 12.707191
_cell_angle_alpha 90.000000
_cell_angle_beta 98.144757
_cell_angle_gamma 90.000000
_cell_volume 1645.393190
_symmetry_space_group_name_H-M "P 21/M"
_symmetry_group_IT_number 11
_symmetry_cell_setting 'monoclinic'
loop_
_space_group_symop_operation_xyz
x,y,z
-x,1/2+y,-z
-x,-y,-z
x,1/2-y,z
loop_
_atom_site_type_symbol
_atom_site_label
_atom_site_fract_x
_atom_site_fract_y
_atom_site_fract_z
Si Si1 0.851062 0.083433 0.874752
Si Si2 0.131230 0.575551 0.682619
Si Si3 0.355773 0.916520 0.211742
Si Si4 0.074929 0.424948 0.304687
Si Si5 0.776783 0.073888 0.081360
Si Si6 0.595137 0.425726 0.546084
Si Si7 0.405273 0.074561 0.016283
Si Si8 0.221747 0.072330 0.499942
O O1 0.892243 0.250000 0.888408
O O2 0.754072 0.082064 0.798731
O O3 0.919451 0.988111 0.813127
O O4 0.838122 0.017821 0.991166
O O5 0.146786 0.750000 0.659539
O O6 0.170534 0.534935 0.803689
O O7 0.182325 0.474922 0.606070
O O8 0.023691 0.532130 0.662499
O O9 0.389669 0.750000 0.183479
O O10 0.394659 0.962182 0.330089
O O11 0.390797 0.040436 0.136611
O O12 0.085217 0.250000 0.293941
O O13 0.153464 0.487007 0.396606
O O14 0.758017 0.250000 0.063520
O O15 0.678029 0.992572 0.066614
O O16 0.500000 0.500000 0.500000
O O17 0.594234 0.250000 0.521663
O O18 0.678154 0.499223 0.494710
O O19 0.409923 0.250000 0.997538
O O20 0.500000 0.000000 0.000000
O O21 0.231181 0.250000 0.497630
#
# Coordination Sequence:
#
# PCOD8075897 Si02
#       8
#     4   4   4   4   4   4   4   4
#     4   9  17  33  58  84 111 148 189 235 289 346
#     4  10  22  40  60  83 118 162 201 244 296 351
#     4   9  19  37  58  81 112 148 188 234 285 343
#     4  10  21  36  58  88 118 153 199 246 293 348
#     4   9  20  39  58  81 116 153 194 242 294 347
#     4  11  23  40  62  88 117 153 194 240 296 352
#     4  11  22  36  59  86 113 148 191 237 288 348
#     4  11  23  39  59  86 121 156 198 250 295 349
#
# _framework density 19.448239000000001
#
# number of rings (size 3 to 8) (size 9 to 14) (size 15 to 20)
#    0.000    2.000    1.250    3.000    0.000    6.000 
#    0.000    0.000    0.000    0.000    0.000    0.000 
#    0.000    0.000    0.000    0.000    0.000    0.000 
#
# Total GULP energy -396820.450000 kJ/mol
# GULP energy per Si atom -12400.639063 kJ/mol
# Density = 1.940397 g / cm^3
# Si number density = 19.448239 Si / 1000 Ang^3
#
#
#
# Elastic Constant Matrix: (Units=GPa)
#
#
# Indices 1 2 3 4 5 6 
#
# 1 113.5240 47.2952 51.6950 0.0000 -9.3729 0.0000
# 2 47.2952 78.4814 42.0541 0.0000 -7.6034 0.0000
# 3 51.6950 42.0541 106.0854 0.0000 0.0811 0.0000
# 4 0.0000 0.0000 0.0000 31.7398 0.0000 -6.5788
# 5 -9.3729 -7.6034 0.0811 0.0000 23.7756 0.0000
# 6 0.0000 0.0000 0.0000 -6.5788 0.0000 30.3255
#
#
#
# Elastic Compliance Matrix: (Units=1/GPa)
#
#
# Indices 1 2 3 4 5 6 
#
# 1 0.013319 -0.005336 -0.004378 0.000000 0.003559 0.000000
# 2 -0.005336 0.018984 -0.004929 0.000000 0.003984 0.000000
# 3 -0.004378 -0.004929 0.013516 0.000000 -0.003348 0.000000
# 4 0.000000 0.000000 0.000000 0.032990 0.000000 0.007157
# 5 0.003559 0.003984 -0.003348 0.000000 0.044749 0.000000
# 6 0.000000 0.000000 0.000000 0.007157 0.000000 0.034528
#
#
# Mechanical properties :
#
#
# Convention : Reuss Voigt Hill
#
# Bulk Modulus (GPa) = 60.47818 64.46438 62.47128
# Shear Modulus (GPa) = 25.92257 27.63794 26.78026
#
# Velocity S-wave (km/s) = 3.65485 3.77384 3.71482
# Velocity P-wave (km/s) = 6.99822 7.22549 7.11277
#
# Compressibility (1/GPa) = 0.01653489
#
# Stress axis : x y z
#
# Youngs Moduli (GPa) = 75.08064 52.67476 73.98607
#
# Poissons Ratio (x) = 0.28106 0.32390
# Poissons Ratio (y) = 0.40061 0.36466
# Poissons Ratio (z) = 0.32869 0.25962
#
# Static dielectric constant tensor:
#      x y z
#    x 3.593120 0.000000 0.037950 
#    y 0.000000 3.471030 0.000000 
#    z 0.037950 0.000000 3.620490 
# 
# 
# High freq. dielectric constant tensor:
#      x y z
#    x 1.756870 0.000000 -0.002300 
#    y 0.000000 1.752100 0.000000 
#    z -0.002300 0.000000 1.763590 
# 
# From -- ./inp_files/38231.got.cif
#   From: 2010.06.25/outbox.cif.g09.slc.cpg/sg11_20_cif.got.tgz:38231.got - 2010.06.27 23:14:04.
