data_PCOD8075709
_publ_section_title
;
Structure prediction by ZEFSAII (Michael W. Deem and Ramdas Pophale) SiO2 
 PCOD8075709
Probable space group: P 21/M
;
_chemical_formula_sum "Si O2"
_cell_formula_units_Z 28
_cell_length_a 16.184288
_cell_length_b 8.978713
_cell_length_c 12.485754
_cell_angle_alpha 90.000000
_cell_angle_beta 123.233589
_cell_angle_gamma 90.000000
_cell_volume 1517.605527
_symmetry_space_group_name_H-M "P 21/M"
_symmetry_group_IT_number 11
_symmetry_cell_setting 'monoclinic'
loop_
_space_group_symop_operation_xyz
x,y,z
-x,1/2+y,-z
-x,-y,-z
x,1/2-y,z
loop_
_atom_site_type_symbol
_atom_site_label
_atom_site_fract_x
_atom_site_fract_y
_atom_site_fract_z
Si Si1 0.765164 0.926359 0.026691
Si Si2 0.446502 0.425398 0.059150
Si Si3 0.927069 0.924136 0.306281
Si Si4 0.505279 0.425598 0.331151
Si Si5 0.292177 0.426806 0.246142
Si Si6 0.127711 0.423335 0.493078
Si Si7 0.718347 0.427085 0.547359
O O1 0.761391 0.750000 0.029453
O O2 0.665370 0.986945 0.011034
O O3 0.858986 0.984241 0.160576
O O4 0.768377 0.974753 0.903894
O O5 0.446711 0.250000 0.042310
O O6 0.500000 0.500000 0.000000
O O7 0.505639 0.472720 0.207379
O O8 0.952833 0.750000 0.312557
O O9 0.871279 0.953497 0.378900
O O10 0.026780 0.017684 0.369509
O O11 0.501838 0.250000 0.337257
O O12 0.405730 0.485547 0.317395
O O13 0.605707 0.486766 0.455049
O O14 0.287410 0.250000 0.259247
O O15 0.241940 0.508569 0.311537
O O16 0.138026 0.250000 0.473806
O O17 0.218764 0.510864 0.506572
O O18 0.725657 0.250000 0.551793
#
# Coordination Sequence:
#
# PCOD8075709 Si02
#       7
#     4   4   4   4   4   4   4
#     4   8  16  32  55  75  98 134 168 204 256 307
#     4   9  17  30  47  72 104 135 168 203 243 296
#     4   9  18  36  58  77 100 131 168 209 258 310
#     4   8  17  32  49  71 103 141 172 203 249 299
#     4   9  17  34  55  75 101 135 174 212 251 298
#     4  10  21  35  53  79 105 130 167 213 257 305
#     4  11  21  33  51  75 106 139 173 211 252 297
#
# _framework density 18.450116999999999
#
# number of rings (size 3 to 8) (size 9 to 14) (size 15 to 20)
#    0.000    2.857    0.000    3.000    2.000    0.571 
#    0.000    6.429    0.000    0.000    0.000    0.000 
#    0.000    0.000    0.000    0.000    0.000    0.000 
#
# Total GULP energy -347083.482362 kJ/mol
# GULP energy per Si atom -12395.838656 kJ/mol
# Density = 1.840812 g / cm^3
# Si number density = 18.450117 Si / 1000 Ang^3
#
#
#
# Elastic Constant Matrix: (Units=GPa)
#
#
# Indices 1 2 3 4 5 6 
#
# 1 60.4723 26.7558 37.2843 0.0000 -5.4149 0.0000
# 2 26.7558 51.5608 30.9462 0.0000 -1.3291 0.0000
# 3 37.2843 30.9462 121.0349 0.0000 7.4737 0.0000
# 4 0.0000 0.0000 0.0000 22.9910 0.0000 -4.8318
# 5 -5.4149 -1.3291 7.4737 0.0000 25.2920 0.0000
# 6 0.0000 0.0000 0.0000 -4.8318 0.0000 30.8308
#
#
#
# Elastic Compliance Matrix: (Units=1/GPa)
#
#
# Indices 1 2 3 4 5 6 
#
# 1 0.024688 -0.009262 -0.005636 0.000000 0.006464 0.000000
# 2 -0.009262 0.026609 -0.003987 0.000000 0.000594 0.000000
# 3 -0.005636 -0.003987 0.011312 0.000000 -0.004759 0.000000
# 4 0.000000 0.000000 0.000000 0.044977 0.000000 0.007049
# 5 0.006464 0.000594 -0.004759 0.000000 0.042360 0.000000
# 6 0.000000 0.000000 0.000000 0.007049 0.000000 0.033540
#
#
# Mechanical properties :
#
#
# Convention : Reuss Voigt Hill
#
# Bulk Modulus (GPa) = 40.25961 47.00451 43.63206
# Shear Modulus (GPa) = 21.78326 25.02821 23.40574
#
# Velocity S-wave (km/s) = 3.43980 3.68711 3.56560
# Velocity P-wave (km/s) = 6.13551 6.60744 6.37584
#
# Compressibility (1/GPa) = 0.02483879
#
# Stress axis : x y z
#
# Youngs Moduli (GPa) = 40.50522 37.58142 88.40534
#
# Poissons Ratio (x) = 0.34807 0.49827
# Poissons Ratio (y) = 0.37515 0.35247
# Poissons Ratio (z) = 0.22830 0.14984
#
# Static dielectric constant tensor:
#      x y z
#    x 3.048220 0.000000 -0.077650 
#    y 0.000000 3.115640 0.000000 
#    z -0.077650 0.000000 3.672060 
# 
# 
# High freq. dielectric constant tensor:
#      x y z
#    x 1.706950 0.000000 -0.006890 
#    y 0.000000 1.687980 0.000000 
#    z -0.006890 0.000000 1.723620 
# 
# From -- ./inp_files/38503.got.cif
#   From: 2010.06.25/outbox.cif.g09.slc.cpg/sg11_20_cif.got.tgz:38503.got - 2010.06.27 23:14:04.
