data_PCOD8075762
_publ_section_title
;
Structure prediction by ZEFSAII (Michael W. Deem and Ramdas Pophale) SiO2 
 PCOD8075762
Probable space group: P 21/M
;
_chemical_formula_sum "Si O2"
_cell_formula_units_Z 32
_cell_length_a 14.377861
_cell_length_b 8.803854
_cell_length_c 14.308250
_cell_angle_alpha 90.000000
_cell_angle_beta 92.840345
_cell_angle_gamma 90.000000
_cell_volume 1808.921705
_symmetry_space_group_name_H-M "P 21/M"
_symmetry_group_IT_number 11
_symmetry_cell_setting 'monoclinic'
loop_
_space_group_symop_operation_xyz
x,y,z
-x,1/2+y,-z
-x,-y,-z
x,1/2-y,z
loop_
_atom_site_type_symbol
_atom_site_label
_atom_site_fract_x
_atom_site_fract_y
_atom_site_fract_z
Si Si1 0.047926 0.070290 0.805073
Si Si2 0.192462 0.071043 0.654542
Si Si3 0.525521 0.430022 0.901767
Si Si4 0.146000 0.929667 0.274913
Si Si5 0.281040 0.429863 0.145291
Si Si6 0.900911 0.428407 0.518156
Si Si7 0.195033 0.069412 0.952106
Si Si8 0.663495 0.571157 0.192609
O O1 0.043763 0.250000 0.804703
O O2 0.110074 0.019895 0.720064
O O3 0.095957 0.011549 0.904220
O O4 0.943528 0.007420 0.787677
O O5 0.189304 0.250000 0.634277
O O6 0.291271 0.019597 0.706083
O O7 0.178827 0.982999 0.557088
O O8 0.534328 0.250000 0.913738
O O9 0.618331 0.498002 0.863287
O O10 0.444149 0.475329 0.823759
O O11 0.500000 0.500000 0.000000
O O12 0.158276 0.750000 0.264859
O O13 0.133525 0.978260 0.381390
O O14 0.237494 0.012080 0.239844
O O15 0.292414 0.250000 0.146842
O O16 0.212530 0.487055 0.058367
O O17 0.913886 0.250000 0.513284
O O18 0.000000 0.500000 0.500000
O O19 0.197147 0.250000 0.949648
O O20 0.277862 0.002709 0.891406
O O21 0.675890 0.750000 0.187055
#
# Coordination Sequence:
#
# PCOD8075762 Si02
#       8
#     4   4   4   4   4   4   4   4
#     4   8  14  28  50  72 100 139 174 205 248 310
#     4   9  16  31  55  80 103 133 171 214 263 316
#     4  11  20  34  56  81 107 140 178 218 260 311
#     4  10  21  36  51  72 103 142 178 212 260 314
#     4  11  22  35  51  76 107 141 178 221 263 306
#     4  11  21  34  54  79 107 138 176 220 265 311
#     4   8  14  27  48  73 102 136 173 207 248 305
#     4   8  15  29  53  79 104 134 170 210 261 317
#
# _framework density 17.690097000000002
#
# number of rings (size 3 to 8) (size 9 to 14) (size 15 to 20)
#    0.000    2.500    2.500    2.625    0.000    1.500 
#    0.000    1.250    0.000    1.500    0.000    0.000 
#    0.000    0.000    0.000    0.000    0.000    0.000 
#
# Total GULP energy -396585.255022 kJ/mol
# GULP energy per Si atom -12393.289219 kJ/mol
# Density = 1.764983 g / cm^3
# Si number density = 17.690097 Si / 1000 Ang^3
#
#
#
# Elastic Constant Matrix: (Units=GPa)
#
#
# Indices 1 2 3 4 5 6 
#
# 1 129.8074 38.6681 75.9775 0.0000 2.5760 0.0000
# 2 38.6681 46.3853 39.0782 0.0000 -1.3130 0.0000
# 3 75.9775 39.0782 123.5877 0.0000 7.0800 0.0000
# 4 0.0000 0.0000 0.0000 24.9211 0.0000 -0.1453
# 5 2.5760 -1.3130 7.0800 0.0000 26.8551 0.0000
# 6 0.0000 0.0000 0.0000 -0.1453 0.0000 23.0981
#
#
#
# Elastic Compliance Matrix: (Units=1/GPa)
#
#
# Indices 1 2 3 4 5 6 
#
# 1 0.013022 -0.005591 -0.006245 0.000000 0.000124 0.000000
# 2 -0.005591 0.032205 -0.006972 0.000000 0.003949 0.000000
# 3 -0.006245 -0.006972 0.014337 0.000000 -0.003522 0.000000
# 4 0.000000 0.000000 0.000000 0.040128 0.000000 0.000252
# 5 0.000124 0.003949 -0.003522 0.000000 0.038347 0.000000
# 6 0.000000 0.000000 0.000000 0.000252 0.000000 0.043295
#
#
# Mechanical properties :
#
#
# Convention : Reuss Voigt Hill
#
# Bulk Modulus (GPa) = 45.56237 67.46977 56.51607
# Shear Modulus (GPa) = 22.09798 24.71196 23.40497
#
# Velocity S-wave (km/s) = 3.53820 3.74162 3.64133
# Velocity P-wave (km/s) = 6.51948 7.54247 7.04956
#
# Compressibility (1/GPa) = 0.02194794
#
# Stress axis : x y z
#
# Youngs Moduli (GPa) = 76.79462 31.05103 69.75081
#
# Poissons Ratio (x) = 0.17360 0.43556
# Poissons Ratio (y) = 0.42935 0.48632
# Poissons Ratio (z) = 0.47955 0.21650
#
# Static dielectric constant tensor:
#      x y z
#    x 3.440120 0.000000 0.376600 
#    y 0.000000 2.970020 0.000000 
#    z 0.376600 0.000000 3.522740 
# 
# 
# High freq. dielectric constant tensor:
#      x y z
#    x 1.675210 0.000000 0.018770 
#    y 0.000000 1.655150 0.000000 
#    z 0.018770 0.000000 1.680410 
# 
# From -- ./inp_files/51377.got.cif
#   From: 2010.06.25/outbox.cif.g09.slc.cpg/sg11_26_cif.got.tgz:51377.got - 2010.06.27 23:14:04.
