data_PCOD8075023
_publ_section_title
;
Structure prediction by ZEFSAII (Michael W. Deem and Ramdas Pophale) SiO2 
 PCOD8075023
Probable space group: P 21/M
;
_chemical_formula_sum "Si O2"
_cell_formula_units_Z 32
_cell_length_a 27.679392
_cell_length_b 8.766912
_cell_length_c 21.640125
_cell_angle_alpha 90.000000
_cell_angle_beta 161.361414
_cell_angle_gamma 90.000000
_cell_volume 1678.287466
_symmetry_space_group_name_H-M "P 21/M"
_symmetry_group_IT_number 11
_symmetry_cell_setting 'monoclinic'
loop_
_space_group_symop_operation_xyz
x,y,z
-x,1/2+y,-z
-x,-y,-z
x,1/2-y,z
loop_
_atom_site_type_symbol
_atom_site_label
_atom_site_fract_x
_atom_site_fract_y
_atom_site_fract_z
Si Si1 0.921880 0.072207 0.845768
Si Si2 0.908801 0.569218 0.068304
Si Si3 0.424794 0.069206 0.999813
Si Si4 0.570033 0.426477 0.418127
Si Si5 0.344732 0.428550 0.037464
Si Si6 0.725568 0.430474 0.296874
Si Si7 0.041187 0.431961 0.734139
Si Si8 0.412280 0.571937 0.337684
O O1 0.955354 0.250000 0.890960
O O2 0.745814 0.036597 0.627754
O O3 0.989186 0.003895 0.863739
O O4 0.000000 0.000000 0.000000
O O5 0.916554 0.750000 0.078958
O O6 0.961132 0.505227 0.198361
O O7 0.741645 0.517464 0.852731
O O8 0.412843 0.250000 0.984944
O O9 0.303489 0.003270 0.804980
O O10 0.382814 0.001301 0.016322
O O11 0.594768 0.018424 0.186626
O O12 0.540279 0.250000 0.401244
O O13 0.489075 0.463165 0.255278
O O14 0.505189 0.544340 0.388434
O O15 0.320244 0.250000 0.000450
O O16 0.189246 0.497581 0.877744
O O17 0.726872 0.250000 0.291176
O O18 0.887901 0.491624 0.516508
O O19 0.047077 0.250000 0.741831
O O20 0.500000 0.500000 0.500000
O O21 0.384634 0.750000 0.314979
#
# Coordination Sequence:
#
# PCOD8075023 Si02
#       8
#     4   4   4   4   4   4   4   4
#     4  10  22  36  56  82 109 140 180 224 277 330
#     4  10  20  37  58  83 111 143 182 230 278 328
#     4   9  18  32  52  78 107 140 178 218 261 315
#     4  10  20  37  58  83 111 143 182 230 278 328
#     4   9  17  31  54  80 105 136 178 222 265 315
#     4   9  18  32  52  78 107 140 178 218 261 315
#     4   9  17  31  54  80 105 136 178 222 265 315
#     4  12  24  38  58  82 109 146 187 226 273 328
#
# _framework density 19.067053999999999
#
# number of rings (size 3 to 8) (size 9 to 14) (size 15 to 20)
#    0.000    2.250    1.250    1.875    1.750    3.500 
#    0.000    1.250    0.000    0.000    0.000    0.000 
#    0.000    0.000    0.000    0.000    0.000    0.000 
#
# Total GULP energy -396740.223521 kJ/mol
# GULP energy per Si atom -12398.131985 kJ/mol
# Density = 1.902366 g / cm^3
# Si number density = 19.067054 Si / 1000 Ang^3
#
#
#
# Elastic Constant Matrix: (Units=GPa)
#
#
# Indices 1 2 3 4 5 6 
#
# 1 181.5837 9.2907 82.0480 0.0000 -11.4988 0.0000
# 2 9.2907 -17.4694 -4.9711 0.0000 -2.5780 0.0000
# 3 82.0480 -4.9711 166.0277 0.0000 -10.4768 0.0000
# 4 0.0000 0.0000 0.0000 34.7387 0.0000 -0.1753
# 5 -11.4988 -2.5780 -10.4768 0.0000 34.7157 0.0000
# 6 0.0000 0.0000 0.0000 -0.1753 0.0000 25.5330
#
#
#
# Elastic Compliance Matrix: (Units=1/GPa)
#
#
# Indices 1 2 3 4 5 6 
#
# 1 0.006807 0.004272 -0.003134 0.000000 0.001626 0.000000
# 2 0.004272 -0.053298 -0.003943 0.000000 -0.003733 0.000000
# 3 -0.003134 -0.003943 0.007513 0.000000 0.000937 0.000000
# 4 0.000000 0.000000 0.000000 0.028787 0.000000 0.000198
# 5 0.001626 -0.003733 0.000937 0.000000 0.029350 0.000000
# 6 0.000000 0.000000 0.000000 0.000198 0.000000 0.039166
#
#
# Mechanical properties :
#
#
# Convention : Reuss Voigt Hill
#
# Bulk Modulus (GPa) = -22.42841 55.87526 16.72343
# Shear Modulus (GPa) = 101.89323 35.24912 68.57118
#
# Velocity S-wave (km/s) = 7.31816 4.30431 6.00344
# Velocity P-wave (km/s) = 7.72132 7.35330 7.53955
#
# Compressibility (1/GPa) = -0.04458631
#
# Stress axis : x y z
#
# Youngs Moduli (GPa) = 146.89896 -18.76232 133.10803
#
# Poissons Ratio (x) = 0.08015 0.41710
# Poissons Ratio (y) = -0.62756 0.52478
# Poissons Ratio (z) = 0.46032 -0.07397
#
# Static dielectric constant tensor:
#      x y z
#    x 3.918620 0.000000 0.030720 
#    y 0.000000 3.169350 0.000000 
#    z 0.030720 0.000000 3.632350 
# 
# 
# High freq. dielectric constant tensor:
#      x y z
#    x 1.755460 0.000000 -0.001190 
#    y 0.000000 1.701010 0.000000 
#    z -0.001190 0.000000 1.754020 
# 
# From -- ./inp_files/67210.got.cif
#   From: 2010.06.25/outbox.cif.g09.slc.cpg/sg11_34_cif.got.tgz:67210.got - 2010.06.27 23:14:04.
