data_PCOD8075559
_publ_section_title
;
Structure prediction by ZEFSAII (Michael W. Deem and Ramdas Pophale) SiO2 
 PCOD8075559
Probable space group: P 21/M
;
_chemical_formula_sum "Si O2"
_cell_formula_units_Z 32
_cell_length_a 14.521150
_cell_length_b 8.550679
_cell_length_c 12.388425
_cell_angle_alpha 90.000000
_cell_angle_beta 90.323079
_cell_angle_gamma 90.000000
_cell_volume 1538.192913
_symmetry_space_group_name_H-M "P 21/M"
_symmetry_group_IT_number 11
_symmetry_cell_setting 'monoclinic'
loop_
_space_group_symop_operation_xyz
x,y,z
-x,1/2+y,-z
-x,-y,-z
x,1/2-y,z
loop_
_atom_site_type_symbol
_atom_site_label
_atom_site_fract_x
_atom_site_fract_y
_atom_site_fract_z
Si Si1 0.503703 0.433324 0.171030
Si Si2 0.026487 0.932981 0.383802
Si Si3 0.288680 0.573880 0.538238
Si Si4 0.705395 0.431328 0.119272
Si Si5 0.144930 0.928370 0.713183
Si Si6 0.220788 0.067383 0.325719
Si Si7 0.536352 0.931731 0.390046
Si Si8 0.684097 0.069935 0.878472
O O1 0.496657 0.250000 0.147479
O O2 0.603897 0.504655 0.140249
O O3 0.485647 0.471603 0.296200
O O4 0.422387 0.519460 0.105461
O O5 0.043983 0.750000 0.395278
O O6 0.116351 0.011754 0.334264
O O7 0.000000 0.000000 0.500000
O O8 0.946333 0.966980 0.295753
O O9 0.328459 0.750000 0.539406
O O10 0.189593 0.566744 0.594103
O O11 0.283138 0.518313 0.415099
O O12 0.354360 0.463606 0.610291
O O13 0.696749 0.250000 0.151260
O O14 0.785867 0.501763 0.196140
O O15 0.733115 0.455786 0.994695
O O16 0.118448 0.750000 0.743285
O O17 0.225802 0.250000 0.348455
O O18 0.261488 0.032626 0.208009
O O19 0.514247 0.750000 0.376115
O O20 0.500000 0.000000 0.500000
O O21 0.688562 0.250000 0.843167
#
# Coordination Sequence:
#
# PCOD8075559 Si02
#       8
#     4   4   4   4   4   4   4   4
#     4  11  21  39  62  89 123 163 210 257 306 364
#     4  12  24  40  64  96 128 161 201 251 307 371
#     4  11  21  37  62  88 122 159 197 247 308 367
#     4   9  20  40  66  91 123 164 207 255 306 362
#     4  10  20  39  65  93 123 158 199 248 305 364
#     4  12  25  42  63  90 125 165 208 254 307 367
#     4  12  24  37  54  82 121 163 207 252 305 367
#     4  11  23  41  63  91 124 163 209 257 310 364
#
# _framework density 20.803630999999999
#
# number of rings (size 3 to 8) (size 9 to 14) (size 15 to 20)
#    0.000    1.000    2.500    5.625    0.000    0.500 
#    0.000    3.750    0.000    0.000    0.000    0.000 
#    0.000    0.000    0.000    0.000    0.000    0.000 
#
# Total GULP energy -396876.516671 kJ/mol
# GULP energy per Si atom -12402.391146 kJ/mol
# Density = 2.075628 g / cm^3
# Si number density = 20.803631 Si / 1000 Ang^3
#
#
#
# Elastic Constant Matrix: (Units=GPa)
#
#
# Indices 1 2 3 4 5 6 
#
# 1 81.7826 8.3812 22.5676 0.0000 11.5105 0.0000
# 2 8.3812 66.7205 18.2808 0.0000 0.6335 0.0000
# 3 22.5676 18.2808 94.8897 0.0000 13.4569 0.0000
# 4 0.0000 0.0000 0.0000 23.9905 0.0000 2.4264
# 5 11.5105 0.6335 13.4569 0.0000 27.4441 0.0000
# 6 0.0000 0.0000 0.0000 2.4264 0.0000 33.7859
#
#
#
# Elastic Compliance Matrix: (Units=1/GPa)
#
#
# Indices 1 2 3 4 5 6 
#
# 1 0.013630 -0.001010 -0.002407 0.000000 -0.004513 0.000000
# 2 -0.001010 0.015936 -0.003050 0.000000 0.001551 0.000000
# 3 -0.002407 -0.003050 0.012408 0.000000 -0.005004 0.000000
# 4 0.000000 0.000000 0.000000 0.041988 0.000000 -0.003016
# 5 -0.004513 0.001551 -0.005004 0.000000 0.040749 0.000000
# 6 0.000000 0.000000 0.000000 -0.003016 0.000000 0.029815
#
#
# Mechanical properties :
#
#
# Convention : Reuss Voigt Hill
#
# Bulk Modulus (GPa) = 34.43435 37.98355 36.20895
# Shear Modulus (GPa) = 28.22626 29.98829 29.10728
#
# Velocity S-wave (km/s) = 3.68747 3.80082 3.74457
# Velocity P-wave (km/s) = 5.89219 6.12857 6.01154
#
# Compressibility (1/GPa) = 0.02904077
#
# Stress axis : x y z
#
# Youngs Moduli (GPa) = 73.36494 62.75236 80.59128
#
# Poissons Ratio (x) = 0.06337 0.19399
# Poissons Ratio (y) = 0.07409 0.24579
# Poissons Ratio (z) = 0.17660 0.19139
#
# Static dielectric constant tensor:
#      x y z
#    x 3.849710 0.000000 0.114220 
#    y 0.000000 3.763730 0.000000 
#    z 0.114220 0.000000 3.682310 
# 
# 
# High freq. dielectric constant tensor:
#      x y z
#    x 1.814490 0.000000 0.009790 
#    y 0.000000 1.804870 0.000000 
#    z 0.009790 0.000000 1.813770 
# 
# From -- ./inp_files/38117.got.cif
#   From: 2010.06.25/outbox.cif.g09.slc.cpg/sg11_20_cif.got.tgz:38117.got - 2010.06.27 23:14:04.
