data_PCOD8075853
_publ_section_title
;
Structure prediction by ZEFSAII (Michael W. Deem and Ramdas Pophale) SiO2 
 PCOD8075853
Probable space group: P 21/M
;
_chemical_formula_sum "Si O2"
_cell_formula_units_Z 32
_cell_length_a 24.450794
_cell_length_b 8.874421
_cell_length_c 14.819983
_cell_angle_alpha 90.000000
_cell_angle_beta 28.111915
_cell_angle_gamma 90.000000
_cell_volume 1515.240826
_symmetry_space_group_name_H-M "P 21/M"
_symmetry_group_IT_number 11
_symmetry_cell_setting 'monoclinic'
loop_
_space_group_symop_operation_xyz
x,y,z
-x,1/2+y,-z
-x,-y,-z
x,1/2-y,z
loop_
_atom_site_type_symbol
_atom_site_label
_atom_site_fract_x
_atom_site_fract_y
_atom_site_fract_z
Si Si1 0.145419 0.421296 0.216681
Si Si2 0.545436 0.573349 0.649292
Si Si3 0.437171 0.424391 0.175692
Si Si4 0.023639 0.071267 0.061987
Si Si5 0.668171 0.422569 0.162921
Si Si6 0.265064 0.576615 0.737178
Si Si7 0.120921 0.921825 0.431953
Si Si8 0.173776 0.074682 0.533440
O O1 0.168007 0.250000 0.213314
O O2 0.173232 0.529799 0.259976
O O3 0.016536 0.442839 0.367762
O O4 0.227397 0.468873 0.016138
O O5 0.572272 0.750000 0.603873
O O6 0.508360 0.529609 0.805999
O O7 0.446070 0.523711 0.723919
O O8 0.663299 0.487676 0.451399
O O9 0.453747 0.250000 0.132865
O O10 0.301805 0.465713 0.381806
O O11 0.500000 0.500000 0.000000
O O12 0.028822 0.250000 0.046231
O O13 0.919795 0.026789 0.279508
O O14 0.145121 0.012345 0.924481
O O15 0.000000 0.000000 0.000000
O O16 0.697601 0.250000 0.094951
O O17 0.655252 0.441758 0.289274
O O18 0.234669 0.750000 0.762412
O O19 0.157764 0.750000 0.398121
O O20 0.173594 0.033475 0.428597
O O21 0.143603 0.250000 0.591333
#
# Coordination Sequence:
#
# PCOD8075853 Si02
#       8
#     4   4   4   4   4   4   4   4
#     4  10  21  36  56  85 119 157 204 257 313 371
#     4  10  22  42  64  89 124 168 214 265 319 377
#     4  10  24  43  64  90 123 162 208 261 316 369
#     4  12  25  42  66  95 127 167 209 257 317 379
#     4  10  22  38  60  90 126 166 210 258 316 377
#     4  11  23  40  64  96 131 168 210 262 316 377
#     4  10  21  37  58  84 118 161 204 253 313 375
#     4  11  23  40  62  92 126 160 204 257 311 371
#
# _framework density 21.118753999999999
#
# number of rings (size 3 to 8) (size 9 to 14) (size 15 to 20)
#    0.000    1.500    0.000    4.500    1.750    7.500 
#    0.000    0.000    0.000    0.000    0.000    0.000 
#    0.000    0.000    0.000    0.000    0.000    0.000 
#
# Total GULP energy -396914.699639 kJ/mol
# GULP energy per Si atom -12403.584364 kJ/mol
# Density = 2.107069 g / cm^3
# Si number density = 21.118754 Si / 1000 Ang^3
#
#
#
# Elastic Constant Matrix: (Units=GPa)
#
#
# Indices 1 2 3 4 5 6 
#
# 1 117.8974 43.9786 35.5562 0.0000 3.7011 0.0000
# 2 43.9786 98.9887 46.5333 0.0000 -3.0668 0.0000
# 3 35.5562 46.5333 91.9751 0.0000 11.4218 0.0000
# 4 0.0000 0.0000 0.0000 38.4092 0.0000 5.0882
# 5 3.7011 -3.0668 11.4218 0.0000 25.4267 0.0000
# 6 0.0000 0.0000 0.0000 5.0882 0.0000 33.1861
#
#
#
# Elastic Compliance Matrix: (Units=1/GPa)
#
#
# Indices 1 2 3 4 5 6 
#
# 1 0.010531 -0.003753 -0.002039 0.000000 -0.001069 0.000000
# 2 -0.003753 0.015190 -0.006916 0.000000 0.005485 0.000000
# 3 -0.002039 -0.006916 0.016126 0.000000 -0.007781 0.000000
# 4 0.000000 0.000000 0.000000 0.026575 0.000000 -0.004075
# 5 -0.001069 0.005485 -0.007781 0.000000 0.043641 0.000000
# 6 0.000000 0.000000 0.000000 -0.004075 0.000000 0.030758
#
#
# Mechanical properties :
#
#
# Convention : Reuss Voigt Hill
#
# Bulk Modulus (GPa) = 60.86053 62.33304 61.59679
# Shear Modulus (GPa) = 28.78289 31.59061 30.18675
#
# Velocity S-wave (km/s) = 3.69576 3.87183 3.78482
# Velocity P-wave (km/s) = 6.86239 7.04043 6.95198
#
# Compressibility (1/GPa) = 0.01643101
#
# Stress axis : x y z
#
# Youngs Moduli (GPa) = 94.96220 65.83109 62.01131
#
# Poissons Ratio (x) = 0.24706 0.12647
# Poissons Ratio (y) = 0.35638 0.42885
# Poissons Ratio (z) = 0.19367 0.45527
#
# Static dielectric constant tensor:
#      x y z
#    x 4.144960 0.000000 0.026470 
#    y 0.000000 3.811220 0.000000 
#    z 0.026470 0.000000 3.758820 
# 
# 
# High freq. dielectric constant tensor:
#      x y z
#    x 1.840020 0.000000 0.004540 
#    y 0.000000 1.828960 0.000000 
#    z 0.004540 0.000000 1.826790 
# 
# From -- ./inp_files/55602.got.cif
#   From: 2010.06.25/outbox.cif.g09.slc.cpg/sg11_28_cif.got.tgz:55602.got - 2010.06.27 23:14:04.
