data_PCOD8075265
_publ_section_title
;
Structure prediction by ZEFSAII (Michael W. Deem and Ramdas Pophale) SiO2 
 PCOD8075265
Probable space group: P 21/M
;
_chemical_formula_sum "Si O2"
_cell_formula_units_Z 28
_cell_length_a 14.505233
_cell_length_b 8.970452
_cell_length_c 21.084990
_cell_angle_alpha 90.000000
_cell_angle_beta 151.029247
_cell_angle_gamma 90.000000
_cell_volume 1328.873029
_symmetry_space_group_name_H-M "P 21/M"
_symmetry_group_IT_number 11
_symmetry_cell_setting 'monoclinic'
loop_
_space_group_symop_operation_xyz
x,y,z
-x,1/2+y,-z
-x,-y,-z
x,1/2-y,z
loop_
_atom_site_type_symbol
_atom_site_label
_atom_site_fract_x
_atom_site_fract_y
_atom_site_fract_z
Si Si1 0.672844 0.417015 0.430471
Si Si2 0.700690 0.076472 0.113762
Si Si3 0.062142 0.925971 0.103222
Si Si4 0.767465 0.921622 0.031399
Si Si5 0.370518 0.921026 0.730808
Si Si6 0.540455 0.074102 0.592591
Si Si7 0.106554 0.419237 0.659142
O O1 0.634019 0.250000 0.432960
O O2 0.551133 0.453822 0.293701
O O3 0.629994 0.529667 0.461963
O O4 0.881005 0.430848 0.525107
O O5 0.667662 0.250000 0.087864
O O6 0.823910 0.038936 0.248535
O O7 0.500000 0.000000 0.000000
O O8 0.816710 0.017395 0.122794
O O9 0.066970 0.750000 0.095082
O O10 0.264103 0.979897 0.255181
O O11 0.901496 0.976673 0.055770
O O12 0.000000 0.000000 0.000000
O O13 0.810050 0.750000 0.072583
O O14 0.547162 0.949065 0.883310
O O15 0.299328 0.750000 0.691749
O O16 0.196965 0.029597 0.646426
O O17 0.542187 0.250000 0.582830
O O18 0.500000 0.000000 0.500000
O O19 0.172786 0.250000 0.713983
#
# Coordination Sequence:
#
# PCOD8075265 Si02
#       7
#     4   4   4   4   4   4   4
#     4  10  23  42  64  90 123 166 207 252 312 370
#     4  12  24  39  59  87 122 161 207 254 307 368
#     4  10  23  43  68  97 129 166 212 266 325 382
#     4  10  21  38  62  90 123 161 201 252 311 368
#     4  10  20  37  62  91 124 162 202 247 305 369
#     4  11  25  44  66  95 129 170 217 270 324 381
#     4  11  23  38  60  89 125 164 205 253 305 364
#
# _framework density 21.070487
#
# number of rings (size 3 to 8) (size 9 to 14) (size 15 to 20)
#    0.000    1.429    1.429    3.429    2.000    4.571 
#    0.000    0.000    0.000    0.000    0.000    0.000 
#    0.000    0.000    0.000    0.000    0.000    0.000 
#
# Total GULP energy -347145.037521 kJ/mol
# GULP energy per Si atom -12398.037054 kJ/mol
# Density = 2.102253 g / cm^3
# Si number density = 21.070487 Si / 1000 Ang^3
#
#
#
# Elastic Constant Matrix: (Units=GPa)
#
#
# Indices 1 2 3 4 5 6 
#
# 1 146.5566 61.3191 35.4893 0.0000 -12.5010 0.0000
# 2 61.3191 96.7973 33.2108 0.0000 -4.5490 0.0000
# 3 35.4893 33.2108 76.9291 0.0000 -12.8017 0.0000
# 4 0.0000 0.0000 0.0000 29.8853 0.0000 -4.4604
# 5 -12.5010 -4.5490 -12.8017 0.0000 35.2359 0.0000
# 6 0.0000 0.0000 0.0000 -4.4604 0.0000 39.2418
#
#
#
# Elastic Compliance Matrix: (Units=1/GPa)
#
#
# Indices 1 2 3 4 5 6 
#
# 1 0.009710 -0.005441 -0.001782 0.000000 0.002095 0.000000
# 2 -0.005441 0.015181 -0.004298 0.000000 -0.001532 0.000000
# 3 -0.001782 -0.004298 0.016475 0.000000 0.004799 0.000000
# 4 0.000000 0.000000 0.000000 0.034039 0.000000 0.003869
# 5 0.002095 -0.001532 0.004799 0.000000 0.030669 0.000000
# 6 0.000000 0.000000 0.000000 0.003869 0.000000 0.025923
#
#
# Mechanical properties :
#
#
# Convention : Reuss Voigt Hill
#
# Bulk Modulus (GPa) = 54.57663 64.48014 59.52839
# Shear Modulus (GPa) = 31.02756 33.55685 32.29221
#
# Velocity S-wave (km/s) = 3.84156 3.99507 3.91907
# Velocity P-wave (km/s) = 6.75536 7.20759 6.98514
#
# Compressibility (1/GPa) = 0.01832286
#
# Stress axis : x y z
#
# Youngs Moduli (GPa) = 102.98489 65.87348 60.69766
#
# Poissons Ratio (x) = 0.35844 0.10815
# Poissons Ratio (y) = 0.56038 0.26090
# Poissons Ratio (z) = 0.18350 0.28314
#
# Static dielectric constant tensor:
#      x y z
#    x 3.998410 0.000000 -0.345250 
#    y 0.000000 3.392050 0.000000 
#    z -0.345250 0.000000 4.952930 
# 
# 
# High freq. dielectric constant tensor:
#      x y z
#    x 1.839310 0.000000 -0.010000 
#    y 0.000000 1.817070 0.000000 
#    z -0.010000 0.000000 1.828810 
# 
# From -- ./inp_files/49015.got.cif
#   From: 2010.06.25/outbox.cif.g09.slc.cpg/sg11_25_cif.got.tgz:49015.got - 2010.06.27 23:14:04.
