data_PCOD8075733
_publ_section_title
;
Structure prediction by ZEFSAII (Michael W. Deem and Ramdas Pophale) SiO2 
 PCOD8075733
Probable space group: P 21/M
;
_chemical_formula_sum "Si O2"
_cell_formula_units_Z 32
_cell_length_a 17.678215
_cell_length_b 9.169093
_cell_length_c 28.567326
_cell_angle_alpha 90.000000
_cell_angle_beta 156.994971
_cell_angle_gamma 90.000000
_cell_volume 1809.681654
_symmetry_space_group_name_H-M "P 21/M"
_symmetry_group_IT_number 11
_symmetry_cell_setting 'monoclinic'
loop_
_space_group_symop_operation_xyz
x,y,z
-x,1/2+y,-z
-x,-y,-z
x,1/2-y,z
loop_
_atom_site_type_symbol
_atom_site_label
_atom_site_fract_x
_atom_site_fract_y
_atom_site_fract_z
Si Si1 0.949369 0.907854 0.732616
Si Si2 0.124168 0.079603 0.003240
Si Si3 0.443564 0.076821 0.919083
Si Si4 0.729652 0.418072 0.825171
Si Si5 0.244436 0.584725 0.979507
Si Si6 0.598711 0.081490 0.514440
Si Si7 0.070438 0.588408 0.701676
Si Si8 0.371488 0.081301 0.559008
O O1 0.836358 0.750000 0.668366
O O2 0.047803 0.925867 0.838368
O O3 0.096133 0.902206 0.772664
O O4 0.823808 0.050651 0.651011
O O5 0.160689 0.250000 0.021059
O O6 0.895190 0.043829 0.880536
O O7 0.213840 0.012779 0.007481
O O8 0.246005 0.018529 0.116038
O O9 0.445910 0.250000 0.928349
O O10 0.233868 0.026402 0.779512
O O11 0.586603 0.028683 0.958608
O O12 0.500000 0.000000 0.000000
O O13 0.754936 0.250000 0.854535
O O14 0.511221 0.447353 0.682616
O O15 0.286228 0.750000 0.019495
O O16 0.548592 0.250000 0.486073
O O17 0.500000 0.000000 0.500000
O O18 0.533456 0.013549 0.428081
O O19 0.110627 0.750000 0.703401
O O20 0.854387 0.536566 0.561710
O O21 0.377012 0.250000 0.547012
#
# Coordination Sequence:
#
# PCOD8075733 Si02
#       8
#     4   4   4   4   4   4   4   4
#     4   9  18  34  50  69 102 141 178 215 260 311
#     4  10  21  35  55  85 111 134 176 226 267 316
#     4  11  21  34  53  77 107 146 184 220 266 318
#     4   9  19  38  60  80 105 141 176 214 271 328
#     4  10  21  36  53  75 107 145 179 218 270 320
#     4  11  22  33  46  70 103 140 179 218 261 310
#     4   9  17  33  53  76 106 138 175 219 262 309
#     4   9  19  36  56  76 103 139 178 217 263 322
#
# _framework density 17.682668
#
# number of rings (size 3 to 8) (size 9 to 14) (size 15 to 20)
#    0.000    2.250    1.250    2.625    1.750    4.500 
#    0.000    0.000    0.000    0.750    0.000    0.000 
#    0.000    0.000    0.000    0.000    0.000    0.000 
#
# Total GULP energy -396490.737525 kJ/mol
# GULP energy per Si atom -12390.335548 kJ/mol
# Density = 1.764242 g / cm^3
# Si number density = 17.682668 Si / 1000 Ang^3
#
#
#
# Elastic Constant Matrix: (Units=GPa)
#
#
# Indices 1 2 3 4 5 6 
#
# 1 105.2262 51.3219 48.0788 0.0000 -4.6558 0.0000
# 2 51.3219 88.0114 43.3847 0.0000 -3.1660 0.0000
# 3 48.0788 43.3847 101.6031 0.0000 -2.6562 0.0000
# 4 0.0000 0.0000 0.0000 28.0224 0.0000 0.1632
# 5 -4.6558 -3.1660 -2.6562 0.0000 17.0605 0.0000
# 6 0.0000 0.0000 0.0000 0.1632 0.0000 30.9767
#
#
#
# Elastic Compliance Matrix: (Units=1/GPa)
#
#
# Indices 1 2 3 4 5 6 
#
# 1 0.014607 -0.006410 -0.004119 0.000000 0.002155 0.000000
# 2 -0.006410 0.017255 -0.004314 0.000000 0.000781 0.000000
# 3 -0.004119 -0.004314 0.013639 0.000000 0.000199 0.000000
# 4 0.000000 0.000000 0.000000 0.035687 0.000000 -0.000188
# 5 0.002155 0.000781 0.000199 0.000000 0.059379 0.000000
# 6 0.000000 0.000000 0.000000 -0.000188 0.000000 0.032283
#
#
# Mechanical properties :
#
#
# Convention : Reuss Voigt Hill
#
# Bulk Modulus (GPa) = 63.23235 64.49017 63.86126
# Shear Modulus (GPa) = 24.06090 25.34894 24.70492
#
# Velocity S-wave (km/s) = 3.69278 3.79033 3.74187
# Velocity P-wave (km/s) = 7.34978 7.46361 7.40691
#
# Compressibility (1/GPa) = 0.01581469
#
# Stress axis : x y z
#
# Youngs Moduli (GPa) = 68.46126 57.95528 73.32175
#
# Poissons Ratio (x) = 0.37148 0.30198
# Poissons Ratio (y) = 0.43883 0.31632
# Poissons Ratio (z) = 0.28196 0.25003
#
# Static dielectric constant tensor:
#      x y z
#    x 2.986750 0.000000 0.018460 
#    y 0.000000 2.700820 0.000000 
#    z 0.018460 0.000000 3.202680 
# 
# 
# High freq. dielectric constant tensor:
#      x y z
#    x 1.662150 0.000000 0.007760 
#    y 0.000000 1.686220 0.000000 
#    z 0.007760 0.000000 1.678790 
# 
# From -- ./inp_files/69116.got.cif
#   From: 2010.06.25/outbox.cif.g09.slc.cpg/sg11_35_cif.got.tgz:69116.got - 2010.06.27 23:14:04.
