data_PCOD8075843
_publ_section_title
;
Structure prediction by ZEFSAII (Michael W. Deem and Ramdas Pophale) SiO2 
 PCOD8075843
Probable space group: P 21/M
;
_chemical_formula_sum "Si O2"
_cell_formula_units_Z 32
_cell_length_a 14.417994
_cell_length_b 8.866817
_cell_length_c 12.351087
_cell_angle_alpha 90.000000
_cell_angle_beta 89.274135
_cell_angle_gamma 90.000000
_cell_volume 1578.857426
_symmetry_space_group_name_H-M "P 21/M"
_symmetry_group_IT_number 11
_symmetry_cell_setting 'monoclinic'
loop_
_space_group_symop_operation_xyz
x,y,z
-x,1/2+y,-z
-x,-y,-z
x,1/2-y,z
loop_
_atom_site_type_symbol
_atom_site_label
_atom_site_fract_x
_atom_site_fract_y
_atom_site_fract_z
Si Si1 0.471626 0.921880 0.891570
Si Si2 0.724007 0.418501 0.026386
Si Si3 0.856054 0.075201 0.215845
Si Si4 0.215861 0.073069 0.175280
Si Si5 0.976557 0.428694 0.884508
Si Si6 0.325964 0.423013 0.384586
Si Si7 0.287384 0.076020 0.623231
Si Si8 0.493276 0.427644 0.674635
O O1 0.507069 0.750000 0.885841
O O2 0.360417 0.933367 0.888107
O O3 0.517097 0.014828 0.794313
O O4 0.500000 0.000000 0.000000
O O5 0.726719 0.250000 0.976565
O O6 0.813943 0.450167 0.097112
O O7 0.716495 0.536931 0.927561
O O8 0.876180 0.250000 0.238460
O O9 0.789611 0.016715 0.311626
O O10 0.951910 0.983114 0.209796
O O11 0.193242 0.250000 0.179968
O O12 0.264493 0.016606 0.285246
O O13 0.123597 0.977790 0.156825
O O14 0.980350 0.250000 0.896657
O O15 0.000000 0.500000 0.000000
O O16 0.352075 0.250000 0.363755
O O17 0.266894 0.442755 0.495537
O O18 0.423950 0.508227 0.400500
O O19 0.281169 0.250000 0.660046
O O20 0.391463 0.012831 0.642757
O O21 0.496563 0.250000 0.667963
#
# Coordination Sequence:
#
# PCOD8075843 Si02
#       8
#     4   4   4   4   4   4   4   4
#     4  11  22  36  53  80 119 160 200 245 299 359
#     4  10  21  36  56  82 118 157 193 242 300 356
#     4  11  22  39  63  92 121 153 197 247 299 355
#     4  11  23  39  62  90 121 159 201 247 301 361
#     4  12  24  40  64  93 124 157 195 243 300 363
#     4  10  23  42  62  87 122 163 206 253 302 352
#     4  10  22  41  63  89 123 162 206 254 300 352
#     4  11  22  36  59  89 120 159 207 253 299 356
#
# _framework density 20.26782
#
# number of rings (size 3 to 8) (size 9 to 14) (size 15 to 20)
#    0.000    1.250    2.500    3.750    0.000    5.500 
#    0.000    0.625    0.000    0.000    0.000    0.000 
#    0.000    0.000    0.000    0.000    0.000    0.000 
#
# Total GULP energy -396847.449053 kJ/mol
# GULP energy per Si atom -12401.482783 kJ/mol
# Density = 2.022169 g / cm^3
# Si number density = 20.267820 Si / 1000 Ang^3
#
#
#
# Elastic Constant Matrix: (Units=GPa)
#
#
# Indices 1 2 3 4 5 6 
#
# 1 81.2986 41.1852 32.3674 0.0000 -11.9984 0.0000
# 2 41.1852 91.3255 34.5568 0.0000 -10.0389 0.0000
# 3 32.3674 34.5568 91.9021 0.0000 -8.5279 0.0000
# 4 0.0000 0.0000 0.0000 28.1788 0.0000 -6.5120
# 5 -11.9984 -10.0389 -8.5279 0.0000 27.6896 0.0000
# 6 0.0000 0.0000 0.0000 -6.5120 0.0000 36.1163
#
#
#
# Elastic Compliance Matrix: (Units=1/GPa)
#
#
# Indices 1 2 3 4 5 6 
#
# 1 0.017372 -0.006062 -0.003443 0.000000 0.004269 0.000000
# 2 -0.006062 0.015171 -0.003400 0.000000 0.001826 0.000000
# 3 -0.003443 -0.003400 0.013505 0.000000 0.001435 0.000000
# 4 0.000000 0.000000 0.000000 0.037031 0.000000 0.006677
# 5 0.004269 0.001826 0.001435 0.000000 0.039069 0.000000
# 6 0.000000 0.000000 0.000000 0.006677 0.000000 0.028892
#
#
# Mechanical properties :
#
#
# Convention : Reuss Voigt Hill
#
# Bulk Modulus (GPa) = 49.41083 53.41611 51.41347
# Shear Modulus (GPa) = 27.23366 28.82473 28.02919
#
# Velocity S-wave (km/s) = 3.66961 3.77529 3.72283
# Velocity P-wave (km/s) = 6.51050 6.73914 6.62581
#
# Compressibility (1/GPa) = 0.02023848
#
# Stress axis : x y z
#
# Youngs Moduli (GPa) = 57.56316 65.91485 74.04532
#
# Poissons Ratio (x) = 0.39960 0.25491
# Poissons Ratio (y) = 0.34897 0.25175
# Poissons Ratio (z) = 0.19817 0.22411
#
# Static dielectric constant tensor:
#      x y z
#    x 4.015350 0.000000 -0.148060 
#    y 0.000000 3.676560 0.000000 
#    z -0.148060 0.000000 3.691180 
# 
# 
# High freq. dielectric constant tensor:
#      x y z
#    x 1.793360 0.000000 -0.009530 
#    y 0.000000 1.792750 0.000000 
#    z -0.009530 0.000000 1.787160 
# 
# From -- ./inp_files/38137.got.cif
#   From: 2010.06.25/outbox.cif.g09.slc.cpg/sg11_20_cif.got.tgz:38137.got - 2010.06.27 23:14:04.
