data_PCOD8075307
_publ_section_title
;
Structure prediction by ZEFSAII (Michael W. Deem and Ramdas Pophale) SiO2 
 PCOD8075307
Probable space group: P 21/M
;
_chemical_formula_sum "Si O2"
_cell_formula_units_Z 32
_cell_length_a 5.468900
_cell_length_b 30.984949
_cell_length_c 8.060989
_cell_angle_alpha 90.000000
_cell_angle_beta 99.937591
_cell_angle_gamma 90.000000
_cell_volume 1345.469018
_symmetry_space_group_name_H-M "P 21/M"
_symmetry_group_IT_number 11
_symmetry_cell_setting 'monoclinic'
loop_
_space_group_symop_operation_xyz
x,y,z
-x,1/2+y,-z
-x,-y,-z
x,1/2-y,z
loop_
_atom_site_type_symbol
_atom_site_label
_atom_site_fract_x
_atom_site_fract_y
_atom_site_fract_z
Si Si1 0.443894 0.032947 0.344703
Si Si2 0.687232 0.382778 0.047342
Si Si3 0.325300 0.297952 0.482060
Si Si4 0.164810 0.088962 0.889118
Si Si5 0.009694 0.659469 0.339620
Si Si6 0.599316 0.375543 0.398137
Si Si7 0.350936 0.702283 0.151855
Si Si8 0.067557 0.999365 0.702131
O O1 0.430030 0.082105 0.407983
O O2 0.500000 0.000000 0.500000
O O3 0.676772 0.027988 0.242896
O O4 0.172235 0.022186 0.232638
O O5 0.925294 0.401829 0.978741
O O6 0.610211 0.334698 0.979685
O O7 0.433650 0.412496 0.011540
O O8 0.759488 0.379907 0.248968
O O9 0.326005 0.250000 0.404284
O O10 0.439163 0.331407 0.364629
O O11 0.445575 0.299361 0.679196
O O12 0.052011 0.314945 0.497244
O O13 0.197749 0.127705 0.759596
O O14 0.113302 0.045810 0.783123
O O15 0.234926 0.627664 0.417420
O O16 0.086119 0.694119 0.209355
O O17 0.348781 0.750000 0.068326
O O18 0.000000 0.000000 0.500000
#
# Coordination Sequence:
#
# PCOD8075307 Si02
#       8
#     4   4   4   4   4   4   4   4
#     4  10  22  38  62  96 127 168 218 267 326 389
#     4  11  25  43  63  97 134 181 217 264 344 402
#     4  10  21  38  66  96 126 166 226 279 328 387
#     4  11  23  43  68  95 133 177 221 269 324 403
#     4  10  20  37  67  94 123 172 223 273 327 381
#     4  11  26  40  66  94 140 171 220 279 334 394
#     4   9  19  38  61  91 126 168 218 272 325 401
#     4  10  21  37  65  95 125 156 224 270 318 373
#
# _framework density 23.783529999999999
#
# number of rings (size 3 to 8) (size 9 to 14) (size 15 to 20)
#    0.000    1.750    1.250    2.625    7.000    1.000 
#    0.000    3.750    0.000    0.000    0.000    0.000 
#    0.000    0.000    0.000    0.000    0.000    0.000 
#
# Total GULP energy -396460.642726 kJ/mol
# GULP energy per Si atom -12389.395085 kJ/mol
# Density = 2.372940 g / cm^3
# Si number density = 23.783530 Si / 1000 Ang^3
#
#
#
# Elastic Constant Matrix: (Units=GPa)
#
#
# Indices 1 2 3 4 5 6 
#
# 1 141.3502 30.7127 4.3716 0.0000 -14.0277 0.0000
# 2 30.7127 126.7197 8.8650 0.0000 -7.5935 0.0000
# 3 4.3716 8.8650 40.6943 0.0000 -8.5395 0.0000
# 4 0.0000 0.0000 0.0000 11.9421 0.0000 -1.6034
# 5 -14.0277 -7.5935 -8.5395 0.0000 28.7899 0.0000
# 6 0.0000 0.0000 0.0000 -1.6034 0.0000 30.6442
#
#
#
# Elastic Compliance Matrix: (Units=1/GPa)
#
#
# Indices 1 2 3 4 5 6 
#
# 1 0.007775 -0.001697 0.000251 0.000000 0.003415 0.000000
# 2 -0.001697 0.008463 -0.001457 0.000000 0.000973 0.000000
# 3 0.000251 -0.001457 0.026456 0.000000 0.007585 0.000000
# 4 0.000000 0.000000 0.000000 0.084330 0.000000 0.004412
# 5 0.003415 0.000973 0.007585 0.000000 0.038905 0.000000
# 6 0.000000 0.000000 0.000000 0.004412 0.000000 0.032863
#
#
# Mechanical properties :
#
#
# Convention : Reuss Voigt Hill
#
# Bulk Modulus (GPa) = 27.10993 44.07363 35.59178
# Shear Modulus (GPa) = 23.05280 31.92957 27.49118
#
# Velocity S-wave (km/s) = 3.11670 3.66800 3.40353
# Velocity P-wave (km/s) = 4.93711 6.04238 5.51749
#
# Compressibility (1/GPa) = 0.03688685
#
# Stress axis : x y z
#
# Youngs Moduli (GPa) = 128.62506 118.16103 37.79912
#
# Poissons Ratio (x) = 0.20055 -0.00949
# Poissons Ratio (y) = 0.21831 0.05508
# Poissons Ratio (z) = -0.03231 0.17217
#
# Static dielectric constant tensor:
#      x y z
#    x 4.844850 0.000000 -0.105620 
#    y 0.000000 4.420080 0.000000 
#    z -0.105620 0.000000 3.845030 
# 
# 
# High freq. dielectric constant tensor:
#      x y z
#    x 1.950760 0.000000 -0.007410 
#    y 0.000000 1.956250 0.000000 
#    z -0.007410 0.000000 1.908510 
# 
# From -- ./inp_files/10839.got.cif
#   From: 2010.06.25/outbox.cif.g09.slc.cpg/sg11_6_cif.got.tgz:10839.got - 2010.06.27 23:14:04.
