data_PCOD8075705
_publ_section_title
;
Structure prediction by ZEFSAII (Michael W. Deem and Ramdas Pophale) SiO2 
 PCOD8075705
Probable space group: P 21/M
;
_chemical_formula_sum "Si O2"
_cell_formula_units_Z 32
_cell_length_a 20.461835
_cell_length_b 9.349350
_cell_length_c 26.016936
_cell_angle_alpha 90.000000
_cell_angle_beta 159.132346
_cell_angle_gamma 90.000000
_cell_volume 1772.919082
_symmetry_space_group_name_H-M "P 21/M"
_symmetry_group_IT_number 11
_symmetry_cell_setting 'monoclinic'
loop_
_space_group_symop_operation_xyz
x,y,z
-x,1/2+y,-z
-x,-y,-z
x,1/2-y,z
loop_
_atom_site_type_symbol
_atom_site_label
_atom_site_fract_x
_atom_site_fract_y
_atom_site_fract_z
Si Si1 0.398062 0.917912 0.829044
Si Si2 0.812886 0.915324 0.148043
Si Si3 0.905628 0.088188 0.311599
Si Si4 0.271943 0.914671 0.208166
Si Si5 0.589003 0.580696 0.517654
Si Si6 0.080726 0.084596 0.986409
Si Si7 0.037025 0.583257 0.211975
Si Si8 0.155052 0.085100 0.584364
O O1 0.382418 0.750000 0.804881
O O2 0.262617 0.963101 0.775785
O O3 0.345656 0.006706 0.738789
O O4 0.601983 0.964432 0.993906
O O5 0.829989 0.750000 0.173318
O O6 0.899455 0.952089 0.156859
O O7 0.922576 0.995328 0.273130
O O8 0.867720 0.250000 0.266877
O O9 0.101806 0.075362 0.485015
O O10 0.254863 0.750000 0.180888
O O11 0.467233 0.948863 0.377458
O O12 0.114916 0.959653 0.133307
O O13 0.246100 0.001155 0.136093
O O14 0.500000 0.500000 0.500000
O O15 0.599174 0.750000 0.537059
O O16 0.787867 0.517278 0.652463
O O17 0.122710 0.250000 0.025333
O O18 0.072586 0.044038 0.920467
O O19 0.098294 0.750000 0.255911
O O20 0.160054 0.250000 0.606024
O O21 0.000000 0.000000 0.500000
#
# Coordination Sequence:
#
# PCOD8075705 Si02
#       8
#     4   4   4   4   4   4   4   4
#     4   9  18  33  52  78 106 137 176 221 266 312
#     4  10  21  35  53  75 104 141 178 216 263 315
#     4   9  18  32  51  76 108 137 173 220 264 310
#     4   9  18  32  51  78 104 128 164 208 252 298
#     4  11  21  35  56  81 107 137 171 212 258 309
#     4   9  17  32  52  74 103 133 162 206 255 300
#     4  10  21  38  54  75 107 139 175 219 263 312
#     4   9  17  30  50  77 104 134 169 216 266 310
#
# _framework density 18.049329
#
# number of rings (size 3 to 8) (size 9 to 14) (size 15 to 20)
#    0.000    2.500    1.250    1.875    0.000    5.000 
#    0.000    1.250    0.000    4.500    0.000    0.000 
#    0.000    0.000    0.000    0.000    0.000    0.000 
#
# Total GULP energy -396744.670670 kJ/mol
# GULP energy per Si atom -12398.270958 kJ/mol
# Density = 1.800825 g / cm^3
# Si number density = 18.049329 Si / 1000 Ang^3
#
#
#
# Elastic Constant Matrix: (Units=GPa)
#
#
# Indices 1 2 3 4 5 6 
#
# 1 97.2234 47.1785 47.1098 0.0000 -24.5531 0.0000
# 2 47.1785 79.1151 51.6151 0.0000 -20.4599 0.0000
# 3 47.1098 51.6151 76.3494 0.0000 -30.0484 0.0000
# 4 0.0000 0.0000 0.0000 35.0931 0.0000 -8.0154
# 5 -24.5531 -20.4599 -30.0484 0.0000 26.2101 0.0000
# 6 0.0000 0.0000 0.0000 -8.0154 0.0000 27.2982
#
#
#
# Elastic Compliance Matrix: (Units=1/GPa)
#
#
# Indices 1 2 3 4 5 6 
#
# 1 0.016565 -0.005720 -0.003652 0.000000 0.006866 0.000000
# 2 -0.005720 0.024589 -0.013937 0.000000 -0.002141 0.000000
# 3 -0.003652 -0.013937 0.034885 0.000000 0.025693 0.000000
# 4 0.000000 0.000000 0.000000 0.030544 0.000000 0.008968
# 5 0.006866 -0.002141 0.025693 0.000000 0.072369 0.000000
# 6 0.000000 0.000000 0.000000 0.008968 0.000000 0.039266
#
#
# Mechanical properties :
#
#
# Convention : Reuss Voigt Hill
#
# Bulk Modulus (GPa) = 33.98857 60.49941 47.24399
# Shear Modulus (GPa) = 18.20553 24.83925 21.52239
#
# Velocity S-wave (km/s) = 3.17938 3.71372 3.45689
# Velocity P-wave (km/s) = 5.68768 7.20976 6.49347
#
# Compressibility (1/GPa) = 0.02942166
#
# Stress axis : x y z
#
# Youngs Moduli (GPa) = 60.36961 40.66794 28.66589
#
# Poissons Ratio (x) = 0.23262 0.10469
# Poissons Ratio (y) = 0.34531 0.39951
# Poissons Ratio (z) = 0.22046 0.56678
#
# Static dielectric constant tensor:
#      x y z
#    x 3.168100 0.000000 -0.248290 
#    y 0.000000 3.471490 0.000000 
#    z -0.248290 0.000000 3.661730 
# 
# 
# High freq. dielectric constant tensor:
#      x y z
#    x 1.674720 0.000000 -0.023140 
#    y 0.000000 1.701100 0.000000 
#    z -0.023140 0.000000 1.699510 
# 
# From -- ./inp_files/67188.got.cif
#   From: 2010.06.25/outbox.cif.g09.slc.cpg/sg11_34_cif.got.tgz:67188.got - 2010.06.27 23:14:04.
