data_PCOD8075274
_publ_section_title
;
Structure prediction by ZEFSAII (Michael W. Deem and Ramdas Pophale) SiO2 
 PCOD8075274
Probable space group: P 21/M
;
_chemical_formula_sum "Si O2"
_cell_formula_units_Z 32
_cell_length_a 19.682257
_cell_length_b 9.105044
_cell_length_c 25.172820
_cell_angle_alpha 90.000000
_cell_angle_beta 158.486369
_cell_angle_gamma 90.000000
_cell_volume 1654.346416
_symmetry_space_group_name_H-M "P 21/M"
_symmetry_group_IT_number 11
_symmetry_cell_setting 'monoclinic'
loop_
_space_group_symop_operation_xyz
x,y,z
-x,1/2+y,-z
-x,-y,-z
x,1/2-y,z
loop_
_atom_site_type_symbol
_atom_site_label
_atom_site_fract_x
_atom_site_fract_y
_atom_site_fract_z
Si Si1 0.585262 0.582315 0.012789
Si Si2 0.094368 0.421770 0.519033
Si Si3 0.832862 0.579621 0.629968
Si Si4 0.536274 0.081624 0.579862
Si Si5 0.003149 0.918754 0.345764
Si Si6 0.054841 0.576384 0.093775
Si Si7 0.110238 0.578288 0.925545
Si Si8 0.493004 0.918527 0.150299
O O1 0.521806 0.750000 0.969686
O O2 0.804915 0.565218 0.174012
O O3 0.500000 0.500000 0.000000
O O4 0.506008 0.516804 0.901145
O O5 0.045902 0.250000 0.485840
O O6 0.007705 0.490797 0.403311
O O7 0.315838 0.447140 0.679537
O O8 0.000000 0.500000 0.500000
O O9 0.867614 0.750000 0.641746
O O10 0.622964 0.546783 0.493730
O O11 0.853763 0.485172 0.592111
O O12 0.973821 0.529097 0.778772
O O13 0.536607 0.250000 0.564391
O O14 0.731477 0.032205 0.745059
O O15 0.500000 0.000000 0.500000
O O16 0.052850 0.750000 0.394165
O O17 0.023335 0.750000 0.067421
O O18 0.935121 0.514570 0.055357
O O19 0.000000 0.500000 0.000000
O O20 0.083334 0.750000 0.918737
O O21 0.321750 0.540801 0.063914
O O22 0.476261 0.750000 0.119524
#
# Coordination Sequence:
#
# PCOD8075274 Si02
#       8
#     4   4   4   4   4   4   4   4
#     4  11  23  37  58  87 118 152 194 243 291 348
#     4  11  24  42  63  87 120 159 199 244 298 356
#     4  10  20  37  63  90 118 156 199 245 299 354
#     4  10  21  37  60  89 118 155 201 247 295 351
#     4  11  24  40  59  88 122 155 196 245 294 349
#     4  11  24  40  60  88 125 162 200 246 295 350
#     4  10  20  38  64  89 119 156 196 245 300 356
#     4  10  22  40  62  88 117 154 197 243 297 355
#
# _framework density 19.342987000000001
#
# number of rings (size 3 to 8) (size 9 to 14) (size 15 to 20)
#    0.000    1.500    2.500    2.250    0.000    8.500 
#    0.000    5.000    0.000    0.000    0.000    0.000 
#    0.000    0.000    0.000    0.000    0.000    0.000 
#
# Total GULP energy -396944.873780 kJ/mol
# GULP energy per Si atom -12404.527306 kJ/mol
# Density = 1.929896 g / cm^3
# Si number density = 19.342987 Si / 1000 Ang^3
#
#
#
# Elastic Constant Matrix: (Units=GPa)
#
#
# Indices 1 2 3 4 5 6 
#
# 1 120.9129 58.3846 32.7078 0.0000 -4.9991 0.0000
# 2 58.3846 97.0530 34.9829 0.0000 -4.7084 0.0000
# 3 32.7078 34.9829 69.4149 0.0000 9.3512 0.0000
# 4 0.0000 0.0000 0.0000 29.8410 0.0000 -1.9751
# 5 -4.9991 -4.7084 9.3512 0.0000 33.9074 0.0000
# 6 0.0000 0.0000 0.0000 -1.9751 0.0000 44.4359
#
#
#
# Elastic Compliance Matrix: (Units=1/GPa)
#
#
# Indices 1 2 3 4 5 6 
#
# 1 0.012081 -0.006172 -0.002811 0.000000 0.001699 0.000000
# 2 -0.006172 0.016190 -0.005641 0.000000 0.002894 0.000000
# 3 -0.002811 -0.005641 0.019458 0.000000 -0.006564 0.000000
# 4 0.000000 0.000000 0.000000 0.033610 0.000000 0.001494
# 5 0.001699 0.002894 -0.006564 0.000000 0.031955 0.000000
# 6 0.000000 0.000000 0.000000 0.001494 0.000000 0.022571
#
#
# Mechanical properties :
#
#
# Convention : Reuss Voigt Hill
#
# Bulk Modulus (GPa) = 54.10911 59.94795 57.02853
# Shear Modulus (GPa) = 29.19305 32.39058 30.79181
#
# Velocity S-wave (km/s) = 3.88910 4.09655 3.99417
# Velocity P-wave (km/s) = 6.94269 7.30993 7.12868
#
# Compressibility (1/GPa) = 0.01848118
#
# Stress axis : x y z
#
# Youngs Moduli (GPa) = 82.77178 61.76503 51.39328
#
# Poissons Ratio (x) = 0.38123 0.14447
# Poissons Ratio (y) = 0.51088 0.28991
# Poissons Ratio (z) = 0.23267 0.34842
#
# Static dielectric constant tensor:
#      x y z
#    x 5.620130 0.000000 -1.144130 
#    y 0.000000 3.598710 0.000000 
#    z -1.144130 0.000000 5.074640 
# 
# 
# High freq. dielectric constant tensor:
#      x y z
#    x 1.760410 0.000000 0.007210 
#    y 0.000000 1.758190 0.000000 
#    z 0.007210 0.000000 1.760360 
# 
# From -- ./inp_files/72202.got.cif
#   From: 2010.06.25/outbox.cif.g09.slc.cpg/sg11_37_cif.got.tgz:72202.got - 2010.06.27 23:14:04.
