data_PCOD8075348
_publ_section_title
;
Structure prediction by ZEFSAII (Michael W. Deem and Ramdas Pophale) SiO2 
 PCOD8075348
Probable space group: P 21/M
;
_chemical_formula_sum "Si O2"
_cell_formula_units_Z 32
_cell_length_a 15.297836
_cell_length_b 8.996050
_cell_length_c 24.261337
_cell_angle_alpha 90.000000
_cell_angle_beta 150.883636
_cell_angle_gamma 90.000000
_cell_volume 1624.632858
_symmetry_space_group_name_H-M "P 21/M"
_symmetry_group_IT_number 11
_symmetry_cell_setting 'monoclinic'
loop_
_space_group_symop_operation_xyz
x,y,z
-x,1/2+y,-z
-x,-y,-z
x,1/2-y,z
loop_
_atom_site_type_symbol
_atom_site_label
_atom_site_fract_x
_atom_site_fract_y
_atom_site_fract_z
Si Si1 0.006732 0.090619 0.058178
Si Si2 0.337942 0.576347 0.381281
Si Si3 0.300700 0.427572 0.598997
Si Si4 0.404239 0.413375 0.309332
Si Si5 0.370880 0.424494 0.761855
Si Si6 0.031301 0.074652 0.645079
Si Si7 0.962139 0.925417 0.223300
Si Si8 0.244945 0.573044 0.984343
O O1 0.909607 0.250000 0.995348
O O2 0.905884 0.016195 0.054887
O O3 0.214312 0.119888 0.179328
O O4 0.000000 0.000000 0.000000
O O5 0.500000 0.500000 0.500000
O O6 0.350423 0.750000 0.397133
O O7 0.365135 0.534716 0.333634
O O8 0.150303 0.516283 0.302050
O O9 0.315566 0.250000 0.600866
O O10 0.466827 0.509710 0.662995
O O11 0.309101 0.479956 0.667385
O O12 0.119793 0.482702 0.470207
O O13 0.482502 0.250000 0.371877
O O14 0.392420 0.250000 0.771035
O O15 0.220688 0.472004 0.722996
O O16 0.562710 0.488648 0.888111
O O17 0.991596 0.250000 0.616642
O O18 0.041166 0.027592 0.714479
O O19 0.939517 0.750000 0.204290
O O20 0.800747 0.002460 0.100451
O O21 0.242584 0.750000 0.975617
#
# Coordination Sequence:
#
# PCOD8075348 Si02
#       8
#     4   4   4   4   4   4   4   4
#     4  10  21  35  55  82 114 152 192 237 287 346
#     4  11  22  36  56  83 117 156 196 243 294 349
#     4  11  22  38  61  90 120 153 197 250 303 362
#     4  11  22  37  56  83 115 153 194 234 290 353
#     4   9  20  38  62  88 118 156 197 245 305 358
#     4  10  21  40  62  86 119 158 197 246 303 359
#     4  10  22  38  57  84 119 156 196 245 297 347
#     4  10  20  38  60  84 117 158 200 243 291 353
#
# _framework density 19.696757999999999
#
# number of rings (size 3 to 8) (size 9 to 14) (size 15 to 20)
#    0.000    1.750    1.250    3.000    0.000    5.000 
#    0.000    2.500    0.000    0.000    0.000    0.000 
#    0.000    0.000    0.000    0.000    0.000    0.000 
#
# Total GULP energy -396641.901883 kJ/mol
# GULP energy per Si atom -12395.059434 kJ/mol
# Density = 1.965193 g / cm^3
# Si number density = 19.696758 Si / 1000 Ang^3
#
#
#
# Elastic Constant Matrix: (Units=GPa)
#
#
# Indices 1 2 3 4 5 6 
#
# 1 151.9195 36.5500 75.0259 0.0000 -1.5916 0.0000
# 2 36.5500 58.1830 45.9023 0.0000 -0.3599 0.0000
# 3 75.0259 45.9023 150.8130 0.0000 -6.5631 0.0000
# 4 0.0000 0.0000 0.0000 33.6547 0.0000 0.4076
# 5 -1.5916 -0.3599 -6.5631 0.0000 39.4745 0.0000
# 6 0.0000 0.0000 0.0000 0.4076 0.0000 31.6470
#
#
#
# Elastic Compliance Matrix: (Units=1/GPa)
#
#
# Indices 1 2 3 4 5 6 
#
# 1 0.009066 -0.002802 -0.003669 0.000000 -0.000270 0.000000
# 2 -0.002802 0.023520 -0.005802 0.000000 -0.000863 0.000000
# 3 -0.003669 -0.005802 0.010288 0.000000 0.001510 0.000000
# 4 0.000000 0.000000 0.000000 0.029718 0.000000 -0.000383
# 5 -0.000270 -0.000863 0.001510 0.000000 0.025565 0.000000
# 6 0.000000 0.000000 0.000000 -0.000383 0.000000 0.031603
#
#
# Mechanical properties :
#
#
# Convention : Reuss Voigt Hill
#
# Bulk Modulus (GPa) = 54.56563 75.09690 64.83127
# Shear Modulus (GPa) = 31.16927 34.51772 32.84349
#
# Velocity S-wave (km/s) = 3.98233 4.19078 4.08788
# Velocity P-wave (km/s) = 6.99344 7.85023 7.43419
#
# Compressibility (1/GPa) = 0.01832655
#
# Stress axis : x y z
#
# Youngs Moduli (GPa) = 110.30680 42.51779 97.20518
#
# Poissons Ratio (x) = 0.11914 0.35663
# Poissons Ratio (y) = 0.30910 0.56399
# Poissons Ratio (z) = 0.40469 0.24669
#
# Static dielectric constant tensor:
#      x y z
#    x 3.739660 0.000000 0.277980 
#    y 0.000000 3.205150 0.000000 
#    z 0.277980 0.000000 4.405070 
# 
# 
# High freq. dielectric constant tensor:
#      x y z
#    x 1.777270 0.000000 -0.000070 
#    y 0.000000 1.754540 0.000000 
#    z -0.000070 0.000000 1.776910 
# 
# From -- ./inp_files/69154.got.cif
#   From: 2010.06.25/outbox.cif.g09.slc.cpg/sg11_35_cif.got.tgz:69154.got - 2010.06.27 23:14:04.
