data_PCOD8075448
_publ_section_title
;
Structure prediction by ZEFSAII (Michael W. Deem and Ramdas Pophale) SiO2 
 PCOD8075448
Probable space group: P 21/M
;
_chemical_formula_sum "Si O2"
_cell_formula_units_Z 28
_cell_length_a 9.412428
_cell_length_b 13.128844
_cell_length_c 22.834718
_cell_angle_alpha 90.000000
_cell_angle_beta 28.505992
_cell_angle_gamma 90.000000
_cell_volume 1346.698416
_symmetry_space_group_name_H-M "P 21/M"
_symmetry_group_IT_number 11
_symmetry_cell_setting 'monoclinic'
loop_
_space_group_symop_operation_xyz
x,y,z
-x,1/2+y,-z
-x,-y,-z
x,1/2-y,z
loop_
_atom_site_type_symbol
_atom_site_label
_atom_site_fract_x
_atom_site_fract_y
_atom_site_fract_z
Si Si1 0.002959 0.471893 0.066967
Si Si2 0.988222 0.506079 0.644412
Si Si3 0.395745 0.866752 0.137620
Si Si4 0.943908 0.633165 0.769842
Si Si5 0.702972 0.130120 0.958440
Si Si6 0.620807 0.633573 0.688961
Si Si7 0.572478 0.636517 0.576448
O O1 0.057994 0.572337 0.087387
O O2 0.693863 0.420548 0.193130
O O3 0.254609 0.389892 0.991868
O O4 0.000000 0.500000 0.000000
O O5 0.744514 0.429368 0.758497
O O6 0.069205 0.586548 0.664636
O O7 0.862709 0.568609 0.635560
O O8 0.282454 0.445467 0.519191
O O9 0.352330 0.750000 0.169415
O O10 0.239710 0.890355 0.131275
O O11 0.876382 0.750000 0.783028
O O12 0.217825 0.615336 0.715382
O O13 0.630055 0.585991 0.905587
O O14 0.729085 0.250000 0.962654
O O15 0.601800 0.750000 0.719517
O O16 0.729541 0.632478 0.582507
O O17 0.611066 0.750000 0.535127
#
# Coordination Sequence:
#
# PCOD8075448 Si02
#       7
#     4   4   4   4   4   4   4
#     4  12  22  39  62  93 124 160 201 251 304 362
#     4  12  22  39  61  91 121 159 201 255 306 359
#     4  11  23  38  59  88 127 164 199 250 310 363
#     4  10  20  38  63  89 117 155 206 253 295 357
#     4  10  22  40  63  92 126 164 205 248 299 368
#     4  11  24  42  63  88 120 162 210 250 296 362
#     4  10  23  41  62  87 117 158 206 252 302 359
#
# _framework density 20.791588000000001
#
# number of rings (size 3 to 8) (size 9 to 14) (size 15 to 20)
#    0.000    1.143    2.857    3.429    2.000    4.571 
#    0.000    0.000    0.000    0.857    0.000    0.000 
#    0.000    0.000    0.000    0.000    0.000    0.000 
#
# Total GULP energy -347173.870315 kJ/mol
# GULP energy per Si atom -12399.066797 kJ/mol
# Density = 2.074427 g / cm^3
# Si number density = 20.791588 Si / 1000 Ang^3
#
#
#
# Elastic Constant Matrix: (Units=GPa)
#
#
# Indices 1 2 3 4 5 6 
#
# 1 71.7346 10.7398 -14.4062 0.0000 1.2080 0.0000
# 2 10.7398 59.3292 5.6697 0.0000 -10.0302 0.0000
# 3 -14.4062 5.6697 53.4103 0.0000 -5.0102 0.0000
# 4 0.0000 0.0000 0.0000 27.3432 0.0000 4.3795
# 5 1.2080 -10.0302 -5.0102 0.0000 27.8961 0.0000
# 6 0.0000 0.0000 0.0000 4.3795 0.0000 35.9217
#
#
#
# Elastic Compliance Matrix: (Units=1/GPa)
#
#
# Indices 1 2 3 4 5 6 
#
# 1 0.015348 -0.003383 0.004397 0.000000 -0.001091 0.000000
# 2 -0.003383 0.018784 -0.002298 0.000000 0.006488 0.000000
# 3 0.004397 -0.002298 0.020401 0.000000 0.002647 0.000000
# 4 0.000000 0.000000 0.000000 0.037300 0.000000 -0.004548
# 5 -0.001091 0.006488 0.002647 0.000000 0.038703 0.000000
# 6 0.000000 0.000000 0.000000 -0.004548 0.000000 0.028393
#
#
# Mechanical properties :
#
#
# Convention : Reuss Voigt Hill
#
# Bulk Modulus (GPa) = 19.24393 20.94230 20.09312
# Shear Modulus (GPa) = 27.96121 30.39692 29.17907
#
# Velocity S-wave (km/s) = 3.67117 3.82774 3.75027
# Velocity P-wave (km/s) = 5.21975 5.44332 5.33271
#
# Compressibility (1/GPa) = 0.05196444
#
# Stress axis : x y z
#
# Youngs Moduli (GPa) = 65.15474 53.23714 49.01691
#
# Poissons Ratio (x) = 0.18010 -0.21550
# Poissons Ratio (y) = 0.22042 0.11263
# Poissons Ratio (z) = -0.28645 0.12233
#
# Static dielectric constant tensor:
#      x y z
#    x 4.116970 0.000000 0.129380 
#    y 0.000000 3.971310 0.000000 
#    z 0.129380 0.000000 3.529210 
# 
# 
# High freq. dielectric constant tensor:
#      x y z
#    x 1.819650 0.000000 0.007660 
#    y 0.000000 1.832710 0.000000 
#    z 0.007660 0.000000 1.795050 
# 
# From -- ./inp_files/22112.got.cif
#   From: 2010.06.25/outbox.cif.g09.slc.cpg/sg11_12_cif.got.tgz:22112.got - 2010.06.27 23:14:04.
