data_PCOD8075139
_publ_section_title
;
Structure prediction by ZEFSAII (Michael W. Deem and Ramdas Pophale) SiO2 
 PCOD8075139
Probable space group: P 21/M
;
_chemical_formula_sum "Si O2"
_cell_formula_units_Z 32
_cell_length_a 15.425614
_cell_length_b 8.896954
_cell_length_c 26.080540
_cell_angle_alpha 90.000000
_cell_angle_beta 27.334414
_cell_angle_gamma 90.000000
_cell_volume 1643.563101
_symmetry_space_group_name_H-M "P 21/M"
_symmetry_group_IT_number 11
_symmetry_cell_setting 'monoclinic'
loop_
_space_group_symop_operation_xyz
x,y,z
-x,1/2+y,-z
-x,-y,-z
x,1/2-y,z
loop_
_atom_site_type_symbol
_atom_site_label
_atom_site_fract_x
_atom_site_fract_y
_atom_site_fract_z
Si Si1 0.542501 0.575705 0.241401
Si Si2 0.273606 0.575792 0.762774
Si Si3 0.159038 0.078179 0.002033
Si Si4 0.332927 0.573097 0.006674
Si Si5 0.064084 0.426914 0.227112
Si Si6 0.679500 0.427594 0.379502
Si Si7 0.183618 0.071348 0.379567
Si Si8 0.749102 0.572907 0.769127
O O1 0.485413 0.750000 0.272150
O O2 0.588364 0.522987 0.274799
O O3 0.725457 0.545217 0.110258
O O4 0.368230 0.479846 0.312754
O O5 0.327015 0.750000 0.741115
O O6 0.303183 0.523020 0.688690
O O7 0.060139 0.545757 0.893123
O O8 0.187163 0.250000 0.005964
O O9 0.226728 0.966483 0.010243
O O10 0.328189 0.750000 0.016914
O O11 0.235080 0.498052 0.106362
O O12 0.545373 0.508021 0.892421
O O13 0.075080 0.250000 0.212506
O O14 0.092887 0.470651 0.271727
O O15 0.863413 0.488846 0.313044
O O16 0.500000 0.500000 0.500000
O O17 0.663905 0.250000 0.392778
O O18 0.169482 0.250000 0.389271
O O19 0.192274 0.008366 0.316868
O O20 0.000000 0.000000 0.500000
O O21 0.728313 0.750000 0.775119
#
# Coordination Sequence:
#
# PCOD8075139 Si02
#       8
#     4   4   4   4   4   4   4   4
#     4  11  23  38  61  92 118 154 199 242 296 354
#     4  10  21  39  60  86 120 158 194 240 299 352
#     4  10  20  37  60  86 120 157 193 234 293 361
#     4  11  20  33  57  91 121 151 188 235 292 349
#     4  10  20  39  61  83 115 156 192 234 291 353
#     4  10  22  39  60  83 113 154 198 242 294 345
#     4  11  23  42  62  86 120 158 200 249 294 347
#     4   9  20  37  60  87 118 153 190 234 294 350
#
# _framework density 19.469895000000001
#
# number of rings (size 3 to 8) (size 9 to 14) (size 15 to 20)
#    0.000    1.750    2.500    1.875    0.000    3.000 
#    0.000    3.125    0.000    0.000    0.000    0.000 
#    0.000    0.000    0.000    0.000    0.000    0.000 
#
# Total GULP energy -396883.646714 kJ/mol
# GULP energy per Si atom -12402.613960 kJ/mol
# Density = 1.942558 g / cm^3
# Si number density = 19.469895 Si / 1000 Ang^3
#
#
#
# Elastic Constant Matrix: (Units=GPa)
#
#
# Indices 1 2 3 4 5 6 
#
# 1 157.6141 41.2866 75.6002 0.0000 4.4561 0.0000
# 2 41.2866 49.1787 39.7501 0.0000 -0.1831 0.0000
# 3 75.6002 39.7501 157.5963 0.0000 -1.2127 0.0000
# 4 0.0000 0.0000 0.0000 32.9350 0.0000 0.3243
# 5 4.4561 -0.1831 -1.2127 0.0000 13.3951 0.0000
# 6 0.0000 0.0000 0.0000 0.3243 0.0000 24.7291
#
#
#
# Elastic Compliance Matrix: (Units=1/GPa)
#
#
# Indices 1 2 3 4 5 6 
#
# 1 0.009355 -0.005298 -0.003178 0.000000 -0.003472 0.000000
# 2 -0.005298 0.028542 -0.004644 0.000000 0.001732 0.000000
# 3 -0.003178 -0.004644 0.009055 0.000000 0.001814 0.000000
# 4 0.000000 0.000000 0.000000 0.030367 0.000000 -0.000398
# 5 -0.003472 0.001732 0.001814 0.000000 0.075997 0.000000
# 6 0.000000 0.000000 0.000000 -0.000398 0.000000 0.040443
#
#
# Mechanical properties :
#
#
# Convention : Reuss Voigt Hill
#
# Bulk Modulus (GPa) = 48.28190 75.29590 61.78890
# Shear Modulus (GPa) = 22.03575 28.06199 25.04887
#
# Velocity S-wave (km/s) = 3.36785 3.80057 3.59073
# Velocity P-wave (km/s) = 6.32260 7.61682 6.99969
#
# Compressibility (1/GPa) = 0.02071170
#
# Stress axis : x y z
#
# Youngs Moduli (GPa) = 106.89584 35.03607 110.43296
#
# Poissons Ratio (x) = 0.18561 0.35097
# Poissons Ratio (y) = 0.56631 0.51289
# Poissons Ratio (z) = 0.33972 0.16272
#
# Static dielectric constant tensor:
#      x y z
#    x 3.776280 0.000000 0.100550 
#    y 0.000000 3.392580 0.000000 
#    z 0.100550 0.000000 3.588720 
# 
# 
# High freq. dielectric constant tensor:
#      x y z
#    x 1.770730 0.000000 0.001360 
#    y 0.000000 1.743760 0.000000 
#    z 0.001360 0.000000 1.760380 
# 
# From -- ./inp_files/51659.got.cif
#   From: 2010.06.25/outbox.cif.g09.slc.cpg/sg11_26_cif.got.tgz:51659.got - 2010.06.27 23:14:04.
