data_PCOD8075271
_publ_section_title
;
Structure prediction by ZEFSAII (Michael W. Deem and Ramdas Pophale) SiO2 
 PCOD8075271
Probable space group: P 21/M
;
_chemical_formula_sum "Si O2"
_cell_formula_units_Z 32
_cell_length_a 16.692949
_cell_length_b 14.602348
_cell_length_c 11.081553
_cell_angle_alpha 90.000000
_cell_angle_beta 32.086326
_cell_angle_gamma 90.000000
_cell_volume 1434.866534
_symmetry_space_group_name_H-M "P 21/M"
_symmetry_group_IT_number 11
_symmetry_cell_setting 'monoclinic'
loop_
_space_group_symop_operation_xyz
x,y,z
-x,1/2+y,-z
-x,-y,-z
x,1/2-y,z
loop_
_atom_site_type_symbol
_atom_site_label
_atom_site_fract_x
_atom_site_fract_y
_atom_site_fract_z
Si Si1 0.005545 0.649007 0.719679
Si Si2 0.414339 0.470282 0.881383
Si Si3 0.889943 0.584404 0.625413
Si Si4 0.750089 0.034507 0.477722
Si Si5 0.890956 0.853303 0.356575
Si Si6 0.309435 0.355293 0.793045
Si Si7 0.196623 0.854131 0.827707
Si Si8 0.450310 0.646424 0.698358
O O1 0.068007 0.750000 0.670308
O O2 0.931612 0.652021 0.681414
O O3 0.142006 0.577003 0.556218
O O4 0.869602 0.622454 0.985817
O O5 0.576559 0.441379 0.728896
O O6 0.392280 0.418363 0.784068
O O7 0.414628 0.579101 0.854121
O O8 0.284849 0.447331 0.142800
O O9 0.913306 0.636781 0.471276
O O10 0.000000 0.500000 0.500000
O O11 0.801331 0.075494 0.285034
O O12 0.769892 0.924549 0.457340
O O13 0.835119 0.750000 0.399128
O O14 0.050976 0.874538 0.093325
O O15 0.335121 0.250000 0.799774
O O16 0.381533 0.372630 0.569010
O O17 0.196067 0.750000 0.778840
O O18 0.340123 0.872478 0.727227
O O19 0.431837 0.750000 0.770415
#
# Coordination Sequence:
#
# PCOD8075271 Si02
#       8
#     4   4   4   4   4   4   4   4
#     4  10  22  40  66  98 128 170 221 270 324 387
#     4  11  24  38  68  95 130 168 221 268 330 382
#     4  11  22  46  72  90 122 173 230 275 313 381
#     4  12  24  40  66  99 138 168 206 272 337 392
#     4  11  25  44  65  93 133 178 220 262 322 391
#     4   9  19  36  61  91 128 170 216 261 317 387
#     4  10  22  40  66  99 132 169 214 270 331 389
#     4  10  20  37  62  95 133 172 218 270 322 387
#
# _framework density 22.301727
#
# number of rings (size 3 to 8) (size 9 to 14) (size 15 to 20)
#    0.000    1.500    2.500    2.250    1.750    3.000 
#    0.000    3.125    0.000    0.000    0.000    0.000 
#    0.000    0.000    0.000    0.000    0.000    0.000 
#
# Total GULP energy -396867.432400 kJ/mol
# GULP energy per Si atom -12402.107263 kJ/mol
# Density = 2.225097 g / cm^3
# Si number density = 22.301727 Si / 1000 Ang^3
#
#
#
# Elastic Constant Matrix: (Units=GPa)
#
#
# Indices 1 2 3 4 5 6 
#
# 1 71.1529 35.9717 45.9116 0.0000 -7.9156 0.0000
# 2 35.9717 105.1340 39.3964 0.0000 -17.0898 0.0000
# 3 45.9116 39.3964 124.9856 0.0000 -18.1885 0.0000
# 4 0.0000 0.0000 0.0000 25.9594 0.0000 -0.6839
# 5 -7.9156 -17.0898 -18.1885 0.0000 33.6241 0.0000
# 6 0.0000 0.0000 0.0000 -0.6839 0.0000 26.9647
#
#
#
# Elastic Compliance Matrix: (Units=1/GPa)
#
#
# Indices 1 2 3 4 5 6 
#
# 1 0.020310 -0.004827 -0.006079 0.000000 -0.000961 0.000000
# 2 -0.004827 0.012440 -0.001512 0.000000 0.004368 0.000000
# 3 -0.006079 -0.001512 0.011278 0.000000 0.003901 0.000000
# 4 0.000000 0.000000 0.000000 0.038547 0.000000 0.000978
# 5 -0.000961 0.004368 0.003901 0.000000 0.033845 0.000000
# 6 0.000000 0.000000 0.000000 0.000978 0.000000 0.037110
#
#
# Mechanical properties :
#
#
# Convention : Reuss Voigt Hill
#
# Bulk Modulus (GPa) = 52.10581 60.42579 56.26580
# Shear Modulus (GPa) = 27.06130 29.30917 28.18524
#
# Velocity S-wave (km/s) = 3.48719 3.62914 3.55887
# Velocity P-wave (km/s) = 6.29514 6.68688 6.49396
#
# Compressibility (1/GPa) = 0.01919172
#
# Stress axis : x y z
#
# Youngs Moduli (GPa) = 49.23613 80.38491 88.66605
#
# Poissons Ratio (x) = 0.38805 0.53899
# Poissons Ratio (y) = 0.23768 0.13408
# Poissons Ratio (z) = 0.29930 0.12156
#
# Static dielectric constant tensor:
#      x y z
#    x 3.893840 0.000000 -0.111740 
#    y 0.000000 4.208770 0.000000 
#    z -0.111740 0.000000 4.130750 
# 
# 
# High freq. dielectric constant tensor:
#      x y z
#    x 1.861580 0.000000 -0.012250 
#    y 0.000000 1.888870 0.000000 
#    z -0.012250 0.000000 1.878800 
# 
# From -- ./inp_files/41620.got.cif
#   From: 2010.06.25/outbox.cif.g09.slc.cpg/sg11_21_cif.got.tgz:41620.got - 2010.06.27 23:14:04.
