data_PCOD8075986
_publ_section_title
;
Structure prediction by ZEFSAII (Michael W. Deem and Ramdas Pophale) SiO2 
 PCOD8075986
Probable space group: P 21/M
;
_chemical_formula_sum "Si O2"
_cell_formula_units_Z 32
_cell_length_a 11.859626
_cell_length_b 9.230456
_cell_length_c 28.603526
_cell_angle_alpha 90.000000
_cell_angle_beta 30.883440
_cell_angle_gamma 90.000000
_cell_volume 1607.234538
_symmetry_space_group_name_H-M "P 21/M"
_symmetry_group_IT_number 11
_symmetry_cell_setting 'monoclinic'
loop_
_space_group_symop_operation_xyz
x,y,z
-x,1/2+y,-z
-x,-y,-z
x,1/2-y,z
loop_
_atom_site_type_symbol
_atom_site_label
_atom_site_fract_x
_atom_site_fract_y
_atom_site_fract_z
Si Si1 0.937856 0.581594 0.285819
Si Si2 0.466209 0.587561 0.810200
Si Si3 0.595284 0.080366 0.921216
Si Si4 0.855903 0.084443 0.154769
Si Si5 0.626701 0.083827 0.332446
Si Si6 0.273940 0.914815 0.974502
Si Si7 0.133700 0.079033 0.493124
Si Si8 0.903182 0.420392 0.670832
O O1 0.881409 0.750000 0.307986
O O2 0.723312 0.502108 0.342178
O O3 0.145801 0.552918 0.177766
O O4 0.984522 0.520721 0.321476
O O5 0.563244 0.750000 0.772723
O O6 0.355404 0.543164 0.800910
O O7 0.277453 0.579082 0.917076
O O8 0.659974 0.479719 0.752428
O O9 0.540994 0.250000 0.944244
O O10 0.476269 0.012972 0.918864
O O11 0.500000 0.000000 0.000000
O O12 0.928881 0.250000 0.118462
O O13 0.793836 0.063173 0.230456
O O14 0.048592 0.974808 0.074755
O O15 0.605899 0.250000 0.355341
O O16 0.386705 0.026906 0.402536
O O17 0.300976 0.750000 0.983197
O O18 0.112278 0.250000 0.491920
O O19 0.042836 0.033042 0.576120
O O20 0.000000 0.000000 0.500000
O O21 0.879060 0.250000 0.683785
#
# Coordination Sequence:
#
# PCOD8075986 Si02
#       8
#     4   4   4   4   4   4   4   4
#     4  10  22  39  58  83 116 153 195 241 290 345
#     4  10  21  37  58  85 117 153 196 245 294 353
#     4  11  22  37  57  81 115 157 200 247 293 345
#     4  10  21  37  56  80 115 157 196 241 297 350
#     4  10  22  39  59  85 117 152 192 239 291 346
#     4  11  22  35  54  84 116 150 197 245 293 352
#     4  10  22  41  65  92 121 152 191 237 291 353
#     4  10  21  39  62  87 117 155 195 241 296 352
#
# _framework density 19.909974999999999
#
# number of rings (size 3 to 8) (size 9 to 14) (size 15 to 20)
#    0.000    1.750    1.250    2.625    0.000    7.500 
#    0.000    0.000    0.000    0.000    0.000    0.000 
#    0.000    0.000    0.000    0.000    0.000    0.000 
#
# Total GULP energy -396866.844454 kJ/mol
# GULP energy per Si atom -12402.088889 kJ/mol
# Density = 1.986466 g / cm^3
# Si number density = 19.909975 Si / 1000 Ang^3
#
#
#
# Elastic Constant Matrix: (Units=GPa)
#
#
# Indices 1 2 3 4 5 6 
#
# 1 125.2992 49.9217 35.6719 0.0000 -11.2836 0.0000
# 2 49.9217 72.4446 42.9785 0.0000 -4.5829 0.0000
# 3 35.6719 42.9785 86.4850 0.0000 -6.0259 0.0000
# 4 0.0000 0.0000 0.0000 25.1929 0.0000 -5.6423
# 5 -11.2836 -4.5829 -6.0259 0.0000 29.1498 0.0000
# 6 0.0000 0.0000 0.0000 -5.6423 0.0000 36.3756
#
#
#
# Elastic Compliance Matrix: (Units=1/GPa)
#
#
# Indices 1 2 3 4 5 6 
#
# 1 0.011341 -0.007051 -0.000959 0.000000 0.003083 0.000000
# 2 -0.007051 0.023992 -0.009073 0.000000 -0.000833 0.000000
# 3 -0.000959 -0.009073 0.016580 0.000000 0.001630 0.000000
# 4 0.000000 0.000000 0.000000 0.041122 0.000000 0.006379
# 5 0.003083 -0.000833 0.001630 0.000000 0.035705 0.000000
# 6 0.000000 0.000000 0.000000 0.006379 0.000000 0.028480
#
#
# Mechanical properties :
#
#
# Convention : Reuss Voigt Hill
#
# Bulk Modulus (GPa) = 56.34312 60.15255 58.24783
# Shear Modulus (GPa) = 25.34180 28.52077 26.93129
#
# Velocity S-wave (km/s) = 3.57153 3.78893 3.68183
# Velocity P-wave (km/s) = 6.73559 7.02987 6.88430
#
# Compressibility (1/GPa) = 0.01774840
#
# Stress axis : x y z
#
# Youngs Moduli (GPa) = 88.17711 41.68001 60.31224
#
# Poissons Ratio (x) = 0.29389 0.05783
# Poissons Ratio (y) = 0.62174 0.54719
# Poissons Ratio (z) = 0.08455 0.37815
#
# Static dielectric constant tensor:
#      x y z
#    x 3.827510 0.000000 0.084450 
#    y 0.000000 3.578470 0.000000 
#    z 0.084450 0.000000 3.609870 
# 
# 
# High freq. dielectric constant tensor:
#      x y z
#    x 1.789000 0.000000 0.005780 
#    y 0.000000 1.770350 0.000000 
#    z 0.005780 0.000000 1.775300 
# 
# From -- ./inp_files/38207.got.cif
#   From: 2010.06.25/outbox.cif.g09.slc.cpg/sg11_20_cif.got.tgz:38207.got - 2010.06.27 23:14:04.
