data_PCOD8075660
_publ_section_title
;
Structure prediction by ZEFSAII (Michael W. Deem and Ramdas Pophale) SiO2 
 PCOD8075660
Probable space group: P 21/M
;
_chemical_formula_sum "Si O2"
_cell_formula_units_Z 28
_cell_length_a 18.490337
_cell_length_b 9.311777
_cell_length_c 14.984792
_cell_angle_alpha 90.000000
_cell_angle_beta 37.388954
_cell_angle_gamma 90.000000
_cell_volume 1566.664824
_symmetry_space_group_name_H-M "P 21/M"
_symmetry_group_IT_number 11
_symmetry_cell_setting 'monoclinic'
loop_
_space_group_symop_operation_xyz
x,y,z
-x,1/2+y,-z
-x,-y,-z
x,1/2-y,z
loop_
_atom_site_type_symbol
_atom_site_label
_atom_site_fract_x
_atom_site_fract_y
_atom_site_fract_z
Si Si1 0.132667 0.915426 0.787784
Si Si2 0.516253 0.912091 0.154459
Si Si3 0.295474 0.589574 0.472218
Si Si4 0.310388 0.082117 0.294319
Si Si5 0.778420 0.918790 0.940855
Si Si6 0.110708 0.415799 0.352511
Si Si7 0.101232 0.917974 0.019014
O O1 0.092395 0.750000 0.816198
O O2 0.251597 0.951981 0.614419
O O3 0.159323 0.948303 0.865058
O O4 0.029897 0.015472 0.849152
O O5 0.526694 0.750000 0.106111
O O6 0.440372 0.914722 0.322489
O O7 0.441172 0.007456 0.156608
O O8 0.647045 0.974676 0.042886
O O9 0.249066 0.750000 0.494644
O O10 0.242594 0.481915 0.448591
O O11 0.328899 0.250000 0.289076
O O12 0.232560 0.044248 0.284169
O O13 0.775410 0.750000 0.966426
O O14 0.869394 0.951946 0.771004
O O15 0.815854 0.006528 0.990428
O O16 0.081310 0.250000 0.395723
O O17 0.000000 0.500000 0.500000
O O18 0.092456 0.750000 0.049057
#
# Coordination Sequence:
#
# PCOD8075660 Si02
#       7
#     4   4   4   4   4   4   4
#     4   9  18  35  56  77 105 140 175 212 260 317
#     4   8  17  34  55  76 100 138 180 208 252 316
#     4   8  16  32  55  77  99 134 174 208 250 310
#     4   9  18  33  52  77 106 131 168 220 262 300
#     4  10  21  38  55  73 106 144 175 211 259 314
#     4  10  23  38  53  77 107 140 174 213 261 312
#     4  10  21  34  52  80 109 137 174 218 262 308
#
# _framework density 17.872361999999999
#
# number of rings (size 3 to 8) (size 9 to 14) (size 15 to 20)
#    0.857    2.000    0.000    0.429    2.000    4.000 
#    0.000    0.714    0.000    0.000    0.000    0.000 
#    0.000    0.000    0.000    0.000    0.000    0.000 
#
# Total GULP energy -346949.867206 kJ/mol
# GULP energy per Si atom -12391.066686 kJ/mol
# Density = 1.783168 g / cm^3
# Si number density = 17.872362 Si / 1000 Ang^3
#
#
#
# Elastic Constant Matrix: (Units=GPa)
#
#
# Indices 1 2 3 4 5 6 
#
# 1 105.3613 58.8623 30.2944 0.0000 -5.2591 0.0000
# 2 58.8623 78.5324 31.6764 0.0000 -4.9004 0.0000
# 3 30.2944 31.6764 66.4931 0.0000 -0.0513 0.0000
# 4 0.0000 0.0000 0.0000 22.3087 0.0000 -1.9608
# 5 -5.2591 -4.9004 -0.0513 0.0000 23.6001 0.0000
# 6 0.0000 0.0000 0.0000 -1.9608 0.0000 33.0656
#
#
#
# Elastic Compliance Matrix: (Units=1/GPa)
#
#
# Indices 1 2 3 4 5 6 
#
# 1 0.016584 -0.011514 -0.002069 0.000000 0.001300 0.000000
# 2 -0.011514 0.024011 -0.006191 0.000000 0.002406 0.000000
# 3 -0.002069 -0.006191 0.018930 0.000000 -0.001706 0.000000
# 4 0.000000 0.000000 0.000000 0.045060 0.000000 0.002672
# 5 0.001300 0.002406 -0.001706 0.000000 0.043158 0.000000
# 6 0.000000 0.000000 0.000000 0.002672 0.000000 0.030401
#
#
# Mechanical properties :
#
#
# Convention : Reuss Voigt Hill
#
# Bulk Modulus (GPa) = 50.06022 54.67256 52.36639
# Shear Modulus (GPa) = 22.28640 24.43180 23.35910
#
# Velocity S-wave (km/s) = 3.53509 3.70133 3.61916
# Velocity P-wave (km/s) = 6.68828 6.99453 6.84312
#
# Compressibility (1/GPa) = 0.01997594
#
# Stress axis : x y z
#
# Youngs Moduli (GPa) = 60.30038 41.64754 52.82650
#
# Poissons Ratio (x) = 0.47953 0.10932
# Poissons Ratio (y) = 0.69430 0.32704
# Poissons Ratio (z) = 0.12478 0.25783
#
# Static dielectric constant tensor:
#      x y z
#    x 3.125590 0.000000 0.069770 
#    y 0.000000 3.311730 0.000000 
#    z 0.069770 0.000000 3.355610 
# 
# 
# High freq. dielectric constant tensor:
#      x y z
#    x 1.669930 0.000000 0.005470 
#    y 0.000000 1.691960 0.000000 
#    z 0.005470 0.000000 1.692520 
# 
# From -- ./inp_files/53183.got.cif
#   From: 2010.06.25/outbox.cif.g09.slc.cpg/sg11_27_cif.got.tgz:53183.got - 2010.06.27 23:14:04.
