data_PCOD8075595
_publ_section_title
;
Structure prediction by ZEFSAII (Michael W. Deem and Ramdas Pophale) SiO2 
 PCOD8075595
Probable space group: P 21/M
;
_chemical_formula_sum "Si O2"
_cell_formula_units_Z 16
_cell_length_a 8.874341
_cell_length_b 18.384493
_cell_length_c 7.622653
_cell_angle_alpha 90.000000
_cell_angle_beta 35.696381
_cell_angle_gamma 90.000000
_cell_volume 725.650127
_symmetry_space_group_name_H-M "P 21/M"
_symmetry_group_IT_number 11
_symmetry_cell_setting 'monoclinic'
loop_
_space_group_symop_operation_xyz
x,y,z
-x,1/2+y,-z
-x,-y,-z
x,1/2-y,z
loop_
_atom_site_type_symbol
_atom_site_label
_atom_site_fract_x
_atom_site_fract_y
_atom_site_fract_z
Si Si1 0.837712 0.105462 0.456548
Si Si2 0.857849 0.250000 0.657667
Si Si3 0.661543 0.529237 0.099855
Si Si4 0.616565 0.750000 0.640900
Si Si5 0.552041 0.392411 0.389281
O O1 0.887348 0.179089 0.512177
O O2 0.591064 0.060157 0.765179
O O3 0.788464 0.125840 0.298375
O O4 0.085083 0.053372 0.244172
O O5 0.086171 0.250000 0.582744
O O6 0.577823 0.250000 0.011640
O O7 0.651022 0.441732 0.131947
O O8 0.665851 0.563204 0.294152
O O9 0.573853 0.819730 0.561862
#
# Coordination Sequence:
#
# PCOD8075595 Si02
#       5
#     4   2   4   2   4
#     4  10  20  40  64  84 117 160 196 244 288 359
#     4  12  27  41  54  90 130 163 196 231 299 371
#     4   9  20  36  72  89 111 143 218 249 288 339
#     4  12  27  39  58  88 130 155 194 249 297 347
#     4   9  22  39  67  91 114 151 205 253 292 342
#
# _framework density 22.049189999999999
#
# number of rings (size 3 to 8) (size 9 to 14) (size 15 to 20)
#    1.500    0.500    0.000    3.000    3.500    1.000 
#    0.000    7.500    0.000    0.000    0.000    0.000 
#    0.000    0.000    0.000    0.000    0.000    0.000 
#
# Total GULP energy -198329.566761 kJ/mol
# GULP energy per Si atom -12395.597923 kJ/mol
# Density = 2.199901 g / cm^3
# Si number density = 22.049190 Si / 1000 Ang^3
#
#
#
# Elastic Constant Matrix: (Units=GPa)
#
#
# Indices 1 2 3 4 5 6 
#
# 1 41.4851 27.3209 14.4557 0.0000 -26.8572 0.0000
# 2 27.3209 123.6536 0.3671 0.0000 -10.6283 0.0000
# 3 14.4557 0.3671 80.3575 0.0000 -25.9405 0.0000
# 4 0.0000 0.0000 0.0000 24.3516 0.0000 -15.9081
# 5 -26.8572 -10.6283 -25.9405 0.0000 30.1052 0.0000
# 6 0.0000 0.0000 0.0000 -15.9081 0.0000 -45.2818
#
#
#
# Elastic Compliance Matrix: (Units=1/GPa)
#
#
# Indices 1 2 3 4 5 6 
#
# 1 0.071828 -0.010009 0.009239 0.000000 0.068506 0.000000
# 2 -0.010009 0.009829 -0.000009 0.000000 -0.005468 0.000000
# 3 0.009239 -0.000009 0.018622 0.000000 0.024285 0.000000
# 4 0.000000 0.000000 0.000000 0.033400 0.000000 -0.011734
# 5 0.068506 -0.005468 0.024285 0.000000 0.113327 0.000000
# 6 0.000000 0.000000 0.000000 -0.011734 0.000000 -0.017962
#
#
# Mechanical properties :
#
#
# Convention : Reuss Voigt Hill
#
# Bulk Modulus (GPa) = 10.12972 36.64263 23.38617
# Shear Modulus (GPa) = 18.97464 15.39182 17.18323
#
# Velocity S-wave (km/s) = 2.93671 2.64496 2.79465
# Velocity P-wave (km/s) = 4.01287 5.09730 4.58724
#
# Compressibility (1/GPa) = 0.09871942
#
# Stress axis : x y z
#
# Youngs Moduli (GPa) = 13.92213 101.74244 53.70031
#
# Poissons Ratio (x) = 1.01838 -0.49614
# Poissons Ratio (y) = 0.13935 0.00050
# Poissons Ratio (z) = -0.12863 0.00095
#
# Static dielectric constant tensor:
#      x y z
#    x 3.699120 0.000000 -0.111420 
#    y 0.000000 3.924340 0.000000 
#    z -0.111420 0.000000 3.745230 
# 
# 
# High freq. dielectric constant tensor:
#      x y z
#    x 1.854680 0.000000 -0.010550 
#    y 0.000000 1.875060 0.000000 
#    z -0.010550 0.000000 1.854990 
# 
# From -- ./inp_files/1638.got.cif
#   From: 2010.06.25/outbox.cif.g09.slc.cpg/sg11_1_cif.got.tgz:1638.got - 2010.06.27 23:14:04.
