data_PCOD8075630
_publ_section_title
;
Structure prediction by ZEFSAII (Michael W. Deem and Ramdas Pophale) SiO2 
 PCOD8075630
Probable space group: P 21/M
;
_chemical_formula_sum "Si O2"
_cell_formula_units_Z 18
_cell_length_a 13.027140
_cell_length_b 10.366695
_cell_length_c 10.773957
_cell_angle_alpha 90.000000
_cell_angle_beta 33.759205
_cell_angle_gamma 90.000000
_cell_volume 808.552105
_symmetry_space_group_name_H-M "P 21/M"
_symmetry_group_IT_number 11
_symmetry_cell_setting 'monoclinic'
loop_
_space_group_symop_operation_xyz
x,y,z
-x,1/2+y,-z
-x,-y,-z
x,1/2-y,z
loop_
_atom_site_type_symbol
_atom_site_label
_atom_site_fract_x
_atom_site_fract_y
_atom_site_fract_z
Si Si1 0.179580 0.250000 0.446852
Si Si2 0.466640 0.106414 0.637712
Si Si3 0.256315 0.974852 0.432148
Si Si4 0.830054 0.250000 0.937834
Si Si5 0.090908 0.491946 0.042166
Si Si6 0.179015 0.750000 0.327277
O O1 0.298222 0.382001 0.334561
O O2 0.053757 0.250000 0.697344
O O3 0.045557 0.250000 0.460212
O O4 0.530467 0.250000 0.530720
O O5 0.576259 0.066273 0.649981
O O6 0.500000 0.000000 0.500000
O O7 0.247670 0.117835 0.887644
O O8 0.247056 0.878112 0.326529
O O9 0.060958 0.965819 0.700192
O O10 0.786561 0.378446 0.058534
O O11 0.731667 0.250000 0.901186
O O12 0.000000 0.500000 0.000000
#
# Coordination Sequence:
#
# PCOD8075630 Si02
#       6
#     2   4   4   2   4   2
#     4   8  20  37  70  94 125 178 222 258 331 402
#     4  12  28  42  66 102 137 173 224 274 340 406
#     4  11  22  43  69  99 136 177 220 283 330 397
#     4   8  22  40  65  99 129 175 219 274 331 396
#     4  11  24  40  70  97 133 174 225 271 340 400
#     4  10  20  41  71  97 136 179 229 268 340 392
#
# _framework density 22.262017
#
# number of rings (size 3 to 8) (size 9 to 14) (size 15 to 20)
#    0.667    0.889    3.333    0.667    6.222    0.000 
#    0.000    1.111    4.889    0.000    0.000    0.000 
#    0.000    0.000    0.000    0.000    0.000    0.000 
#
# Total GULP energy -223080.239635 kJ/mol
# GULP energy per Si atom -12393.346646 kJ/mol
# Density = 2.221135 g / cm^3
# Si number density = 22.262017 Si / 1000 Ang^3
#
#
#
# Elastic Constant Matrix: (Units=GPa)
#
#
# Indices 1 2 3 4 5 6 
#
# 1 183.0304 93.9820 29.8370 0.0000 -2.1733 0.0000
# 2 93.9820 198.5955 16.2997 0.0000 4.6281 0.0000
# 3 29.8370 16.2997 47.5032 0.0000 -14.3996 0.0000
# 4 0.0000 0.0000 0.0000 19.2639 0.0000 7.9376
# 5 -2.1733 4.6281 -14.3996 0.0000 34.8497 0.0000
# 6 0.0000 0.0000 0.0000 7.9376 0.0000 47.4621
#
#
#
# Elastic Compliance Matrix: (Units=1/GPa)
#
#
# Indices 1 2 3 4 5 6 
#
# 1 0.007830 -0.003362 -0.003980 0.000000 -0.000709 0.000000
# 2 -0.003362 0.006707 -0.000598 0.000000 -0.001347 0.000000
# 3 -0.003980 -0.000598 0.027099 0.000000 0.011028 0.000000
# 4 0.000000 0.000000 0.000000 0.055752 0.000000 -0.009324
# 5 -0.000709 -0.001347 0.011028 0.000000 0.033386 0.000000
# 6 0.000000 0.000000 0.000000 -0.009324 0.000000 0.022629
#
#
# Mechanical properties :
#
#
# Convention : Reuss Voigt Hill
#
# Bulk Modulus (GPa) = 38.82506 78.81848 58.82177
# Shear Modulus (GPa) = 28.11053 39.58251 33.84652
#
# Velocity S-wave (km/s) = 3.55732 4.22124 3.90342
# Velocity P-wave (km/s) = 5.86094 7.69677 6.84072
#
# Compressibility (1/GPa) = 0.02575656
#
# Stress axis : x y z
#
# Youngs Moduli (GPa) = 127.70662 149.09669 36.90178
#
# Poissons Ratio (x) = 0.50133 0.14686
# Poissons Ratio (y) = 0.42941 0.02206
# Poissons Ratio (z) = 0.50823 0.08914
#
# Static dielectric constant tensor:
#      x y z
#    x 4.021020 0.000000 -0.286230 
#    y 0.000000 4.291580 0.000000 
#    z -0.286230 0.000000 4.291850 
# 
# 
# High freq. dielectric constant tensor:
#      x y z
#    x 1.883550 0.000000 -0.006210 
#    y 0.000000 1.893010 0.000000 
#    z -0.006210 0.000000 1.843440 
# 
# From -- ./inp_files/34155.got.cif
#   From: 2010.06.25/outbox.cif.g09.slc.cpg/sg11_18_cif.got.tgz:34155.got - 2010.06.27 23:14:04.
