data_PCOD8075014
_publ_section_title
;
Structure prediction by ZEFSAII (Michael W. Deem and Ramdas Pophale) SiO2 
 PCOD8075014
Probable space group: P 21/M
;
_chemical_formula_sum "Si O2"
_cell_formula_units_Z 28
_cell_length_a 29.065542
_cell_length_b 9.328558
_cell_length_c 10.128289
_cell_angle_alpha 90.000000
_cell_angle_beta 31.460039
_cell_angle_gamma 90.000000
_cell_volume 1433.241765
_symmetry_space_group_name_H-M "P 21/M"
_symmetry_group_IT_number 11
_symmetry_cell_setting 'monoclinic'
loop_
_space_group_symop_operation_xyz
x,y,z
-x,1/2+y,-z
-x,-y,-z
x,1/2-y,z
loop_
_atom_site_type_symbol
_atom_site_label
_atom_site_fract_x
_atom_site_fract_y
_atom_site_fract_z
Si Si1 0.588734 0.583860 0.532937
Si Si2 0.223023 0.581816 0.269479
Si Si3 0.600813 0.082533 0.039434
Si Si4 0.373487 0.912031 0.313164
Si Si5 0.826810 0.411887 0.112954
Si Si6 0.914088 0.082820 0.167283
Si Si7 0.780475 0.580194 0.978363
O O1 0.596816 0.750000 0.547282
O O2 0.499818 0.552864 0.663596
O O3 0.574878 0.504681 0.705505
O O4 0.677297 0.533507 0.242402
O O5 0.220724 0.750000 0.239393
O O6 0.165897 0.546196 0.538277
O O7 0.323239 0.522956 0.049672
O O8 0.183980 0.492517 0.242182
O O9 0.621182 0.250000 0.976415
O O10 0.610241 0.017514 0.869663
O O11 0.409702 0.750000 0.232509
O O12 0.270347 0.916544 0.592146
O O13 0.850771 0.250000 0.009325
O O14 0.890230 0.463999 0.076219
O O15 0.836149 0.518311 0.965344
O O16 0.934984 0.250000 0.121194
O O17 0.000000 0.000000 0.000000
O O18 0.794116 0.750000 0.938923
#
# Coordination Sequence:
#
# PCOD8075014 Si02
#       7
#     4   4   4   4   4   4   4
#     4   9  18  30  45  71 108 145 179 220 265 304
#     4  10  20  37  58  79 105 144 185 220 262 319
#     4   9  16  29  50  73 102 141 183 223 261 306
#     4   9  15  27  49  74 101 135 180 223 259 308
#     4   9  17  34  58  81 105 140 181 218 260 321
#     4  10  21  38  62  89 111 132 170 221 273 327
#     4  10  21  35  51  78 115 149 181 220 265 311
#
# _framework density 19.536131999999998
#
# number of rings (size 3 to 8) (size 9 to 14) (size 15 to 20)
#    0.000    2.571    1.429    0.857    0.000    2.286 
#    0.000    2.143    0.000    0.000    0.000    0.000 
#    0.000    0.000    0.000    0.000    0.000    0.000 
#
# Total GULP energy -347055.691722 kJ/mol
# GULP energy per Si atom -12394.846133 kJ/mol
# Density = 1.949167 g / cm^3
# Si number density = 19.536132 Si / 1000 Ang^3
#
#
#
# Elastic Constant Matrix: (Units=GPa)
#
#
# Indices 1 2 3 4 5 6 
#
# 1 140.5096 55.6645 44.6853 0.0000 1.8268 0.0000
# 2 55.6645 61.3052 28.7783 0.0000 7.7080 0.0000
# 3 44.6853 28.7783 34.8147 0.0000 5.1692 0.0000
# 4 0.0000 0.0000 0.0000 19.4762 0.0000 -0.4335
# 5 1.8268 7.7080 5.1692 0.0000 29.6408 0.0000
# 6 0.0000 0.0000 0.0000 -0.4335 0.0000 30.3928
#
#
#
# Elastic Compliance Matrix: (Units=1/GPa)
#
#
# Indices 1 2 3 4 5 6 
#
# 1 0.013828 -0.007192 -0.012273 0.000000 0.003158 0.000000
# 2 -0.007192 0.030689 -0.015417 0.000000 -0.004849 0.000000
# 3 -0.012273 -0.015417 0.058014 0.000000 -0.005352 0.000000
# 4 0.000000 0.000000 0.000000 0.051361 0.000000 0.000733
# 5 0.003158 -0.004849 -0.005352 0.000000 0.035737 0.000000
# 6 0.000000 0.000000 0.000000 0.000733 0.000000 0.032913
#
#
# Mechanical properties :
#
#
# Convention : Reuss Voigt Hill
#
# Bulk Modulus (GPa) = 30.51754 54.98730 42.75242
# Shear Modulus (GPa) = 16.48930 23.06873 19.77902
#
# Velocity S-wave (km/s) = 2.90839 3.44004 3.18533
# Velocity P-wave (km/s) = 5.18973 6.63220 5.95480
#
# Compressibility (1/GPa) = 0.03276804
#
# Stress axis : x y z
#
# Youngs Moduli (GPa) = 72.31753 32.58543 17.23712
#
# Poissons Ratio (x) = 0.23434 0.21154
# Poissons Ratio (y) = 0.52008 0.26575
# Poissons Ratio (z) = 0.88753 0.50237
#
# Static dielectric constant tensor:
#      x y z
#    x 3.665380 0.000000 -0.023680 
#    y 0.000000 3.389140 0.000000 
#    z -0.023680 0.000000 3.387370 
# 
# 
# High freq. dielectric constant tensor:
#      x y z
#    x 1.763440 0.000000 0.001660 
#    y 0.000000 1.737150 0.000000 
#    z 0.001660 0.000000 1.744430 
# 
# From -- ./inp_files/28372.got.cif
#   From: 2010.06.25/outbox.cif.g09.slc.cpg/sg11_15_cif.got.tgz:28372.got - 2010.06.27 23:14:04.
