data_PCOD8075912
_publ_section_title
;
Structure prediction by ZEFSAII (Michael W. Deem and Ramdas Pophale) SiO2 
 PCOD8075912
Probable space group: P 21/M
;
_chemical_formula_sum "Si O2"
_cell_formula_units_Z 24
_cell_length_a 11.453552
_cell_length_b 8.648050
_cell_length_c 11.708829
_cell_angle_alpha 90.000000
_cell_angle_beta 77.922083
_cell_angle_gamma 90.000000
_cell_volume 1134.097219
_symmetry_space_group_name_H-M "P 21/M"
_symmetry_group_IT_number 11
_symmetry_cell_setting 'monoclinic'
loop_
_space_group_symop_operation_xyz
x,y,z
-x,1/2+y,-z
-x,-y,-z
x,1/2-y,z
loop_
_atom_site_type_symbol
_atom_site_label
_atom_site_fract_x
_atom_site_fract_y
_atom_site_fract_z
Si Si1 0.534722 0.568055 0.371148
Si Si2 0.006545 0.075088 0.834882
Si Si3 0.674149 0.568510 0.726712
Si Si4 0.260353 0.931525 0.810467
Si Si5 0.907101 0.424058 0.602743
Si Si6 0.767823 0.567364 0.952536
O O1 0.500000 0.500000 0.500000
O O2 0.541348 0.750000 0.381822
O O3 0.441246 0.521493 0.292600
O O4 0.663740 0.505261 0.307554
O O5 0.033733 0.250000 0.871283
O O6 0.963594 0.075120 0.714854
O O7 0.122845 0.970226 0.817695
O O8 0.901770 0.001734 0.933293
O O9 0.650576 0.750000 0.721998
O O10 0.786139 0.523793 0.624473
O O11 0.699411 0.515288 0.851771
O O12 0.281534 0.750000 0.807266
O O13 0.303302 0.001622 0.923622
O O14 0.877316 0.250000 0.568838
O O15 0.000000 0.500000 0.500000
O O16 0.777191 0.750000 0.955904
#
# Coordination Sequence:
#
# PCOD8075912 Si02
#       6
#     4   4   4   4   4   4
#     4  12  27  47  68  91 124 165 211 260 312 372
#     4  10  21  38  60  91 129 167 208 258 314 372
#     4  10  22  42  66  92 125 162 207 259 313 371
#     4  12  25  41  64  93 127 169 213 258 312 373
#     4  10  21  36  59  89 123 164 209 257 312 372
#     4  10  21  40  66  96 129 165 207 259 315 373
#
# _framework density 21.162206999999999
#
# number of rings (size 3 to 8) (size 9 to 14) (size 15 to 20)
#    0.000    1.333    0.000    5.500    2.333    4.667 
#    0.000    0.000    0.000    0.000    0.000    0.000 
#    0.000    0.000    0.000    0.000    0.000    0.000 
#
# Total GULP energy -297731.315015 kJ/mol
# GULP energy per Si atom -12405.471459 kJ/mol
# Density = 2.111404 g / cm^3
# Si number density = 21.162207 Si / 1000 Ang^3
#
#
#
# Elastic Constant Matrix: (Units=GPa)
#
#
# Indices 1 2 3 4 5 6 
#
# 1 81.8038 24.3392 33.6764 0.0000 2.4673 0.0000
# 2 24.3392 120.2905 48.6201 0.0000 -0.9329 0.0000
# 3 33.6764 48.6201 111.8260 0.0000 -24.5481 0.0000
# 4 0.0000 0.0000 0.0000 38.8113 0.0000 -2.5386
# 5 2.4673 -0.9329 -24.5481 0.0000 22.5094 0.0000
# 6 0.0000 0.0000 0.0000 -2.5386 0.0000 39.5608
#
#
#
# Elastic Compliance Matrix: (Units=1/GPa)
#
#
# Indices 1 2 3 4 5 6 
#
# 1 0.015196 -0.000664 -0.006126 0.000000 -0.008374 0.000000
# 2 -0.000664 0.010712 -0.005711 0.000000 -0.005712 0.000000
# 3 -0.006126 -0.005711 0.017573 0.000000 0.019599 0.000000
# 4 0.000000 0.000000 0.000000 0.025874 0.000000 0.001660
# 5 -0.008374 -0.005712 0.019599 0.000000 0.066482 0.000000
# 6 0.000000 0.000000 0.000000 0.001660 0.000000 0.025384
#
#
# Mechanical properties :
#
#
# Convention : Reuss Voigt Hill
#
# Bulk Modulus (GPa) = 54.11579 58.57686 56.34633
# Shear Modulus (GPa) = 25.98983 33.99529 29.99256
#
# Velocity S-wave (km/s) = 3.50826 4.01236 3.76875
# Velocity P-wave (km/s) = 6.48367 7.01466 6.75438
#
# Compressibility (1/GPa) = 0.01847889
#
# Stress axis : x y z
#
# Youngs Moduli (GPa) = 65.80504 93.35663 56.90530
#
# Poissons Ratio (x) = 0.06195 0.34862
# Poissons Ratio (y) = 0.04367 0.32500
# Poissons Ratio (z) = 0.40314 0.53319
#
# Static dielectric constant tensor:
#      x y z
#    x 3.751380 0.000000 -0.046340 
#    y 0.000000 4.154300 0.000000 
#    z -0.046340 0.000000 3.737810 
# 
# 
# High freq. dielectric constant tensor:
#      x y z
#    x 1.826610 0.000000 0.002100 
#    y 0.000000 1.844280 0.000000 
#    z 0.002100 0.000000 1.842270 
# 
# From -- ./inp_files/33738.got.cif
#   From: 2010.06.25/outbox.cif.g09.slc.cpg/sg11_17_cif.got.tgz:33738.got - 2010.06.27 23:14:04.
