data_PCOD8075654
_publ_section_title
;
Structure prediction by ZEFSAII (Michael W. Deem and Ramdas Pophale) SiO2 
 PCOD8075654
Probable space group: P 21/M
;
_chemical_formula_sum "Si O2"
_cell_formula_units_Z 28
_cell_length_a 26.685275
_cell_length_b 8.951455
_cell_length_c 9.471659
_cell_angle_alpha 90.000000
_cell_angle_beta 39.382116
_cell_angle_gamma 90.000000
_cell_volume 1435.541203
_symmetry_space_group_name_H-M "P 21/M"
_symmetry_group_IT_number 11
_symmetry_cell_setting 'monoclinic'
loop_
_space_group_symop_operation_xyz
x,y,z
-x,1/2+y,-z
-x,-y,-z
x,1/2-y,z
loop_
_atom_site_type_symbol
_atom_site_label
_atom_site_fract_x
_atom_site_fract_y
_atom_site_fract_z
Si Si1 0.072643 0.075757 0.422746
Si Si2 0.985526 0.080320 0.888041
Si Si3 0.285743 0.920578 0.300844
Si Si4 0.687788 0.923356 0.313695
Si Si5 0.238159 0.573200 0.094077
Si Si6 0.416014 0.425983 0.200905
Si Si7 0.813474 0.420397 0.216537
O O1 0.076870 0.250000 0.371635
O O2 0.056350 0.054901 0.624901
O O3 0.156756 0.997879 0.212105
O O4 0.000000 0.000000 0.500000
O O5 0.974432 0.250000 0.955166
O O6 0.903189 0.027336 0.998597
O O7 0.000000 0.000000 0.000000
O O8 0.315067 0.750000 0.223925
O O9 0.259503 0.982503 0.204972
O O10 0.210033 0.933026 0.567592
O O11 0.357974 0.015526 0.205435
O O12 0.685791 0.750000 0.277922
O O13 0.614540 0.967596 0.574672
O O14 0.766302 0.959960 0.229285
O O15 0.690052 0.019293 0.164159
O O16 0.228888 0.750000 0.108964
O O17 0.422952 0.250000 0.167435
O O18 0.500000 0.500000 0.000000
O O19 0.798172 0.250000 0.195749
#
# Coordination Sequence:
#
# PCOD8075654 Si02
#       7
#     4   4   4   4   4   4   4
#     4  11  23  37  54  79 111 149 192 238 285 332
#     4  10  21  34  50  74 103 137 180 228 278 326
#     4   9  19  35  57  83 111 145 185 228 276 327
#     4  10  21  36  56  83 110 140 178 221 267 321
#     4  11  22  37  57  81 111 149 189 230 278 332
#     4  10  21  38  62  89 116 144 178 220 269 327
#     4   9  17  33  54  75 102 138 181 227 272 325
#
# _framework density 19.504837999999999
#
# number of rings (size 3 to 8) (size 9 to 14) (size 15 to 20)
#    0.000    2.000    0.000    3.429    0.000    6.857 
#    0.000    3.571    0.000    0.000    0.000    0.000 
#    0.000    0.000    0.000    0.000    0.000    0.000 
#
# Total GULP energy -347163.459619 kJ/mol
# GULP energy per Si atom -12398.694986 kJ/mol
# Density = 1.946044 g / cm^3
# Si number density = 19.504838 Si / 1000 Ang^3
#
#
#
# Elastic Constant Matrix: (Units=GPa)
#
#
# Indices 1 2 3 4 5 6 
#
# 1 63.4690 29.0477 31.9109 0.0000 4.4457 0.0000
# 2 29.0477 76.4954 39.6923 0.0000 -3.9226 0.0000
# 3 31.9109 39.6923 102.5078 0.0000 -4.0901 0.0000
# 4 0.0000 0.0000 0.0000 32.4318 0.0000 1.5564
# 5 4.4457 -3.9226 -4.0901 0.0000 33.8652 0.0000
# 6 0.0000 0.0000 0.0000 1.5564 0.0000 33.6818
#
#
#
# Elastic Compliance Matrix: (Units=1/GPa)
#
#
# Indices 1 2 3 4 5 6 
#
# 1 0.020932 -0.005867 -0.004402 0.000000 -0.003959 0.000000
# 2 -0.005867 0.018048 -0.005072 0.000000 0.002248 0.000000
# 3 -0.004402 -0.005072 0.013153 0.000000 0.001579 0.000000
# 4 0.000000 0.000000 0.000000 0.030902 0.000000 -0.001428
# 5 -0.003959 0.002248 0.001579 0.000000 0.030500 0.000000
# 6 0.000000 0.000000 0.000000 -0.001428 0.000000 0.029756
#
#
# Mechanical properties :
#
#
# Convention : Reuss Voigt Hill
#
# Bulk Modulus (GPa) = 46.62200 49.30822 47.96511
# Shear Modulus (GPa) = 27.60563 29.45052 28.52808
#
# Velocity S-wave (km/s) = 3.76616 3.88997 3.82856
# Velocity P-wave (km/s) = 6.54726 6.74616 6.64745
#
# Compressibility (1/GPa) = 0.02144910
#
# Stress axis : x y z
#
# Youngs Moduli (GPa) = 47.77476 55.40853 76.02970
#
# Poissons Ratio (x) = 0.32509 0.33469
# Poissons Ratio (y) = 0.28030 0.38563
# Poissons Ratio (z) = 0.21031 0.28104
#
# Static dielectric constant tensor:
#      x y z
#    x 3.408760 0.000000 0.112310 
#    y 0.000000 3.571240 0.000000 
#    z 0.112310 0.000000 3.913130 
# 
# 
# High freq. dielectric constant tensor:
#      x y z
#    x 1.742360 0.000000 0.013890 
#    y 0.000000 1.761980 0.000000 
#    z 0.013890 0.000000 1.770310 
# 
# From -- ./inp_files/28465.got.cif
#   From: 2010.06.25/outbox.cif.g09.slc.cpg/sg11_15_cif.got.tgz:28465.got - 2010.06.27 23:14:04.
