data_PCOD8075781
_publ_section_title
;
Structure prediction by ZEFSAII (Michael W. Deem and Ramdas Pophale) SiO2 
 PCOD8075781
Probable space group: P 21/M
;
_chemical_formula_sum "Si O2"
_cell_formula_units_Z 32
_cell_length_a 22.069183
_cell_length_b 8.796335
_cell_length_c 28.465544
_cell_angle_alpha 90.000000
_cell_angle_beta 18.771519
_cell_angle_gamma 90.000000
_cell_volume 1778.225834
_symmetry_space_group_name_H-M "P 21/M"
_symmetry_group_IT_number 11
_symmetry_cell_setting 'monoclinic'
loop_
_space_group_symop_operation_xyz
x,y,z
-x,1/2+y,-z
-x,-y,-z
x,1/2-y,z
loop_
_atom_site_type_symbol
_atom_site_label
_atom_site_fract_x
_atom_site_fract_y
_atom_site_fract_z
Si Si1 0.078498 0.070160 0.596493
Si Si2 0.561882 0.430453 0.405780
Si Si3 0.620838 0.930874 0.553852
Si Si4 0.692258 0.069922 0.841403
Si Si5 0.369852 0.071080 0.302939
Si Si6 0.053472 0.069974 0.911120
Si Si7 0.661448 0.428218 0.162054
Si Si8 0.199273 0.928806 0.341803
O O1 0.073678 0.250000 0.601776
O O2 0.180419 0.009834 0.569666
O O3 0.199378 0.021858 0.462302
O O4 0.865182 0.009003 0.747273
O O5 0.500000 0.500000 0.500000
O O6 0.568300 0.250000 0.405104
O O7 0.412889 0.484852 0.475001
O O8 0.766945 0.489923 0.242357
O O9 0.618033 0.750000 0.557069
O O10 0.449942 0.997372 0.711201
O O11 0.676958 0.250000 0.855443
O O12 0.730235 0.014940 0.760583
O O13 0.500000 0.000000 0.000000
O O14 0.364512 0.250000 0.296228
O O15 0.566574 0.018586 0.182795
O O16 0.354315 0.981098 0.265734
O O17 0.085325 0.250000 0.892534
O O18 0.881342 0.030523 0.002090
O O19 0.000000 0.000000 0.000000
O O20 0.629809 0.250000 0.189106
O O21 0.174526 0.750000 0.360566
O O22 0.000000 0.000000 0.500000
#
# Coordination Sequence:
#
# PCOD8075781 Si02
#       8
#     4   4   4   4   4   4   4   4
#     4   8  14  29  53  77 100 131 174 220 259 306
#     4  11  22  37  55  80 111 146 184 227 277 327
#     4   8  14  28  53  78 100 132 177 222 261 309
#     4  10  21  36  53  76 105 138 173 214 261 311
#     4   9  16  31  55  80 105 135 176 224 266 310
#     4  11  20  34  56  83 111 142 180 224 272 327
#     4   8  15  29  53  81 106 136 177 221 265 316
#     4  11  21  34  53  79 109 138 173 216 268 321
#
# _framework density 17.995466
#
# number of rings (size 3 to 8) (size 9 to 14) (size 15 to 20)
#    0.000    2.500    2.500    2.625    0.000    1.000 
#    0.000    2.500    0.000    7.500    0.000    0.000 
#    0.000    0.000    0.000    0.000    0.000    0.000 
#
# Total GULP energy -396559.143090 kJ/mol
# GULP energy per Si atom -12392.473222 kJ/mol
# Density = 1.795451 g / cm^3
# Si number density = 17.995466 Si / 1000 Ang^3
#
#
#
# Elastic Constant Matrix: (Units=GPa)
#
#
# Indices 1 2 3 4 5 6 
#
# 1 178.9910 39.4140 90.5905 0.0000 -14.4954 0.0000
# 2 39.4140 43.3765 34.1697 0.0000 0.5129 0.0000
# 3 90.5905 34.1697 129.2938 0.0000 -8.2246 0.0000
# 4 0.0000 0.0000 0.0000 27.4580 0.0000 1.1183
# 5 -14.4954 0.5129 -8.2246 0.0000 31.3434 0.0000
# 6 0.0000 0.0000 0.0000 1.1183 0.0000 27.0272
#
#
#
# Elastic Compliance Matrix: (Units=1/GPa)
#
#
# Indices 1 2 3 4 5 6 
#
# 1 0.009495 -0.004519 -0.005262 0.000000 0.003084 0.000000
# 2 -0.004519 0.031466 -0.005406 0.000000 -0.004023 0.000000
# 3 -0.005262 -0.005406 0.012916 0.000000 0.001044 0.000000
# 4 0.000000 0.000000 0.000000 0.036481 0.000000 -0.001509
# 5 0.003084 -0.004023 0.001044 0.000000 0.033671 0.000000
# 6 0.000000 0.000000 0.000000 -0.001509 0.000000 0.037062
#
#
# Mechanical properties :
#
#
# Convention : Reuss Voigt Hill
#
# Bulk Modulus (GPa) = 42.54628 75.55664 59.05146
# Shear Modulus (GPa) = 25.08796 29.66487 27.37642
#
# Velocity S-wave (km/s) = 3.73785 4.06453 3.90461
# Velocity P-wave (km/s) = 6.50560 8.00655 7.29478
#
# Compressibility (1/GPa) = 0.02350382
#
# Stress axis : x y z
#
# Youngs Moduli (GPa) = 105.31806 31.78067 77.42081
#
# Poissons Ratio (x) = 0.14361 0.40742
# Poissons Ratio (y) = 0.47590 0.41850
# Poissons Ratio (z) = 0.55422 0.17179
#
# Static dielectric constant tensor:
#      x y z
#    x 4.005500 0.000000 -0.465780 
#    y 0.000000 3.046920 0.000000 
#    z -0.465780 0.000000 4.276490 
# 
# 
# High freq. dielectric constant tensor:
#      x y z
#    x 1.711970 0.000000 -0.022150 
#    y 0.000000 1.664390 0.000000 
#    z -0.022150 0.000000 1.679080 
# 
# From -- ./inp_files/72012.got.cif
#   From: 2010.06.25/outbox.cif.g09.slc.cpg/sg11_37_cif.got.tgz:72012.got - 2010.06.27 23:14:04.
