data_PCOD8075412
_publ_section_title
;
Structure prediction by ZEFSAII (Michael W. Deem and Ramdas Pophale) SiO2 
 PCOD8075412
Probable space group: P 21/M
;
_chemical_formula_sum "Si O2"
_cell_formula_units_Z 24
_cell_length_a 8.814606
_cell_length_b 9.945968
_cell_length_c 14.207687
_cell_angle_alpha 90.000000
_cell_angle_beta 110.181221
_cell_angle_gamma 90.000000
_cell_volume 1169.113665
_symmetry_space_group_name_H-M "P 21/M"
_symmetry_group_IT_number 11
_symmetry_cell_setting 'monoclinic'
loop_
_space_group_symop_operation_xyz
x,y,z
-x,1/2+y,-z
-x,-y,-z
x,1/2-y,z
loop_
_atom_site_type_symbol
_atom_site_label
_atom_site_fract_x
_atom_site_fract_y
_atom_site_fract_z
Si Si1 0.778445 0.401032 0.203269
Si Si2 0.557189 0.897674 0.639702
Si Si3 0.594578 0.593120 0.858013
Si Si4 0.940140 0.607388 0.376797
Si Si5 0.145349 0.909699 0.992846
Si Si6 0.752162 0.529706 0.510416
O O1 0.799519 0.250000 0.244755
O O2 0.590188 0.435874 0.154869
O O3 0.865791 0.490566 0.298991
O O4 0.863132 0.419759 0.121235
O O5 0.482422 0.750000 0.635320
O O6 0.627305 0.942273 0.755598
O O7 0.411484 0.991691 0.577902
O O8 0.702128 0.893628 0.595110
O O9 0.642112 0.750000 0.890551
O O10 0.692659 0.482929 0.937826
O O11 0.912821 0.750000 0.319361
O O12 0.856059 0.619074 0.461174
O O13 0.132806 0.592469 0.432812
O O14 0.138599 0.750000 0.021712
O O15 0.000000 0.000000 0.000000
#
# Coordination Sequence:
#
# PCOD8075412 Si02
#       6
#     4   4   4   4   4   4
#     4  10  23  43  66  90 123 164 206 249 309 372
#     4  10  20  38  62  87 122 167 207 248 304 364
#     4  10  21  41  67  93 121 162 205 250 305 366
#     4  11  23  38  61  93 127 165 209 255 302 357
#     4  11  25  44  66  95 125 159 199 254 312 370
#     4  10  22  38  57  90 128 165 208 252 305 356
#
# _framework density 20.528372000000001
#
# number of rings (size 3 to 8) (size 9 to 14) (size 15 to 20)
#    0.000    1.667    1.667    2.000    2.333    5.333 
#    0.000    0.833    0.000    0.000    0.000    0.000 
#    0.000    0.000    0.000    0.000    0.000    0.000 
#
# Total GULP energy -297458.876327 kJ/mol
# GULP energy per Si atom -12394.119847 kJ/mol
# Density = 2.048165 g / cm^3
# Si number density = 20.528372 Si / 1000 Ang^3
#
#
#
# Elastic Constant Matrix: (Units=GPa)
#
#
# Indices 1 2 3 4 5 6 
#
# 1 93.3666 40.1916 31.4828 0.0000 -2.4056 0.0000
# 2 40.1916 128.8085 46.9410 0.0000 9.6673 0.0000
# 3 31.4828 46.9410 75.0903 0.0000 -4.5089 0.0000
# 4 0.0000 0.0000 0.0000 26.4157 0.0000 7.4847
# 5 -2.4056 9.6673 -4.5089 0.0000 31.6385 0.0000
# 6 0.0000 0.0000 0.0000 7.4847 0.0000 18.6881
#
#
#
# Elastic Compliance Matrix: (Units=1/GPa)
#
#
# Indices 1 2 3 4 5 6 
#
# 1 0.013225 -0.002899 -0.003650 0.000000 0.001371 0.000000
# 2 -0.002899 0.011218 -0.006068 0.000000 -0.004513 0.000000
# 3 -0.003650 -0.006068 0.018897 0.000000 0.004270 0.000000
# 4 0.000000 0.000000 0.000000 0.042702 0.000000 -0.017102
# 5 0.001371 -0.004513 0.004270 0.000000 0.033699 0.000000
# 6 0.000000 0.000000 0.000000 -0.017102 0.000000 0.060360
#
#
# Mechanical properties :
#
#
# Convention : Reuss Voigt Hill
#
# Bulk Modulus (GPa) = 55.23202 59.38847 57.31024
# Shear Modulus (GPa) = 23.65513 27.25845 25.45679
#
# Velocity S-wave (km/s) = 3.39826 3.64791 3.52530
# Velocity P-wave (km/s) = 6.50855 6.83636 6.67446
#
# Compressibility (1/GPa) = 0.01810544
#
# Stress axis : x y z
#
# Youngs Moduli (GPa) = 75.61692 89.14063 52.91731
#
# Poissons Ratio (x) = 0.25844 0.19314
# Poissons Ratio (y) = 0.21923 0.32112
# Poissons Ratio (z) = 0.27599 0.54093
#
# Static dielectric constant tensor:
#      x y z
#    x 3.919970 0.000000 -0.209930 
#    y 0.000000 3.908980 0.000000 
#    z -0.209930 0.000000 3.716050 
# 
# 
# High freq. dielectric constant tensor:
#      x y z
#    x 1.815110 0.000000 -0.008160 
#    y 0.000000 1.799020 0.000000 
#    z -0.008160 0.000000 1.802010 
# 
# From -- ./inp_files/46825.got.cif
#   From: 2010.06.25/outbox.cif.g09.slc.cpg/sg11_24_cif.got.tgz:46825.got - 2010.06.27 23:14:04.
