data_PCOD8075284
_publ_section_title
;
Structure prediction by ZEFSAII (Michael W. Deem and Ramdas Pophale) SiO2 
 PCOD8075284
Probable space group: P 21/M
;
_chemical_formula_sum "Si O2"
_cell_formula_units_Z 28
_cell_length_a 22.063494
_cell_length_b 8.951932
_cell_length_c 24.391535
_cell_angle_alpha 90.000000
_cell_angle_beta 16.987544
_cell_angle_gamma 90.000000
_cell_volume 1407.526559
_symmetry_space_group_name_H-M "P 21/M"
_symmetry_group_IT_number 11
_symmetry_cell_setting 'monoclinic'
loop_
_space_group_symop_operation_xyz
x,y,z
-x,1/2+y,-z
-x,-y,-z
x,1/2-y,z
loop_
_atom_site_type_symbol
_atom_site_label
_atom_site_fract_x
_atom_site_fract_y
_atom_site_fract_z
Si Si1 0.150389 0.076432 0.438772
Si Si2 0.338057 0.425575 0.393154
Si Si3 0.631685 0.914720 0.431009
Si Si4 0.248593 0.076993 0.935086
Si Si5 0.308876 0.574355 0.196935
Si Si6 0.939521 0.414771 0.997766
Si Si7 0.814160 0.422966 0.369463
O O1 0.181895 0.250000 0.397845
O O2 0.225622 0.034498 0.434004
O O3 0.907462 0.032793 0.645846
O O4 0.292177 0.984856 0.273546
O O5 0.356281 0.250000 0.387082
O O6 0.566575 0.495457 0.193334
O O7 0.197876 0.496287 0.561958
O O8 0.534759 0.750000 0.525086
O O9 0.863109 0.896775 0.210709
O O10 0.500000 0.000000 0.500000
O O11 0.638309 0.007590 0.481643
O O12 0.301683 0.250000 0.881734
O O13 0.043878 0.052165 0.147944
O O14 0.229097 0.007942 0.890820
O O15 0.348783 0.750000 0.163604
O O16 0.500000 0.500000 0.000000
O O17 0.851236 0.250000 0.088823
O O18 0.000000 0.500000 0.000000
O O19 0.759938 0.250000 0.423131
#
# Coordination Sequence:
#
# PCOD8075284 Si02
#       7
#     4   4   4   4   4   4   4
#     4   9  21  40  59  87 123 159 203 245 286 345
#     4  11  23  39  62  87 117 159 199 243 297 352
#     4  10  21  36  55  79 107 141 184 233 290 352
#     4  10  22  40  59  82 114 150 193 244 296 354
#     4  10  20  37  63  92 125 162 199 243 292 342
#     4  10  21  36  55  79 107 142 185 234 291 354
#     4  10  22  40  59  81 113 150 192 242 294 353
#
# _framework density 19.893052000000001
#
# number of rings (size 3 to 8) (size 9 to 14) (size 15 to 20)
#    0.000    2.000    0.000    2.571    2.000    6.286 
#    0.000    4.286    0.000    0.000    0.000    0.000 
#    0.000    0.000    0.000    0.000    0.000    0.000 
#
# Total GULP energy -347226.895586 kJ/mol
# GULP energy per Si atom -12400.960557 kJ/mol
# Density = 1.984777 g / cm^3
# Si number density = 19.893052 Si / 1000 Ang^3
#
#
#
# Elastic Constant Matrix: (Units=GPa)
#
#
# Indices 1 2 3 4 5 6 
#
# 1 169.0730 91.3389 56.2732 0.0000 -2.6584 0.0000
# 2 91.3389 162.3858 54.6814 0.0000 2.1086 0.0000
# 3 56.2732 54.6814 98.9063 0.0000 6.8481 0.0000
# 4 0.0000 0.0000 0.0000 31.9096 0.0000 1.1683
# 5 -2.6584 2.1086 6.8481 0.0000 28.0603 0.0000
# 6 0.0000 0.0000 0.0000 1.1683 0.0000 37.4736
#
#
#
# Elastic Compliance Matrix: (Units=1/GPa)
#
#
# Indices 1 2 3 4 5 6 
#
# 1 0.009226 -0.004180 -0.003072 0.000000 0.001938 0.000000
# 2 -0.004180 0.009467 -0.002827 0.000000 -0.000418 0.000000
# 3 -0.003072 -0.002827 0.013658 0.000000 -0.003412 0.000000
# 4 0.000000 0.000000 0.000000 0.031374 0.000000 -0.000978
# 5 0.001938 -0.000418 -0.003412 0.000000 0.036685 0.000000
# 6 0.000000 0.000000 0.000000 -0.000978 0.000000 0.026716
#
#
# Mechanical properties :
#
#
# Convention : Reuss Voigt Hill
#
# Bulk Modulus (GPa) = 82.01965 92.77244 87.39605
# Shear Modulus (GPa) = 33.03667 34.69347 33.86507
#
# Velocity S-wave (km/s) = 4.07961 4.18065 4.13044
# Velocity P-wave (km/s) = 7.96936 8.36903 8.17164
#
# Compressibility (1/GPa) = 0.01219220
#
# Stress axis : x y z
#
# Youngs Moduli (GPa) = 108.39195 105.63522 73.21977
#
# Poissons Ratio (x) = 0.44155 0.22495
# Poissons Ratio (y) = 0.45307 0.20696
# Poissons Ratio (z) = 0.33301 0.29859
#
# Static dielectric constant tensor:
#      x y z
#    x 3.657600 0.000000 -0.046840 
#    y 0.000000 3.998740 0.000000 
#    z -0.046840 0.000000 3.536390 
# 
# 
# High freq. dielectric constant tensor:
#      x y z
#    x 1.773550 0.000000 0.002400 
#    y 0.000000 1.792850 0.000000 
#    z 0.002400 0.000000 1.780480 
# 
# From -- ./inp_files/69770.got.cif
#   From: 2010.06.25/outbox.cif.g09.slc.cpg/sg11_35_cif.got.tgz:69770.got - 2010.06.27 23:14:04.
