data_PCOD8075449
_publ_section_title
;
Structure prediction by ZEFSAII (Michael W. Deem and Ramdas Pophale) SiO2 
 PCOD8075449
Probable space group: P 21/M
;
_chemical_formula_sum "Si O2"
_cell_formula_units_Z 24
_cell_length_a 19.274836
_cell_length_b 8.610997
_cell_length_c 14.617546
_cell_angle_alpha 90.000000
_cell_angle_beta 31.490526
_cell_angle_gamma 90.000000
_cell_volume 1267.320595
_symmetry_space_group_name_H-M "P 21/M"
_symmetry_group_IT_number 11
_symmetry_cell_setting 'monoclinic'
loop_
_space_group_symop_operation_xyz
x,y,z
-x,1/2+y,-z
-x,-y,-z
x,1/2-y,z
loop_
_atom_site_type_symbol
_atom_site_label
_atom_site_fract_x
_atom_site_fract_y
_atom_site_fract_z
Si Si1 0.886655 0.566775 0.064034
Si Si2 0.531100 0.072291 0.244277
Si Si3 0.125031 0.067249 0.307081
Si Si4 0.595603 0.433124 0.968672
Si Si5 0.834210 0.070750 0.933097
Si Si6 0.613690 0.068462 0.435377
O O1 0.898869 0.750000 0.043150
O O2 0.747924 0.521178 0.264525
O O3 0.906297 0.495997 0.941089
O O4 0.000000 0.500000 0.000000
O O5 0.484601 0.250000 0.307227
O O6 0.532735 0.021103 0.136918
O O7 0.427811 0.961345 0.412693
O O8 0.676721 0.050206 0.124088
O O9 0.125139 0.250000 0.316024
O O10 0.115362 0.020952 0.211937
O O11 0.000000 0.000000 0.500000
O O12 0.257934 0.003410 0.205512
O O13 0.609227 0.250000 0.943673
O O14 0.500000 0.500000 0.000000
O O15 0.871815 0.250000 0.876932
O O16 0.633453 0.250000 0.394100
O O17 0.500000 0.000000 0.500000
#
# Coordination Sequence:
#
# PCOD8075449 Si02
#       6
#     4   4   4   4   4   4
#     4  12  25  42  62  87 122 160 199 246 301 355
#     4   9  19  36  60  88 119 154 197 243 294 351
#     4  11  22  39  63  90 120 157 204 248 295 354
#     4  10  21  39  62  89 123 157 196 246 303 356
#     4  10  20  38  63  89 120 156 198 245 297 355
#     4  12  23  37  61  90 120 155 201 247 290 350
#
# _framework density 18.937591000000001
#
# number of rings (size 3 to 8) (size 9 to 14) (size 15 to 20)
#    0.000    1.333    1.667    6.500    0.000    3.333 
#    3.000    0.000    0.000    0.000    0.000    0.000 
#    0.000    0.000    0.000    0.000    0.000    0.000 
#
# Total GULP energy -297708.829235 kJ/mol
# GULP energy per Si atom -12404.534551 kJ/mol
# Density = 1.889449 g / cm^3
# Si number density = 18.937591 Si / 1000 Ang^3
#
#
#
# Elastic Constant Matrix: (Units=GPa)
#
#
# Indices 1 2 3 4 5 6 
#
# 1 153.8647 47.5521 59.2430 0.0000 -10.9287 0.0000
# 2 47.5521 113.8430 35.2626 0.0000 -2.6928 0.0000
# 3 59.2430 35.2626 113.3533 0.0000 0.0451 0.0000
# 4 0.0000 0.0000 0.0000 34.7436 0.0000 1.7755
# 5 -10.9287 -2.6928 0.0451 0.0000 23.5785 0.0000
# 6 0.0000 0.0000 0.0000 1.7755 0.0000 36.9020
#
#
#
# Elastic Compliance Matrix: (Units=1/GPa)
#
#
# Indices 1 2 3 4 5 6 
#
# 1 0.009071 -0.002464 -0.003976 0.000000 0.003930 0.000000
# 2 -0.002464 0.010420 -0.001953 0.000000 0.000051 0.000000
# 3 -0.003976 -0.001953 0.011508 0.000000 -0.002088 0.000000
# 4 0.000000 0.000000 0.000000 0.028853 0.000000 -0.001388
# 5 0.003930 0.000051 -0.002088 0.000000 0.044243 0.000000
# 6 0.000000 0.000000 0.000000 -0.001388 0.000000 0.027166
#
#
# Mechanical properties :
#
#
# Convention : Reuss Voigt Hill
#
# Bulk Modulus (GPa) = 70.36426 73.90849 72.13638
# Shear Modulus (GPa) = 32.72569 34.97837 33.85203
#
# Velocity S-wave (km/s) = 4.16153 4.30238 4.23254
# Velocity P-wave (km/s) = 7.76709 7.98703 7.87783
#
# Compressibility (1/GPa) = 0.01421176
#
# Stress axis : x y z
#
# Youngs Moduli (GPa) = 110.24393 95.97195 86.89347
#
# Poissons Ratio (x) = 0.23652 0.34546
# Poissons Ratio (y) = 0.27169 0.16974
# Poissons Ratio (z) = 0.43829 0.18747
#
# Static dielectric constant tensor:
#      x y z
#    x 3.562150 0.000000 0.206970 
#    y 0.000000 3.490630 0.000000 
#    z 0.206970 0.000000 3.639860 
# 
# 
# High freq. dielectric constant tensor:
#      x y z
#    x 1.738560 0.000000 0.012680 
#    y 0.000000 1.752040 0.000000 
#    z 0.012680 0.000000 1.733500 
# 
# From -- ./inp_files/53154.got.cif
#   From: 2010.06.25/outbox.cif.g09.slc.cpg/sg11_27_cif.got.tgz:53154.got - 2010.06.27 23:14:04.
