data_PCOD8075301
_publ_section_title
;
Structure prediction by ZEFSAII (Michael W. Deem and Ramdas Pophale) SiO2 
 PCOD8075301
Probable space group: P 21/M
;
_chemical_formula_sum "Si O2"
_cell_formula_units_Z 28
_cell_length_a 20.087606
_cell_length_b 14.313336
_cell_length_c 9.435065
_cell_angle_alpha 90.000000
_cell_angle_beta 152.891686
_cell_angle_gamma 90.000000
_cell_volume 1236.141731
_symmetry_space_group_name_H-M "P 21/M"
_symmetry_group_IT_number 11
_symmetry_cell_setting 'monoclinic'
loop_
_space_group_symop_operation_xyz
x,y,z
-x,1/2+y,-z
-x,-y,-z
x,1/2-y,z
loop_
_atom_site_type_symbol
_atom_site_label
_atom_site_fract_x
_atom_site_fract_y
_atom_site_fract_z
Si Si1 0.011416 0.357193 0.236164
Si Si2 0.187327 0.852869 0.381746
Si Si3 0.624653 0.859374 0.408618
Si Si4 0.887933 0.139689 0.302931
Si Si5 0.074577 0.353689 0.910307
Si Si6 0.699221 0.535974 0.282627
Si Si7 0.589899 0.458711 0.801196
O O1 0.061828 0.250000 0.313162
O O2 0.138464 0.422363 0.415959
O O3 0.980240 0.381710 0.338797
O O4 0.855704 0.375546 0.862335
O O5 0.262250 0.750000 0.539460
O O6 0.027588 0.851220 0.147644
O O7 0.293642 0.927544 0.654600
O O8 0.638472 0.750000 0.405234
O O9 0.599587 0.909456 0.208498
O O10 0.498759 0.878880 0.283409
O O11 0.774112 0.902994 0.758809
O O12 0.857255 0.250000 0.266647
O O13 0.987674 0.096089 0.617884
O O14 0.734833 0.086554 0.011915
O O15 0.114717 0.250000 0.932676
O O16 0.625675 0.539245 0.986765
O O17 0.500000 0.500000 0.500000
#
# Coordination Sequence:
#
# PCOD8075301 Si02
#       7
#     4   4   4   4   4   4   4
#     4  10  22  39  67 105 136 166 222 291 344 394
#     4  10  20  37  65 103 135 166 215 282 347 400
#     4  11  25  47  72  98 137 180 225 281 341 408
#     4  10  22  43  68  95 132 177 223 274 342 407
#     4   9  18  37  68 100 124 165 224 273 334 402
#     4  12  24  42  70 100 131 179 229 284 334 405
#     4  12  29  45  62  95 142 185 232 272 336 408
#
# _framework density 22.651126000000001
#
# number of rings (size 3 to 8) (size 9 to 14) (size 15 to 20)
#    0.000    1.429    2.857    1.714    4.000    1.143 
#    0.000    2.143    0.000    0.000    0.000    0.000 
#    0.000    0.000    0.000    0.000    0.000    0.000 
#
# Total GULP energy -347164.682818 kJ/mol
# GULP energy per Si atom -12398.738672 kJ/mol
# Density = 2.259957 g / cm^3
# Si number density = 22.651126 Si / 1000 Ang^3
#
#
#
# Elastic Constant Matrix: (Units=GPa)
#
#
# Indices 1 2 3 4 5 6 
#
# 1 78.7890 32.3375 24.2656 0.0000 -14.2215 0.0000
# 2 32.3375 102.8631 37.9268 0.0000 -8.7278 0.0000
# 3 24.2656 37.9268 107.5003 0.0000 -26.7038 0.0000
# 4 0.0000 0.0000 0.0000 26.9023 0.0000 -1.9697
# 5 -14.2215 -8.7278 -26.7038 0.0000 38.3244 0.0000
# 6 0.0000 0.0000 0.0000 -1.9697 0.0000 25.9090
#
#
#
# Elastic Compliance Matrix: (Units=1/GPa)
#
#
# Indices 1 2 3 4 5 6 
#
# 1 0.015437 -0.004133 -0.001012 0.000000 0.004082 0.000000
# 2 -0.004133 0.012284 -0.003733 0.000000 -0.001338 0.000000
# 3 -0.001012 -0.003733 0.012750 0.000000 0.007658 0.000000
# 4 0.000000 0.000000 0.000000 0.037380 0.000000 0.002842
# 5 0.004082 -0.001338 0.007658 0.000000 0.032639 0.000000
# 6 0.000000 0.000000 0.000000 0.002842 0.000000 0.038813
#
#
# Mechanical properties :
#
#
# Convention : Reuss Voigt Hill
#
# Bulk Modulus (GPa) = 44.02634 53.13470 48.58052
# Shear Modulus (GPa) = 28.63163 31.20198 29.91680
#
# Velocity S-wave (km/s) = 3.55917 3.71550 3.63818
# Velocity P-wave (km/s) = 6.03069 6.47421 6.25638
#
# Compressibility (1/GPa) = 0.02271368
#
# Stress axis : x y z
#
# Youngs Moduli (GPa) = 64.77874 81.40623 78.42975
#
# Poissons Ratio (x) = 0.33649 0.07940
# Poissons Ratio (y) = 0.26776 0.29279
# Poissons Ratio (z) = 0.06558 0.30390
#
# Static dielectric constant tensor:
#      x y z
#    x 4.035730 0.000000 -0.214710 
#    y 0.000000 4.025240 0.000000 
#    z -0.214710 0.000000 4.133810 
# 
# 
# High freq. dielectric constant tensor:
#      x y z
#    x 1.892910 0.000000 -0.013060 
#    y 0.000000 1.884770 0.000000 
#    z -0.013060 0.000000 1.896760 
# 
# From -- ./inp_files/26936.got.cif
#   From: 2010.06.25/outbox.cif.g09.slc.cpg/sg11_14_cif.got.tgz:26936.got - 2010.06.27 23:14:04.
