data_PCOD8075188
_publ_section_title
;
Structure prediction by ZEFSAII (Michael W. Deem and Ramdas Pophale) SiO2 
 PCOD8075188
Probable space group: P 21/M
;
_chemical_formula_sum "Si O2"
_cell_formula_units_Z 28
_cell_length_a 25.384299
_cell_length_b 8.984942
_cell_length_c 8.982873
_cell_angle_alpha 90.000000
_cell_angle_beta 135.618855
_cell_angle_gamma 90.000000
_cell_volume 1432.975747
_symmetry_space_group_name_H-M "P 21/M"
_symmetry_group_IT_number 11
_symmetry_cell_setting 'monoclinic'
loop_
_space_group_symop_operation_xyz
x,y,z
-x,1/2+y,-z
-x,-y,-z
x,1/2-y,z
loop_
_atom_site_type_symbol
_atom_site_label
_atom_site_fract_x
_atom_site_fract_y
_atom_site_fract_z
Si Si1 0.711997 0.920464 0.563073
Si Si2 0.858776 0.576222 0.384362
Si Si3 0.585442 0.923241 0.836314
Si Si4 0.859448 0.579247 0.044131
Si Si5 0.009217 0.576117 0.861199
Si Si6 0.432405 0.077692 0.540022
Si Si7 0.277287 0.925625 0.723515
O O1 0.711216 0.750000 0.505461
O O2 0.632758 0.964315 0.476408
O O3 0.728486 0.027348 0.459366
O O4 0.775318 0.943738 0.815378
O O5 0.839284 0.750000 0.362773
O O6 0.860804 0.527588 0.217219
O O7 0.795679 0.482706 0.339026
O O8 0.939034 0.534735 0.615604
O O9 0.593477 0.750000 0.888448
O O10 0.596562 0.958224 0.684553
O O11 0.503802 0.977560 0.726154
O O12 0.647759 0.009885 0.053360
O O13 0.885738 0.750000 0.081526
O O14 0.914894 0.477314 0.062570
O O15 0.014896 0.750000 0.900558
O O16 0.000000 0.500000 0.000000
O O17 0.455773 0.250000 0.598345
O O18 0.279964 0.750000 0.739725
#
# Coordination Sequence:
#
# PCOD8075188 Si02
#       7
#     4   4   4   4   4   4   4
#     4  10  21  38  59  82 112 150 188 232 287 340
#     4  10  22  41  62  84 113 151 192 234 286 342
#     4  10  20  37  61  86 115 150 187 232 287 342
#     4  10  21  39  63  87 113 148 191 236 284 340
#     4  11  23  38  59  87 120 155 190 232 283 338
#     4   9  19  37  61  87 113 146 191 236 280 336
#     4  12  25  38  56  84 116 150 191 237 282 335
#
# _framework density 19.539757999999999
#
# number of rings (size 3 to 8) (size 9 to 14) (size 15 to 20)
#    0.000    1.714    0.000    4.286    0.000    9.714 
#    0.000    1.429    0.000    0.000    0.000    0.000 
#    0.000    0.000    0.000    0.000    0.000    0.000 
#
# Total GULP energy -347370.896318 kJ/mol
# GULP energy per Si atom -12406.103440 kJ/mol
# Density = 1.949529 g / cm^3
# Si number density = 19.539758 Si / 1000 Ang^3
#
#
#
# Elastic Constant Matrix: (Units=GPa)
#
#
# Indices 1 2 3 4 5 6 
#
# 1 359.9540 208.3061 710.0719 0.0000 -110.0996 0.0000
# 2 208.3061 189.9479 493.7072 0.0000 -71.7898 0.0000
# 3 710.0719 493.7072 2052.6295 0.0000 -326.4673 0.0000
# 4 0.0000 0.0000 0.0000 36.9640 0.0000 7.3827
# 5 -110.0996 -71.7898 -326.4673 0.0000 83.7495 0.0000
# 6 0.0000 0.0000 0.0000 7.3827 0.0000 37.2355
#
#
#
# Elastic Compliance Matrix: (Units=1/GPa)
#
#
# Indices 1 2 3 4 5 6 
#
# 1 0.010578 -0.005597 -0.002275 0.000000 0.000241 0.000000
# 2 -0.005597 0.017293 -0.002726 0.000000 -0.003160 0.000000
# 3 -0.002275 -0.002726 0.002849 0.000000 0.005777 0.000000
# 4 0.000000 0.000000 0.000000 0.028169 0.000000 -0.005585
# 5 0.000241 -0.003160 0.005777 0.000000 0.032068 0.000000
# 6 0.000000 0.000000 0.000000 -0.005585 0.000000 0.027963
#
#
# Mechanical properties :
#
#
# Convention : Reuss Voigt Hill
#
# Bulk Modulus (GPa) = 104.98760 602.96687 353.97723
# Shear Modulus (GPa) = 34.89408 110.95289 72.92348
#
# Velocity S-wave (km/s) = 4.23046 7.54363 6.11568
# Velocity P-wave (km/s) = 8.81528 19.62472 15.21248
#
# Compressibility (1/GPa) = 0.00952493
#
# Stress axis : x y z
#
# Youngs Moduli (GPa) = 94.53223 57.82674 351.05262
#
# Poissons Ratio (x) = 0.32365 0.79859
# Poissons Ratio (y) = 0.52908 0.95692
# Poissons Ratio (z) = 0.21505 0.15763
#
# Static dielectric constant tensor:
#      x y z
#    x 3.842480 0.000000 -0.176160 
#    y 0.000000 3.515730 0.000000 
#    z -0.176160 0.000000 3.649890 
# 
# 
# High freq. dielectric constant tensor:
#      x y z
#    x 1.771740 0.000000 0.002230 
#    y 0.000000 1.759060 0.000000 
#    z 0.002230 0.000000 1.775040 
# 
# From -- ./inp_files/28573.got.cif
#   From: 2010.06.25/outbox.cif.g09.slc.cpg/sg11_15_cif.got.tgz:28573.got - 2010.06.27 23:14:04.
