data_PCOD8075605
_publ_section_title
;
Structure prediction by ZEFSAII (Michael W. Deem and Ramdas Pophale) SiO2 
 PCOD8075605
Probable space group: P 21/M
;
_chemical_formula_sum "Si O2"
_cell_formula_units_Z 28
_cell_length_a 18.267807
_cell_length_b 8.742014
_cell_length_c 13.500532
_cell_angle_alpha 90.000000
_cell_angle_beta 142.345528
_cell_angle_gamma 90.000000
_cell_volume 1317.096485
_symmetry_space_group_name_H-M "P 21/M"
_symmetry_group_IT_number 11
_symmetry_cell_setting 'monoclinic'
loop_
_space_group_symop_operation_xyz
x,y,z
-x,1/2+y,-z
-x,-y,-z
x,1/2-y,z
loop_
_atom_site_type_symbol
_atom_site_label
_atom_site_fract_x
_atom_site_fract_y
_atom_site_fract_z
Si Si1 0.694512 0.927451 0.064126
Si Si2 0.333091 0.425877 0.749905
Si Si3 0.135490 0.423146 0.395168
Si Si4 0.062819 0.578063 0.660235
Si Si5 0.499539 0.077835 0.753176
Si Si6 0.617871 0.931327 0.571431
Si Si7 0.125631 0.569010 0.175125
O O1 0.674467 0.750000 0.047233
O O2 0.654917 0.001693 0.128626
O O3 0.829721 0.971584 0.190766
O O4 0.622203 0.983738 0.889561
O O5 0.295388 0.250000 0.724588
O O6 0.227810 0.500415 0.571487
O O7 0.452784 0.444483 0.814921
O O8 0.176222 0.250000 0.405491
O O9 0.126682 0.532538 0.292022
O O10 0.011407 0.414183 0.318889
O O11 0.101775 0.750000 0.671332
O O12 0.000000 0.500000 0.500000
O O13 0.535546 0.250000 0.767672
O O14 0.404139 0.025646 0.568193
O O15 0.622714 0.750000 0.596693
O O16 0.500000 0.000000 0.500000
O O17 0.749297 0.002165 0.740092
O O18 0.124569 0.750000 0.154707
O O19 0.000000 0.500000 0.000000
#
# Coordination Sequence:
#
# PCOD8075605 Si02
#       7
#     4   4   4   4   4   4   4
#     4  11  22  36  57  89 128 166 209 257 306 366
#     4   9  17  35  60  86 119 161 202 246 304 363
#     4  10  20  40  65  89 122 164 206 257 317 376
#     4  11  22  37  59  86 123 167 210 255 311 372
#     4  10  21  39  62  87 121 164 206 253 315 375
#     4  11  24  45  72  99 133 174 217 271 335 396
#     4  12  26  45  71 102 131 166 218 275 336 403
#
# _framework density 21.258882
#
# number of rings (size 3 to 8) (size 9 to 14) (size 15 to 20)
#    0.000    1.429    2.857    3.000    0.000    3.429 
#    0.000    2.143    0.000    0.000    0.000    0.000 
#    0.000    0.000    0.000    0.000    0.000    0.000 
#
# Total GULP energy -346897.237294 kJ/mol
# GULP energy per Si atom -12389.187046 kJ/mol
# Density = 2.121050 g / cm^3
# Si number density = 21.258882 Si / 1000 Ang^3
#
#
#
# Elastic Constant Matrix: (Units=GPa)
#
#
# Indices 1 2 3 4 5 6 
#
# 1 71.7130 35.7932 24.3685 0.0000 10.7570 0.0000
# 2 35.7932 81.8836 51.6720 0.0000 3.2727 0.0000
# 3 24.3685 51.6720 153.9274 0.0000 18.8502 0.0000
# 4 0.0000 0.0000 0.0000 36.8739 0.0000 3.0553
# 5 10.7570 3.2727 18.8502 0.0000 24.0368 0.0000
# 6 0.0000 0.0000 0.0000 3.0553 0.0000 31.0645
#
#
#
# Elastic Compliance Matrix: (Units=1/GPa)
#
#
# Indices 1 2 3 4 5 6 
#
# 1 0.019149 -0.008575 0.000833 0.000000 -0.008056 0.000000
# 2 -0.008575 0.019438 -0.005878 0.000000 0.005800 0.000000
# 3 0.000833 -0.005878 0.009166 0.000000 -0.006761 0.000000
# 4 0.000000 0.000000 0.000000 0.027342 0.000000 -0.002689
# 5 -0.008056 0.005800 -0.006761 0.000000 0.049720 0.000000
# 6 0.000000 0.000000 0.000000 -0.002689 0.000000 0.032456
#
#
# Mechanical properties :
#
#
# Convention : Reuss Voigt Hill
#
# Bulk Modulus (GPa) = 48.74552 59.02128 53.88340
# Shear Modulus (GPa) = 26.13043 31.44105 28.78574
#
# Velocity S-wave (km/s) = 3.50973 3.84990 3.68374
# Velocity P-wave (km/s) = 6.27722 6.89824 6.59504
#
# Compressibility (1/GPa) = 0.02051471
#
# Stress axis : x y z
#
# Youngs Moduli (GPa) = 52.22103 51.44550 109.10174
#
# Poissons Ratio (x) = 0.44112 -0.09092
# Poissons Ratio (y) = 0.44777 0.64130
# Poissons Ratio (z) = -0.04352 0.30240
#
# Static dielectric constant tensor:
#      x y z
#    x 3.934390 0.000000 -0.062750 
#    y 0.000000 3.732600 0.000000 
#    z -0.062750 0.000000 4.075890 
# 
# 
# High freq. dielectric constant tensor:
#      x y z
#    x 1.829820 0.000000 0.007460 
#    y 0.000000 1.816700 0.000000 
#    z 0.007460 0.000000 1.847270 
# 
# From -- ./inp_files/54608.got.cif
#   From: 2010.06.25/outbox.cif.g09.slc.cpg/sg11_28_cif.got.tgz:54608.got - 2010.06.27 23:14:04.
