data_PCOD8075588
_publ_section_title
;
Structure prediction by ZEFSAII (Michael W. Deem and Ramdas Pophale) SiO2 
 PCOD8075588
Probable space group: P 21/M
;
_chemical_formula_sum "Si O2"
_cell_formula_units_Z 32
_cell_length_a 15.512352
_cell_length_b 9.049518
_cell_length_c 25.796691
_cell_angle_alpha 90.000000
_cell_angle_beta 152.636020
_cell_angle_gamma 90.000000
_cell_volume 1664.509907
_symmetry_space_group_name_H-M "P 21/M"
_symmetry_group_IT_number 11
_symmetry_cell_setting 'monoclinic'
loop_
_space_group_symop_operation_xyz
x,y,z
-x,1/2+y,-z
-x,-y,-z
x,1/2-y,z
loop_
_atom_site_type_symbol
_atom_site_label
_atom_site_fract_x
_atom_site_fract_y
_atom_site_fract_z
Si Si1 0.012910 0.922262 0.452117
Si Si2 0.390628 0.923409 0.597331
Si Si3 0.891545 0.081454 0.016325
Si Si4 0.649826 0.076002 0.543616
Si Si5 0.932262 0.924996 0.221948
Si Si6 0.244742 0.918404 0.173251
Si Si7 0.284583 0.423856 0.792401
Si Si8 0.678566 0.925583 0.991624
O O1 0.026870 0.750000 0.470284
O O2 0.828980 0.960211 0.320488
O O3 0.194915 0.975568 0.517656
O O4 0.000000 0.000000 0.500000
O O5 0.423205 0.750000 0.622850
O O6 0.392891 0.965858 0.538337
O O7 0.551788 0.011859 0.712566
O O8 0.908869 0.250000 0.044443
O O9 0.747557 0.993226 0.974839
O O10 0.810237 0.071175 0.915684
O O11 0.096484 0.007609 0.129153
O O12 0.638918 0.250000 0.546638
O O13 0.855843 0.013986 0.668370
O O14 0.500000 0.000000 0.500000
O O15 0.939696 0.750000 0.227976
O O16 0.835646 0.980818 0.223004
O O17 0.815828 0.981576 0.110459
O O18 0.246020 0.750000 0.193537
O O19 0.330582 0.250000 0.821007
O O20 0.472673 0.517139 0.893502
O O21 0.675913 0.750000 0.985882
#
# Coordination Sequence:
#
# PCOD8075588 Si02
#       8
#     4   4   4   4   4   4   4   4
#     4  10  22  39  61  87 117 156 198 242 293 348
#     4  10  21  39  62  88 119 158 197 239 296 359
#     4  10  22  41  60  84 117 154 193 237 289 350
#     4  10  21  39  61  87 118 155 197 241 294 353
#     4   9  19  39  62  82 113 153 193 239 291 346
#     4  10  22  39  61  85 115 153 193 239 291 344
#     4  10  20  40  63  82 113 156 196 238 292 350
#     4  11  23  36  58  90 118 148 192 243 292 343
#
# _framework density 19.224878
#
# number of rings (size 3 to 8) (size 9 to 14) (size 15 to 20)
#    0.000    2.000    1.250    1.500    3.500    3.000 
#    0.000    1.875    0.000    0.000    0.000    0.000 
#    0.000    0.000    0.000    0.000    0.000    0.000 
#
# Total GULP energy -396908.412459 kJ/mol
# GULP energy per Si atom -12403.387889 kJ/mol
# Density = 1.918112 g / cm^3
# Si number density = 19.224878 Si / 1000 Ang^3
#
#
#
# Elastic Constant Matrix: (Units=GPa)
#
#
# Indices 1 2 3 4 5 6 
#
# 1 130.9499 45.2309 40.1320 0.0000 16.1651 0.0000
# 2 45.2309 70.8631 49.0612 0.0000 6.0795 0.0000
# 3 40.1320 49.0612 108.3763 0.0000 20.2673 0.0000
# 4 0.0000 0.0000 0.0000 30.6981 0.0000 8.5519
# 5 16.1651 6.0795 20.2673 0.0000 27.0097 0.0000
# 6 0.0000 0.0000 0.0000 8.5519 0.0000 26.4643
#
#
#
# Elastic Compliance Matrix: (Units=1/GPa)
#
#
# Indices 1 2 3 4 5 6 
#
# 1 0.010378 -0.006071 -0.000220 0.000000 -0.004680 0.000000
# 2 -0.006071 0.024280 -0.009772 0.000000 0.005501 0.000000
# 3 -0.000220 -0.009772 0.015467 0.000000 -0.009275 0.000000
# 4 0.000000 0.000000 0.000000 0.035798 0.000000 -0.011568
# 5 -0.004680 0.005501 -0.009275 0.000000 0.045546 0.000000
# 6 0.000000 0.000000 0.000000 -0.011568 0.000000 0.041525
#
#
# Mechanical properties :
#
#
# Convention : Reuss Voigt Hill
#
# Bulk Modulus (GPa) = 55.55547 64.33751 59.94649
# Shear Modulus (GPa) = 23.68321 28.55210 26.11765
#
# Velocity S-wave (km/s) = 3.51366 3.85796 3.68983
# Velocity P-wave (km/s) = 6.73955 7.30641 7.02869
#
# Compressibility (1/GPa) = 0.01800003
#
# Stress axis : x y z
#
# Youngs Moduli (GPa) = 96.35332 41.18556 64.65473
#
# Poissons Ratio (x) = 0.25003 0.01421
# Poissons Ratio (y) = 0.58494 0.63182
# Poissons Ratio (z) = 0.02118 0.40248
#
# Static dielectric constant tensor:
#      x y z
#    x 3.633380 0.000000 0.110610 
#    y 0.000000 3.470770 0.000000 
#    z 0.110610 0.000000 3.773120 
# 
# 
# High freq. dielectric constant tensor:
#      x y z
#    x 1.758740 0.000000 0.004040 
#    y 0.000000 1.734450 0.000000 
#    z 0.004040 0.000000 1.760620 
# 
# From -- ./inp_files/55511.got.cif
#   From: 2010.06.25/outbox.cif.g09.slc.cpg/sg11_28_cif.got.tgz:55511.got - 2010.06.27 23:14:04.
