data_PCOD8075826
_publ_section_title
;
Structure prediction by ZEFSAII (Michael W. Deem and Ramdas Pophale) SiO2 
 PCOD8075826
Probable space group: P 21/M
;
_chemical_formula_sum "Si O2"
_cell_formula_units_Z 32
_cell_length_a 12.018067
_cell_length_b 20.023380
_cell_length_c 8.513814
_cell_angle_alpha 90.000000
_cell_angle_beta 130.338501
_cell_angle_gamma 90.000000
_cell_volume 1561.651850
_symmetry_space_group_name_H-M "P 21/M"
_symmetry_group_IT_number 11
_symmetry_cell_setting 'monoclinic'
loop_
_space_group_symop_operation_xyz
x,y,z
-x,1/2+y,-z
-x,-y,-z
x,1/2-y,z
loop_
_atom_site_type_symbol
_atom_site_label
_atom_site_fract_x
_atom_site_fract_y
_atom_site_fract_z
Si Si1 0.742765 0.176441 0.219720
Si Si2 0.652473 0.961837 0.143721
Si Si3 0.094412 0.950583 0.690029
Si Si4 0.179556 0.440207 0.377232
Si Si5 0.509644 0.866366 0.801527
Si Si6 0.367807 0.952326 0.434685
Si Si7 0.673265 0.678100 0.642781
Si Si8 0.376030 0.824806 0.232459
O O1 0.817012 0.250000 0.290647
O O2 0.864175 0.118955 0.362492
O O3 0.610079 0.179533 0.222241
O O4 0.677080 0.159442 0.989798
O O5 0.719500 0.943293 0.374484
O O6 0.758108 0.009452 0.136056
O O7 0.632008 0.891626 0.035426
O O8 0.500000 0.000000 0.000000
O O9 0.993570 0.935293 0.748661
O O10 0.000000 0.000000 0.500000
O O11 0.218432 0.505866 0.311716
O O12 0.209205 0.377542 0.290934
O O13 0.417848 0.929337 0.652883
O O14 0.591616 0.829469 0.734987
O O15 0.325903 0.886907 0.294715
O O16 0.500000 0.000000 0.500000
O O17 0.752811 0.750000 0.715865
O O18 0.551551 0.675520 0.394979
O O19 0.320752 0.750000 0.237333
#
# Coordination Sequence:
#
# PCOD8075826 Si02
#       8
#     4   4   4   4   4   4   4   4
#     4  11  22  38  62  89 118 157 207 257 304 357
#     4  11  20  35  63  88 118 149 198 259 295 350
#     4  10  23  39  58  90 127 157 197 249 309 362
#     4  11  21  38  58  87 121 158 198 244 304 362
#     4  11  20  33  60  88 117 148 198 257 298 347
#     4  11  20  34  57  87 122 156 197 238 303 360
#     4  10  21  36  55  84 122 157 195 245 307 365
#     4   9  20  36  57  87 120 152 201 258 299 353
#
# _framework density 20.491123000000002
#
# number of rings (size 3 to 8) (size 9 to 14) (size 15 to 20)
#    0.000    1.500    5.000    1.875    1.750    1.000 
#    0.000    3.125    0.000    1.500    0.000    0.000 
#    0.000    0.000    0.000    0.000    0.000    0.000 
#
# Total GULP energy -396437.449741 kJ/mol
# GULP energy per Si atom -12388.670304 kJ/mol
# Density = 2.044448 g / cm^3
# Si number density = 20.491123 Si / 1000 Ang^3
#
#
#
# Elastic Constant Matrix: (Units=GPa)
#
#
# Indices 1 2 3 4 5 6 
#
# 1 145.7051 67.3303 21.6373 0.0000 4.0395 0.0000
# 2 67.3303 161.6818 25.4896 0.0000 -3.9724 0.0000
# 3 21.6373 25.4896 52.1808 0.0000 -5.5935 0.0000
# 4 0.0000 0.0000 0.0000 22.1003 0.0000 -3.1769
# 5 4.0395 -3.9724 -5.5935 0.0000 25.5412 0.0000
# 6 0.0000 0.0000 0.0000 -3.1769 0.0000 26.4726
#
#
#
# Elastic Compliance Matrix: (Units=1/GPa)
#
#
# Indices 1 2 3 4 5 6 
#
# 1 0.008828 -0.003378 -0.002270 0.000000 -0.002419 0.000000
# 2 -0.003378 0.007996 -0.002370 0.000000 0.001259 0.000000
# 3 -0.002270 -0.002370 0.021773 0.000000 0.004759 0.000000
# 4 0.000000 0.000000 0.000000 0.046042 0.000000 0.005525
# 5 -0.002419 0.001259 0.004759 0.000000 0.040773 0.000000
# 6 0.000000 0.000000 0.000000 0.005525 0.000000 0.038438
#
#
# Mechanical properties :
#
#
# Convention : Reuss Voigt Hill
#
# Bulk Modulus (GPa) = 44.32362 65.38690 54.85526
# Shear Modulus (GPa) = 26.67968 31.16353 28.92161
#
# Velocity S-wave (km/s) = 3.61225 3.90401 3.76096
# Velocity P-wave (km/s) = 6.25104 7.23194 6.75930
#
# Compressibility (1/GPa) = 0.02256134
#
# Stress axis : x y z
#
# Youngs Moduli (GPa) = 113.27232 125.05719 45.92760
#
# Poissons Ratio (x) = 0.42244 0.10425
# Poissons Ratio (y) = 0.38263 0.10887
# Poissons Ratio (z) = 0.25712 0.29644
#
# Static dielectric constant tensor:
#      x y z
#    x 4.024460 0.000000 0.079670 
#    y 0.000000 4.016560 0.000000 
#    z 0.079670 0.000000 3.666930 
# 
# 
# High freq. dielectric constant tensor:
#      x y z
#    x 1.788450 0.000000 -0.016280 
#    y 0.000000 1.819720 0.000000 
#    z -0.016280 0.000000 1.772210 
# 
# From -- ./inp_files/19197.got.cif
#   From: 2010.06.25/outbox.cif.g09.slc.cpg/sg11_10_cif.got.tgz:19197.got - 2010.06.27 23:14:04.
