data_PCOD8075635
_publ_section_title
;
Structure prediction by ZEFSAII (Michael W. Deem and Ramdas Pophale) SiO2 
 PCOD8075635
Probable space group: P 21/M
;
_chemical_formula_sum "Si O2"
_cell_formula_units_Z 26
_cell_length_a 13.077895
_cell_length_b 15.174276
_cell_length_c 8.323203
_cell_angle_alpha 90.000000
_cell_angle_beta 134.722893
_cell_angle_gamma 90.000000
_cell_volume 1173.577091
_symmetry_space_group_name_H-M "P 21/M"
_symmetry_group_IT_number 11
_symmetry_cell_setting 'monoclinic'
loop_
_space_group_symop_operation_xyz
x,y,z
-x,1/2+y,-z
-x,-y,-z
x,1/2-y,z
loop_
_atom_site_type_symbol
_atom_site_label
_atom_site_fract_x
_atom_site_fract_y
_atom_site_fract_z
Si Si1 0.947176 0.345219 0.256706
Si Si2 0.525378 0.250000 0.592384
Si Si3 0.689943 0.250000 0.448166
Si Si4 0.623728 0.930839 0.599441
Si Si5 0.267036 0.411535 0.624014
Si Si6 0.094015 0.012787 0.947943
Si Si7 0.847444 0.406932 0.472838
Si Si8 0.473572 0.250000 0.906927
O O1 0.918159 0.250000 0.147819
O O2 0.881713 0.345529 0.361285
O O3 0.117219 0.361604 0.443483
O O4 0.860800 0.414690 0.055017
O O5 0.649042 0.250000 0.592888
O O6 0.429278 0.332633 0.444089
O O7 0.559258 0.250000 0.826090
O O8 0.774990 0.342170 0.522845
O O9 0.570856 0.250000 0.173176
O O10 0.683642 0.950276 0.490888
O O11 0.757353 0.935727 0.869412
O O12 0.500000 0.000000 0.500000
O O13 0.246020 0.506706 0.690556
O O14 0.380583 0.340756 0.819595
O O15 0.000316 0.059308 0.707767
O O16 0.000000 0.000000 0.000000
#
# Coordination Sequence:
#
# PCOD8075635 Si02
#       8
#     4   2   2   4   4   4   4   2
#     4  11  22  42  68  98 137 178 239 297 350 432
#     4  10  26  43  69 101 147 191 239 302 358 439
#     4  12  26  46  64 106 148 182 248 306 343 435
#     4  11  23  44  68 104 142 180 239 292 357 434
#     4  10  20  42  70  92 139 182 229 292 345 437
#     4  11  23  43  72 101 132 188 231 290 370 413
#     4  11  24  43  65 100 140 177 241 295 356 425
#     4  10  24  43  69  99 133 197 239 282 383 412
#
# _framework density 22.154485999999999
#
# number of rings (size 3 to 8) (size 9 to 14) (size 15 to 20)
#    0.000    1.231    4.615    2.769    0.000    6.154 
#    2.769    0.000    0.000    0.000    0.000    0.000 
#    0.000    0.000    0.000    0.000    0.000    0.000 
#
# Total GULP energy -322122.612043 kJ/mol
# GULP energy per Si atom -12389.331232 kJ/mol
# Density = 2.210406 g / cm^3
# Si number density = 22.154486 Si / 1000 Ang^3
#
#
#
# Elastic Constant Matrix: (Units=GPa)
#
#
# Indices 1 2 3 4 5 6 
#
# 1 99.2347 15.6165 12.9870 0.0000 3.0351 0.0000
# 2 15.6165 152.5618 28.0657 0.0000 13.6178 0.0000
# 3 12.9870 28.0657 64.5065 0.0000 4.2475 0.0000
# 4 0.0000 0.0000 0.0000 9.5149 0.0000 3.1807
# 5 3.0351 13.6178 4.2475 0.0000 21.2125 0.0000
# 6 0.0000 0.0000 0.0000 3.1807 0.0000 32.9418
#
#
#
# Elastic Compliance Matrix: (Units=1/GPa)
#
#
# Indices 1 2 3 4 5 6 
#
# 1 0.010436 -0.000682 -0.001758 0.000000 -0.000703 0.000000
# 2 -0.000682 0.007522 -0.002862 0.000000 -0.004158 0.000000
# 3 -0.001758 -0.002862 0.017190 0.000000 -0.001353 0.000000
# 4 0.000000 0.000000 0.000000 0.108603 0.000000 -0.010486
# 5 -0.000703 -0.004158 -0.001353 0.000000 0.050183 0.000000
# 6 0.000000 0.000000 0.000000 -0.010486 0.000000 0.031369
#
#
# Mechanical properties :
#
#
# Convention : Reuss Voigt Hill
#
# Bulk Modulus (GPa) = 40.74114 47.73792 44.23953
# Shear Modulus (GPa) = 20.48429 30.04277 25.26353
#
# Velocity S-wave (km/s) = 3.04404 3.68646 3.38055
# Velocity P-wave (km/s) = 5.54837 6.30195 5.93713
#
# Compressibility (1/GPa) = 0.02454521
#
# Stress axis : x y z
#
# Youngs Moduli (GPa) = 95.82176 132.94053 58.17192
#
# Poissons Ratio (x) = 0.09067 0.10227
# Poissons Ratio (y) = 0.06536 0.16647
# Poissons Ratio (z) = 0.16845 0.38043
#
# Static dielectric constant tensor:
#      x y z
#    x 4.705540 0.000000 -0.190570 
#    y 0.000000 4.306460 0.000000 
#    z -0.190570 0.000000 3.339920 
# 
# 
# High freq. dielectric constant tensor:
#      x y z
#    x 1.887790 0.000000 0.001830 
#    y 0.000000 1.897370 0.000000 
#    z 0.001830 0.000000 1.845060 
# 
# From -- ./inp_files/22472.got.cif
#   From: 2010.06.25/outbox.cif.g09.slc.cpg/sg11_12_cif.got.tgz:22472.got - 2010.06.27 23:14:04.
