data_PCOD8075575
_publ_section_title
;
Structure prediction by ZEFSAII (Michael W. Deem and Ramdas Pophale) SiO2 
 PCOD8075575
Probable space group: P 21/M
;
_chemical_formula_sum "Si O2"
_cell_formula_units_Z 32
_cell_length_a 25.208554
_cell_length_b 12.531589
_cell_length_c 5.242542
_cell_angle_alpha 90.000000
_cell_angle_beta 105.080883
_cell_angle_gamma 90.000000
_cell_volume 1599.097834
_symmetry_space_group_name_H-M "P 21/M"
_symmetry_group_IT_number 11
_symmetry_cell_setting 'monoclinic'
loop_
_space_group_symop_operation_xyz
x,y,z
-x,1/2+y,-z
-x,-y,-z
x,1/2-y,z
loop_
_atom_site_type_symbol
_atom_site_label
_atom_site_fract_x
_atom_site_fract_y
_atom_site_fract_z
Si Si1 0.895340 0.372308 0.829694
Si Si2 0.469574 0.432975 0.164799
Si Si3 0.328806 0.003951 0.398660
Si Si4 0.937392 0.471381 0.385032
Si Si5 0.427842 0.869269 0.428985
Si Si6 0.205743 0.019191 0.282240
Si Si7 0.162671 0.124661 0.725034
Si Si8 0.355105 0.368382 0.926764
O O1 0.889732 0.250000 0.888003
O O2 0.921912 0.386827 0.584789
O O3 0.834540 0.419417 0.760693
O O4 0.932501 0.424439 0.095702
O O5 0.516396 0.357036 0.339702
O O6 0.439033 0.525349 0.282549
O O7 0.421506 0.357376 0.004211
O O8 0.500000 0.500000 0.000000
O O9 0.266025 0.966324 0.346283
O O10 0.334102 0.056232 0.126022
O O11 0.370272 0.902635 0.495192
O O12 0.338748 0.091055 0.628320
O O13 0.898106 0.573975 0.365797
O O14 0.000000 0.500000 0.500000
O O15 0.419455 0.750000 0.292835
O O16 0.198979 0.090647 0.527178
O O17 0.194598 0.091450 0.020511
O O18 0.153896 0.250000 0.711967
O O19 0.330358 0.250000 0.933714
#
# Coordination Sequence:
#
# PCOD8075575 Si02
#       8
#     4   4   4   4   4   4   4   4
#     4  10  21  38  60  85 115 157 197 232 285 341
#     4  10  20  40  57  81 113 146 185 231 281 351
#     4  11  23  40  57  86 116 145 194 240 283 339
#     4  10  21  38  58  89 123 151 190 242 285 334
#     4  10  22  38  59  83 112 148 185 231 288 344
#     4  10  22  38  58  81 116 151 192 246 281 332
#     4  10  21  37  59  85 114 155 196 232 287 343
#     4  11  23  38  59  85 114 148 187 234 290 345
#
# _framework density 20.011284
#
# number of rings (size 3 to 8) (size 9 to 14) (size 15 to 20)
#    0.000    1.750    1.250    2.625    0.000    5.500 
#    0.000    0.000    0.000    4.500    0.000    0.000 
#    0.000    0.000    0.000    0.000    0.000    0.000 
#
# Total GULP energy -396490.284857 kJ/mol
# GULP energy per Si atom -12390.321402 kJ/mol
# Density = 1.996574 g / cm^3
# Si number density = 20.011284 Si / 1000 Ang^3
#
#
#
# Elastic Constant Matrix: (Units=GPa)
#
#
# Indices 1 2 3 4 5 6 
#
# 1 124.8611 35.1364 30.9690 0.0000 18.4947 0.0000
# 2 35.1364 98.4406 3.4394 0.0000 9.8910 0.0000
# 3 30.9690 3.4394 76.2147 0.0000 -5.4934 0.0000
# 4 0.0000 0.0000 0.0000 1.7466 0.0000 14.9529
# 5 18.4947 9.8910 -5.4934 0.0000 31.0674 0.0000
# 6 0.0000 0.0000 0.0000 14.9529 0.0000 -12.9256
#
#
#
# Elastic Compliance Matrix: (Units=1/GPa)
#
#
# Indices 1 2 3 4 5 6 
#
# 1 0.011031 -0.003124 -0.004804 0.000000 -0.006422 0.000000
# 2 -0.003124 0.011418 0.000634 0.000000 -0.001663 0.000000
# 3 -0.004804 0.000634 0.015433 0.000000 0.005387 0.000000
# 4 0.000000 0.000000 0.000000 0.052508 0.000000 0.060743
# 5 -0.006422 -0.001663 0.005387 0.000000 0.037493 0.000000
# 6 0.000000 0.000000 0.000000 0.060743 0.000000 -0.007095
#
#
# Mechanical properties :
#
#
# Convention : Reuss Voigt Hill
#
# Bulk Modulus (GPa) = 42.92970 48.73400 45.83185
# Shear Modulus (GPa) = 34.93095 19.30912 27.12003
#
# Velocity S-wave (km/s) = 4.18253 3.10967 3.68535
# Velocity P-wave (km/s) = 6.69507 6.10734 6.40795
#
# Compressibility (1/GPa) = 0.02329390
#
# Stress axis : x y z
#
# Youngs Moduli (GPa) = 90.65542 87.57734 64.79797
#
# Poissons Ratio (x) = 0.27361 0.31130
# Poissons Ratio (y) = 0.28322 -0.04110
# Poissons Ratio (z) = 0.43552 -0.05555
#
# Static dielectric constant tensor:
#      x y z
#    x 3.718230 0.000000 -0.071050 
#    y 0.000000 3.424540 0.000000 
#    z -0.071050 0.000000 3.907010 
# 
# 
# High freq. dielectric constant tensor:
#      x y z
#    x 1.792410 0.000000 0.003060 
#    y 0.000000 1.770470 0.000000 
#    z 0.003060 0.000000 1.786500 
# 
# From -- ./inp_files/9421.got.cif
#   From: 2010.06.25/outbox.cif.g09.slc.cpg/sg11_5_cif.got.tgz:9421.got - 2010.06.27 23:14:04.
