data_PCOD8075987
_publ_section_title
;
Structure prediction by ZEFSAII (Michael W. Deem and Ramdas Pophale) SiO2 
 PCOD8075987
Probable space group: P 21/M
;
_chemical_formula_sum "Si O2"
_cell_formula_units_Z 32
_cell_length_a 28.692049
_cell_length_b 9.044216
_cell_length_c 11.816600
_cell_angle_alpha 90.000000
_cell_angle_beta 30.868716
_cell_angle_gamma 90.000000
_cell_volume 1573.272318
_symmetry_space_group_name_H-M "P 21/M"
_symmetry_group_IT_number 11
_symmetry_cell_setting 'monoclinic'
loop_
_space_group_symop_operation_xyz
x,y,z
-x,1/2+y,-z
-x,-y,-z
x,1/2-y,z
loop_
_atom_site_type_symbol
_atom_site_label
_atom_site_fract_x
_atom_site_fract_y
_atom_site_fract_z
Si Si1 0.582109 0.918985 0.390217
Si Si2 0.999018 0.573479 0.878940
Si Si3 0.490200 0.084890 0.213335
Si Si4 0.770297 0.420478 0.983626
Si Si5 0.172158 0.579477 0.378740
Si Si6 0.688176 0.918390 0.531112
Si Si7 0.673587 0.580804 0.817265
Si Si8 0.836295 0.077196 0.089562
O O1 0.582233 0.750000 0.349181
O O2 0.569627 0.933247 0.549804
O O3 0.500000 0.000000 0.500000
O O4 0.678879 0.987331 0.156511
O O5 0.996792 0.750000 0.897186
O O6 0.085810 0.515832 0.626600
O O7 0.912453 0.522567 0.988451
O O8 0.000000 0.500000 0.000000
O O9 0.531885 0.250000 0.118323
O O10 0.419769 0.055133 0.258110
O O11 0.569926 0.967910 0.043761
O O12 0.740406 0.250000 0.054847
O O13 0.827450 0.465714 0.975728
O O14 0.836819 0.447486 0.737535
O O15 0.180842 0.750000 0.390126
O O16 0.265276 0.506129 0.222616
O O17 0.713257 0.750000 0.442368
O O18 0.712447 0.945653 0.610990
O O19 0.741507 0.038148 0.346533
O O20 0.677383 0.750000 0.844245
O O21 0.858245 0.250000 0.060980
#
# Coordination Sequence:
#
# PCOD8075987 Si02
#       8
#     4   4   4   4   4   4   4   4
#     4  11  22  36  57  84 118 161 207 251 301 356
#     4  11  24  43  68  95 124 159 200 246 301 365
#     4  10  21  37  56  80 116 160 201 244 300 363
#     4  10  22  41  62  87 120 158 203 250 298 356
#     4  10  23  43  63  85 119 160 199 242 299 361
#     4  10  21  39  59  84 120 159 202 249 300 360
#     4  11  23  36  57  88 119 154 200 254 302 354
#     4  11  23  39  64  94 123 157 200 253 306 360
#
# _framework density 20.339770999999999
#
# number of rings (size 3 to 8) (size 9 to 14) (size 15 to 20)
#    0.000    1.500    1.250    3.375    0.000   10.000 
#    0.000    0.000    0.000    0.000    0.000    0.000 
#    0.000    0.000    0.000    0.000    0.000    0.000 
#
# Total GULP energy -396899.887845 kJ/mol
# GULP energy per Si atom -12403.121495 kJ/mol
# Density = 2.029348 g / cm^3
# Si number density = 20.339771 Si / 1000 Ang^3
#
#
#
# Elastic Constant Matrix: (Units=GPa)
#
#
# Indices 1 2 3 4 5 6 
#
# 1 124.5792 45.2564 46.0959 0.0000 0.7408 0.0000
# 2 45.2564 70.4327 43.6103 0.0000 4.0086 0.0000
# 3 46.0959 43.6103 109.5707 0.0000 5.4611 0.0000
# 4 0.0000 0.0000 0.0000 32.5892 0.0000 -1.1107
# 5 0.7408 4.0086 5.4611 0.0000 29.5866 0.0000
# 6 0.0000 0.0000 0.0000 -1.1107 0.0000 26.1441
#
#
#
# Elastic Compliance Matrix: (Units=1/GPa)
#
#
# Indices 1 2 3 4 5 6 
#
# 1 0.010949 -0.005583 -0.002430 0.000000 0.000931 0.000000
# 2 -0.005583 0.021729 -0.006217 0.000000 -0.001657 0.000000
# 3 -0.002430 -0.006217 0.012695 0.000000 -0.001440 0.000000
# 4 0.000000 0.000000 0.000000 0.030730 0.000000 0.001306
# 5 0.000931 -0.001657 -0.001440 0.000000 0.034266 0.000000
# 6 0.000000 0.000000 0.000000 0.001306 0.000000 0.038305
#
#
# Mechanical properties :
#
#
# Convention : Reuss Voigt Hill
#
# Bulk Modulus (GPa) = 59.12983 63.83422 61.48202
# Shear Modulus (GPa) = 27.35632 28.97196 28.16414
#
# Velocity S-wave (km/s) = 3.67136 3.77822 3.72517
# Velocity P-wave (km/s) = 6.86338 7.10530 6.98539
#
# Compressibility (1/GPa) = 0.01691194
#
# Stress axis : x y z
#
# Youngs Moduli (GPa) = 91.33184 46.02081 78.77018
#
# Poissons Ratio (x) = 0.25696 0.19144
# Poissons Ratio (y) = 0.50995 0.48971
# Poissons Ratio (z) = 0.22197 0.28611
#
# Static dielectric constant tensor:
#      x y z
#    x 3.840800 0.000000 0.183220 
#    y 0.000000 3.736080 0.000000 
#    z 0.183220 0.000000 3.696620 
# 
# 
# High freq. dielectric constant tensor:
#      x y z
#    x 1.807740 0.000000 0.008260 
#    y 0.000000 1.796360 0.000000 
#    z 0.008260 0.000000 1.792710 
# 
# From -- ./inp_files/45214.got.cif
#   From: 2010.06.25/outbox.cif.g09.slc.cpg/sg11_23_cif.got.tgz:45214.got - 2010.06.27 23:14:04.
