data_PCOD8075121
_publ_section_title
;
Structure prediction by ZEFSAII (Michael W. Deem and Ramdas Pophale) SiO2 
 PCOD8075121
Probable space group: P 21/M
;
_chemical_formula_sum "Si O2"
_cell_formula_units_Z 20
_cell_length_a 21.796375
_cell_length_b 9.112601
_cell_length_c 5.292680
_cell_angle_alpha 90.000000
_cell_angle_beta 58.369500
_cell_angle_gamma 90.000000
_cell_volume 895.076866
_symmetry_space_group_name_H-M "P 21/M"
_symmetry_group_IT_number 11
_symmetry_cell_setting 'monoclinic'
loop_
_space_group_symop_operation_xyz
x,y,z
-x,1/2+y,-z
-x,-y,-z
x,1/2-y,z
loop_
_atom_site_type_symbol
_atom_site_label
_atom_site_fract_x
_atom_site_fract_y
_atom_site_fract_z
Si Si1 0.698852 0.577245 0.314811
Si Si2 0.107692 0.909108 0.339684
Si Si3 0.959330 0.907910 0.885048
Si Si4 0.778951 0.575226 0.638586
Si Si5 0.467290 0.073325 0.320642
O O1 0.704680 0.750000 0.308467
O O2 0.738951 0.514206 0.476586
O O3 0.616227 0.529415 0.499531
O O4 0.735267 0.518080 0.979739
O O5 0.146047 0.750000 0.220530
O O6 0.022596 0.879129 0.545926
O O7 0.111569 0.012305 0.080612
O O8 0.142496 0.997597 0.503000
O O9 0.931453 0.750000 0.047992
O O10 0.000000 0.000000 0.000000
O O11 0.786909 0.750000 0.619062
O O12 0.479134 0.250000 0.295318
O O13 0.500000 0.000000 0.500000
O O14 0.500000 0.000000 0.000000
#
# Coordination Sequence:
#
# PCOD8075121 Si02
#       5
#     4   4   4   4   4
#     4   9  20  38  60  86 120 160 204 247 294 360
#     4  10  22  38  54  81 114 148 189 244 304 353
#     4  10  21  37  58  81 110 146 192 243 296 356
#     4  10  20  37  60  85 113 157 206 246 294 358
#     4  11  22  40  66  96 130 167 211 261 313 371
#
# _framework density 22.344449999999998
#
# number of rings (size 3 to 8) (size 9 to 14) (size 15 to 20)
#    0.000    2.000    0.000    3.000    2.800    5.600 
#    0.000    6.000    0.000    0.000    0.000    0.000 
#    0.000    0.000    0.000    0.000    0.000    0.000 
#
# Total GULP energy -247820.861342 kJ/mol
# GULP energy per Si atom -12391.043067 kJ/mol
# Density = 2.229359 g / cm^3
# Si number density = 22.344450 Si / 1000 Ang^3
#
#
#
# Elastic Constant Matrix: (Units=GPa)
#
#
# Indices 1 2 3 4 5 6 
#
# 1 166.8483 49.2750 34.6955 0.0000 30.2498 0.0000
# 2 49.2750 135.2672 3.7981 0.0000 21.7109 0.0000
# 3 34.6955 3.7981 80.7692 0.0000 16.0914 0.0000
# 4 0.0000 0.0000 0.0000 23.0071 0.0000 2.4191
# 5 30.2498 21.7109 16.0914 0.0000 44.9798 0.0000
# 6 0.0000 0.0000 0.0000 2.4191 0.0000 36.1332
#
#
#
# Elastic Compliance Matrix: (Units=1/GPa)
#
#
# Indices 1 2 3 4 5 6 
#
# 1 0.007780 -0.002244 -0.002595 0.000000 -0.003221 0.000000
# 2 -0.002244 0.008675 0.001173 0.000000 -0.003097 0.000000
# 3 -0.002595 0.001173 0.014219 0.000000 -0.003908 0.000000
# 4 0.000000 0.000000 0.000000 0.043773 0.000000 -0.002931
# 5 -0.003221 -0.003097 -0.003908 0.000000 0.027291 0.000000
# 6 0.000000 0.000000 0.000000 -0.002931 0.000000 0.027872
#
#
# Mechanical properties :
#
#
# Convention : Reuss Voigt Hill
#
# Bulk Modulus (GPa) = 42.84176 62.04690 52.44433
# Shear Modulus (GPa) = 34.54924 40.49842 37.52383
#
# Velocity S-wave (km/s) = 3.93646 4.26192 4.10242
# Velocity P-wave (km/s) = 6.31473 7.21438 6.77950
#
# Compressibility (1/GPa) = 0.02334171
#
# Stress axis : x y z
#
# Youngs Moduli (GPa) = 128.53975 115.28026 70.32857
#
# Poissons Ratio (x) = 0.25871 0.18248
# Poissons Ratio (y) = 0.28847 -0.08251
# Poissons Ratio (z) = 0.33353 -0.13525
#
# Static dielectric constant tensor:
#      x y z
#    x 4.374090 0.000000 -0.270560 
#    y 0.000000 1.748350 0.000000 
#    z -0.270560 0.000000 4.506970 
# 
# 
# High freq. dielectric constant tensor:
#      x y z
#    x 1.888650 0.000000 0.010490 
#    y 0.000000 1.869450 0.000000 
#    z 0.010490 0.000000 1.880470 
# 
# From -- ./inp_files/7449.got.cif
#   From: 2010.06.25/outbox.cif.g09.slc.cpg/sg11_4_cif.got.tgz:7449.got - 2010.06.27 23:14:04.
