data_PCOD8075916
_publ_section_title
;
Structure prediction by ZEFSAII (Michael W. Deem and Ramdas Pophale) SiO2 
 PCOD8075916
Probable space group: P 21/M
;
_chemical_formula_sum "Si O2"
_cell_formula_units_Z 32
_cell_length_a 12.924411
_cell_length_b 17.672349
_cell_length_c 14.596991
_cell_angle_alpha 90.000000
_cell_angle_beta 151.776952
_cell_angle_gamma 90.000000
_cell_volume 1576.676189
_symmetry_space_group_name_H-M "P 21/M"
_symmetry_group_IT_number 11
_symmetry_cell_setting 'monoclinic'
loop_
_space_group_symop_operation_xyz
x,y,z
-x,1/2+y,-z
-x,-y,-z
x,1/2-y,z
loop_
_atom_site_type_symbol
_atom_site_label
_atom_site_fract_x
_atom_site_fract_y
_atom_site_fract_z
Si Si1 0.510315 0.660996 0.895011
Si Si2 0.725977 0.084737 0.124167
Si Si3 0.131070 0.333769 0.379608
Si Si4 0.044350 0.662705 0.949711
Si Si5 0.523794 0.100722 0.782729
Si Si6 0.605246 0.438055 0.362029
Si Si7 0.852554 0.560868 0.936332
Si Si8 0.099429 0.432855 0.811316
O O1 0.462674 0.750000 0.870539
O O2 0.371955 0.608885 0.855911
O O3 0.437631 0.632799 0.738080
O O4 0.771395 0.645221 0.110215
O O5 0.973839 0.112681 0.313876
O O6 0.756985 0.994741 0.133201
O O7 0.575396 0.123865 0.927978
O O8 0.043041 0.250000 0.326475
O O9 0.370208 0.340968 0.609491
O O10 0.126764 0.352120 0.267376
O O11 0.121580 0.750000 0.012954
O O12 0.929605 0.642104 0.956428
O O13 0.247636 0.605119 0.093891
O O14 0.410366 0.018811 0.700165
O O15 0.411292 0.441886 0.287685
O O16 0.845246 0.426964 0.590118
O O17 0.888526 0.549385 0.071995
O O18 0.000000 0.500000 0.000000
#
# Coordination Sequence:
#
# PCOD8075916 Si02
#       8
#     4   4   4   4   4   4   4   4
#     4  11  26  45  64  92 130 168 212 262 316 379
#     4  11  21  41  68  93 123 163 211 259 320 377
#     4  10  21  36  59  94 133 164 203 263 321 375
#     4  10  22  39  60  89 130 170 207 259 321 375
#     4  11  20  38  64  95 127 161 209 262 317 374
#     4  11  24  41  66  93 125 167 207 264 314 375
#     4  11  21  39  62  95 125 163 213 260 312 373
#     4  11  24  42  66  95 124 166 211 264 315 373
#
# _framework density 20.295859
#
# number of rings (size 3 to 8) (size 9 to 14) (size 15 to 20)
#    0.000    1.250    5.000    1.875    0.000    7.000 
#    0.000    0.000    0.000    0.000    0.000    0.000 
#    0.000    0.000    0.000    0.000    0.000    0.000 
#
# Total GULP energy -396521.530840 kJ/mol
# GULP energy per Si atom -12391.297839 kJ/mol
# Density = 2.024966 g / cm^3
# Si number density = 20.295859 Si / 1000 Ang^3
#
#
#
# Elastic Constant Matrix: (Units=GPa)
#
#
# Indices 1 2 3 4 5 6 
#
# 1 87.5932 39.8523 22.5861 0.0000 14.4539 0.0000
# 2 39.8523 86.3676 36.6314 0.0000 4.4362 0.0000
# 3 22.5861 36.6314 128.9444 0.0000 6.7943 0.0000
# 4 0.0000 0.0000 0.0000 26.4186 0.0000 -1.8593
# 5 14.4539 4.4362 6.7943 0.0000 15.8549 0.0000
# 6 0.0000 0.0000 0.0000 -1.8593 0.0000 25.5710
#
#
#
# Elastic Compliance Matrix: (Units=1/GPa)
#
#
# Indices 1 2 3 4 5 6 
#
# 1 0.016856 -0.006981 -0.000269 0.000000 -0.013298 0.000000
# 2 -0.006981 0.016126 -0.003536 0.000000 0.003367 0.000000
# 3 -0.000269 -0.003536 0.008944 0.000000 -0.002598 0.000000
# 4 0.000000 0.000000 0.000000 0.038047 0.000000 0.002766
# 5 -0.013298 0.003367 -0.002598 0.000000 0.075366 0.000000
# 6 0.000000 0.000000 0.000000 0.002766 0.000000 0.039308
#
#
# Mechanical properties :
#
#
# Convention : Reuss Voigt Hill
#
# Bulk Modulus (GPa) = 49.12720 55.67165 52.39943
# Shear Modulus (GPa) = 22.42121 27.15794 24.78958
#
# Velocity S-wave (km/s) = 3.32734 3.66198 3.49866
# Velocity P-wave (km/s) = 6.24657 6.73570 6.49574
#
# Compressibility (1/GPa) = 0.02035532
#
# Stress axis : x y z
#
# Youngs Moduli (GPa) = 59.32561 62.01040 111.80984
#
# Poissons Ratio (x) = 0.43289 0.03004
# Poissons Ratio (y) = 0.41414 0.39535
# Poissons Ratio (z) = 0.01594 0.21926
#
# Static dielectric constant tensor:
#      x y z
#    x 3.717720 0.000000 0.155200 
#    y 0.000000 3.666940 0.000000 
#    z 0.155200 0.000000 3.880270 
# 
# 
# High freq. dielectric constant tensor:
#      x y z
#    x 1.783600 0.000000 0.009890 
#    y 0.000000 1.791760 0.000000 
#    z 0.009890 0.000000 1.794190 
# 
# From -- ./inp_files/50739.got.cif
#   From: 2010.06.25/outbox.cif.g09.slc.cpg/sg11_26_cif.got.tgz:50739.got - 2010.06.27 23:14:04.
