data_PCOD8075458
_publ_section_title
;
Structure prediction by ZEFSAII (Michael W. Deem and Ramdas Pophale) SiO2 
 PCOD8075458
Probable space group: P 21/M
;
_chemical_formula_sum "Si O2"
_cell_formula_units_Z 28
_cell_length_a 21.549678
_cell_length_b 8.682461
_cell_length_c 14.635264
_cell_angle_alpha 90.000000
_cell_angle_beta 149.387106
_cell_angle_gamma 90.000000
_cell_volume 1394.448642
_symmetry_space_group_name_H-M "P 21/M"
_symmetry_group_IT_number 11
_symmetry_cell_setting 'monoclinic'
loop_
_space_group_symop_operation_xyz
x,y,z
-x,1/2+y,-z
-x,-y,-z
x,1/2-y,z
loop_
_atom_site_type_symbol
_atom_site_label
_atom_site_fract_x
_atom_site_fract_y
_atom_site_fract_z
Si Si1 0.133401 0.429022 0.332981
Si Si2 0.115473 0.429769 0.945345
Si Si3 0.509921 0.072949 0.413938
Si Si4 0.603539 0.073833 0.022849
Si Si5 0.293705 0.572473 0.035674
Si Si6 0.210361 0.573971 0.249464
Si Si7 0.349863 0.927251 0.714512
O O1 0.105418 0.250000 0.304903
O O2 0.138087 0.474405 0.232293
O O3 0.258311 0.467619 0.541918
O O4 0.024206 0.520613 0.243003
O O5 0.124396 0.250000 0.974707
O O6 0.185312 0.471848 0.940536
O O7 0.181105 0.516402 0.111363
O O8 0.466990 0.250000 0.364180
O O9 0.646440 0.058999 0.549233
O O10 0.500000 0.000000 0.500000
O O11 0.425127 0.977822 0.238939
O O12 0.556445 0.250000 0.962618
O O13 0.703101 0.046224 0.069612
O O14 0.487840 0.964315 0.860316
O O15 0.668481 0.036559 0.201305
O O16 0.271290 0.750000 0.032831
O O17 0.167205 0.750000 0.203356
O O18 0.322870 0.750000 0.656441
#
# Coordination Sequence:
#
# PCOD8075458 Si02
#       7
#     4   4   4   4   4   4   4
#     4  12  25  41  61  85 116 155 199 244 293 347
#     4  12  25  41  60  83 116 156 199 244 292 348
#     4  11  22  35  56  84 118 154 192 237 287 341
#     4   9  20  38  63  92 122 155 190 237 295 350
#     4  11  22  38  59  86 121 157 196 239 292 351
#     4  11  23  40  61  87 118 155 198 243 292 345
#     4  10  20  38  63  92 122 151 193 243 291 346
#
# _framework density 20.079620999999999
#
# number of rings (size 3 to 8) (size 9 to 14) (size 15 to 20)
#    0.000    1.143    1.429    5.571    0.000    5.714 
#    0.000    0.714    0.000    0.000    0.000    0.000 
#    0.000    0.000    0.000    0.000    0.000    0.000 
#
# Total GULP energy -347384.699925 kJ/mol
# GULP energy per Si atom -12406.596426 kJ/mol
# Density = 2.003392 g / cm^3
# Si number density = 20.079621 Si / 1000 Ang^3
#
#
#
# Elastic Constant Matrix: (Units=GPa)
#
#
# Indices 1 2 3 4 5 6 
#
# 1 113.9110 25.5589 25.8335 0.0000 -0.1938 0.0000
# 2 25.5589 75.1103 20.2609 0.0000 2.6929 0.0000
# 3 25.8335 20.2609 47.6575 0.0000 2.8669 0.0000
# 4 0.0000 0.0000 0.0000 31.4970 0.0000 4.3153
# 5 -0.1938 2.6929 2.8669 0.0000 25.9588 0.0000
# 6 0.0000 0.0000 0.0000 4.3153 0.0000 32.4131
#
#
#
# Elastic Compliance Matrix: (Units=1/GPa)
#
#
# Indices 1 2 3 4 5 6 
#
# 1 0.010358 -0.002289 -0.004692 0.000000 0.000833 0.000000
# 2 -0.002289 0.015563 -0.005313 0.000000 -0.001045 0.000000
# 3 -0.004692 -0.005313 0.025926 0.000000 -0.002347 0.000000
# 4 0.000000 0.000000 0.000000 0.032339 0.000000 -0.004305
# 5 0.000833 -0.001045 -0.002347 0.000000 0.038896 0.000000
# 6 0.000000 0.000000 0.000000 -0.004305 0.000000 0.031425
#
#
# Mechanical properties :
#
#
# Convention : Reuss Voigt Hill
#
# Bulk Modulus (GPa) = 36.68335 42.22060 39.45197
# Shear Modulus (GPa) = 26.57017 28.97548 27.77282
#
# Velocity S-wave (km/s) = 3.64158 3.80284 3.72309
# Velocity P-wave (km/s) = 5.99918 6.35251 6.17837
#
# Compressibility (1/GPa) = 0.02726033
#
# Stress axis : x y z
#
# Youngs Moduli (GPa) = 96.54588 64.25403 38.57114
#
# Poissons Ratio (x) = 0.14707 0.18096
# Poissons Ratio (y) = 0.22098 0.20492
# Poissons Ratio (z) = 0.45296 0.34137
#
# Static dielectric constant tensor:
#      x y z
#    x 3.710310 0.000000 0.029210 
#    y 0.000000 3.773150 0.000000 
#    z 0.029210 0.000000 3.511300 
# 
# 
# High freq. dielectric constant tensor:
#      x y z
#    x 1.792300 0.000000 0.000380 
#    y 0.000000 1.797020 0.000000 
#    z 0.000380 0.000000 1.768610 
# 
# From -- ./inp_files/54593.got.cif
#   From: 2010.06.25/outbox.cif.g09.slc.cpg/sg11_28_cif.got.tgz:54593.got - 2010.06.27 23:14:04.
