data_PCOD8075742
_publ_section_title
;
Structure prediction by ZEFSAII (Michael W. Deem and Ramdas Pophale) SiO2 
 PCOD8075742
Probable space group: P 21/M
;
_chemical_formula_sum "Si O2"
_cell_formula_units_Z 32
_cell_length_a 12.205868
_cell_length_b 8.794610
_cell_length_c 31.999355
_cell_angle_alpha 90.000000
_cell_angle_beta 28.317403
_cell_angle_gamma 90.000000
_cell_volume 1629.410580
_symmetry_space_group_name_H-M "P 21/M"
_symmetry_group_IT_number 11
_symmetry_cell_setting 'monoclinic'
loop_
_space_group_symop_operation_xyz
x,y,z
-x,1/2+y,-z
-x,-y,-z
x,1/2-y,z
loop_
_atom_site_type_symbol
_atom_site_label
_atom_site_fract_x
_atom_site_fract_y
_atom_site_fract_z
Si Si1 0.269234 0.571528 0.028333
Si Si2 0.465836 0.069146 0.255538
Si Si3 0.022070 0.069805 0.355973
Si Si4 0.873060 0.069915 0.316716
Si Si5 0.408153 0.575359 0.446972
Si Si6 0.939741 0.930018 0.064692
Si Si7 0.211757 0.429749 0.132681
Si Si8 0.751677 0.073543 0.590684
O O1 0.251028 0.750000 0.041060
O O2 0.146090 0.494736 0.109416
O O3 0.142529 0.521246 0.028496
O O4 0.534737 0.516827 0.937291
O O5 0.494176 0.250000 0.246720
O O6 0.272043 0.014341 0.287583
O O7 0.701992 0.993222 0.162296
O O8 0.392323 0.013850 0.325917
O O9 0.019861 0.250000 0.355470
O O10 0.969119 0.002038 0.328013
O O11 0.829703 0.012967 0.453355
O O12 0.890115 0.250000 0.311896
O O13 0.029624 0.003017 0.226897
O O14 0.610418 0.023470 0.398657
O O15 0.449419 0.750000 0.445715
O O16 0.399528 0.555508 0.400238
O O17 0.922860 0.750000 0.065924
O O18 0.000000 0.000000 0.000000
O O19 0.197105 0.250000 0.135212
O O20 0.784350 0.250000 0.591651
O O21 0.000000 0.000000 0.500000
#
# Coordination Sequence:
#
# PCOD8075742 Si02
#       8
#     4   4   4   4   4   4   4   4
#     4   9  20  39  61  82 114 153 189 235 296 353
#     4  11  23  41  65  90 121 164 205 249 306 362
#     4   9  19  38  60  82 115 158 197 238 297 358
#     4  10  21  35  58  87 113 147 198 246 289 350
#     4  10  21  38  57  82 119 158 196 240 297 352
#     4  11  25  43  64  93 124 159 201 248 304 364
#     4   9  19  36  59  86 111 146 194 241 291 351
#     4  11  22  39  62  90 124 162 206 254 301 361
#
# _framework density 19.639005000000001
#
# number of rings (size 3 to 8) (size 9 to 14) (size 15 to 20)
#    0.000    2.000    1.250    1.500    3.500    2.500 
#    0.000    1.250    0.000    0.000    0.000    0.000 
#    0.000    0.000    0.000    0.000    0.000    0.000 
#
# Total GULP energy -396861.058836 kJ/mol
# GULP energy per Si atom -12401.908089 kJ/mol
# Density = 1.959431 g / cm^3
# Si number density = 19.639005 Si / 1000 Ang^3
#
#
#
# Elastic Constant Matrix: (Units=GPa)
#
#
# Indices 1 2 3 4 5 6 
#
# 1 136.4685 43.8014 51.1961 0.0000 8.5531 0.0000
# 2 43.8014 46.2578 35.2230 0.0000 1.0303 0.0000
# 3 51.1961 35.2230 120.0781 0.0000 10.2274 0.0000
# 4 0.0000 0.0000 0.0000 33.3392 0.0000 -1.0056
# 5 8.5531 1.0303 10.2274 0.0000 32.4788 0.0000
# 6 0.0000 0.0000 0.0000 -1.0056 0.0000 29.3693
#
#
#
# Elastic Compliance Matrix: (Units=1/GPa)
#
#
# Indices 1 2 3 4 5 6 
#
# 1 0.011047 -0.008962 -0.001909 0.000000 -0.002024 0.000000
# 2 -0.008962 0.035201 -0.006793 0.000000 0.003382 0.000000
# 3 -0.001909 -0.006793 0.011378 0.000000 -0.002865 0.000000
# 4 0.000000 0.000000 0.000000 0.030026 0.000000 0.001028
# 5 -0.002024 0.003382 -0.002865 0.000000 0.032117 0.000000
# 6 0.000000 0.000000 0.000000 0.001028 0.000000 0.034084
#
#
# Mechanical properties :
#
#
# Convention : Reuss Voigt Hill
#
# Bulk Modulus (GPa) = 44.84418 62.58282 53.71350
# Shear Modulus (GPa) = 25.43058 30.54305 27.98681
#
# Velocity S-wave (km/s) = 3.60238 3.94791 3.77910
# Velocity P-wave (km/s) = 6.33929 7.26065 6.81556
#
# Compressibility (1/GPa) = 0.02229944
#
# Stress axis : x y z
#
# Youngs Moduli (GPa) = 90.52171 28.40824 87.88661
#
# Poissons Ratio (x) = 0.25459 0.16776
# Poissons Ratio (y) = 0.81125 0.59699
# Poissons Ratio (z) = 0.17279 0.19297
#
# Static dielectric constant tensor:
#      x y z
#    x 3.849800 0.000000 0.081740 
#    y 0.000000 3.423160 0.000000 
#    z 0.081740 0.000000 3.709530 
# 
# 
# High freq. dielectric constant tensor:
#      x y z
#    x 1.778970 0.000000 0.003220 
#    y 0.000000 1.749130 0.000000 
#    z 0.003220 0.000000 1.773900 
# 
# From -- ./inp_files/73030.got.cif
#   From: 2010.06.25/outbox.cif.g09.slc.cpg/sg11_37_cif.got.tgz:73030.got - 2010.06.27 23:14:04.
