data_PCOD8075796
_publ_section_title
;
Structure prediction by ZEFSAII (Michael W. Deem and Ramdas Pophale) SiO2 
 PCOD8075796
Probable space group: P 21/M
;
_chemical_formula_sum "Si O2"
_cell_formula_units_Z 28
_cell_length_a 7.541925
_cell_length_b 9.189695
_cell_length_c 24.370411
_cell_angle_alpha 90.000000
_cell_angle_beta 126.716972
_cell_angle_gamma 90.000000
_cell_volume 1353.951478
_symmetry_space_group_name_H-M "P 21/M"
_symmetry_group_IT_number 11
_symmetry_cell_setting 'monoclinic'
loop_
_space_group_symop_operation_xyz
x,y,z
-x,1/2+y,-z
-x,-y,-z
x,1/2-y,z
loop_
_atom_site_type_symbol
_atom_site_label
_atom_site_fract_x
_atom_site_fract_y
_atom_site_fract_z
Si Si1 0.477189 0.089548 0.075066
Si Si2 0.339865 0.082106 0.429881
Si Si3 0.172460 0.911224 0.952406
Si Si4 0.406661 0.420635 0.318029
Si Si5 0.355846 0.086561 0.796303
Si Si6 0.842444 0.416838 0.334719
Si Si7 0.187193 0.914860 0.182201
O O1 0.415730 0.250000 0.087130
O O2 0.611143 0.109076 0.044222
O O3 0.634079 0.003899 0.146035
O O4 0.249204 0.000939 0.020899
O O5 0.404660 0.250000 0.444501
O O6 0.375912 0.025382 0.374525
O O7 0.088078 0.055561 0.403601
O O8 0.500000 0.000000 0.500000
O O9 0.086078 0.750000 0.953557
O O10 0.987703 0.997232 0.885427
O O11 0.354180 0.250000 0.302111
O O12 0.658946 0.457141 0.346432
O O13 0.229627 0.507048 0.248260
O O14 0.279047 0.250000 0.795790
O O15 0.591507 0.084224 0.811483
O O16 0.178135 0.014315 0.723250
O O17 0.814017 0.250000 0.310875
O O18 0.104424 0.750000 0.177418
#
# Coordination Sequence:
#
# PCOD8075796 Si02
#       7
#     4   4   4   4   4   4   4
#     4  10  21  36  54  77 107 144 186 231 280 332
#     4  10  22  38  58  86 115 146 187 226 274 338
#     4  10  21  36  54  77 107 144 186 231 280 332
#     4   9  19  37  58  81 113 150 187 231 279 330
#     4  10  21  36  55  81 110 142 183 229 279 334
#     4   9  19  37  58  81 113 150 187 231 279 330
#     4  10  21  36  55  81 110 142 183 229 279 334
#
# _framework density 20.680209000000001
#
# number of rings (size 3 to 8) (size 9 to 14) (size 15 to 20)
#    0.000    2.286    0.000    1.714    2.000    5.714 
#    0.000    0.000    0.000    0.000    0.000    0.000 
#    0.000    0.000    0.000    0.000    0.000    0.000 
#
# Total GULP energy -347213.509854 kJ/mol
# GULP energy per Si atom -12400.482495 kJ/mol
# Density = 2.063314 g / cm^3
# Si number density = 20.680209 Si / 1000 Ang^3
#
#
#
# Elastic Constant Matrix: (Units=GPa)
#
#
# Indices 1 2 3 4 5 6 
#
# 1 20.5750 4.5943 1.3208 0.0000 2.9205 0.0000
# 2 4.5943 135.3734 58.6168 0.0000 3.3936 0.0000
# 3 1.3208 58.6168 109.5283 0.0000 9.7300 0.0000
# 4 0.0000 0.0000 0.0000 46.6157 0.0000 -1.4461
# 5 2.9205 3.3936 9.7300 0.0000 28.6330 0.0000
# 6 0.0000 0.0000 0.0000 -1.4461 0.0000 19.4287
#
#
#
# Elastic Compliance Matrix: (Units=1/GPa)
#
#
# Indices 1 2 3 4 5 6 
#
# 1 0.049710 -0.001948 0.000900 0.000000 -0.005145 0.000000
# 2 -0.001948 0.009702 -0.005243 0.000000 0.000830 0.000000
# 3 0.000900 -0.005243 0.012248 0.000000 -0.003632 0.000000
# 4 0.000000 0.000000 0.000000 0.021502 0.000000 0.001600
# 5 -0.005145 0.000830 -0.003632 0.000000 0.036585 0.000000
# 6 0.000000 0.000000 0.000000 0.001600 0.000000 0.051589
#
#
# Mechanical properties :
#
#
# Convention : Reuss Voigt Hill
#
# Bulk Modulus (GPa) = 16.92637 43.83782 30.38210
# Shear Modulus (GPa) = 23.40704 32.33180 27.86942
#
# Velocity S-wave (km/s) = 3.36796 3.95830 3.67500
# Velocity P-wave (km/s) = 4.82978 6.49113 5.72108
#
# Compressibility (1/GPa) = 0.05907941
#
# Stress axis : x y z
#
# Youngs Moduli (GPa) = 20.11655 103.06751 81.64818
#
# Poissons Ratio (x) = 0.20076 -0.07349
# Poissons Ratio (y) = 0.03918 0.42806
# Poissons Ratio (z) = -0.01811 0.54036
#
# Static dielectric constant tensor:
#      x y z
#    x 3.777250 0.000000 0.032370 
#    y 0.000000 4.357820 0.000000 
#    z 0.032370 0.000000 3.617080 
# 
# 
# High freq. dielectric constant tensor:
#      x y z
#    x 1.803310 0.000000 0.005520 
#    y 0.000000 1.816080 0.000000 
#    z 0.005520 0.000000 1.802000 
# 
# From -- ./inp_files/70933.got.cif
#   From: 2010.06.25/outbox.cif.g09.slc.cpg/sg11_36_cif.got.tgz:70933.got - 2010.06.27 23:14:04.
