data_PCOD8075970
_publ_section_title
;
Structure prediction by ZEFSAII (Michael W. Deem and Ramdas Pophale) SiO2 
 PCOD8075970
Probable space group: P 21/M
;
_chemical_formula_sum "Si O2"
_cell_formula_units_Z 28
_cell_length_a 19.706161
_cell_length_b 8.974375
_cell_length_c 18.185223
_cell_angle_alpha 90.000000
_cell_angle_beta 28.712560
_cell_angle_gamma 90.000000
_cell_volume 1545.048525
_symmetry_space_group_name_H-M "P 21/M"
_symmetry_group_IT_number 11
_symmetry_cell_setting 'monoclinic'
loop_
_space_group_symop_operation_xyz
x,y,z
-x,1/2+y,-z
-x,-y,-z
x,1/2-y,z
loop_
_atom_site_type_symbol
_atom_site_label
_atom_site_fract_x
_atom_site_fract_y
_atom_site_fract_z
Si Si1 0.921614 0.075452 0.180772
Si Si2 0.490505 0.920710 0.587009
Si Si3 0.633545 0.573565 0.718450
Si Si4 0.587049 0.925919 0.981760
Si Si5 0.689298 0.073294 0.512280
Si Si6 0.171053 0.916746 0.888422
Si Si7 0.152367 0.076857 0.355880
O O1 0.932644 0.250000 0.168637
O O2 0.836162 0.026754 0.334131
O O3 0.842293 0.017124 0.182047
O O4 0.078549 0.009033 0.034616
O O5 0.547077 0.750000 0.528519
O O6 0.329410 0.921295 0.766121
O O7 0.500000 0.000000 0.500000
O O8 0.566308 0.018130 0.576083
O O9 0.612703 0.750000 0.735725
O O10 0.478820 0.499849 0.882121
O O11 0.687018 0.512812 0.590547
O O12 0.752835 0.526569 0.664456
O O13 0.559652 0.750000 0.008810
O O14 0.754439 0.957952 0.806895
O O15 0.500000 0.000000 0.000000
O O16 0.674631 0.250000 0.538204
O O17 0.110867 0.750000 0.945059
O O18 0.119742 0.250000 0.392328
O O19 0.000000 0.000000 0.500000
#
# Coordination Sequence:
#
# PCOD8075970 Si02
#       7
#     4   4   4   4   4   4   4
#     4   9  18  33  51  74 102 134 174 219 268 323
#     4  11  21  35  54  78 106 138 179 227 272 321
#     4  10  21  37  55  81 111 144 183 223 270 326
#     4   9  17  32  54  81 110 144 181 219 259 312
#     4  11  22  37  55  79 109 142 181 226 276 330
#     4   9  18  33  51  74 101 130 173 223 269 321
#     4   9  19  34  56  85 114 141 179 220 261 315
#
# _framework density 18.122409999999999
#
# number of rings (size 3 to 8) (size 9 to 14) (size 15 to 20)
#    0.000    2.286    1.429    2.571    0.000    5.714 
#    0.000    1.429    0.000    3.429    0.000    0.000 
#    0.000    0.000    0.000    0.000    0.000    0.000 
#
# Total GULP energy -347011.727890 kJ/mol
# GULP energy per Si atom -12393.275996 kJ/mol
# Density = 1.808116 g / cm^3
# Si number density = 18.122410 Si / 1000 Ang^3
#
#
#
# Elastic Constant Matrix: (Units=GPa)
#
#
# Indices 1 2 3 4 5 6 
#
# 1 65.5790 30.8357 52.4014 0.0000 7.2955 0.0000
# 2 30.8357 65.0561 62.8037 0.0000 4.2900 0.0000
# 3 52.4014 62.8037 160.9118 0.0000 7.6575 0.0000
# 4 0.0000 0.0000 0.0000 37.9723 0.0000 0.0789
# 5 7.2955 4.2900 7.6575 0.0000 28.0079 0.0000
# 6 0.0000 0.0000 0.0000 0.0789 0.0000 29.6361
#
#
#
# Elastic Compliance Matrix: (Units=1/GPa)
#
#
# Indices 1 2 3 4 5 6 
#
# 1 0.022157 -0.005560 -0.004875 0.000000 -0.003587 0.000000
# 2 -0.005560 0.026097 -0.008363 0.000000 -0.000263 0.000000
# 3 -0.004875 -0.008363 0.011089 0.000000 -0.000481 0.000000
# 4 0.000000 0.000000 0.000000 0.026335 0.000000 -0.000070
# 5 -0.003587 -0.000263 -0.000481 0.000000 0.036810 0.000000
# 6 0.000000 0.000000 0.000000 -0.000070 0.000000 0.033743
#
#
# Mechanical properties :
#
#
# Convention : Reuss Voigt Hill
#
# Bulk Modulus (GPa) = 45.97927 64.84761 55.41344
# Shear Modulus (GPa) = 24.86626 28.82365 26.84496
#
# Velocity S-wave (km/s) = 3.70824 3.99243 3.85296
# Velocity P-wave (km/s) = 6.61524 7.55734 7.10193
#
# Compressibility (1/GPa) = 0.02174893
#
# Stress axis : x y z
#
# Youngs Moduli (GPa) = 45.13168 38.31869 90.17964
#
# Poissons Ratio (x) = 0.21303 0.43963
# Poissons Ratio (y) = 0.25091 0.75414
# Poissons Ratio (z) = 0.22002 0.32045
#
# Static dielectric constant tensor:
#      x y z
#    x 2.984980 0.000000 0.015470 
#    y 0.000000 3.497260 0.000000 
#    z 0.015470 0.000000 3.764410 
# 
# 
# High freq. dielectric constant tensor:
#      x y z
#    x 1.663220 0.000000 0.000060 
#    y 0.000000 1.711630 0.000000 
#    z 0.000060 0.000000 1.718320 
# 
# From -- ./inp_files/61243.got.cif
#   From: 2010.06.25/outbox.cif.g09.slc.cpg/sg11_31_cif.got.tgz:61243.got - 2010.06.27 23:14:04.
