data_PCOD8075341
_publ_section_title
;
Structure prediction by ZEFSAII (Michael W. Deem and Ramdas Pophale) SiO2 
 PCOD8075341
Probable space group: P 21/M
;
_chemical_formula_sum "Si O2"
_cell_formula_units_Z 24
_cell_length_a 16.901625
_cell_length_b 15.154530
_cell_length_c 9.250993
_cell_angle_alpha 90.000000
_cell_angle_beta 149.470612
_cell_angle_gamma 90.000000
_cell_volume 1203.666311
_symmetry_space_group_name_H-M "P 21/M"
_symmetry_group_IT_number 11
_symmetry_cell_setting 'monoclinic'
loop_
_space_group_symop_operation_xyz
x,y,z
-x,1/2+y,-z
-x,-y,-z
x,1/2-y,z
loop_
_atom_site_type_symbol
_atom_site_label
_atom_site_fract_x
_atom_site_fract_y
_atom_site_fract_z
Si Si1 0.417955 0.503416 0.522857
Si Si2 0.114772 0.852780 0.515592
Si Si3 0.945287 0.500543 0.076236
Si Si4 0.057113 0.352001 0.460942
Si Si5 0.468627 0.589675 0.036444
Si Si6 0.593641 0.846581 0.960571
O O1 0.500000 0.500000 0.500000
O O2 0.459739 0.418675 0.689483
O O3 0.470691 0.591799 0.687144
O O4 0.238135 0.505645 0.206768
O O5 0.102588 0.750000 0.452782
O O6 0.065726 0.867240 0.604288
O O7 0.287574 0.888642 0.765676
O O8 0.999021 0.908392 0.233536
O O9 0.014401 0.414247 0.261216
O O10 0.000000 0.500000 0.000000
O O11 0.057102 0.250000 0.409325
O O12 0.229762 0.380031 0.786093
O O13 0.500000 0.500000 0.000000
O O14 0.555801 0.661381 0.073755
O O15 0.575145 0.750000 0.862564
#
# Coordination Sequence:
#
# PCOD8075341 Si02
#       6
#     4   4   4   4   4   4
#     4  11  22  36  57  85 117 150 185 238 302 352
#     4  11  23  41  63  86 116 162 210 249 293 358
#     4  12  23  37  59  88 123 154 189 249 309 357
#     4  10  22  40  63  87 117 161 210 250 292 355
#     4  10  20  38  60  82 111 151 199 238 285 355
#     4  10  20  38  60  82 112 154 200 244 288 349
#
# _framework density 19.939081000000002
#
# number of rings (size 3 to 8) (size 9 to 14) (size 15 to 20)
#    0.000    1.333    0.000    8.000    0.000    1.333 
#    0.000    3.333    0.000    0.000    0.000    0.000 
#    0.000    0.000    0.000    0.000    0.000    0.000 
#
# Total GULP energy -297569.121150 kJ/mol
# GULP energy per Si atom -12398.713381 kJ/mol
# Density = 1.989370 g / cm^3
# Si number density = 19.939081 Si / 1000 Ang^3
#
#
#
# Elastic Constant Matrix: (Units=GPa)
#
#
# Indices 1 2 3 4 5 6 
#
# 1 106.1576 37.1846 8.1365 0.0000 5.3364 0.0000
# 2 37.1846 117.9681 61.3120 0.0000 -2.5691 0.0000
# 3 8.1365 61.3120 82.8416 0.0000 11.6338 0.0000
# 4 0.0000 0.0000 0.0000 26.0847 0.0000 2.1611
# 5 5.3364 -2.5691 11.6338 0.0000 48.5163 0.0000
# 6 0.0000 0.0000 0.0000 2.1611 0.0000 28.0261
#
#
#
# Elastic Compliance Matrix: (Units=1/GPa)
#
#
# Indices 1 2 3 4 5 6 
#
# 1 0.011088 -0.005100 0.002996 0.000000 -0.002208 0.000000
# 2 -0.005100 0.016647 -0.012441 0.000000 0.004426 0.000000
# 3 0.002996 -0.012441 0.021860 0.000000 -0.006230 0.000000
# 4 0.000000 0.000000 0.000000 0.038583 0.000000 -0.002975
# 5 -0.002208 0.004426 -0.006230 0.000000 0.022583 0.000000
# 6 0.000000 0.000000 0.000000 -0.002975 0.000000 0.035910
#
#
# Mechanical properties :
#
#
# Convention : Reuss Voigt Hill
#
# Bulk Modulus (GPa) = 48.77249 57.80371 53.28810
# Shear Modulus (GPa) = 27.38279 33.88103 30.63191
#
# Velocity S-wave (km/s) = 3.70986 4.12664 3.92379
# Velocity P-wave (km/s) = 6.54710 7.19435 6.87834
#
# Compressibility (1/GPa) = 0.02050336
#
# Stress axis : x y z
#
# Youngs Moduli (GPa) = 90.18957 60.07115 45.74607
#
# Poissons Ratio (x) = 0.30636 -0.13704
# Poissons Ratio (y) = 0.45996 0.56914
# Poissons Ratio (z) = -0.27017 0.74736
#
# Static dielectric constant tensor:
#      x y z
#    x 4.185850 0.000000 -0.078480 
#    y 0.000000 3.940290 0.000000 
#    z -0.078480 0.000000 2.965820 
# 
# 
# High freq. dielectric constant tensor:
#      x y z
#    x 1.801590 0.000000 0.012280 
#    y 0.000000 1.780760 0.000000 
#    z 0.012280 0.000000 1.773990 
# 
# From -- ./inp_files/25003.got.cif
#   From: 2010.06.25/outbox.cif.g09.slc.cpg/sg11_13_cif.got.tgz:25003.got - 2010.06.27 23:14:04.
