data_PCOD8075296
_publ_section_title
;
Structure prediction by ZEFSAII (Michael W. Deem and Ramdas Pophale) SiO2 
 PCOD8075296
Probable space group: P 21/M
;
_chemical_formula_sum "Si O2"
_cell_formula_units_Z 28
_cell_length_a 8.750844
_cell_length_b 14.344345
_cell_length_c 20.408576
_cell_angle_alpha 90.000000
_cell_angle_beta 146.214516
_cell_angle_gamma 90.000000
_cell_volume 1424.572639
_symmetry_space_group_name_H-M "P 21/M"
_symmetry_group_IT_number 11
_symmetry_cell_setting 'monoclinic'
loop_
_space_group_symop_operation_xyz
x,y,z
-x,1/2+y,-z
-x,-y,-z
x,1/2-y,z
loop_
_atom_site_type_symbol
_atom_site_label
_atom_site_fract_x
_atom_site_fract_y
_atom_site_fract_z
Si Si1 0.574852 0.356333 0.332517
Si Si2 0.814694 0.500481 0.635224
Si Si3 0.135939 0.507349 0.193945
Si Si4 0.960198 0.145649 0.585463
Si Si5 0.253673 0.858137 0.749156
Si Si6 0.275340 0.501687 0.054403
Si Si7 0.429544 0.854276 0.206763
O O1 0.479937 0.250000 0.308299
O O2 0.306154 0.418441 0.229812
O O3 0.745772 0.392902 0.455681
O O4 0.763125 0.366539 0.335386
O O5 0.500000 0.500000 0.500000
O O6 0.848433 0.478448 0.723449
O O7 0.967179 0.418299 0.651687
O O8 0.971228 0.597851 0.676596
O O9 0.250011 0.599982 0.199864
O O10 0.823096 0.490447 0.056636
O O11 0.878636 0.250000 0.578306
O O12 0.256820 0.145515 0.656728
O O13 0.270314 0.750000 0.777528
O O14 0.528633 0.911121 0.871255
O O15 0.431032 0.592745 0.136959
O O16 0.000000 0.500000 0.000000
O O17 0.318324 0.750000 0.155671
#
# Coordination Sequence:
#
# PCOD8075296 Si02
#       7
#     4   4   4   4   4   4   4
#     4  10  20  37  64  92 122 163 215 267 313 370
#     4  12  25  40  64  90 133 173 201 262 323 387
#     4  11  23  38  62  94 126 165 209 256 320 378
#     4  10  21  39  62  89 123 163 213 265 318 376
#     4  11  24  43  66  95 127 168 217 263 318 381
#     4  10  20  40  66  93 122 160 210 270 311 369
#     4  10  21  39  64  92 120 159 212 267 318 373
#
# _framework density 19.655017999999998
#
# number of rings (size 3 to 8) (size 9 to 14) (size 15 to 20)
#    0.000    1.429    5.714    0.000    2.000    6.286 
#    0.000    0.000    0.000    0.000    0.000    0.000 
#    0.000    0.000    0.000    0.000    0.000    0.000 
#
# Total GULP energy -347094.710326 kJ/mol
# GULP energy per Si atom -12396.239655 kJ/mol
# Density = 1.961028 g / cm^3
# Si number density = 19.655018 Si / 1000 Ang^3
#
#
#
# Elastic Constant Matrix: (Units=GPa)
#
#
# Indices 1 2 3 4 5 6 
#
# 1 84.9844 48.5251 49.8800 0.0000 -14.1478 0.0000
# 2 48.5251 143.1003 67.6389 0.0000 -5.3866 0.0000
# 3 49.8800 67.6389 127.1774 0.0000 -10.6503 0.0000
# 4 0.0000 0.0000 0.0000 19.5468 0.0000 -2.5841
# 5 -14.1478 -5.3866 -10.6503 0.0000 39.4469 0.0000
# 6 0.0000 0.0000 0.0000 -2.5841 0.0000 21.4886
#
#
#
# Elastic Compliance Matrix: (Units=1/GPa)
#
#
# Indices 1 2 3 4 5 6 
#
# 1 0.017154 -0.003534 -0.004475 0.000000 0.004462 0.000000
# 2 -0.003534 0.010063 -0.004049 0.000000 -0.000986 0.000000
# 3 -0.004475 -0.004049 0.011859 0.000000 0.001044 0.000000
# 4 0.000000 0.000000 0.000000 0.051986 0.000000 0.006251
# 5 0.004462 -0.000986 0.001044 0.000000 0.027098 0.000000
# 6 0.000000 0.000000 0.000000 0.006251 0.000000 0.047288
#
#
# Mechanical properties :
#
#
# Convention : Reuss Voigt Hill
#
# Bulk Modulus (GPa) = 66.83980 76.37224 71.60602
# Shear Modulus (GPa) = 25.70055 28.71098 27.20576
#
# Velocity S-wave (km/s) = 3.61997 3.82612 3.72447
# Velocity P-wave (km/s) = 7.18001 7.64589 7.41661
#
# Compressibility (1/GPa) = 0.01496115
#
# Stress axis : x y z
#
# Youngs Moduli (GPa) = 58.29631 99.37498 84.32622
#
# Poissons Ratio (x) = 0.35117 0.37734
# Poissons Ratio (y) = 0.20601 0.34140
# Poissons Ratio (z) = 0.26086 0.40232
#
# Static dielectric constant tensor:
#      x y z
#    x 3.490690 0.000000 -0.120990 
#    y 0.000000 3.719410 0.000000 
#    z -0.120990 0.000000 4.058900 
# 
# 
# High freq. dielectric constant tensor:
#      x y z
#    x 1.745610 0.000000 -0.001340 
#    y 0.000000 1.769540 0.000000 
#    z -0.001340 0.000000 1.779320 
# 
# From -- ./inp_files/22280.got.cif
#   From: 2010.06.25/outbox.cif.g09.slc.cpg/sg11_12_cif.got.tgz:22280.got - 2010.06.27 23:14:04.
