data_PCOD8075516
_publ_section_title
;
Structure prediction by ZEFSAII (Michael W. Deem and Ramdas Pophale) SiO2 
 PCOD8075516
Probable space group: P 21/M
;
_chemical_formula_sum "Si O2"
_cell_formula_units_Z 24
_cell_length_a 24.309908
_cell_length_b 10.430485
_cell_length_c 11.056605
_cell_angle_alpha 90.000000
_cell_angle_beta 155.944031
_cell_angle_gamma 90.000000
_cell_volume 1142.811272
_symmetry_space_group_name_H-M "P 21/M"
_symmetry_group_IT_number 11
_symmetry_cell_setting 'monoclinic'
loop_
_space_group_symop_operation_xyz
x,y,z
-x,1/2+y,-z
-x,-y,-z
x,1/2-y,z
loop_
_atom_site_type_symbol
_atom_site_label
_atom_site_fract_x
_atom_site_fract_y
_atom_site_fract_z
Si Si1 0.459343 0.010338 0.056627
Si Si2 0.311315 0.250000 0.266352
Si Si3 0.741347 0.997422 0.686952
Si Si4 0.801665 0.606069 0.548865
Si Si5 0.024941 0.471313 0.313591
Si Si6 0.100085 0.750000 0.554278
Si Si7 0.597421 0.250000 0.918884
Si Si8 0.902964 0.750000 0.369579
O O1 0.592778 0.064603 0.395704
O O2 0.413387 0.872792 0.016100
O O3 0.500000 0.000000 0.000000
O O4 0.331097 0.104080 0.805724
O O5 0.266275 0.367592 0.255569
O O6 0.474162 0.250000 0.574138
O O7 0.233433 0.250000 0.982884
O O8 0.777814 0.975511 0.620366
O O9 0.866805 0.073109 0.998299
O O10 0.836525 0.750000 0.655255
O O11 0.924490 0.546006 0.721326
O O12 0.042077 0.621524 0.376556
O O13 0.103750 0.378829 0.563690
O O14 0.042575 0.750000 0.574867
O O15 0.262908 0.750000 0.876174
#
# Coordination Sequence:
#
# PCOD8075516 Si02
#       8
#     4   2   4   4   4   2   2   2
#     4   9  20  35  60  90 124 165 203 247 303 379
#     4  10  20  39  67  85 122 170 210 249 320 379
#     4  10  20  39  62  93 125 171 203 249 317 393
#     4  11  21  39  61  95 134 161 201 259 322 377
#     4  12  24  43  65  95 125 163 215 263 320 371
#     4  12  24  42  66  89 123 171 212 259 315 378
#     4  10  20  40  62  90 122 165 217 250 306 390
#     4  12  26  45  65  90 123 166 219 276 315 359
#
# _framework density 21.000843
#
# number of rings (size 3 to 8) (size 9 to 14) (size 15 to 20)
#    0.000    1.333    5.000    1.000    3.500    0.000 
#    1.500    3.333    0.000    0.000    0.000    0.000 
#    0.000    0.000    0.000    0.000    0.000    0.000 
#
# Total GULP energy -297336.968117 kJ/mol
# GULP energy per Si atom -12389.040338 kJ/mol
# Density = 2.095304 g / cm^3
# Si number density = 21.000843 Si / 1000 Ang^3
#
#
#
# Elastic Constant Matrix: (Units=GPa)
#
#
# Indices 1 2 3 4 5 6 
#
# 1 56.4732 12.1460 14.1808 0.0000 0.5610 0.0000
# 2 12.1460 63.8901 8.1997 0.0000 -5.5460 0.0000
# 3 14.1808 8.1997 140.3703 0.0000 6.7373 0.0000
# 4 0.0000 0.0000 0.0000 25.2164 0.0000 -2.4164
# 5 0.5610 -5.5460 6.7373 0.0000 34.1346 0.0000
# 6 0.0000 0.0000 0.0000 -2.4164 0.0000 24.7592
#
#
#
# Elastic Compliance Matrix: (Units=1/GPa)
#
#
# Indices 1 2 3 4 5 6 
#
# 1 0.018870 -0.003418 -0.001681 0.000000 -0.000534 0.000000
# 2 -0.003418 0.016653 -0.000767 0.000000 0.002913 0.000000
# 3 -0.001681 -0.000767 0.007414 0.000000 -0.001560 0.000000
# 4 0.000000 0.000000 0.000000 0.040031 0.000000 0.003907
# 5 -0.000534 0.002913 -0.001560 0.000000 0.030086 0.000000
# 6 0.000000 0.000000 0.000000 0.003907 0.000000 0.040770
#
#
# Mechanical properties :
#
#
# Convention : Reuss Voigt Hill
#
# Bulk Modulus (GPa) = 32.04715 36.64296 34.34505
# Shear Modulus (GPa) = 28.41589 31.90251 30.15920
#
# Velocity S-wave (km/s) = 3.68242 3.90180 3.79369
# Velocity P-wave (km/s) = 5.77697 6.14694 5.96482
#
# Compressibility (1/GPa) = 0.03120403
#
# Stress axis : x y z
#
# Youngs Moduli (GPa) = 52.99407 60.04924 134.88808
#
# Poissons Ratio (x) = 0.20524 0.22676
# Poissons Ratio (y) = 0.18113 0.10350
# Poissons Ratio (z) = 0.08909 0.04608
#
# Static dielectric constant tensor:
#      x y z
#    x 3.693510 0.000000 0.268970 
#    y 0.000000 3.561880 0.000000 
#    z 0.268970 0.000000 4.670460 
# 
# 
# High freq. dielectric constant tensor:
#      x y z
#    x 1.811100 0.000000 0.014940 
#    y 0.000000 1.801030 0.000000 
#    z 0.014940 0.000000 1.844710 
# 
# From -- ./inp_files/44836.got.cif
#   From: 2010.06.25/outbox.cif.g09.slc.cpg/sg11_23_cif.got.tgz:44836.got - 2010.06.27 23:14:04.
