data_PCOD8075749
_publ_section_title
;
Structure prediction by ZEFSAII (Michael W. Deem and Ramdas Pophale) SiO2 
 PCOD8075749
Probable space group: P 21/M
;
_chemical_formula_sum "Si O2"
_cell_formula_units_Z 32
_cell_length_a 15.639853
_cell_length_b 8.794655
_cell_length_c 26.119549
_cell_angle_alpha 90.000000
_cell_angle_beta 152.817565
_cell_angle_gamma 90.000000
_cell_volume 1641.221656
_symmetry_space_group_name_H-M "P 21/M"
_symmetry_group_IT_number 11
_symmetry_cell_setting 'monoclinic'
loop_
_space_group_symop_operation_xyz
x,y,z
-x,1/2+y,-z
-x,-y,-z
x,1/2-y,z
loop_
_atom_site_type_symbol
_atom_site_label
_atom_site_fract_x
_atom_site_fract_y
_atom_site_fract_z
Si Si1 0.664752 0.069930 0.489813
Si Si2 0.133300 0.570437 0.502538
Si Si3 0.970159 0.430909 0.039662
Si Si4 0.238770 0.571180 0.670598
Si Si5 0.362612 0.430432 0.074301
Si Si6 0.344665 0.572638 0.953492
Si Si7 0.077211 0.074446 0.288857
Si Si8 0.752110 0.569819 0.725782
O O1 0.654550 0.250000 0.484167
O O2 0.737064 0.007875 0.473900
O O3 0.457491 0.000989 0.388217
O O4 0.807145 0.021332 0.609236
O O5 0.117356 0.750000 0.492057
O O6 0.225264 0.514601 0.604642
O O7 0.926181 0.503905 0.384373
O O8 0.959693 0.250000 0.030424
O O9 0.142902 0.485932 0.167128
O O10 0.780319 0.492240 0.963031
O O11 0.000000 0.500000 0.000000
O O12 0.213547 0.750000 0.660601
O O13 0.433722 0.518528 0.798068
O O14 0.335765 0.250000 0.061524
O O15 0.337504 0.489291 0.003740
O O16 0.388357 0.750000 0.985304
O O17 0.143471 0.550391 0.819390
O O18 0.500000 0.500000 0.000000
O O19 0.133278 0.250000 0.324769
O O20 0.131522 0.013526 0.261411
O O21 0.743742 0.750000 0.721778
#
# Coordination Sequence:
#
# PCOD8075749 Si02
#       8
#     4   4   4   4   4   4   4   4
#     4  10  21  35  59  88 111 146 195 241 290 349
#     4   9  19  36  56  83 114 149 192 238 287 347
#     4  11  23  41  64  91 124 163 203 249 302 359
#     4   9  20  37  58  81 114 155 192 234 292 350
#     4  11  23  40  64  93 122 159 203 249 302 361
#     4  11  24  42  63  89 123 162 203 249 304 362
#     4  10  21  40  60  82 115 154 192 238 298 354
#     4   9  19  39  62  82 114 155 191 237 300 355
#
# _framework density 19.497669999999999
#
# number of rings (size 3 to 8) (size 9 to 14) (size 15 to 20)
#    0.000    2.000    1.250    1.500    3.500    2.500 
#    0.000    1.250    0.000    0.000    0.000    0.000 
#    0.000    0.000    0.000    0.000    0.000    0.000 
#
# Total GULP energy -396849.636300 kJ/mol
# GULP energy per Si atom -12401.551134 kJ/mol
# Density = 1.945329 g / cm^3
# Si number density = 19.497670 Si / 1000 Ang^3
#
#
#
# Elastic Constant Matrix: (Units=GPa)
#
#
# Indices 1 2 3 4 5 6 
#
# 1 117.8872 24.6908 25.6262 0.0000 16.9913 0.0000
# 2 24.6908 42.1676 22.7764 0.0000 5.0954 0.0000
# 3 25.6262 22.7764 99.7820 0.0000 15.9225 0.0000
# 4 0.0000 0.0000 0.0000 23.3860 0.0000 -3.5509
# 5 16.9913 5.0954 15.9225 0.0000 31.8074 0.0000
# 6 0.0000 0.0000 0.0000 -3.5509 0.0000 32.9777
#
#
#
# Elastic Compliance Matrix: (Units=1/GPa)
#
#
# Indices 1 2 3 4 5 6 
#
# 1 0.010347 -0.005103 -0.000805 0.000000 -0.004307 0.000000
# 2 -0.005103 0.029620 -0.005574 0.000000 0.000771 0.000000
# 3 -0.000805 -0.005574 0.012270 0.000000 -0.004819 0.000000
# 4 0.000000 0.000000 0.000000 0.043471 0.000000 0.004681
# 5 -0.004307 0.000771 -0.004819 0.000000 0.036029 0.000000
# 6 0.000000 0.000000 0.000000 0.004681 0.000000 0.030828
#
#
# Mechanical properties :
#
#
# Convention : Reuss Voigt Hill
#
# Bulk Modulus (GPa) = 34.16102 45.11374 39.63738
# Shear Modulus (GPa) = 25.60325 30.08378 27.84351
#
# Velocity S-wave (km/s) = 3.62766 3.93229 3.78305
# Velocity P-wave (km/s) = 5.92496 6.61857 6.28135
#
# Compressibility (1/GPa) = 0.02927313
#
# Stress axis : x y z
#
# Youngs Moduli (GPa) = 96.64289 33.76045 81.50020
#
# Poissons Ratio (x) = 0.17229 0.06563
# Poissons Ratio (y) = 0.49321 0.45425
# Poissons Ratio (z) = 0.07782 0.18817
#
# Static dielectric constant tensor:
#      x y z
#    x 3.791360 0.000000 0.073030 
#    y 0.000000 3.398540 0.000000 
#    z 0.073030 0.000000 3.765610 
# 
# 
# High freq. dielectric constant tensor:
#      x y z
#    x 1.771840 0.000000 0.003380 
#    y 0.000000 1.744000 0.000000 
#    z 0.003380 0.000000 1.771880 
# 
# From -- ./inp_files/51683.got.cif
#   From: 2010.06.25/outbox.cif.g09.slc.cpg/sg11_26_cif.got.tgz:51683.got - 2010.06.27 23:14:04.
