data_PCOD8075827
_publ_section_title
;
Structure prediction by ZEFSAII (Michael W. Deem and Ramdas Pophale) SiO2 
 PCOD8075827
Probable space group: P 21/M
;
_chemical_formula_sum "Si O2"
_cell_formula_units_Z 32
_cell_length_a 12.274527
_cell_length_b 17.531694
_cell_length_c 15.246194
_cell_angle_alpha 90.000000
_cell_angle_beta 28.641344
_cell_angle_gamma 90.000000
_cell_volume 1572.607781
_symmetry_space_group_name_H-M "P 21/M"
_symmetry_group_IT_number 11
_symmetry_cell_setting 'monoclinic'
loop_
_space_group_symop_operation_xyz
x,y,z
-x,1/2+y,-z
-x,-y,-z
x,1/2-y,z
loop_
_atom_site_type_symbol
_atom_site_label
_atom_site_fract_x
_atom_site_fract_y
_atom_site_fract_z
Si Si1 0.076140 0.163546 0.242045
Si Si2 0.725831 0.027291 0.023234
Si Si3 0.262908 0.663852 0.094417
Si Si4 0.809458 0.055961 0.322032
Si Si5 0.227409 0.334991 0.478660
Si Si6 0.466810 0.897587 0.120561
Si Si7 0.993739 0.589552 0.525558
Si Si8 0.553552 0.453943 0.330478
O O1 0.030347 0.250000 0.303762
O O2 0.875343 0.136764 0.319141
O O3 0.084887 0.107537 0.320283
O O4 0.315064 0.157575 0.019826
O O5 0.682733 0.011322 0.155640
O O6 0.540970 0.983235 0.093839
O O7 0.707077 0.118286 0.018138
O O8 0.977937 0.000716 0.820501
O O9 0.363309 0.750000 0.016462
O O10 0.395715 0.611334 0.069893
O O11 0.000544 0.667441 0.304096
O O12 0.738223 0.070782 0.272216
O O13 0.602721 0.021297 0.522774
O O14 0.320009 0.250000 0.397257
O O15 0.411553 0.380091 0.404566
O O16 0.187789 0.373329 0.412009
O O17 0.246715 0.874253 0.334156
O O18 0.000000 0.500000 0.500000
#
# Coordination Sequence:
#
# PCOD8075827 Si02
#       8
#     4   4   4   4   4   4   4   4
#     4  11  24  40  61  88 121 162 201 244 303 370
#     4  11  21  37  62  87 113 154 201 247 293 354
#     4  10  21  36  55  85 125 158 189 238 298 357
#     4  10  23  42  61  86 119 148 203 254 297 350
#     4  10  21  37  57  86 122 155 191 241 297 353
#     4  10  23  37  58  88 124 159 195 244 298 358
#     4  11  23  38  62  91 124 158 201 247 297 360
#     4  11  22  40  64  88 112 157 200 253 299 347
#
# _framework density 20.348368000000001
#
# number of rings (size 3 to 8) (size 9 to 14) (size 15 to 20)
#    0.000    1.500    1.250    3.750    8.750    2.500 
#    0.000    0.000    0.000    0.000    0.000    0.000 
#    0.000    0.000    0.000    0.000    0.000    0.000 
#
# Total GULP energy -396798.854645 kJ/mol
# GULP energy per Si atom -12399.964208 kJ/mol
# Density = 2.030205 g / cm^3
# Si number density = 20.348368 Si / 1000 Ang^3
#
#
#
# Elastic Constant Matrix: (Units=GPa)
#
#
# Indices 1 2 3 4 5 6 
#
# 1 109.9589 51.8883 25.3149 0.0000 3.6826 0.0000
# 2 51.8883 121.4739 13.8038 0.0000 7.1984 0.0000
# 3 25.3149 13.8038 58.2883 0.0000 9.3317 0.0000
# 4 0.0000 0.0000 0.0000 19.9227 0.0000 0.5034
# 5 3.6826 7.1984 9.3317 0.0000 31.8109 0.0000
# 6 0.0000 0.0000 0.0000 0.5034 0.0000 18.8260
#
#
#
# Elastic Compliance Matrix: (Units=1/GPa)
#
#
# Indices 1 2 3 4 5 6 
#
# 1 0.012350 -0.004835 -0.004370 0.000000 0.000946 0.000000
# 2 -0.004835 0.010412 -0.000082 0.000000 -0.001772 0.000000
# 3 -0.004370 -0.000082 0.019925 0.000000 -0.005321 0.000000
# 4 0.000000 0.000000 0.000000 0.050228 0.000000 -0.001343
# 5 0.000946 -0.001772 -0.005321 0.000000 0.033288 0.000000
# 6 0.000000 0.000000 0.000000 -0.001343 0.000000 0.053154
#
#
# Mechanical properties :
#
#
# Convention : Reuss Voigt Hill
#
# Bulk Modulus (GPa) = 41.47184 52.41501 46.94343
# Shear Modulus (GPa) = 24.27541 27.35954 25.81747
#
# Velocity S-wave (km/s) = 3.45772 3.67080 3.56585
# Velocity P-wave (km/s) = 6.03044 6.61673 6.33038
#
# Compressibility (1/GPa) = 0.02411275
#
# Stress axis : x y z
#
# Youngs Moduli (GPa) = 80.96957 96.04424 50.18717
#
# Poissons Ratio (x) = 0.46437 0.21933
# Poissons Ratio (y) = 0.39149 0.00412
# Poissons Ratio (z) = 0.35386 0.00789
#
# Static dielectric constant tensor:
#      x y z
#    x 3.682460 0.000000 -0.081810 
#    y 0.000000 3.608880 0.000000 
#    z -0.081810 0.000000 3.872860 
# 
# 
# High freq. dielectric constant tensor:
#      x y z
#    x 1.783780 0.000000 -0.004340 
#    y 0.000000 1.784200 0.000000 
#    z -0.004340 0.000000 1.808760 
# 
# From -- ./inp_files/40002.got.cif
#   From: 2010.06.25/outbox.cif.g09.slc.cpg/sg11_21_cif.got.tgz:40002.got - 2010.06.27 23:14:04.
