data_PCOD8075887
_publ_section_title
;
Structure prediction by ZEFSAII (Michael W. Deem and Ramdas Pophale) SiO2 
 PCOD8075887
Probable space group: P 21/M
;
_chemical_formula_sum "Si O2"
_cell_formula_units_Z 28
_cell_length_a 9.280508
_cell_length_b 8.989057
_cell_length_c 28.974056
_cell_angle_alpha 90.000000
_cell_angle_beta 37.591150
_cell_angle_gamma 90.000000
_cell_volume 1474.487961
_symmetry_space_group_name_H-M "P 21/M"
_symmetry_group_IT_number 11
_symmetry_cell_setting 'monoclinic'
loop_
_space_group_symop_operation_xyz
x,y,z
-x,1/2+y,-z
-x,-y,-z
x,1/2-y,z
loop_
_atom_site_type_symbol
_atom_site_label
_atom_site_fract_x
_atom_site_fract_y
_atom_site_fract_z
Si Si1 0.247241 0.575868 0.063531
Si Si2 0.684645 0.422273 0.361368
Si Si3 0.937776 0.425100 0.063762
Si Si4 0.086587 0.578071 0.206732
Si Si5 0.991234 0.079593 0.371259
Si Si6 0.604433 0.578566 0.799559
Si Si7 0.849996 0.574415 0.498561
O O1 0.276098 0.750000 0.045174
O O2 0.119787 0.548452 0.144399
O O3 0.090380 0.499516 0.064606
O O4 0.500000 0.500000 0.000000
O O5 0.697015 0.250000 0.345036
O O6 0.418319 0.482926 0.428208
O O7 0.837975 0.507113 0.284380
O O8 0.784113 0.449995 0.387210
O O9 0.992287 0.250000 0.047642
O O10 0.664586 0.457873 0.144095
O O11 0.000000 0.500000 0.000000
O O12 0.076649 0.750000 0.221426
O O13 0.309444 0.511767 0.177715
O O14 0.988314 0.250000 0.389272
O O15 0.241649 0.038345 0.284495
O O16 0.955768 0.970433 0.422657
O O17 0.643293 0.750000 0.802824
O O18 0.863800 0.750000 0.499932
O O19 0.000000 0.500000 0.500000
#
# Coordination Sequence:
#
# PCOD8075887 Si02
#       7
#     4   4   4   4   4   4   4
#     4  11  24  40  58  84 116 150 189 234 281 332
#     4   9  20  38  59  81 109 146 185 223 273 335
#     4  11  23  39  60  85 114 151 190 231 279 333
#     4  10  21  36  58  87 114 141 182 233 278 322
#     4   9  18  36  59  82 108 141 183 228 271 325
#     4   9  20  38  59  83 113 148 184 223 276 337
#     4  11  23  37  54  80 112 147 184 226 275 326
#
# _framework density 18.989642
#
# number of rings (size 3 to 8) (size 9 to 14) (size 15 to 20)
#    0.000    2.000    0.000    3.857    0.000   10.286 
#    0.000    4.286    0.000    0.000    0.000    0.000 
#    0.000    0.000    0.000    0.000    0.000    0.000 
#
# Total GULP energy -347306.945863 kJ/mol
# GULP energy per Si atom -12403.819495 kJ/mol
# Density = 1.894642 g / cm^3
# Si number density = 18.989642 Si / 1000 Ang^3
#
#
#
# Elastic Constant Matrix: (Units=GPa)
#
#
# Indices 1 2 3 4 5 6 
#
# 1 149.8901 77.0779 92.5024 0.0000 -9.6260 0.0000
# 2 77.0779 107.0228 76.0242 0.0000 2.9878 0.0000
# 3 92.5024 76.0242 131.7711 0.0000 -8.8538 0.0000
# 4 0.0000 0.0000 0.0000 34.1953 0.0000 3.1563
# 5 -9.6260 2.9878 -8.8538 0.0000 31.1807 0.0000
# 6 0.0000 0.0000 0.0000 3.1563 0.0000 37.6194
#
#
#
# Elastic Compliance Matrix: (Units=1/GPa)
#
#
# Indices 1 2 3 4 5 6 
#
# 1 0.013397 -0.005404 -0.006090 0.000000 0.002924 0.000000
# 2 -0.005404 0.018568 -0.007290 0.000000 -0.005517 0.000000
# 3 -0.006090 -0.007290 0.016302 0.000000 0.003447 0.000000
# 4 0.000000 0.000000 0.000000 0.029472 0.000000 -0.002473
# 5 0.002924 -0.005517 0.003447 0.000000 0.034481 0.000000
# 6 0.000000 0.000000 0.000000 -0.002473 0.000000 0.026789
#
#
# Mechanical properties :
#
#
# Convention : Reuss Voigt Hill
#
# Bulk Modulus (GPa) = 93.47087 97.76589 95.61838
# Shear Modulus (GPa) = 27.75565 30.13771 28.94668
#
# Velocity S-wave (km/s) = 3.82726 3.98811 3.90852
# Velocity P-wave (km/s) = 8.29816 8.53243 8.41611
#
# Compressibility (1/GPa) = 0.01069852
#
# Stress axis : x y z
#
# Youngs Moduli (GPa) = 74.64617 53.85585 61.34286
#
# Poissons Ratio (x) = 0.29102 0.37359
# Poissons Ratio (y) = 0.40336 0.44720
# Poissons Ratio (z) = 0.45461 0.39262
#
# Static dielectric constant tensor:
#      x y z
#    x 3.702040 0.000000 -0.219570 
#    y 0.000000 3.638150 0.000000 
#    z -0.219570 0.000000 3.786530 
# 
# 
# High freq. dielectric constant tensor:
#      x y z
#    x 1.739660 0.000000 -0.004190 
#    y 0.000000 1.744730 0.000000 
#    z -0.004190 0.000000 1.751390 
# 
# From -- ./inp_files/28425.got.cif
#   From: 2010.06.25/outbox.cif.g09.slc.cpg/sg11_15_cif.got.tgz:28425.got - 2010.06.27 23:14:04.
