data_PCOD8075583
_publ_section_title
;
Structure prediction by ZEFSAII (Michael W. Deem and Ramdas Pophale) SiO2 
 PCOD8075583
Probable space group: P 21/M
;
_chemical_formula_sum "Si O2"
_cell_formula_units_Z 28
_cell_length_a 6.501576
_cell_length_b 13.573781
_cell_length_c 19.830476
_cell_angle_alpha 90.000000
_cell_angle_beta 126.585332
_cell_angle_gamma 90.000000
_cell_volume 1405.244798
_symmetry_space_group_name_H-M "P 21/M"
_symmetry_group_IT_number 11
_symmetry_cell_setting 'monoclinic'
loop_
_space_group_symop_operation_xyz
x,y,z
-x,1/2+y,-z
-x,-y,-z
x,1/2-y,z
loop_
_atom_site_type_symbol
_atom_site_label
_atom_site_fract_x
_atom_site_fract_y
_atom_site_fract_z
Si Si1 0.709543 0.008485 0.597960
Si Si2 0.315800 0.862277 0.288601
Si Si3 0.352701 0.134806 0.290191
Si Si4 0.005075 0.042104 0.106168
Si Si5 0.211520 0.638844 0.064433
Si Si6 0.251179 0.439217 0.839332
Si Si7 0.276075 0.996631 0.697514
O O1 0.711067 0.917618 0.651339
O O2 0.500000 0.000000 0.500000
O O3 0.646566 0.108548 0.625958
O O4 0.986722 0.017716 0.616263
O O5 0.382073 0.750000 0.290170
O O6 0.522777 0.919114 0.283933
O O7 0.021411 0.883617 0.211860
O O8 0.324736 0.250000 0.296058
O O9 0.174106 0.096636 0.195008
O O10 0.638565 0.106157 0.320713
O O11 0.145209 0.942770 0.107140
O O12 0.744320 0.009422 0.093592
O O13 0.945359 0.116713 0.034388
O O14 0.140816 0.750000 0.074781
O O15 0.515485 0.636855 0.109609
O O16 0.275580 0.508878 0.778564
#
# Coordination Sequence:
#
# PCOD8075583 Si02
#       7
#     4   4   4   4   4   4   4
#     4  10  23  43  63  88 125 160 198 250 305 366
#     4  10  21  36  61  92 122 157 201 246 301 363
#     4  11  22  41  65  90 121 162 207 251 303 366
#     4  11  22  42  60  89 127 160 208 257 301 358
#     4  11  24  38  61  90 125 166 206 253 306 358
#     4  11  19  39  61  86 126 159 203 252 302 352
#     4  10  20  40  61  90 119 156 199 252 304 359
#
# _framework density 19.925353999999999
#
# number of rings (size 3 to 8) (size 9 to 14) (size 15 to 20)
#    0.000    1.429    5.714    1.286    0.000    8.571 
#    0.000    1.429    0.000    0.000    0.000    0.000 
#    0.000    0.000    0.000    0.000    0.000    0.000 
#
# Total GULP energy -346975.306656 kJ/mol
# GULP energy per Si atom -12391.975238 kJ/mol
# Density = 1.988000 g / cm^3
# Si number density = 19.925354 Si / 1000 Ang^3
#
#
#
# Elastic Constant Matrix: (Units=GPa)
#
#
# Indices 1 2 3 4 5 6 
#
# 1 126.7636 43.4469 48.0893 0.0000 7.3827 0.0000
# 2 43.4469 126.0708 29.0980 0.0000 1.5408 0.0000
# 3 48.0893 29.0980 110.3559 0.0000 5.4971 0.0000
# 4 0.0000 0.0000 0.0000 14.6412 0.0000 0.9495
# 5 7.3827 1.5408 5.4971 0.0000 23.7488 0.0000
# 6 0.0000 0.0000 0.0000 0.9495 0.0000 16.3110
#
#
#
# Elastic Compliance Matrix: (Units=1/GPa)
#
#
# Indices 1 2 3 4 5 6 
#
# 1 0.010334 -0.002684 -0.003687 0.000000 -0.002185 0.000000
# 2 -0.002684 0.009143 -0.001268 0.000000 0.000535 0.000000
# 3 -0.003687 -0.001268 0.011069 0.000000 -0.001334 0.000000
# 4 0.000000 0.000000 0.000000 0.068559 0.000000 -0.003991
# 5 -0.002185 0.000535 -0.001334 0.000000 0.043061 0.000000
# 6 0.000000 0.000000 0.000000 -0.003991 0.000000 0.061541
#
#
# Mechanical properties :
#
#
# Convention : Reuss Voigt Hill
#
# Bulk Modulus (GPa) = 65.49114 67.16207 66.32660
# Shear Modulus (GPa) = 22.31405 27.11061 24.71233
#
# Velocity S-wave (km/s) = 3.35009 3.69264 3.52553
# Velocity P-wave (km/s) = 6.92126 7.20839 7.06628
#
# Compressibility (1/GPa) = 0.01526924
#
# Stress axis : x y z
#
# Youngs Moduli (GPa) = 96.76337 109.37244 90.34268
#
# Poissons Ratio (x) = 0.29354 0.33309
# Poissons Ratio (y) = 0.25970 0.11454
# Poissons Ratio (z) = 0.35676 0.13867
#
# Static dielectric constant tensor:
#      x y z
#    x 4.100290 0.000000 -0.054680 
#    y 0.000000 3.514640 0.000000 
#    z -0.054680 0.000000 3.641720 
# 
# 
# High freq. dielectric constant tensor:
#      x y z
#    x 1.794720 0.000000 -0.006300 
#    y 0.000000 1.756050 0.000000 
#    z -0.006300 0.000000 1.774480 
# 
# From -- ./inp_files/56979.got.cif
#   From: 2010.06.25/outbox.cif.g09.slc.cpg/sg11_29_cif.got.tgz:56979.got - 2010.06.27 23:14:04.
