data_PCOD8075956
_publ_section_title
;
Structure prediction by ZEFSAII (Michael W. Deem and Ramdas Pophale) SiO2 
 PCOD8075956
Probable space group: P 21/M
;
_chemical_formula_sum "Si O2"
_cell_formula_units_Z 32
_cell_length_a 13.680567
_cell_length_b 18.399145
_cell_length_c 9.016809
_cell_angle_alpha 90.000000
_cell_angle_beta 48.752360
_cell_angle_gamma 90.000000
_cell_volume 1706.458037
_symmetry_space_group_name_H-M "P 21/M"
_symmetry_group_IT_number 11
_symmetry_cell_setting 'monoclinic'
loop_
_space_group_symop_operation_xyz
x,y,z
-x,1/2+y,-z
-x,-y,-z
x,1/2-y,z
loop_
_atom_site_type_symbol
_atom_site_label
_atom_site_fract_x
_atom_site_fract_y
_atom_site_fract_z
Si Si1 0.980183 0.833781 0.348713
Si Si2 0.219834 0.932342 0.455156
Si Si3 0.756770 0.585741 0.418037
Si Si4 0.498915 0.413766 0.837697
Si Si5 0.979982 0.833780 0.690958
Si Si6 0.779979 0.432350 0.894927
Si Si7 0.498658 0.086225 0.164570
Si Si8 0.243435 0.414263 0.931410
O O1 0.015037 0.750000 0.289630
O O2 0.857420 0.853696 0.371247
O O3 0.946840 0.850642 0.553063
O O4 0.104245 0.879899 0.171463
O O5 0.355875 0.892105 0.362652
O O6 0.218833 0.948846 0.281208
O O7 0.103929 0.879934 0.620343
O O8 0.202429 0.008606 0.554968
O O9 0.612897 0.612218 0.611478
O O10 0.759239 0.579421 0.240737
O O11 0.500324 0.499993 0.846849
O O12 0.387422 0.387887 0.836685
O O13 0.469986 0.380569 0.029917
O O14 0.014873 0.750000 0.680299
O O15 0.857047 0.853653 0.913977
O O16 0.643853 0.392190 0.074569
O O17 0.797383 0.508621 0.959886
#
# Coordination Sequence:
#
# PCOD8075956 Si02
#       8
#     4   4   4   4   4   4   4   4
#     4  10  21  37  55  74  99 134 174 214 256 301
#     4   9  18  34  56  79 102 130 170 217 258 299
#     4  11  21  32  51  79 108 137 169 205 250 306
#     4   8  15  30  52  77 103 130 165 211 256 296
#     4  10  21  37  55  74  99 134 174 214 256 301
#     4   9  18  34  56  79 102 130 170 217 258 299
#     4   8  15  30  52  77 103 130 165 211 256 296
#     4  11  21  32  51  79 108 137 169 205 250 306
#
# _framework density 18.752292000000001
#
# number of rings (size 3 to 8) (size 9 to 14) (size 15 to 20)
#    0.000    2.500    0.000    4.500    0.000    9.000 
#    0.000    1.250    0.000    4.500    0.000    0.000 
#    0.000    0.000    0.000    0.000    0.000    0.000 
#
# Total GULP energy -396735.356140 kJ/mol
# GULP energy per Si atom -12397.979879 kJ/mol
# Density = 1.870961 g / cm^3
# Si number density = 18.752292 Si / 1000 Ang^3
#
#
#
# Elastic Constant Matrix: (Units=GPa)
#
#
# Indices 1 2 3 4 5 6 
#
# 1 79.9731 25.8237 62.5837 0.0000 -12.8312 0.0000
# 2 25.8237 46.5777 25.6699 0.0000 -1.8337 0.0000
# 3 62.5837 25.6699 77.3897 0.0000 -10.8444 0.0000
# 4 0.0000 0.0000 0.0000 6.9286 0.0000 -0.4952
# 5 -12.8312 -1.8337 -10.8444 0.0000 30.7601 0.0000
# 6 0.0000 0.0000 0.0000 -0.4952 0.0000 6.9785
#
#
#
# Elastic Compliance Matrix: (Units=1/GPa)
#
#
# Indices 1 2 3 4 5 6 
#
# 1 0.035643 -0.004986 -0.026434 0.000000 0.005252 0.000000
# 2 -0.004986 0.027043 -0.005264 0.000000 -0.002323 0.000000
# 3 -0.026434 -0.005264 0.036246 0.000000 0.001438 0.000000
# 4 0.000000 0.000000 0.000000 0.145064 0.000000 0.010294
# 5 0.005252 -0.002323 0.001438 0.000000 0.035069 0.000000
# 6 0.000000 0.000000 0.000000 0.010294 0.000000 0.144027
#
#
# Mechanical properties :
#
#
# Convention : Reuss Voigt Hill
#
# Bulk Modulus (GPa) = 39.11667 48.01056 43.56361
# Shear Modulus (GPa) = 9.90133 14.92432 12.41283
#
# Velocity S-wave (km/s) = 2.30033 2.82417 2.57560
# Velocity P-wave (km/s) = 5.28775 6.02434 5.66802
#
# Compressibility (1/GPa) = 0.02556455
#
# Stress axis : x y z
#
# Youngs Moduli (GPa) = 28.05572 36.97774 27.58920
#
# Poissons Ratio (x) = 0.18438 0.72930
# Poissons Ratio (y) = 0.13989 0.14522
# Poissons Ratio (z) = 0.74164 0.19463
#
# Static dielectric constant tensor:
#      x y z
#    x 3.714350 0.000000 -0.404360 
#    y 0.000000 3.063410 0.000000 
#    z -0.404360 0.000000 3.681080 
# 
# 
# High freq. dielectric constant tensor:
#      x y z
#    x 1.731700 0.000000 -0.019800 
#    y 0.000000 1.688510 0.000000 
#    z -0.019800 0.000000 1.729960 
# 
# From -- ./inp_files/19350.got.cif
#   From: 2010.06.25/outbox.cif.g09.slc.cpg/sg11_10_cif.got.tgz:19350.got - 2010.06.27 23:14:04.
