data_PCOD8075901
_publ_section_title
;
Structure prediction by ZEFSAII (Michael W. Deem and Ramdas Pophale) SiO2 
 PCOD8075901
Probable space group: P 21/M
;
_chemical_formula_sum "Si O2"
_cell_formula_units_Z 32
_cell_length_a 22.317912
_cell_length_b 8.921235
_cell_length_c 14.854196
_cell_angle_alpha 90.000000
_cell_angle_beta 148.153920
_cell_angle_gamma 90.000000
_cell_volume 1560.503338
_symmetry_space_group_name_H-M "P 21/M"
_symmetry_group_IT_number 11
_symmetry_cell_setting 'monoclinic'
loop_
_space_group_symop_operation_xyz
x,y,z
-x,1/2+y,-z
-x,-y,-z
x,1/2-y,z
loop_
_atom_site_type_symbol
_atom_site_label
_atom_site_fract_x
_atom_site_fract_y
_atom_site_fract_z
Si Si1 0.983012 0.921666 0.384491
Si Si2 0.009952 0.922875 0.107768
Si Si3 0.371013 0.574718 0.479728
Si Si4 0.264895 0.421746 0.892428
Si Si5 0.761036 0.924587 0.845612
Si Si6 0.391261 0.926926 0.202506
Si Si7 0.239238 0.923521 0.488799
Si Si8 0.194362 0.073756 0.603449
O O1 0.020415 0.750000 0.438538
O O2 0.849279 0.934874 0.191642
O O3 0.000000 0.000000 0.500000
O O4 0.068533 0.003402 0.424821
O O5 0.032610 0.750000 0.115981
O O6 0.118891 0.987288 0.299347
O O7 0.896993 0.945832 0.023333
O O8 0.000000 0.000000 0.000000
O O9 0.369664 0.750000 0.452356
O O10 0.281932 0.486597 0.304630
O O11 0.494792 0.508216 0.620237
O O12 0.336750 0.548869 0.539665
O O13 0.307345 0.250000 0.946191
O O14 0.245342 0.477981 0.764980
O O15 0.359823 0.524535 0.060431
O O16 0.727842 0.750000 0.813581
O O17 0.707913 0.021178 0.857660
O O18 0.408323 0.750000 0.229027
O O19 0.229804 0.750000 0.502716
O O20 0.273162 0.015045 0.622484
O O21 0.182751 0.250000 0.587079
#
# Coordination Sequence:
#
# PCOD8075901 Si02
#       8
#     4   4   4   4   4   4   4   4
#     4   9  17  31  53  79 113 152 191 238 292 350
#     4  10  21  38  61  91 125 160 197 243 299 356
#     4  11  23  43  66  87 119 159 203 251 301 358
#     4   9  20  39  58  82 118 157 200 249 300 349
#     4  11  23  40  64  92 125 160 197 245 302 359
#     4  12  26  41  62  90 119 155 205 255 302 357
#     4  10  22  39  61  90 123 162 202 243 298 359
#     4  10  21  36  58  88 121 160 201 245 297 358
#
# _framework density 20.506205000000001
#
# number of rings (size 3 to 8) (size 9 to 14) (size 15 to 20)
#    0.000    1.750    1.250    3.750    1.750    5.000 
#    0.000    0.625    0.000    0.000    0.000    0.000 
#    0.000    0.000    0.000    0.000    0.000    0.000 
#
# Total GULP energy -396789.890044 kJ/mol
# GULP energy per Si atom -12399.684064 kJ/mol
# Density = 2.045953 g / cm^3
# Si number density = 20.506205 Si / 1000 Ang^3
#
#
#
# Elastic Constant Matrix: (Units=GPa)
#
#
# Indices 1 2 3 4 5 6 
#
# 1 81.5815 22.6542 14.6372 0.0000 -7.3529 0.0000
# 2 22.6542 72.5609 23.4047 0.0000 0.6890 0.0000
# 3 14.6372 23.4047 51.9695 0.0000 0.5709 0.0000
# 4 0.0000 0.0000 0.0000 28.8312 0.0000 -4.2646
# 5 -7.3529 0.6890 0.5709 0.0000 28.7131 0.0000
# 6 0.0000 0.0000 0.0000 -4.2646 0.0000 36.8171
#
#
#
# Elastic Compliance Matrix: (Units=1/GPa)
#
#
# Indices 1 2 3 4 5 6 
#
# 1 0.014031 -0.003660 -0.002345 0.000000 0.003727 0.000000
# 2 -0.003660 0.017080 -0.006648 0.000000 -0.001215 0.000000
# 3 -0.002345 -0.006648 0.022906 0.000000 -0.000896 0.000000
# 4 0.000000 0.000000 0.000000 0.035289 0.000000 0.004088
# 5 0.003727 -0.001215 -0.000896 0.000000 0.035829 0.000000
# 6 0.000000 0.000000 0.000000 0.004088 0.000000 0.027635
#
#
# Mechanical properties :
#
#
# Convention : Reuss Voigt Hill
#
# Bulk Modulus (GPa) = 34.82813 36.38938 35.60875
# Shear Modulus (GPa) = 26.64611 28.56665 27.60638
#
# Velocity S-wave (km/s) = 3.60865 3.73644 3.67310
# Velocity P-wave (km/s) = 5.86381 6.03313 5.94907
#
# Compressibility (1/GPa) = 0.02871243
#
# Stress axis : x y z
#
# Youngs Moduli (GPa) = 71.27323 58.54818 43.65631
#
# Poissons Ratio (x) = 0.21426 0.10235
# Poissons Ratio (y) = 0.26083 0.29023
# Poissons Ratio (z) = 0.16710 0.38923
#
# Static dielectric constant tensor:
#      x y z
#    x 3.850100 0.000000 0.082170 
#    y 0.000000 3.643000 0.000000 
#    z 0.082170 0.000000 3.741580 
# 
# 
# High freq. dielectric constant tensor:
#      x y z
#    x 1.804090 0.000000 -0.005520 
#    y 0.000000 1.802100 0.000000 
#    z -0.005520 0.000000 1.790890 
# 
# From -- ./inp_files/55738.got.cif
#   From: 2010.06.25/outbox.cif.g09.slc.cpg/sg11_28_cif.got.tgz:55738.got - 2010.06.27 23:14:04.
