data_PCOD8075879
_publ_section_title
;
Structure prediction by ZEFSAII (Michael W. Deem and Ramdas Pophale) SiO2 
 PCOD8075879
Probable space group: P 21/M
;
_chemical_formula_sum "Si O2"
_cell_formula_units_Z 32
_cell_length_a 10.077244
_cell_length_b 13.302319
_cell_length_c 25.585657
_cell_angle_alpha 90.000000
_cell_angle_beta 153.663082
_cell_angle_gamma 90.000000
_cell_volume 1521.615627
_symmetry_space_group_name_H-M "P 21/M"
_symmetry_group_IT_number 11
_symmetry_cell_setting 'monoclinic'
loop_
_space_group_symop_operation_xyz
x,y,z
-x,1/2+y,-z
-x,-y,-z
x,1/2-y,z
loop_
_atom_site_type_symbol
_atom_site_label
_atom_site_fract_x
_atom_site_fract_y
_atom_site_fract_z
Si Si1 0.624124 0.130875 0.631322
Si Si2 0.678734 0.631428 0.370790
Si Si3 0.738764 0.017384 0.969353
Si Si4 0.352904 0.130995 0.425170
Si Si5 0.909462 0.867265 0.824358
Si Si6 0.224769 0.631701 0.118913
Si Si7 0.311910 0.867787 0.558764
Si Si8 0.119959 0.977589 0.800287
O O1 0.665264 0.250000 0.649353
O O2 0.418173 0.088705 0.606326
O O3 0.479269 0.096624 0.525463
O O4 0.952056 0.082999 0.751900
O O5 0.715360 0.750000 0.389504
O O6 0.424427 0.604419 0.239414
O O7 0.996059 0.583584 0.464832
O O8 0.627029 0.077728 0.878929
O O9 0.462822 0.999650 0.909878
O O10 0.995386 0.082439 0.088040
O O11 0.888531 0.910606 0.007521
O O12 0.313580 0.250000 0.408409
O O13 0.570858 0.089913 0.455696
O O14 0.029824 0.080590 0.301691
O O15 0.970837 0.750000 0.850194
O O16 0.558457 0.890470 0.690396
O O17 0.110107 0.908184 0.847790
O O18 0.207068 0.750000 0.102970
O O19 0.265095 0.750000 0.534325
#
# Coordination Sequence:
#
# PCOD8075879 Si02
#       8
#     4   4   4   4   4   4   4   4
#     4  10  21  36  57  90 127 158 201 257 309 368
#     4   9  18  36  60  87 117 154 199 246 308 367
#     4  11  24  41  61  91 120 159 221 255 298 376
#     4   9  19  37  59  87 122 159 201 250 307 372
#     4  10  21  40  63  90 125 160 202 258 313 370
#     4  10  23  43  63  84 123 164 203 262 317 365
#     4   8  16  33  60  87 115 155 196 242 304 369
#     4  11  22  38  60  88 122 159 206 255 312 368
#
# _framework density 21.030279
#
# number of rings (size 3 to 8) (size 9 to 14) (size 15 to 20)
#    0.000    2.250    0.000    3.000    1.750    2.000 
#    4.500    4.375    0.000    0.000    0.000    0.000 
#    0.000    0.000    0.000    0.000    0.000    0.000 
#
# Total GULP energy -396862.739020 kJ/mol
# GULP energy per Si atom -12401.960594 kJ/mol
# Density = 2.098241 g / cm^3
# Si number density = 21.030279 Si / 1000 Ang^3
#
#
#
# Elastic Constant Matrix: (Units=GPa)
#
#
# Indices 1 2 3 4 5 6 
#
# 1 91.2264 17.4789 50.8637 0.0000 8.4171 0.0000
# 2 17.4789 44.1351 23.0958 0.0000 5.2846 0.0000
# 3 50.8637 23.0958 88.4851 0.0000 11.5510 0.0000
# 4 0.0000 0.0000 0.0000 28.2474 0.0000 -7.7369
# 5 8.4171 5.2846 11.5510 0.0000 34.0632 0.0000
# 6 0.0000 0.0000 0.0000 -7.7369 0.0000 31.0552
#
#
#
# Elastic Compliance Matrix: (Units=1/GPa)
#
#
# Indices 1 2 3 4 5 6 
#
# 1 0.016273 -0.001749 -0.008797 0.000000 -0.000766 0.000000
# 2 -0.001749 0.026539 -0.005693 0.000000 -0.001755 0.000000
# 3 -0.008797 -0.005693 0.018253 0.000000 -0.003133 0.000000
# 4 0.000000 0.000000 0.000000 0.037994 0.000000 0.009466
# 5 -0.000766 -0.001755 -0.003133 0.000000 0.030881 0.000000
# 6 0.000000 0.000000 0.000000 0.009466 0.000000 0.034559
#
#
# Mechanical properties :
#
#
# Convention : Reuss Voigt Hill
#
# Bulk Modulus (GPa) = 34.98098 45.19150 40.08624
# Shear Modulus (GPa) = 24.21230 27.50037 25.85634
#
# Velocity S-wave (km/s) = 3.39677 3.62008 3.51020
# Velocity P-wave (km/s) = 5.66161 6.24569 5.96081
#
# Compressibility (1/GPa) = 0.02858696
#
# Stress axis : x y z
#
# Youngs Moduli (GPa) = 61.45308 37.67972 54.78509
#
# Poissons Ratio (x) = 0.06590 0.48196
# Poissons Ratio (y) = 0.10749 0.31187
# Poissons Ratio (z) = 0.54062 0.21450
#
# Static dielectric constant tensor:
#      x y z
#    x 3.941870 0.000000 -0.089030 
#    y 0.000000 3.812400 0.000000 
#    z -0.089030 0.000000 3.725850 
# 
# 
# High freq. dielectric constant tensor:
#      x y z
#    x 1.823000 0.000000 -0.011340 
#    y 0.000000 1.840890 0.000000 
#    z -0.011340 0.000000 1.813990 
# 
# From -- ./inp_files/68146.got.cif
#   From: 2010.06.25/outbox.cif.g09.slc.cpg/sg11_35_cif.got.tgz:68146.got - 2010.06.27 23:14:04.
