data_PCOD8075116
_publ_section_title
;
Structure prediction by ZEFSAII (Michael W. Deem and Ramdas Pophale) SiO2 
 PCOD8075116
Probable space group: P 21/M
;
_chemical_formula_sum "Si O2"
_cell_formula_units_Z 24
_cell_length_a 10.138940
_cell_length_b 8.742706
_cell_length_c 14.796185
_cell_angle_alpha 90.000000
_cell_angle_beta 79.930977
_cell_angle_gamma 90.000000
_cell_volume 1291.359204
_symmetry_space_group_name_H-M "P 21/M"
_symmetry_group_IT_number 11
_symmetry_cell_setting 'monoclinic'
loop_
_space_group_symop_operation_xyz
x,y,z
-x,1/2+y,-z
-x,-y,-z
x,1/2-y,z
loop_
_atom_site_type_symbol
_atom_site_label
_atom_site_fract_x
_atom_site_fract_y
_atom_site_fract_z
Si Si1 0.463805 0.430836 0.733924
Si Si2 0.879680 0.072327 0.068877
Si Si3 0.601320 0.928192 0.558180
Si Si4 0.184939 0.929729 0.723538
Si Si5 0.581299 0.431542 0.072394
Si Si6 0.106556 0.071951 0.553587
O O1 0.467353 0.250000 0.743676
O O2 0.584842 0.488049 0.656379
O O3 0.325058 0.480948 0.704064
O O4 0.485540 0.507626 0.828229
O O5 0.889058 0.250000 0.050356
O O6 0.892681 0.033612 0.173775
O O7 0.735973 0.012476 0.049549
O O8 0.000000 0.000000 0.000000
O O9 0.569583 0.750000 0.572669
O O10 0.749992 0.958995 0.506815
O O11 0.500000 0.000000 0.500000
O O12 0.215126 0.750000 0.711866
O O13 0.094317 0.988119 0.651891
O O14 0.572224 0.250000 0.072786
O O15 0.500000 0.500000 0.000000
O O16 0.077151 0.250000 0.571213
O O17 0.000000 0.000000 0.500000
#
# Coordination Sequence:
#
# PCOD8075116 Si02
#       6
#     4   4   4   4   4   4
#     4  11  21  35  59  89 116 151 195 237 287 343
#     4   9  20  37  59  86 113 147 190 233 281 338
#     4  11  22  37  60  88 116 150 194 238 282 342
#     4  10  20  37  60  84 115 152 193 240 286 341
#     4  10  21  39  60  86 118 152 189 238 292 344
#     4  11  24  40  59  85 117 154 193 236 291 346
#
# _framework density 18.585068
#
# number of rings (size 3 to 8) (size 9 to 14) (size 15 to 20)
#    0.000    1.667    1.667    4.500    0.000    6.000 
#    3.000    0.000    0.000    0.000    0.000    0.000 
#    0.000    0.000    0.000    0.000    0.000    0.000 
#
# Total GULP energy -297667.996811 kJ/mol
# GULP energy per Si atom -12402.833200 kJ/mol
# Density = 1.854277 g / cm^3
# Si number density = 18.585068 Si / 1000 Ang^3
#
#
#
# Elastic Constant Matrix: (Units=GPa)
#
#
# Indices 1 2 3 4 5 6 
#
# 1 94.6493 52.3389 74.8218 0.0000 14.3303 0.0000
# 2 52.3389 106.1742 60.0874 0.0000 1.1777 0.0000
# 3 74.8218 60.0874 154.9579 0.0000 11.3055 0.0000
# 4 0.0000 0.0000 0.0000 40.1018 0.0000 1.3871
# 5 14.3303 1.1777 11.3055 0.0000 37.7764 0.0000
# 6 0.0000 0.0000 0.0000 1.3871 0.0000 32.0797
#
#
#
# Elastic Compliance Matrix: (Units=1/GPa)
#
#
# Indices 1 2 3 4 5 6 
#
# 1 0.020258 -0.005910 -0.007098 0.000000 -0.005376 0.000000
# 2 -0.005910 0.013831 -0.002701 0.000000 0.002619 0.000000
# 3 -0.007098 -0.002701 0.010965 0.000000 -0.000505 0.000000
# 4 0.000000 0.000000 0.000000 0.024974 0.000000 -0.001080
# 5 -0.005376 0.002619 -0.000505 0.000000 0.028581 0.000000
# 6 0.000000 0.000000 0.000000 -0.001080 0.000000 0.031219
#
#
# Mechanical properties :
#
#
# Convention : Reuss Voigt Hill
#
# Bulk Modulus (GPa) = 73.32878 81.14195 77.23537
# Shear Modulus (GPa) = 30.15859 33.22714 31.69286
#
# Velocity S-wave (km/s) = 4.03269 4.23287 4.13399
# Velocity P-wave (km/s) = 7.82463 8.22461 8.02711
#
# Compressibility (1/GPa) = 0.01363721
#
# Stress axis : x y z
#
# Youngs Moduli (GPa) = 49.36236 72.30065 91.20197
#
# Poissons Ratio (x) = 0.42729 0.64734
# Poissons Ratio (y) = 0.29172 0.24631
# Poissons Ratio (z) = 0.35037 0.19526
#
# Static dielectric constant tensor:
#      x y z
#    x 3.021970 0.000000 0.118080 
#    y 0.000000 3.531500 0.000000 
#    z 0.118080 0.000000 3.625280 
# 
# 
# High freq. dielectric constant tensor:
#      x y z
#    x 1.703430 0.000000 0.000190 
#    y 0.000000 1.736010 0.000000 
#    z 0.000190 0.000000 1.736380 
# 
# From -- ./inp_files/46494.got.cif
#   From: 2010.06.25/outbox.cif.g09.slc.cpg/sg11_24_cif.got.tgz:46494.got - 2010.06.27 23:14:04.
