data_PCOD8075546
_publ_section_title
;
Structure prediction by ZEFSAII (Michael W. Deem and Ramdas Pophale) SiO2 
 PCOD8075546
Probable space group: P 21/M
;
_chemical_formula_sum "Si O2"
_cell_formula_units_Z 20
_cell_length_a 7.874285
_cell_length_b 18.588356
_cell_length_c 7.742980
_cell_angle_alpha 90.000000
_cell_angle_beta 59.083057
_cell_angle_gamma 90.000000
_cell_volume 972.307199
_symmetry_space_group_name_H-M "P 21/M"
_symmetry_group_IT_number 11
_symmetry_cell_setting 'monoclinic'
loop_
_space_group_symop_operation_xyz
x,y,z
-x,1/2+y,-z
-x,-y,-z
x,1/2-y,z
loop_
_atom_site_type_symbol
_atom_site_label
_atom_site_fract_x
_atom_site_fract_y
_atom_site_fract_z
Si Si1 0.683019 0.025501 0.296220
Si Si2 0.759870 0.331899 0.737494
Si Si3 0.003864 0.888950 0.701864
Si Si4 0.771482 0.170960 0.120903
Si Si5 0.605328 0.933396 0.031597
O O1 0.876803 0.036656 0.315866
O O2 0.500000 0.000000 0.500000
O O3 0.726983 0.963882 0.132732
O O4 0.625378 0.103558 0.238497
O O5 0.710986 0.250000 0.714335
O O6 0.848721 0.338534 0.884220
O O7 0.553352 0.374297 0.826876
O O8 0.925167 0.361211 0.520731
O O9 0.768330 0.900779 0.815873
O O10 0.048467 0.832403 0.834626
O O11 0.667795 0.250000 0.192788
O O12 0.500000 0.000000 0.000000
#
# Coordination Sequence:
#
# PCOD8075546 Si02
#       5
#     4   4   4   4   4
#     4  10  20  39  64  91 129 167 213 266 320 379
#     4  11  23  41  65  94 128 170 216 264 322 384
#     4  10  23  39  65  88 129 166 213 259 323 375
#     4   9  20  40  62  88 128 169 211 264 319 380
#     4  12  22  42  63  97 128 169 212 267 319 374
#
# _framework density 20.56963
#
# number of rings (size 3 to 8) (size 9 to 14) (size 15 to 20)
#    1.200    0.400    4.000    1.200    0.000    2.400 
#    3.600    0.000    0.000    2.400    0.000    0.000 
#    0.000    0.000    0.000    0.000    0.000    0.000 
#
# Total GULP energy -247777.623861 kJ/mol
# GULP energy per Si atom -12388.881193 kJ/mol
# Density = 2.052281 g / cm^3
# Si number density = 20.569630 Si / 1000 Ang^3
#
#
#
# Elastic Constant Matrix: (Units=GPa)
#
#
# Indices 1 2 3 4 5 6 
#
# 1 52.2392 28.7209 51.1078 0.0000 -0.0787 0.0000
# 2 28.7209 121.0535 82.2144 0.0000 -12.7904 0.0000
# 3 51.1078 82.2144 165.3507 0.0000 -5.0763 0.0000
# 4 0.0000 0.0000 0.0000 35.8310 0.0000 5.4098
# 5 -0.0787 -12.7904 -5.0763 0.0000 36.4632 0.0000
# 6 0.0000 0.0000 0.0000 5.4098 0.0000 24.8848
#
#
#
# Elastic Compliance Matrix: (Units=1/GPa)
#
#
# Indices 1 2 3 4 5 6 
#
# 1 0.027623 -0.001334 -0.007921 0.000000 -0.001511 0.000000
# 2 -0.001334 0.013006 -0.005940 0.000000 0.003732 0.000000
# 3 -0.007921 -0.005940 0.011434 0.000000 -0.000509 0.000000
# 4 0.000000 0.000000 0.000000 0.028856 0.000000 -0.006273
# 5 -0.001511 0.003732 -0.000509 0.000000 0.028660 0.000000
# 6 0.000000 0.000000 0.000000 -0.006273 0.000000 0.041549
#
#
# Mechanical properties :
#
#
# Convention : Reuss Voigt Hill
#
# Bulk Modulus (GPa) = 46.13956 73.63662 59.88809
# Shear Modulus (GPa) = 26.49125 31.20917 28.85021
#
# Velocity S-wave (km/s) = 3.59260 3.89941 3.74914
# Velocity P-wave (km/s) = 6.29989 7.49335 6.92239
#
# Compressibility (1/GPa) = 0.02167338
#
# Stress axis : x y z
#
# Youngs Moduli (GPa) = 36.20111 76.88991 87.45987
#
# Poissons Ratio (x) = 0.10255 0.69280
# Poissons Ratio (y) = 0.04828 0.51949
# Poissons Ratio (z) = 0.28676 0.45671
#
# Static dielectric constant tensor:
#      x y z
#    x 3.518320 0.000000 0.358210 
#    y 0.000000 4.080530 0.000000 
#    z 0.358210 0.000000 3.818230 
# 
# 
# High freq. dielectric constant tensor:
#      x y z
#    x 1.776310 0.000000 0.024950 
#    y 0.000000 1.810290 0.000000 
#    z 0.024950 0.000000 1.805400 
# 
# From -- ./inp_files/13414.got.cif
#   From: 2010.06.25/outbox.cif.g09.slc.cpg/sg11_7_cif.got.tgz:13414.got - 2010.06.27 23:14:04.
