data_PCOD8075329
_publ_section_title
;
Structure prediction by ZEFSAII (Michael W. Deem and Ramdas Pophale) SiO2 
 PCOD8075329
Probable space group: P 21/M
;
_chemical_formula_sum "Si O2"
_cell_formula_units_Z 32
_cell_length_a 12.820079
_cell_length_b 15.112304
_cell_length_c 18.087251
_cell_angle_alpha 90.000000
_cell_angle_beta 152.214769
_cell_angle_gamma 90.000000
_cell_volume 1633.532039
_symmetry_space_group_name_H-M "P 21/M"
_symmetry_group_IT_number 11
_symmetry_cell_setting 'monoclinic'
loop_
_space_group_symop_operation_xyz
x,y,z
-x,1/2+y,-z
-x,-y,-z
x,1/2-y,z
loop_
_atom_site_type_symbol
_atom_site_label
_atom_site_fract_x
_atom_site_fract_y
_atom_site_fract_z
Si Si1 0.400626 0.853476 0.895168
Si Si2 0.931922 0.402821 0.434351
Si Si3 0.364302 0.008673 0.236123
Si Si4 0.589683 0.652336 0.306875
Si Si5 0.744795 0.150815 0.470081
Si Si6 0.257267 0.851312 0.969303
Si Si7 0.014241 0.491985 0.887894
Si Si8 0.909785 0.853264 0.187608
O O1 0.366738 0.750000 0.858472
O O2 0.257355 0.909062 0.746926
O O3 0.321203 0.879338 0.926968
O O4 0.657210 0.881664 0.047164
O O5 0.833305 0.351506 0.442214
O O6 0.000000 0.500000 0.500000
O O7 0.144417 0.352196 0.534808
O O8 0.534851 0.088487 0.351482
O O9 0.499865 0.917742 0.309817
O O10 0.204159 0.029198 0.066935
O O11 0.226385 0.001171 0.225027
O O12 0.527441 0.750000 0.297756
O O13 0.479286 0.636146 0.157661
O O14 0.663719 0.250000 0.436595
O O15 0.945387 0.122770 0.649807
O O16 0.169878 0.750000 0.918408
O O17 0.062475 0.915970 0.875855
O O18 0.999484 0.409303 0.824014
O O19 0.926502 0.750000 0.177353
#
# Coordination Sequence:
#
# PCOD8075329 Si02
#       8
#     4   4   4   4   4   4   4   4
#     4  10  21  38  59  87 119 153 197 239 288 354
#     4  12  23  35  58  91 120 149 191 239 292 358
#     4  10  22  40  59  91 115 155 203 241 296 344
#     4  10  20  38  59  83 119 154 190 240 294 350
#     4  11  23  41  61  85 121 158 196 243 296 350
#     4   9  20  37  59  86 117 155 194 237 292 350
#     4  10  22  38  62  86 121 153 199 250 286 348
#     4  10  23  40  61  88 118 158 198 241 296 349
#
# _framework density 19.589454
#
# number of rings (size 3 to 8) (size 9 to 14) (size 15 to 20)
#    0.000    1.750    1.250    2.625    3.500    5.500 
#    0.000    2.500    0.000    1.500    0.000    0.000 
#    0.000    0.000    0.000    0.000    0.000    0.000 
#
# Total GULP energy -396958.196766 kJ/mol
# GULP energy per Si atom -12404.943649 kJ/mol
# Density = 1.954487 g / cm^3
# Si number density = 19.589454 Si / 1000 Ang^3
#
#
#
# Elastic Constant Matrix: (Units=GPa)
#
#
# Indices 1 2 3 4 5 6 
#
# 1 153.9337 67.1165 74.1393 0.0000 12.7470 0.0000
# 2 67.1165 112.2538 63.1759 0.0000 5.4787 0.0000
# 3 74.1393 63.1759 124.0889 0.0000 10.8518 0.0000
# 4 0.0000 0.0000 0.0000 25.3313 0.0000 -17.5652
# 5 12.7470 5.4787 10.8518 0.0000 29.5678 0.0000
# 6 0.0000 0.0000 0.0000 -17.5652 0.0000 -1.9028
#
#
#
# Elastic Compliance Matrix: (Units=1/GPa)
#
#
# Indices 1 2 3 4 5 6 
#
# 1 0.010258 -0.003763 -0.004016 0.000000 -0.002251 0.000000
# 2 -0.003763 0.013866 -0.004885 0.000000 0.000846 0.000000
# 3 -0.004016 -0.004885 0.013136 0.000000 -0.002185 0.000000
# 4 0.000000 0.000000 0.000000 0.005334 0.000000 -0.049239
# 5 -0.002251 0.000846 -0.002185 0.000000 0.035436 0.000000
# 6 0.000000 0.000000 0.000000 -0.049239 0.000000 -0.071009
#
#
# Mechanical properties :
#
#
# Convention : Reuss Voigt Hill
#
# Bulk Modulus (GPa) = 83.80907 88.79330 86.30118
# Shear Modulus (GPa) = 137.63567 22.98891 80.31229
#
# Velocity S-wave (km/s) = 8.39122 3.42941 6.40989
# Velocity P-wave (km/s) = 11.69441 7.81707 9.94650
#
# Compressibility (1/GPa) = 0.01193188
#
# Stress axis : x y z
#
# Youngs Moduli (GPa) = 97.48852 72.11647 76.12428
#
# Poissons Ratio (x) = 0.27138 0.30571
# Poissons Ratio (y) = 0.36685 0.37189
# Poissons Ratio (z) = 0.39151 0.35231
#
# Static dielectric constant tensor:
#      x y z
#    x 3.550640 0.000000 -0.003020 
#    y 0.000000 3.642090 0.000000 
#    z -0.003020 0.000000 3.599710 
# 
# 
# High freq. dielectric constant tensor:
#      x y z
#    x 1.757210 0.000000 -0.003020 
#    y 0.000000 1.774840 0.000000 
#    z -0.003020 0.000000 1.763570 
# 
# From -- ./inp_files/59477.got.cif
#   From: 2010.06.25/outbox.cif.g09.slc.cpg/sg11_30_cif.got.tgz:59477.got - 2010.06.27 23:14:04.
