data_PCOD8075858
_publ_section_title
;
Structure prediction by ZEFSAII (Michael W. Deem and Ramdas Pophale) SiO2 
 PCOD8075858
Probable space group: P 21/M
;
_chemical_formula_sum "Si O2"
_cell_formula_units_Z 28
_cell_length_a 13.358085
_cell_length_b 8.589666
_cell_length_c 14.364072
_cell_angle_alpha 90.000000
_cell_angle_beta 57.571883
_cell_angle_gamma 90.000000
_cell_volume 1391.149747
_symmetry_space_group_name_H-M "P 21/M"
_symmetry_group_IT_number 11
_symmetry_cell_setting 'monoclinic'
loop_
_space_group_symop_operation_xyz
x,y,z
-x,1/2+y,-z
-x,-y,-z
x,1/2-y,z
loop_
_atom_site_type_symbol
_atom_site_label
_atom_site_fract_x
_atom_site_fract_y
_atom_site_fract_z
Si Si1 0.554435 0.432659 0.328885
Si Si2 0.702282 0.432361 0.541703
Si Si3 0.302293 0.931848 0.247022
Si Si4 0.429140 0.065796 0.873387
Si Si5 0.769884 0.932861 0.326688
Si Si6 0.782228 0.567095 0.892559
Si Si7 0.991886 0.435192 0.107286
O O1 0.528605 0.250000 0.349392
O O2 0.434790 0.527398 0.406260
O O3 0.608160 0.476188 0.201548
O O4 0.647743 0.484392 0.359743
O O5 0.720967 0.250000 0.516318
O O6 0.738841 0.480446 0.628700
O O7 0.786062 0.526892 0.428241
O O8 0.289658 0.750000 0.238592
O O9 0.438565 0.983850 0.162449
O O10 0.217386 0.013720 0.214709
O O11 0.421338 0.250000 0.857848
O O12 0.338280 0.008880 0.997795
O O13 0.762857 0.750000 0.313311
O O14 0.874898 0.002523 0.214173
O O15 0.788811 0.750000 0.892148
O O16 0.896182 0.500091 0.889770
O O17 0.988917 0.250000 0.105372
O O18 0.000000 0.500000 0.000000
#
# Coordination Sequence:
#
# PCOD8075858 Si02
#       7
#     4   4   4   4   4   4   4
#     4  11  21  34  56  87 118 151 188 232 284 343
#     4  10  21  39  59  84 117 150 186 234 283 336
#     4   9  19  34  56  84 116 149 184 228 282 338
#     4   9  18  34  54  83 119 153 187 231 281 333
#     4  12  24  39  59  83 112 151 193 237 285 338
#     4  10  21  36  57  82 113 149 189 234 282 333
#     4  11  24  42  62  87 115 149 190 236 283 333
#
# _framework density 20.127236
#
# number of rings (size 3 to 8) (size 9 to 14) (size 15 to 20)
#    0.000    1.714    0.000    6.000    0.000    5.714 
#    0.000    0.714    0.000    0.000    0.000    0.000 
#    0.000    0.000    0.000    0.000    0.000    0.000 
#
# Total GULP energy -347273.060909 kJ/mol
# GULP energy per Si atom -12402.609318 kJ/mol
# Density = 2.008143 g / cm^3
# Si number density = 20.127236 Si / 1000 Ang^3
#
#
#
# Elastic Constant Matrix: (Units=GPa)
#
#
# Indices 1 2 3 4 5 6 
#
# 1 99.8145 20.7346 49.1538 0.0000 21.8650 0.0000
# 2 20.7346 48.0094 25.6245 0.0000 3.8347 0.0000
# 3 49.1538 25.6245 135.0186 0.0000 16.9568 0.0000
# 4 0.0000 0.0000 0.0000 36.7423 0.0000 5.5058
# 5 21.8650 3.8347 16.9568 0.0000 25.1965 0.0000
# 6 0.0000 0.0000 0.0000 5.5058 0.0000 30.1075
#
#
#
# Elastic Compliance Matrix: (Units=1/GPa)
#
#
# Indices 1 2 3 4 5 6 
#
# 1 0.014610 -0.003722 -0.003377 0.000000 -0.009839 0.000000
# 2 -0.003722 0.024134 -0.003462 0.000000 0.001887 0.000000
# 3 -0.003377 -0.003462 0.009676 0.000000 -0.003055 0.000000
# 4 0.000000 0.000000 0.000000 0.027983 0.000000 -0.005117
# 5 -0.009839 0.001887 -0.003055 0.000000 0.049995 0.000000
# 6 0.000000 0.000000 0.000000 -0.005117 0.000000 0.034150
#
#
# Mechanical properties :
#
#
# Convention : Reuss Voigt Hill
#
# Bulk Modulus (GPa) = 36.63160 52.65202 44.64181
# Shear Modulus (GPa) = 26.20959 30.89791 28.55375
#
# Velocity S-wave (km/s) = 3.61251 3.92232 3.77060
# Velocity P-wave (km/s) = 5.96991 6.83588 6.41752
#
# Compressibility (1/GPa) = 0.02729884
#
# Stress axis : x y z
#
# Youngs Moduli (GPa) = 68.44662 41.43560 103.34360
#
# Poissons Ratio (x) = 0.15421 0.34897
# Poissons Ratio (y) = 0.25473 0.35781
# Poissons Ratio (z) = 0.23113 0.14346
#
# Static dielectric constant tensor:
#      x y z
#    x 3.738420 0.000000 0.213130 
#    y 0.000000 3.584610 0.000000 
#    z 0.213130 0.000000 3.905000 
# 
# 
# High freq. dielectric constant tensor:
#      x y z
#    x 1.773590 0.000000 0.016740 
#    y 0.000000 1.783470 0.000000 
#    z 0.016740 0.000000 1.794880 
# 
# From -- ./inp_files/37870.got.cif
#   From: 2010.06.25/outbox.cif.g09.slc.cpg/sg11_19_cif.got.tgz:37870.got - 2010.06.27 23:14:04.
