data_PCOD8075728
_publ_section_title
;
Structure prediction by ZEFSAII (Michael W. Deem and Ramdas Pophale) SiO2 
 PCOD8075728
Probable space group: P 21/M
;
_chemical_formula_sum "Si O2"
_cell_formula_units_Z 32
_cell_length_a 12.859599
_cell_length_b 8.929618
_cell_length_c 21.010450
_cell_angle_alpha 90.000000
_cell_angle_beta 43.379375
_cell_angle_gamma 90.000000
_cell_volume 1657.075653
_symmetry_space_group_name_H-M "P 21/M"
_symmetry_group_IT_number 11
_symmetry_cell_setting 'monoclinic'
loop_
_space_group_symop_operation_xyz
x,y,z
-x,1/2+y,-z
-x,-y,-z
x,1/2-y,z
loop_
_atom_site_type_symbol
_atom_site_label
_atom_site_fract_x
_atom_site_fract_y
_atom_site_fract_z
Si Si1 0.765338 0.572828 0.856950
Si Si2 0.776867 0.571899 0.221300
Si Si3 0.930734 0.575796 0.591562
Si Si4 0.374261 0.428021 0.208522
Si Si5 0.312493 0.575344 0.869458
Si Si6 0.360358 0.929048 0.597945
Si Si7 0.877425 0.077092 0.924451
Si Si8 0.932564 0.424533 0.340126
O O1 0.759852 0.750000 0.867023
O O2 0.641243 0.519467 0.859193
O O3 0.755289 0.501423 0.931585
O O4 0.924862 0.508632 0.760455
O O5 0.764224 0.750000 0.232889
O O6 0.724081 0.523926 0.175043
O O7 0.661230 0.492491 0.321407
O O8 0.949688 0.516470 0.157276
O O9 0.914061 0.750000 0.584911
O O10 0.766412 0.511171 0.686191
O O11 0.000000 0.500000 0.500000
O O12 0.053765 0.541747 0.591372
O O13 0.363810 0.250000 0.212214
O O14 0.530641 0.483789 0.169227
O O15 0.325523 0.750000 0.844799
O O16 0.178083 0.548370 0.979226
O O17 0.374891 0.750000 0.593720
O O18 0.220931 0.992577 0.618620
O O19 0.500000 0.000000 0.500000
O O20 0.872056 0.250000 0.909540
O O21 0.933278 0.250000 0.326290
#
# Coordination Sequence:
#
# PCOD8075728 Si02
#       8
#     4   4   4   4   4   4   4   4
#     4   9  16  32  58  81 103 141 185 224 271 335
#     4  11  23  39  56  80 113 149 191 239 278 326
#     4   9  17  32  53  77 102 134 176 219 263 322
#     4   8  17  34  55  78 108 142 182 227 277 335
#     4  10  21  38  57  80 113 153 187 228 286 341
#     4  11  22  38  59  84 110 144 184 230 284 336
#     4  10  21  35  55  83 114 145 186 236 284 330
#     4   8  16  32  53  74 101 137 176 216 263 321
#
# _framework density 19.311126999999999
#
# number of rings (size 3 to 8) (size 9 to 14) (size 15 to 20)
#    0.000    2.500    1.250    2.625    0.000    2.500 
#    0.000    7.500    0.000    0.000    0.000    0.000 
#    0.000    0.000    0.000    0.000    0.000    0.000 
#
# Total GULP energy -396590.795024 kJ/mol
# GULP energy per Si atom -12393.462345 kJ/mol
# Density = 1.926717 g / cm^3
# Si number density = 19.311127 Si / 1000 Ang^3
#
#
#
# Elastic Constant Matrix: (Units=GPa)
#
#
# Indices 1 2 3 4 5 6 
#
# 1 113.4819 36.5758 38.1703 0.0000 5.4859 0.0000
# 2 36.5758 53.0685 34.6991 0.0000 7.7017 0.0000
# 3 38.1703 34.6991 89.6570 0.0000 7.3175 0.0000
# 4 0.0000 0.0000 0.0000 28.7465 0.0000 8.9116
# 5 5.4859 7.7017 7.3175 0.0000 30.6537 0.0000
# 6 0.0000 0.0000 0.0000 8.9116 0.0000 26.6243
#
#
#
# Elastic Compliance Matrix: (Units=1/GPa)
#
#
# Indices 1 2 3 4 5 6 
#
# 1 0.011732 -0.006468 -0.002502 0.000000 0.000123 0.000000
# 2 -0.006468 0.029306 -0.008242 0.000000 -0.004238 0.000000
# 3 -0.002502 -0.008242 0.015505 0.000000 -0.001183 0.000000
# 4 0.000000 0.000000 0.000000 0.038814 0.000000 -0.012992
# 5 0.000123 -0.004238 -0.001183 0.000000 0.033948 0.000000
# 6 0.000000 0.000000 0.000000 -0.012992 0.000000 0.041908
#
#
# Mechanical properties :
#
#
# Convention : Reuss Voigt Hill
#
# Bulk Modulus (GPa) = 45.20984 52.78863 48.99923
# Shear Modulus (GPa) = 23.47300 26.98905 25.23102
#
# Velocity S-wave (km/s) = 3.49021 3.74249 3.61855
# Velocity P-wave (km/s) = 6.30113 6.78750 6.54883
#
# Compressibility (1/GPa) = 0.02211908
#
# Stress axis : x y z
#
# Youngs Moduli (GPa) = 85.23568 34.12278 64.49496
#
# Poissons Ratio (x) = 0.22071 0.16133
# Poissons Ratio (y) = 0.55132 0.53159
# Poissons Ratio (z) = 0.21322 0.28125
#
# Static dielectric constant tensor:
#      x y z
#    x 3.778680 0.000000 0.021540 
#    y 0.000000 3.499110 0.000000 
#    z 0.021540 0.000000 3.416020 
# 
# 
# High freq. dielectric constant tensor:
#      x y z
#    x 1.763100 0.000000 0.005980 
#    y 0.000000 1.720560 0.000000 
#    z 0.005980 0.000000 1.751520 
# 
# From -- ./inp_files/64401.got.cif
#   From: 2010.06.25/outbox.cif.g09.slc.cpg/sg11_33_cif.got.tgz:64401.got - 2010.06.27 23:14:04.
