data_PCOD8075381
_publ_section_title
;
Structure prediction by ZEFSAII (Michael W. Deem and Ramdas Pophale) SiO2 
 PCOD8075381
Probable space group: P 21/M
;
_chemical_formula_sum "Si O2"
_cell_formula_units_Z 28
_cell_length_a 11.724586
_cell_length_b 8.826343
_cell_length_c 15.384089
_cell_angle_alpha 90.000000
_cell_angle_beta 61.387431
_cell_angle_gamma 90.000000
_cell_volume 1397.604333
_symmetry_space_group_name_H-M "P 21/M"
_symmetry_group_IT_number 11
_symmetry_cell_setting 'monoclinic'
loop_
_space_group_symop_operation_xyz
x,y,z
-x,1/2+y,-z
-x,-y,-z
x,1/2-y,z
loop_
_atom_site_type_symbol
_atom_site_label
_atom_site_fract_x
_atom_site_fract_y
_atom_site_fract_z
Si Si1 0.546040 0.428927 0.072379
Si Si2 0.365583 0.071281 0.291964
Si Si3 0.184592 0.423046 0.992766
Si Si4 0.076181 0.424311 0.394814
Si Si5 0.147795 0.925420 0.651822
Si Si6 0.936540 0.576232 0.149518
Si Si7 0.608530 0.571094 0.521530
O O1 0.531876 0.250000 0.071466
O O2 0.459747 0.496318 0.183372
O O3 0.694196 0.470600 0.034519
O O4 0.500000 0.500000 0.000000
O O5 0.360185 0.250000 0.282565
O O6 0.220058 0.004050 0.331494
O O7 0.420975 0.029122 0.367188
O O8 0.216741 0.250000 0.005964
O O9 0.147353 0.439784 0.906289
O O10 0.067614 0.478882 0.096191
O O11 0.090243 0.250000 0.415422
O O12 0.000000 0.500000 0.500000
O O13 0.996089 0.445896 0.335218
O O14 0.184931 0.750000 0.650321
O O15 0.152885 0.008503 0.742238
O O16 0.251249 0.003002 0.550960
O O17 0.972703 0.750000 0.155285
O O18 0.500000 0.500000 0.500000
O O19 0.611438 0.750000 0.505777
#
# Coordination Sequence:
#
# PCOD8075381 Si02
#       7
#     4   4   4   4   4   4   4
#     4  11  24  42  64  91 123 165 212 260 312 372
#     4   9  21  41  63  86 120 164 204 251 312 364
#     4  10  22  42  64  89 122 159 203 258 314 371
#     4  10  20  38  61  87 118 156 199 248 299 357
#     4  11  23  37  61  94 125 161 201 250 308 368
#     4  10  22  40  64  93 122 159 204 255 308 368
#     4  11  23  41  63  90 125 165 208 257 308 371
#
# _framework density 20.034282999999999
#
# number of rings (size 3 to 8) (size 9 to 14) (size 15 to 20)
#    0.000    1.714    1.429    2.143    4.000    2.286 
#    0.000    3.571    0.000    0.000    0.000    0.000 
#    0.000    0.000    0.000    0.000    0.000    0.000 
#
# Total GULP energy -347290.444416 kJ/mol
# GULP energy per Si atom -12403.230158 kJ/mol
# Density = 1.998868 g / cm^3
# Si number density = 20.034283 Si / 1000 Ang^3
#
#
#
# Elastic Constant Matrix: (Units=GPa)
#
#
# Indices 1 2 3 4 5 6 
#
# 1 109.5631 36.3390 44.2432 0.0000 -4.9262 0.0000
# 2 36.3390 85.5330 43.1678 0.0000 12.4163 0.0000
# 3 44.2432 43.1678 136.7888 0.0000 9.9455 0.0000
# 4 0.0000 0.0000 0.0000 32.7273 0.0000 -1.3029
# 5 -4.9262 12.4163 9.9455 0.0000 21.6474 0.0000
# 6 0.0000 0.0000 0.0000 -1.3029 0.0000 34.1503
#
#
#
# Elastic Compliance Matrix: (Units=1/GPa)
#
#
# Indices 1 2 3 4 5 6 
#
# 1 0.012177 -0.004668 -0.002961 0.000000 0.006808 0.000000
# 2 -0.004668 0.016539 -0.003044 0.000000 -0.009150 0.000000
# 3 -0.002961 -0.003044 0.009467 0.000000 -0.003277 0.000000
# 4 0.000000 0.000000 0.000000 0.030602 0.000000 0.001167
# 5 0.006808 -0.009150 -0.003277 0.000000 0.054498 0.000000
# 6 0.000000 0.000000 0.000000 0.001167 0.000000 0.029327
#
#
# Mechanical properties :
#
#
# Convention : Reuss Voigt Hill
#
# Bulk Modulus (GPa) = 59.38945 64.37611 61.88278
# Shear Modulus (GPa) = 27.84466 31.58068 29.71267
#
# Velocity S-wave (km/s) = 3.73211 3.97461 3.85527
# Velocity P-wave (km/s) = 6.94837 7.29836 7.12552
#
# Compressibility (1/GPa) = 0.01683801
#
# Stress axis : x y z
#
# Youngs Moduli (GPa) = 82.12279 60.46257 105.62844
#
# Poissons Ratio (x) = 0.28221 0.31272
# Poissons Ratio (y) = 0.38331 0.32159
# Poissons Ratio (z) = 0.24313 0.18408
#
# Static dielectric constant tensor:
#      x y z
#    x 3.349350 0.000000 0.244600 
#    y 0.000000 3.637820 0.000000 
#    z 0.244600 0.000000 3.660480 
# 
# 
# High freq. dielectric constant tensor:
#      x y z
#    x 1.789030 0.000000 0.001310 
#    y 0.000000 1.776520 0.000000 
#    z 0.001310 0.000000 1.791070 
# 
# From -- ./inp_files/49148.got.cif
#   From: 2010.06.25/outbox.cif.g09.slc.cpg/sg11_25_cif.got.tgz:49148.got - 2010.06.27 23:14:04.
