data_PCOD8075253
_publ_section_title
;
Structure prediction by ZEFSAII (Michael W. Deem and Ramdas Pophale) SiO2 
 PCOD8075253
Probable space group: P 21/M
;
_chemical_formula_sum "Si O2"
_cell_formula_units_Z 20
_cell_length_a 9.422211
_cell_length_b 13.715232
_cell_length_c 8.678034
_cell_angle_alpha 90.000000
_cell_angle_beta 62.948908
_cell_angle_gamma 90.000000
_cell_volume 998.758926
_symmetry_space_group_name_H-M "P 21/M"
_symmetry_group_IT_number 11
_symmetry_cell_setting 'monoclinic'
loop_
_space_group_symop_operation_xyz
x,y,z
-x,1/2+y,-z
-x,-y,-z
x,1/2-y,z
loop_
_atom_site_type_symbol
_atom_site_label
_atom_site_fract_x
_atom_site_fract_y
_atom_site_fract_z
Si Si1 0.249977 0.863241 0.479654
Si Si2 0.372764 0.010956 0.195948
Si Si3 0.955067 0.548311 0.779037
Si Si4 0.590848 0.360287 0.279748
Si Si5 0.931528 0.361611 0.973226
O O1 0.210325 0.750000 0.476188
O O2 0.327714 0.904524 0.285085
O O3 0.371167 0.879919 0.560546
O O4 0.086737 0.921982 0.589055
O O5 0.217868 0.065906 0.208184
O O6 0.444960 0.072700 0.300863
O O7 0.500000 0.000000 0.000000
O O8 0.982633 0.434535 0.811424
O O9 0.966312 0.616985 0.923869
O O10 0.535918 0.250000 0.282090
O O11 0.746391 0.382240 0.100068
O O12 0.961812 0.250000 0.907313
#
# Coordination Sequence:
#
# PCOD8075253 Si02
#       5
#     4   4   4   4   4
#     4  10  23  43  63  83 119 169 205 242 301 364
#     4  12  23  37  62  94 124 153 196 260 306 354
#     4  10  20  37  62  89 120 160 203 248 296 354
#     4   9  19  38  61  85 121 163 200 242 300 359
#     4   9  18  36  61  87 121 164 201 241 298 360
#
# _framework density 20.024851999999999
#
# number of rings (size 3 to 8) (size 9 to 14) (size 15 to 20)
#    0.000    2.000    2.000    3.000    0.000    3.200 
#    0.000    1.000    0.000    0.000    0.000    0.000 
#    0.000    0.000    0.000    0.000    0.000    0.000 
#
# Total GULP energy -248055.466562 kJ/mol
# GULP energy per Si atom -12402.773328 kJ/mol
# Density = 1.997927 g / cm^3
# Si number density = 20.024852 Si / 1000 Ang^3
#
#
#
# Elastic Constant Matrix: (Units=GPa)
#
#
# Indices 1 2 3 4 5 6 
#
# 1 135.7512 59.1051 38.0285 0.0000 7.0085 0.0000
# 2 59.1051 127.3486 51.8067 0.0000 -10.9369 0.0000
# 3 38.0285 51.8067 104.7454 0.0000 -19.4744 0.0000
# 4 0.0000 0.0000 0.0000 32.8418 0.0000 -4.3440
# 5 7.0085 -10.9369 -19.4744 0.0000 17.0207 0.0000
# 6 0.0000 0.0000 0.0000 -4.3440 0.0000 23.9328
#
#
#
# Elastic Compliance Matrix: (Units=1/GPa)
#
#
# Indices 1 2 3 4 5 6 
#
# 1 0.011103 -0.004554 -0.004030 0.000000 -0.012109 0.000000
# 2 -0.004554 0.011710 -0.003037 0.000000 0.005925 0.000000
# 3 -0.004030 -0.003037 0.015824 0.000000 0.017813 0.000000
# 4 0.000000 0.000000 0.000000 0.031198 0.000000 0.005663
# 5 -0.012109 0.005925 0.017813 0.000000 0.087927 0.000000
# 6 0.000000 0.000000 0.000000 0.005663 0.000000 0.042811
#
#
# Mechanical properties :
#
#
# Convention : Reuss Voigt Hill
#
# Bulk Modulus (GPa) = 64.95311 73.96954 69.46133
# Shear Modulus (GPa) = 21.83907 29.35272 25.59589
#
# Velocity S-wave (km/s) = 3.30600 3.83275 3.57908
# Velocity P-wave (km/s) = 6.86145 7.52367 7.20018
#
# Compressibility (1/GPa) = 0.01539572
#
# Stress axis : x y z
#
# Youngs Moduli (GPa) = 90.06396 85.39524 63.19447
#
# Poissons Ratio (x) = 0.38886 0.25469
# Poissons Ratio (y) = 0.41012 0.19193
# Poissons Ratio (z) = 0.36298 0.25935
#
# Static dielectric constant tensor:
#      x y z
#    x 3.709090 0.000000 0.136910 
#    y 0.000000 3.638110 0.000000 
#    z 0.136910 0.000000 3.473340 
# 
# 
# High freq. dielectric constant tensor:
#      x y z
#    x 1.782690 0.000000 0.015470 
#    y 0.000000 1.780850 0.000000 
#    z 0.015470 0.000000 1.771220 
# 
# From -- ./inp_files/12235.got.cif
#   From: 2010.06.25/outbox.cif.g09.slc.cpg/sg11_7_cif.got.tgz:12235.got - 2010.06.27 23:14:04.
