data_PCOD8075881
_publ_section_title
;
Structure prediction by ZEFSAII (Michael W. Deem and Ramdas Pophale) SiO2 
 PCOD8075881
Probable space group: P 21/M
;
_chemical_formula_sum "Si O2"
_cell_formula_units_Z 32
_cell_length_a 16.734927
_cell_length_b 17.445345
_cell_length_c 12.699701
_cell_angle_alpha 90.000000
_cell_angle_beta 153.639803
_cell_angle_gamma 90.000000
_cell_volume 1646.237147
_symmetry_space_group_name_H-M "P 21/M"
_symmetry_group_IT_number 11
_symmetry_cell_setting 'monoclinic'
loop_
_space_group_symop_operation_xyz
x,y,z
-x,1/2+y,-z
-x,-y,-z
x,1/2-y,z
loop_
_atom_site_type_symbol
_atom_site_label
_atom_site_fract_x
_atom_site_fract_y
_atom_site_fract_z
Si Si1 0.145527 0.664178 0.382312
Si Si2 0.131161 0.658644 0.749704
Si Si3 0.251844 0.158871 0.774371
Si Si4 0.012597 0.909891 0.019387
Si Si5 0.748670 0.340781 0.880311
Si Si6 0.633800 0.159200 0.164051
Si Si7 0.646681 0.658747 0.655407
Si Si8 0.751744 0.835239 0.000747
O O1 0.199149 0.750000 0.408352
O O2 0.292444 0.628643 0.636238
O O3 0.128705 0.612605 0.258942
O O4 0.963837 0.667132 0.233954
O O5 0.135540 0.750000 0.752883
O O6 0.260040 0.624383 0.810353
O O7 0.928879 0.626687 0.493090
O O8 0.201694 0.629090 0.945034
O O9 0.232025 0.250000 0.763044
O O10 0.281106 0.122725 0.926190
O O11 0.423446 0.136555 0.905459
O O12 0.114494 0.880238 0.037284
O O13 0.811385 0.875191 0.782499
O O14 0.000000 0.000000 0.000000
O O15 0.769452 0.250000 0.893398
O O16 0.542933 0.366310 0.617242
O O17 0.661383 0.250000 0.196913
O O18 0.674085 0.750000 0.688860
O O19 0.655963 0.625339 0.786487
O O20 0.670694 0.750000 0.913466
#
# Coordination Sequence:
#
# PCOD8075881 Si02
#       8
#     4   4   4   4   4   4   4   4
#     4   9  16  30  52  76 106 134 171 226 272 315
#     4   9  17  30  45  73 111 138 168 213 265 321
#     4   9  15  23  41  72 106 134 160 205 270 324
#     4  11  23  37  54  79 113 148 184 226 276 330
#     4  10  21  36  58  81 108 148 186 220 267 330
#     4   9  16  25  44  74 103 131 165 215 274 319
#     4   9  19  35  56  83 110 138 181 231 274 321
#     4   8  13  24  43  70 104 130 156 210 270 312
#
# _framework density 19.438268000000001
#
# number of rings (size 3 to 8) (size 9 to 14) (size 15 to 20)
#    0.000    2.750    1.250    1.875    1.750    1.500 
#    0.000    3.750    0.000    0.750    0.000    1.750 
#    0.000    0.000    0.000    0.000    0.000    0.000 
#
# Total GULP energy -396605.960043 kJ/mol
# GULP energy per Si atom -12393.936251 kJ/mol
# Density = 1.939403 g / cm^3
# Si number density = 19.438268 Si / 1000 Ang^3
#
#
#
# Elastic Constant Matrix: (Units=GPa)
#
#
# Indices 1 2 3 4 5 6 
#
# 1 143.8409 24.9145 99.9082 0.0000 -1.4225 0.0000
# 2 24.9145 31.5039 23.4845 0.0000 0.5199 0.0000
# 3 99.9082 23.4845 177.7416 0.0000 -1.7568 0.0000
# 4 0.0000 0.0000 0.0000 4.3399 0.0000 1.3706
# 5 -1.4225 0.5199 -1.7568 0.0000 28.5080 0.0000
# 6 0.0000 0.0000 0.0000 1.3706 0.0000 4.5226
#
#
#
# Elastic Compliance Matrix: (Units=1/GPa)
#
#
# Indices 1 2 3 4 5 6 
#
# 1 0.012073 -0.004988 -0.006124 0.000000 0.000316 0.000000
# 2 -0.004988 0.037295 -0.002135 0.000000 -0.001061 0.000000
# 3 -0.006124 -0.002135 0.009353 0.000000 0.000310 0.000000
# 4 0.000000 0.000000 0.000000 0.254806 0.000000 -0.077222
# 5 0.000316 -0.001061 0.000310 0.000000 0.035132 0.000000
# 6 0.000000 0.000000 0.000000 -0.077222 0.000000 0.244516
#
#
# Mechanical properties :
#
#
# Convention : Reuss Voigt Hill
#
# Bulk Modulus (GPa) = 31.02791 72.18898 51.60845
# Shear Modulus (GPa) = 7.93133 21.12605 14.52869
#
# Velocity S-wave (km/s) = 2.02216 3.30028 2.73688
# Velocity P-wave (km/s) = 4.63132 7.19310 6.04937
#
# Compressibility (1/GPa) = 0.03222904
#
# Stress axis : x y z
#
# Youngs Moduli (GPa) = 82.83186 26.81298 106.91223
#
# Poissons Ratio (x) = 0.13374 0.65472
# Poissons Ratio (y) = 0.41314 0.22822
# Poissons Ratio (z) = 0.50725 0.05724
#
# Static dielectric constant tensor:
#      x y z
#    x 3.662320 0.000000 -0.089440 
#    y 0.000000 2.817990 0.000000 
#    z -0.089440 0.000000 3.748300 
# 
# 
# High freq. dielectric constant tensor:
#      x y z
#    x 1.765720 0.000000 -0.000140 
#    y 0.000000 1.679260 0.000000 
#    z -0.000140 0.000000 1.768300 
# 
# From -- ./inp_files/40008.got.cif
#   From: 2010.06.25/outbox.cif.g09.slc.cpg/sg11_21_cif.got.tgz:40008.got - 2010.06.27 23:14:04.
