data_PCOD8075676
_publ_section_title
;
Structure prediction by ZEFSAII (Michael W. Deem and Ramdas Pophale) SiO2 
 PCOD8075676
Probable space group: P 21/M
;
_chemical_formula_sum "Si O2"
_cell_formula_units_Z 32
_cell_length_a 12.063244
_cell_length_b 14.992452
_cell_length_c 15.504418
_cell_angle_alpha 90.000000
_cell_angle_beta 38.917442
_cell_angle_gamma 90.000000
_cell_volume 1761.530388
_symmetry_space_group_name_H-M "P 21/M"
_symmetry_group_IT_number 11
_symmetry_cell_setting 'monoclinic'
loop_
_space_group_symop_operation_xyz
x,y,z
-x,1/2+y,-z
-x,-y,-z
x,1/2-y,z
loop_
_atom_site_type_symbol
_atom_site_label
_atom_site_fract_x
_atom_site_fract_y
_atom_site_fract_z
Si Si1 0.076847 0.355998 0.402580
Si Si2 0.309604 0.150878 0.413298
Si Si3 0.519417 0.999326 0.589706
Si Si4 0.375886 0.147606 0.907311
Si Si5 0.690508 0.352394 0.592689
Si Si6 0.617994 0.855998 0.902580
Si Si7 0.198829 0.500674 0.910294
Si Si8 0.636199 0.349122 0.086702
O O1 0.078780 0.250000 0.396294
O O2 0.140064 0.383169 0.460856
O O3 0.208969 0.395472 0.250000
O O4 0.880769 0.392062 0.503448
O O5 0.277469 0.250000 0.471922
O O6 0.350992 0.082420 0.464769
O O7 0.470354 0.154390 0.250000
O O8 0.329075 0.987794 0.750000
O O9 0.500000 0.000000 0.500000
O O10 0.609812 0.091778 0.562912
O O11 0.311510 0.250000 0.944720
O O12 0.570193 0.137071 0.750000
O O13 0.235635 0.091778 0.937088
O O14 0.387665 0.107938 0.996552
O O15 0.700950 0.250000 0.555280
O O16 0.628632 0.750000 0.896294
O O17 0.438225 0.883169 0.960856
O O18 0.219471 0.582420 0.964769
O O19 0.000000 0.500000 0.000000
O O20 0.721313 0.250000 0.028078
#
# Coordination Sequence:
#
# PCOD8075676 Si02
#       8
#     4   4   4   4   4   4   4   4
#     4   8  14  27  49  74  95 117 151 191 228 273
#     4   8  15  30  51  72  94 120 151 192 238 275
#     4  10  21  35  49  67  92 124 162 197 229 270
#     4   9  18  32  48  68  98 129 150 179 231 285
#     4   9  18  32  48  68  98 129 150 179 231 285
#     4   8  14  27  49  74  95 117 151 191 228 273
#     4  10  21  35  49  67  92 124 162 197 229 270
#     4   8  15  30  51  72  94 120 151 192 238 275
#
# _framework density 18.166022999999999
#
# number of rings (size 3 to 8) (size 9 to 14) (size 15 to 20)
#    0.000    3.250    0.000    1.500    0.000    3.000 
#    0.000    1.250    0.000    1.500    0.000    0.000 
#    0.000    0.000    0.000    0.000    0.000    0.000 
#
# Total GULP energy -396650.383413 kJ/mol
# GULP energy per Si atom -12395.324482 kJ/mol
# Density = 1.812468 g / cm^3
# Si number density = 18.166023 Si / 1000 Ang^3
#
#
#
# Elastic Constant Matrix: (Units=GPa)
#
#
# Indices 1 2 3 4 5 6 
#
# 1 167.2554 64.4366 75.5412 0.0000 0.4561 0.0000
# 2 64.4366 84.7183 37.1874 0.0000 0.7185 0.0000
# 3 75.5412 37.1874 66.6183 0.0000 2.1973 0.0000
# 4 0.0000 0.0000 0.0000 13.5984 0.0000 0.3912
# 5 0.4561 0.7185 2.1973 0.0000 37.1615 0.0000
# 6 0.0000 0.0000 0.0000 0.3912 0.0000 28.4353
#
#
#
# Elastic Compliance Matrix: (Units=1/GPa)
#
#
# Indices 1 2 3 4 5 6 
#
# 1 0.013559 -0.004715 -0.012766 0.000000 0.000680 0.000000
# 2 -0.004715 0.017276 -0.004296 0.000000 -0.000022 0.000000
# 3 -0.012766 -0.004296 0.031939 0.000000 -0.001649 0.000000
# 4 0.000000 0.000000 0.000000 0.073567 0.000000 -0.001012
# 5 0.000680 -0.000022 -0.001649 0.000000 0.026999 0.000000
# 6 0.000000 0.000000 0.000000 -0.001012 0.000000 0.035182
#
#
# Mechanical properties :
#
#
# Convention : Reuss Voigt Hill
#
# Bulk Modulus (GPa) = 52.02878 74.76914 63.39896
# Shear Modulus (GPa) = 20.12204 25.26749 22.69477
#
# Velocity S-wave (km/s) = 3.33179 3.73355 3.53837
# Velocity P-wave (km/s) = 6.59575 7.73524 7.18811
#
# Compressibility (1/GPa) = 0.01922013
#
# Stress axis : x y z
#
# Youngs Moduli (GPa) = 73.75001 57.88240 31.30968
#
# Poissons Ratio (x) = 0.27294 0.39969
# Poissons Ratio (y) = 0.34776 0.13451
# Poissons Ratio (z) = 0.94147 0.24867
#
# Static dielectric constant tensor:
#      x y z
#    x 3.405840 0.000000 0.003260 
#    y 0.000000 3.565440 0.000000 
#    z 0.003260 0.000000 3.282110 
# 
# 
# High freq. dielectric constant tensor:
#      x y z
#    x 1.700370 0.000000 0.000710 
#    y 0.000000 1.701520 0.000000 
#    z 0.000710 0.000000 1.673580 
# 
# From -- ./inp_files/50368.got.cif
#   From: 2010.06.25/outbox.cif.g09.slc.cpg/sg11_26_cif.got.tgz:50368.got - 2010.06.27 23:14:04.
