data_PCOD8075504
_publ_section_title
;
Structure prediction by ZEFSAII (Michael W. Deem and Ramdas Pophale) SiO2 
 PCOD8075504
Probable space group: P 21/M
;
_chemical_formula_sum "Si O2"
_cell_formula_units_Z 32
_cell_length_a 29.006679
_cell_length_b 8.836804
_cell_length_c 12.422675
_cell_angle_alpha 90.000000
_cell_angle_beta 149.868767
_cell_angle_gamma 90.000000
_cell_volume 1598.441459
_symmetry_space_group_name_H-M "P 21/M"
_symmetry_group_IT_number 11
_symmetry_cell_setting 'monoclinic'
loop_
_space_group_symop_operation_xyz
x,y,z
-x,1/2+y,-z
-x,-y,-z
x,1/2-y,z
loop_
_atom_site_type_symbol
_atom_site_label
_atom_site_fract_x
_atom_site_fract_y
_atom_site_fract_z
Si Si1 0.705018 0.571336 0.523903
Si Si2 0.210161 0.928974 0.742894
Si Si3 0.979695 0.571283 0.574909
Si Si4 0.147511 0.078650 0.005410
Si Si5 0.717570 0.921182 0.907387
Si Si6 0.454482 0.571935 0.510830
Si Si7 0.309240 0.574549 0.723141
Si Si8 0.506568 0.926955 0.199914
O O1 0.705539 0.750000 0.527993
O O2 0.779260 0.511161 0.760864
O O3 0.734125 0.514364 0.464834
O O4 0.601364 0.513410 0.338615
O O5 0.195416 0.750000 0.720523
O O6 0.257170 0.978015 0.725945
O O7 0.114304 0.013648 0.563075
O O8 0.277622 0.981455 0.974368
O O9 0.975467 0.750000 0.552370
O O10 0.000000 0.500000 0.500000
O O11 0.057852 0.526413 0.819613
O O12 0.119962 0.250000 0.982286
O O13 0.186995 0.079370 0.963734
O O14 0.686922 0.750000 0.873988
O O15 0.646229 0.998939 0.681851
O O16 0.500000 0.500000 0.500000
O O17 0.448685 0.750000 0.487976
O O18 0.512495 0.523440 0.731555
O O19 0.291406 0.750000 0.667553
O O20 0.418554 0.540156 0.947580
O O21 0.512515 0.750000 0.241680
#
# Coordination Sequence:
#
# PCOD8075504 Si02
#       8
#     4   4   4   4   4   4   4   4
#     4  10  21  39  64  89 122 162 202 250 302 360
#     4  11  23  40  61  90 126 163 204 252 306 362
#     4  12  24  39  63  93 123 159 201 251 306 370
#     4  10  21  39  62  91 122 155 196 247 303 358
#     4  11  21  37  61  87 122 159 197 245 304 365
#     4  12  24  36  54  83 121 163 206 251 303 365
#     4  10  23  40  61  88 122 161 204 255 302 355
#     4  10  20  39  61  87 122 160 204 254 304 356
#
# _framework density 20.019501999999999
#
# number of rings (size 3 to 8) (size 9 to 14) (size 15 to 20)
#    0.000    1.250    2.500    4.125    0.000    4.000 
#    0.000    0.625    0.000    0.000    0.000    0.000 
#    0.000    0.000    0.000    0.000    0.000    0.000 
#
# Total GULP energy -396854.363318 kJ/mol
# GULP energy per Si atom -12401.698854 kJ/mol
# Density = 1.997394 g / cm^3
# Si number density = 20.019502 Si / 1000 Ang^3
#
#
#
# Elastic Constant Matrix: (Units=GPa)
#
#
# Indices 1 2 3 4 5 6 
#
# 1 83.6166 27.7783 46.4317 0.0000 -13.1896 0.0000
# 2 27.7783 94.7423 41.4092 0.0000 -1.3664 0.0000
# 3 46.4317 41.4092 109.8579 0.0000 -4.9648 0.0000
# 4 0.0000 0.0000 0.0000 34.2952 0.0000 -3.7020
# 5 -13.1896 -1.3664 -4.9648 0.0000 33.4192 0.0000
# 6 0.0000 0.0000 0.0000 -3.7020 0.0000 31.4528
#
#
#
# Elastic Compliance Matrix: (Units=1/GPa)
#
#
# Indices 1 2 3 4 5 6 
#
# 1 0.016976 -0.002241 -0.006072 0.000000 0.005706 0.000000
# 2 -0.002241 0.012934 -0.003971 0.000000 -0.000946 0.000000
# 3 -0.006072 -0.003971 0.013138 0.000000 -0.000607 0.000000
# 4 0.000000 0.000000 0.000000 0.029534 0.000000 0.003476
# 5 0.005706 -0.000946 -0.000607 0.000000 0.032046 0.000000
# 6 0.000000 0.000000 0.000000 0.003476 0.000000 0.032203
#
#
# Mechanical properties :
#
#
# Convention : Reuss Voigt Hill
#
# Bulk Modulus (GPa) = 54.11255 57.71726 55.91490
# Shear Modulus (GPa) = 29.84022 31.33994 30.59008
#
# Velocity S-wave (km/s) = 3.86496 3.96090 3.91322
# Velocity P-wave (km/s) = 6.85608 7.05772 6.95763
#
# Compressibility (1/GPa) = 0.01848000
#
# Stress axis : x y z
#
# Youngs Moduli (GPa) = 58.90732 77.31626 76.11256
#
# Poissons Ratio (x) = 0.17326 0.46218
# Poissons Ratio (y) = 0.13201 0.30223
# Poissons Ratio (z) = 0.35770 0.30701
#
# Static dielectric constant tensor:
#      x y z
#    x 3.575740 0.000000 0.053100 
#    y 0.000000 3.587030 0.000000 
#    z 0.053100 0.000000 3.905920 
# 
# 
# High freq. dielectric constant tensor:
#      x y z
#    x 1.771230 0.000000 0.000080 
#    y 0.000000 1.777930 0.000000 
#    z 0.000080 0.000000 1.788160 
# 
# From -- ./inp_files/38211.got.cif
#   From: 2010.06.25/outbox.cif.g09.slc.cpg/sg11_20_cif.got.tgz:38211.got - 2010.06.27 23:14:04.
