data_PCOD8075591
_publ_section_title
;
Structure prediction by ZEFSAII (Michael W. Deem and Ramdas Pophale) SiO2 
 PCOD8075591
Probable space group: P 21/M
;
_chemical_formula_sum "Si O2"
_cell_formula_units_Z 20
_cell_length_a 11.148488
_cell_length_b 9.784956
_cell_length_c 8.956084
_cell_angle_alpha 90.000000
_cell_angle_beta 90.927395
_cell_angle_gamma 90.000000
_cell_volume 976.868517
_symmetry_space_group_name_H-M "P 21/M"
_symmetry_group_IT_number 11
_symmetry_cell_setting 'monoclinic'
loop_
_space_group_symop_operation_xyz
x,y,z
-x,1/2+y,-z
-x,-y,-z
x,1/2-y,z
loop_
_atom_site_type_symbol
_atom_site_label
_atom_site_fract_x
_atom_site_fract_y
_atom_site_fract_z
Si Si1 0.347628 0.601271 0.007804
Si Si2 0.517643 0.010722 0.255470
Si Si3 0.671249 0.599074 0.518035
Si Si4 0.103934 0.909338 0.429660
Si Si5 0.096567 0.906434 0.078554
O O1 0.303138 0.750000 0.051260
O O2 0.455254 0.573366 0.122954
O O3 0.223526 0.520492 0.033972
O O4 0.388074 0.602332 0.835237
O O5 0.418397 0.096373 0.342438
O O6 0.591468 0.913901 0.367696
O O7 0.731965 0.750000 0.517384
O O8 0.768142 0.478058 0.527238
O O9 0.103861 0.750000 0.485258
O O10 0.082107 0.914503 0.254719
O O11 0.000000 0.000000 0.500000
O O12 0.078872 0.750000 0.022903
O O13 0.000000 0.000000 0.000000
#
# Coordination Sequence:
#
# PCOD8075591 Si02
#       5
#     4   4   4   4   4
#     4  10  20  40  63  89 125 165 208 255 310 369
#     4  10  22  38  62  94 128 167 208 253 309 373
#     4  11  23  40  64  96 130 166 209 258 312 373
#     4  11  25  45  67  92 125 165 210 261 315 374
#     4  10  23  43  65  91 123 163 208 258 311 368
#
# _framework density 20.473585
#
# number of rings (size 3 to 8) (size 9 to 14) (size 15 to 20)
#    0.000    1.600    2.000    1.800    2.800    5.600 
#    0.000    1.000    0.000    0.000    0.000    0.000 
#    0.000    0.000    0.000    0.000    0.000    0.000 
#
# Total GULP energy -247803.772421 kJ/mol
# GULP energy per Si atom -12390.188621 kJ/mol
# Density = 2.042699 g / cm^3
# Si number density = 20.473585 Si / 1000 Ang^3
#
#
#
# Elastic Constant Matrix: (Units=GPa)
#
#
# Indices 1 2 3 4 5 6 
#
# 1 131.3750 59.0801 55.5713 0.0000 -6.8216 0.0000
# 2 59.0801 132.0925 39.5796 0.0000 0.0844 0.0000
# 3 55.5713 39.5796 115.3624 0.0000 -8.8972 0.0000
# 4 0.0000 0.0000 0.0000 21.2951 0.0000 -0.9939
# 5 -6.8216 0.0844 -8.8972 0.0000 30.3041 0.0000
# 6 0.0000 0.0000 0.0000 -0.9939 0.0000 30.8614
#
#
#
# Elastic Compliance Matrix: (Units=1/GPa)
#
#
# Indices 1 2 3 4 5 6 
#
# 1 0.011030 -0.003760 -0.003920 0.000000 0.001343 0.000000
# 2 -0.003760 0.009743 -0.001636 0.000000 -0.001354 0.000000
# 3 -0.003920 -0.001636 0.011306 0.000000 0.002442 0.000000
# 4 0.000000 0.000000 0.000000 0.047030 0.000000 0.001515
# 5 0.001343 -0.001354 0.002442 0.000000 0.034022 0.000000
# 6 0.000000 0.000000 0.000000 0.001515 0.000000 0.032452
#
#
# Mechanical properties :
#
#
# Convention : Reuss Voigt Hill
#
# Bulk Modulus (GPa) = 74.35951 76.36576 75.36264
# Shear Modulus (GPa) = 29.63883 31.46537 30.55210
#
# Velocity S-wave (km/s) = 3.80894 3.92455 3.86718
# Velocity P-wave (km/s) = 7.46610 7.61031 7.53855
#
# Compressibility (1/GPa) = 0.01344818
#
# Stress axis : x y z
#
# Youngs Moduli (GPa) = 90.65797 102.63615 88.44660
#
# Poissons Ratio (x) = 0.38589 0.34671
# Poissons Ratio (y) = 0.34086 0.14470
# Poissons Ratio (z) = 0.35538 0.16792
#
# Static dielectric constant tensor:
#      x y z
#    x 3.869260 0.000000 -0.222630 
#    y 0.000000 3.723590 0.000000 
#    z -0.222630 0.000000 3.920510 
# 
# 
# High freq. dielectric constant tensor:
#      x y z
#    x 1.812530 0.000000 -0.007230 
#    y 0.000000 1.790200 0.000000 
#    z -0.007230 0.000000 1.809110 
# 
# From -- ./inp_files/15936.got.cif
#   From: 2010.06.25/outbox.cif.g09.slc.cpg/sg11_8_cif.got.tgz:15936.got - 2010.06.27 23:14:04.
