data_PCOD8075871
_publ_section_title
;
Structure prediction by ZEFSAII (Michael W. Deem and Ramdas Pophale) SiO2 
 PCOD8075871
Probable space group: P 21/M
;
_chemical_formula_sum "Si O2"
_cell_formula_units_Z 24
_cell_length_a 11.541764
_cell_length_b 9.166132
_cell_length_c 12.033101
_cell_angle_alpha 90.000000
_cell_angle_beta 104.477095
_cell_angle_gamma 90.000000
_cell_volume 1232.600426
_symmetry_space_group_name_H-M "P 21/M"
_symmetry_group_IT_number 11
_symmetry_cell_setting 'monoclinic'
loop_
_space_group_symop_operation_xyz
x,y,z
-x,1/2+y,-z
-x,-y,-z
x,1/2-y,z
loop_
_atom_site_type_symbol
_atom_site_label
_atom_site_fract_x
_atom_site_fract_y
_atom_site_fract_z
Si Si1 0.995419 0.416914 0.306490
Si Si2 0.735799 0.080162 0.326839
Si Si3 0.748167 0.585005 0.545657
Si Si4 0.072994 0.923089 0.112478
Si Si5 0.306342 0.419782 0.221124
Si Si6 0.471167 0.580672 0.879260
O O1 0.989053 0.250000 0.259510
O O2 0.873634 0.459661 0.339061
O O3 0.107776 0.433706 0.415738
O O4 0.010811 0.531644 0.211946
O O5 0.713570 0.250000 0.336826
O O6 0.654430 0.025499 0.203687
O O7 0.694568 0.009201 0.432642
O O8 0.712953 0.750000 0.511006
O O9 0.687734 0.535280 0.647446
O O10 0.071325 0.750000 0.097976
O O11 0.208266 0.981052 0.136978
O O12 0.000000 0.000000 0.000000
O O13 0.267816 0.250000 0.203051
O O14 0.430820 0.451907 0.191530
O O15 0.466173 0.750000 0.908291
O O16 0.500000 0.500000 0.000000
#
# Coordination Sequence:
#
# PCOD8075871 Si02
#       6
#     4   4   4   4   4   4
#     4   9  19  36  55  82 120 152 183 232 288 338
#     4  10  21  36  57  85 117 152 189 235 285 338
#     4   9  18  34  57  83 114 152 190 234 286 339
#     4  11  22  35  56  84 112 147 191 235 285 343
#     4   9  20  40  59  80 115 151 188 239 289 332
#     4  10  23  41  59  82 114 152 194 241 288 335
#
# _framework density 19.471029999999999
#
# number of rings (size 3 to 8) (size 9 to 14) (size 15 to 20)
#    0.000    2.333    0.000    3.000    2.333    5.333 
#    0.000    0.000    0.000    0.000    0.000    0.000 
#    0.000    0.000    0.000    0.000    0.000    0.000 
#
# Total GULP energy -297582.565041 kJ/mol
# GULP energy per Si atom -12399.273543 kJ/mol
# Density = 1.942671 g / cm^3
# Si number density = 19.471030 Si / 1000 Ang^3
#
#
#
# Elastic Constant Matrix: (Units=GPa)
#
#
# Indices 1 2 3 4 5 6 
#
# 1 87.8766 27.1716 44.1691 0.0000 -8.6622 0.0000
# 2 27.1716 78.1756 44.6366 0.0000 3.5972 0.0000
# 3 44.1691 44.6366 122.2043 0.0000 6.5864 0.0000
# 4 0.0000 0.0000 0.0000 40.3134 0.0000 -2.2814
# 5 -8.6622 3.5972 6.5864 0.0000 18.9592 0.0000
# 6 0.0000 0.0000 0.0000 -2.2814 0.0000 24.1308
#
#
#
# Elastic Compliance Matrix: (Units=1/GPa)
#
#
# Indices 1 2 3 4 5 6 
#
# 1 0.015842 -0.003011 -0.005143 0.000000 0.009596 0.000000
# 2 -0.003011 0.016755 -0.004877 0.000000 -0.002860 0.000000
# 3 -0.005143 -0.004877 0.012127 0.000000 -0.005637 0.000000
# 4 0.000000 0.000000 0.000000 0.024939 0.000000 0.002358
# 5 0.009596 -0.002860 -0.005637 0.000000 0.059630 0.000000
# 6 0.000000 0.000000 0.000000 0.002358 0.000000 0.041664
#
#
# Mechanical properties :
#
#
# Convention : Reuss Voigt Hill
#
# Bulk Modulus (GPa) = 53.58902 57.80122 55.69512
# Shear Modulus (GPa) = 24.60150 28.16597 26.38373
#
# Velocity S-wave (km/s) = 3.55842 3.80749 3.68506
# Velocity P-wave (km/s) = 6.66823 7.00568 6.83904
#
# Compressibility (1/GPa) = 0.01866054
#
# Stress axis : x y z
#
# Youngs Moduli (GPa) = 63.12523 59.68443 82.45860
#
# Poissons Ratio (x) = 0.17971 0.42409
# Poissons Ratio (y) = 0.19007 0.40219
# Poissons Ratio (z) = 0.32466 0.29111
#
# Static dielectric constant tensor:
#      x y z
#    x 3.502270 0.000000 0.193080 
#    y 0.000000 3.453540 0.000000 
#    z 0.193080 0.000000 3.441630 
# 
# 
# High freq. dielectric constant tensor:
#      x y z
#    x 1.758120 0.000000 -0.000440 
#    y 0.000000 1.748600 0.000000 
#    z -0.000440 0.000000 1.760610 
# 
# From -- ./inp_files/33888.got.cif
#   From: 2010.06.25/outbox.cif.g09.slc.cpg/sg11_17_cif.got.tgz:33888.got - 2010.06.27 23:14:04.
