data_PCOD8075172
_publ_section_title
;
Structure prediction by ZEFSAII (Michael W. Deem and Ramdas Pophale) SiO2 
 PCOD8075172
Probable space group: P 21/M
;
_chemical_formula_sum "Si O2"
_cell_formula_units_Z 32
_cell_length_a 8.751930
_cell_length_b 20.969668
_cell_length_c 15.299154
_cell_angle_alpha 90.000000
_cell_angle_beta 34.937269
_cell_angle_gamma 90.000000
_cell_volume 1607.956300
_symmetry_space_group_name_H-M "P 21/M"
_symmetry_group_IT_number 11
_symmetry_cell_setting 'monoclinic'
loop_
_space_group_symop_operation_xyz
x,y,z
-x,1/2+y,-z
-x,-y,-z
x,1/2-y,z
loop_
_atom_site_type_symbol
_atom_site_label
_atom_site_fract_x
_atom_site_fract_y
_atom_site_fract_z
Si Si1 0.597910 0.322061 0.027786
Si Si2 0.093797 0.108451 0.187176
Si Si3 0.332178 0.455193 0.354414
Si Si4 0.097909 0.518172 0.859250
Si Si5 0.441878 0.820986 0.570140
Si Si6 0.624811 0.819097 0.678814
Si Si7 0.920624 0.899858 0.260692
Si Si8 0.082059 0.995145 0.319273
O O1 0.574973 0.250000 0.004956
O O2 0.380420 0.362181 0.075174
O O3 0.566202 0.326432 0.147245
O O4 0.894720 0.346389 0.868733
O O5 0.096413 0.071781 0.092130
O O6 0.863632 0.160859 0.306142
O O7 0.016020 0.053448 0.289467
O O8 0.619721 0.446632 0.262457
O O9 0.198268 0.383873 0.404606
O O10 0.158964 0.497372 0.499653
O O11 0.349563 0.491146 0.251441
O O12 0.140744 0.454827 0.780925
O O13 0.000000 0.500000 0.000000
O O14 0.492481 0.750000 0.508377
O O15 0.462927 0.819267 0.664845
O O16 0.649099 0.869407 0.426323
O O17 0.779973 0.750000 0.613692
O O18 0.092071 0.929572 0.260749
#
# Coordination Sequence:
#
# PCOD8075172 Si02
#       8
#     4   4   4   4   4   4   4   4
#     4  11  24  41  61  87 123 160 201 249 297 357
#     4  11  22  38  62  89 118 155 206 245 297 357
#     4  11  19  39  57  90 120 154 196 244 304 352
#     4  11  24  36  60  88 126 157 195 248 308 366
#     4  11  22  40  65  88 117 160 206 246 293 361
#     4  10  20  37  61  84 118 163 204 238 292 369
#     4  11  23  40  61  92 122 155 199 251 308 353
#     4  10  22  34  63  88 120 152 193 252 300 357
#
# _framework density 19.901038
#
# number of rings (size 3 to 8) (size 9 to 14) (size 15 to 20)
#    0.000    1.250    3.750    2.250    1.750    3.000 
#    0.000    0.000    0.000    0.000    0.000    0.000 
#    0.000    0.000    0.000    0.000    0.000    0.000 
#
# Total GULP energy -396440.385255 kJ/mol
# GULP energy per Si atom -12388.762039 kJ/mol
# Density = 1.985574 g / cm^3
# Si number density = 19.901038 Si / 1000 Ang^3
#
#
#
# Elastic Constant Matrix: (Units=GPa)
#
#
# Indices 1 2 3 4 5 6 
#
# 1 73.2597 25.9598 42.9049 0.0000 11.4879 0.0000
# 2 25.9598 116.3026 38.5456 0.0000 6.0849 0.0000
# 3 42.9049 38.5456 71.3912 0.0000 10.1242 0.0000
# 4 0.0000 0.0000 0.0000 30.7673 0.0000 -1.7903
# 5 11.4879 6.0849 10.1242 0.0000 29.8244 0.0000
# 6 0.0000 0.0000 0.0000 -1.7903 0.0000 26.8938
#
#
#
# Elastic Compliance Matrix: (Units=1/GPa)
#
#
# Indices 1 2 3 4 5 6 
#
# 1 0.021565 -0.000605 -0.012054 0.000000 -0.004091 0.000000
# 2 -0.000605 0.010491 -0.005285 0.000000 -0.000114 0.000000
# 3 -0.012054 -0.005285 0.024471 0.000000 -0.002586 0.000000
# 4 0.000000 0.000000 0.000000 0.032628 0.000000 0.002172
# 5 -0.004091 -0.000114 -0.002586 0.000000 0.036007 0.000000
# 6 0.000000 0.000000 0.000000 0.002172 0.000000 0.037328
#
#
# Mechanical properties :
#
#
# Convention : Reuss Voigt Hill
#
# Bulk Modulus (GPa) = 48.44635 52.86379 50.65507
# Shear Modulus (GPa) = 24.35979 27.73331 26.04655
#
# Velocity S-wave (km/s) = 3.50243 3.73709 3.62166
# Velocity P-wave (km/s) = 6.38377 6.72623 6.55724
#
# Compressibility (1/GPa) = 0.02064139
#
# Stress axis : x y z
#
# Youngs Moduli (GPa) = 46.37109 95.32329 40.86405
#
# Poissons Ratio (x) = 0.05763 0.49256
# Poissons Ratio (y) = 0.02804 0.21595
# Poissons Ratio (z) = 0.55894 0.50375
#
# Static dielectric constant tensor:
#      x y z
#    x 4.072360 0.000000 0.223860 
#    y 0.000000 4.123120 0.000000 
#    z 0.223860 0.000000 3.409550 
# 
# 
# High freq. dielectric constant tensor:
#      x y z
#    x 1.776780 0.000000 0.025070 
#    y 0.000000 1.796660 0.000000 
#    z 0.025070 0.000000 1.755110 
# 
# From -- ./inp_files/48242.got.cif
#   From: 2010.06.25/outbox.cif.g09.slc.cpg/sg11_25_cif.got.tgz:48242.got - 2010.06.27 23:14:04.
