data_PCOD8075181
_publ_section_title
;
Structure prediction by ZEFSAII (Michael W. Deem and Ramdas Pophale) SiO2 
 PCOD8075181
Probable space group: P 21/M
;
_chemical_formula_sum "Si O2"
_cell_formula_units_Z 24
_cell_length_a 15.054635
_cell_length_b 8.960507
_cell_length_c 17.971139
_cell_angle_alpha 90.000000
_cell_angle_beta 149.799935
_cell_angle_gamma 90.000000
_cell_volume 1219.451327
_symmetry_space_group_name_H-M "P 21/M"
_symmetry_group_IT_number 11
_symmetry_cell_setting 'monoclinic'
loop_
_space_group_symop_operation_xyz
x,y,z
-x,1/2+y,-z
-x,-y,-z
x,1/2-y,z
loop_
_atom_site_type_symbol
_atom_site_label
_atom_site_fract_x
_atom_site_fract_y
_atom_site_fract_z
Si Si1 0.369276 0.922477 0.636973
Si Si2 0.113516 0.576009 0.189680
Si Si3 0.896237 0.573969 0.664284
Si Si4 0.237772 0.076667 0.849531
Si Si5 0.621947 0.078288 0.185958
Si Si6 0.749800 0.577799 0.850976
O O1 0.327324 0.750000 0.588736
O O2 0.332651 0.959018 0.696400
O O3 0.571920 0.960108 0.765913
O O4 0.243503 0.027885 0.499081
O O5 0.143770 0.750000 0.225073
O O6 0.167628 0.490102 0.303226
O O7 0.242357 0.522111 0.217251
O O8 0.911036 0.538367 0.022584
O O9 0.905622 0.750000 0.676015
O O10 0.087816 0.511935 0.783687
O O11 0.188029 0.250000 0.814179
O O12 0.253517 0.022994 0.775552
O O13 0.417310 0.041795 0.023312
O O14 0.660573 0.250000 0.194465
O O15 0.760149 0.750000 0.834091
#
# Coordination Sequence:
#
# PCOD8075181 Si02
#       6
#     4   4   4   4   4   4
#     4  10  21  38  58  80 112 150 185 226 276 328
#     4  10  20  37  61  86 112 144 183 228 279 331
#     4  12  25  38  54  80 114 150 189 230 274 328
#     4  10  20  37  61  86 112 144 183 228 279 331
#     4   9  19  37  61  87 112 142 183 229 276 328
#     4   9  19  37  61  87 112 142 183 229 276 328
#
# _framework density 19.680982
#
# number of rings (size 3 to 8) (size 9 to 14) (size 15 to 20)
#    0.000    2.000    0.000    3.500    0.000    6.667 
#    0.000    1.667    0.000    0.000    0.000    0.000 
#    0.000    0.000    0.000    0.000    0.000    0.000 
#
# Total GULP energy -297732.516154 kJ/mol
# GULP energy per Si atom -12405.521506 kJ/mol
# Density = 1.963619 g / cm^3
# Si number density = 19.680982 Si / 1000 Ang^3
#
#
#
# Elastic Constant Matrix: (Units=GPa)
#
#
# Indices 1 2 3 4 5 6 
#
# 1 74.9626 39.4890 14.2691 0.0000 -21.5158 0.0000
# 2 39.4890 101.1900 23.3770 0.0000 -15.6634 0.0000
# 3 14.2691 23.3770 43.5886 0.0000 -21.2131 0.0000
# 4 0.0000 0.0000 0.0000 29.6939 0.0000 -0.8428
# 5 -21.5158 -15.6634 -21.2131 0.0000 28.9711 0.0000
# 6 0.0000 0.0000 0.0000 -0.8428 0.0000 38.3399
#
#
#
# Elastic Compliance Matrix: (Units=1/GPa)
#
#
# Indices 1 2 3 4 5 6 
#
# 1 0.020142 -0.006545 0.003844 0.000000 0.014235 0.000000
# 2 -0.006545 0.013533 -0.006091 0.000000 -0.002003 0.000000
# 3 0.003844 -0.006091 0.038432 0.000000 0.027702 0.000000
# 4 0.000000 0.000000 0.000000 0.033698 0.000000 0.000741
# 5 0.014235 -0.002003 0.027702 0.000000 0.064290 0.000000
# 6 0.000000 0.000000 0.000000 0.000741 0.000000 0.026099
#
#
# Mechanical properties :
#
#
# Convention : Reuss Voigt Hill
#
# Bulk Modulus (GPa) = 18.34053 41.55682 29.94868
# Shear Modulus (GPa) = 21.55634 28.90806 25.23220
#
# Velocity S-wave (km/s) = 3.31310 3.83669 3.58447
# Velocity P-wave (km/s) = 4.89639 6.38655 5.69046
#
# Compressibility (1/GPa) = 0.05452404
#
# Stress axis : x y z
#
# Youngs Moduli (GPa) = 49.64846 73.89101 26.02027
#
# Poissons Ratio (x) = 0.48360 -0.10002
# Poissons Ratio (y) = 0.32494 0.15848
# Poissons Ratio (z) = -0.19085 0.45004
#
# Static dielectric constant tensor:
#      x y z
#    x 3.667810 0.000000 -0.053540 
#    y 0.000000 3.589030 0.000000 
#    z -0.053540 0.000000 3.490160 
# 
# 
# High freq. dielectric constant tensor:
#      x y z
#    x 1.778310 0.000000 -0.004880 
#    y 0.000000 1.767210 0.000000 
#    z -0.004880 0.000000 1.759720 
# 
# From -- ./inp_files/46596.got.cif
#   From: 2010.06.25/outbox.cif.g09.slc.cpg/sg11_24_cif.got.tgz:46596.got - 2010.06.27 23:14:04.
