data_PCOD8075988
_publ_section_title
;
Structure prediction by ZEFSAII (Michael W. Deem and Ramdas Pophale) SiO2 
 PCOD8075988
Probable space group: P 21/M
;
_chemical_formula_sum "Si O2"
_cell_formula_units_Z 32
_cell_length_a 28.588084
_cell_length_b 8.863775
_cell_length_c 22.018679
_cell_angle_alpha 90.000000
_cell_angle_beta 18.332281
_cell_angle_gamma 90.000000
_cell_volume 1754.904185
_symmetry_space_group_name_H-M "P 21/M"
_symmetry_group_IT_number 11
_symmetry_cell_setting 'monoclinic'
loop_
_space_group_symop_operation_xyz
x,y,z
-x,1/2+y,-z
-x,-y,-z
x,1/2-y,z
loop_
_atom_site_type_symbol
_atom_site_label
_atom_site_fract_x
_atom_site_fract_y
_atom_site_fract_z
Si Si1 0.772379 0.426792 0.790670
Si Si2 0.636472 0.086655 0.253536
Si Si3 0.004174 0.072852 0.403400
Si Si4 0.842754 0.070768 0.481188
Si Si5 0.530631 0.929394 0.897032
Si Si6 0.926908 0.926470 0.032748
Si Si7 0.632348 0.413701 0.399706
Si Si8 0.969209 0.429401 0.854284
O O1 0.783441 0.250000 0.786248
O O2 0.874547 0.481250 0.608712
O O3 0.836824 0.501248 0.773135
O O4 0.602874 0.475034 0.984780
O O5 0.617648 0.250000 0.244221
O O6 0.600253 0.110796 0.368730
O O7 0.514249 0.965930 0.381483
O O8 0.803139 0.026078 0.036820
O O9 0.025167 0.250000 0.379268
O O10 0.952390 0.018968 0.400547
O O11 0.821116 0.250000 0.508096
O O12 0.682663 0.993778 0.683223
O O13 0.912862 0.014648 0.332393
O O14 0.539291 0.750000 0.893524
O O15 0.500000 0.000000 0.000000
O O16 0.959538 0.750000 0.986949
O O17 0.752739 0.954872 0.257230
O O18 0.992685 0.011855 0.893337
O O19 0.000000 0.000000 0.000000
O O20 0.683271 0.250000 0.363666
O O21 0.993095 0.250000 0.823211
#
# Coordination Sequence:
#
# PCOD8075988 Si02
#       8
#     4   4   4   4   4   4   4   4
#     4   9  18  33  52  78 109 140 181 232 281 330
#     4   8  15  28  47  72 102 130 164 208 256 309
#     4   9  18  33  52  78 109 141 180 228 279 336
#     4  11  22  37  56  82 114 148 189 236 288 346
#     4  11  21  35  55  82 113 147 191 241 287 340
#     4  11  21  35  56  81 110 145 183 226 274 327
#     4   9  16  27  47  76 104 130 165 210 256 306
#     4  10  21  37  56  81 110 144 184 226 276 334
#
# _framework density 18.234614000000001
#
# number of rings (size 3 to 8) (size 9 to 14) (size 15 to 20)
#    0.000    2.250    1.250    3.375    0.000    5.500 
#    0.000    0.000    2.750    0.000    0.000    0.000 
#    0.000    0.000    0.000    0.000    0.000    0.000 
#
# Total GULP energy -396615.230419 kJ/mol
# GULP energy per Si atom -12394.225951 kJ/mol
# Density = 1.819311 g / cm^3
# Si number density = 18.234614 Si / 1000 Ang^3
#
#
#
# Elastic Constant Matrix: (Units=GPa)
#
#
# Indices 1 2 3 4 5 6 
#
# 1 93.9117 34.7279 53.5239 0.0000 -15.7709 0.0000
# 2 34.7279 79.3373 41.1360 0.0000 -10.2371 0.0000
# 3 53.5239 41.1360 123.8217 0.0000 -6.7027 0.0000
# 4 0.0000 0.0000 0.0000 30.8683 0.0000 -3.7878
# 5 -15.7709 -10.2371 -6.7027 0.0000 22.8879 0.0000
# 6 0.0000 0.0000 0.0000 -3.7878 0.0000 27.5244
#
#
#
# Elastic Compliance Matrix: (Units=1/GPa)
#
#
# Indices 1 2 3 4 5 6 
#
# 1 0.016398 -0.003228 -0.005571 0.000000 0.008224 0.000000
# 2 -0.003228 0.016553 -0.003885 0.000000 0.004042 0.000000
# 3 -0.005571 -0.003885 0.011658 0.000000 -0.002162 0.000000
# 4 0.000000 0.000000 0.000000 0.032952 0.000000 0.004535
# 5 0.008224 0.004042 -0.002162 0.000000 0.050532 0.000000
# 6 0.000000 0.000000 0.000000 0.004535 0.000000 0.036955
#
#
# Mechanical properties :
#
#
# Convention : Reuss Voigt Hill
#
# Bulk Modulus (GPa) = 51.97200 61.76069 56.86635
# Shear Modulus (GPa) = 25.40249 27.43498 26.41874
#
# Velocity S-wave (km/s) = 3.73646 3.88307 3.81047
# Velocity P-wave (km/s) = 6.86867 7.35172 7.11430
#
# Compressibility (1/GPa) = 0.01924113
#
# Stress axis : x y z
#
# Youngs Moduli (GPa) = 60.98270 60.41044 85.77955
#
# Poissons Ratio (x) = 0.19503 0.47785
# Poissons Ratio (y) = 0.19687 0.33326
# Poissons Ratio (z) = 0.33971 0.23470
#
# Static dielectric constant tensor:
#      x y z
#    x 3.363850 0.000000 -0.624270 
#    y 0.000000 3.851010 0.000000 
#    z -0.624270 0.000000 4.559970 
# 
# 
# High freq. dielectric constant tensor:
#      x y z
#    x 1.675980 0.000000 -0.017910 
#    y 0.000000 1.717920 0.000000 
#    z -0.017910 0.000000 1.700800 
# 
# From -- ./inp_files/67017.got.cif
#   From: 2010.06.25/outbox.cif.g09.slc.cpg/sg11_34_cif.got.tgz:67017.got - 2010.06.27 23:14:04.
