data_PCOD8075131
_publ_section_title
;
Structure prediction by ZEFSAII (Michael W. Deem and Ramdas Pophale) SiO2 
 PCOD8075131
Probable space group: P 21/M
;
_chemical_formula_sum "Si O2"
_cell_formula_units_Z 32
_cell_length_a 14.426820
_cell_length_b 8.989472
_cell_length_c 23.957202
_cell_angle_alpha 90.000000
_cell_angle_beta 32.664148
_cell_angle_gamma 90.000000
_cell_volume 1676.888921
_symmetry_space_group_name_H-M "P 21/M"
_symmetry_group_IT_number 11
_symmetry_cell_setting 'monoclinic'
loop_
_space_group_symop_operation_xyz
x,y,z
-x,1/2+y,-z
-x,-y,-z
x,1/2-y,z
loop_
_atom_site_type_symbol
_atom_site_label
_atom_site_fract_x
_atom_site_fract_y
_atom_site_fract_z
Si Si1 0.285561 0.575573 0.502793
Si Si2 0.172868 0.073088 0.890912
Si Si3 0.497247 0.573470 0.210153
Si Si4 0.835302 0.424096 0.557402
Si Si5 0.325290 0.426187 0.697998
Si Si6 0.124773 0.426529 0.691352
Si Si7 0.770119 0.921479 0.864723
Si Si8 0.457980 0.921900 0.104532
O O1 0.284642 0.750000 0.517432
O O2 0.177468 0.541547 0.501860
O O3 0.479514 0.515498 0.396857
O O4 0.197039 0.487483 0.597171
O O5 0.153807 0.250000 0.903382
O O6 0.327026 0.014224 0.851933
O O7 0.214142 0.017450 0.807103
O O8 0.000000 0.000000 0.000000
O O9 0.498031 0.750000 0.213136
O O10 0.334519 0.510886 0.326652
O O11 0.485696 0.517250 0.152628
O O12 0.850342 0.250000 0.561138
O O13 0.000000 0.500000 0.500000
O O14 0.328731 0.250000 0.697944
O O15 0.242035 0.484987 0.682905
O O16 0.120763 0.250000 0.691033
O O17 0.935145 0.485933 0.798632
O O18 0.819669 0.750000 0.831149
O O19 0.693888 0.982168 0.845433
O O20 0.635234 0.945592 0.982436
O O21 0.401133 0.750000 0.132403
#
# Coordination Sequence:
#
# PCOD8075131 Si02
#       8
#     4   4   4   4   4   4   4   4
#     4  10  20  39  61  81 109 146 189 234 281 333
#     4  10  20  37  60  86 116 151 189 228 278 338
#     4   9  18  36  61  84 110 150 188 223 277 342
#     4  10  21  37  59  85 114 149 187 229 280 337
#     4   9  19  38  60  81 110 148 187 228 279 338
#     4  11  23  36  56  83 111 145 187 233 281 332
#     4  10  21  37  55  81 114 147 183 230 280 331
#     4   9  19  36  58  81 110 146 187 228 274 331
#
# _framework density 19.082955999999999
#
# number of rings (size 3 to 8) (size 9 to 14) (size 15 to 20)
#    0.000    2.250    1.250    1.125    3.500    1.000 
#    0.000    3.125    0.000    0.000    0.000    0.000 
#    0.000    0.000    0.000    0.000    0.000    0.000 
#
# Total GULP energy -396855.163334 kJ/mol
# GULP energy per Si atom -12401.723854 kJ/mol
# Density = 1.903952 g / cm^3
# Si number density = 19.082956 Si / 1000 Ang^3
#
#
#
# Elastic Constant Matrix: (Units=GPa)
#
#
# Indices 1 2 3 4 5 6 
#
# 1 160.0633 47.1357 61.2291 0.0000 -3.6701 0.0000
# 2 47.1357 49.6138 32.4537 0.0000 -0.5259 0.0000
# 3 61.2291 32.4537 86.4794 0.0000 -8.7635 0.0000
# 4 0.0000 0.0000 0.0000 30.3698 0.0000 0.5656
# 5 -3.6701 -0.5259 -8.7635 0.0000 39.2512 0.0000
# 6 0.0000 0.0000 0.0000 0.5656 0.0000 22.1277
#
#
#
# Elastic Compliance Matrix: (Units=1/GPa)
#
#
# Indices 1 2 3 4 5 6 
#
# 1 0.009890 -0.006368 -0.004633 0.000000 -0.000195 0.000000
# 2 -0.006368 0.030956 -0.007292 0.000000 -0.001809 0.000000
# 3 -0.004633 -0.007292 0.017932 0.000000 0.003473 0.000000
# 4 0.000000 0.000000 0.000000 0.032943 0.000000 -0.000842
# 5 -0.000195 -0.001809 0.003473 0.000000 0.026210 0.000000
# 6 0.000000 0.000000 0.000000 -0.000842 0.000000 0.045214
#
#
# Mechanical properties :
#
#
# Convention : Reuss Voigt Hill
#
# Bulk Modulus (GPa) = 45.05793 64.19927 54.62860
# Shear Modulus (GPa) = 24.13964 28.70558 26.42261
#
# Velocity S-wave (km/s) = 3.56052 3.88268 3.72508
# Velocity P-wave (km/s) = 6.36914 7.33590 6.86955
#
# Compressibility (1/GPa) = 0.02219365
#
# Stress axis : x y z
#
# Youngs Moduli (GPa) = 101.10714 32.30348 55.76728
#
# Poissons Ratio (x) = 0.20572 0.25834
# Poissons Ratio (y) = 0.64388 0.40663
# Poissons Ratio (z) = 0.46838 0.23554
#
# Static dielectric constant tensor:
#      x y z
#    x 3.751770 0.000000 0.023200 
#    y 0.000000 3.207920 0.000000 
#    z 0.023200 0.000000 3.595200 
# 
# 
# High freq. dielectric constant tensor:
#      x y z
#    x 1.757910 0.000000 0.001120 
#    y 0.000000 1.711730 0.000000 
#    z 0.001120 0.000000 1.752890 
# 
# From -- ./inp_files/51731.got.cif
#   From: 2010.06.25/outbox.cif.g09.slc.cpg/sg11_26_cif.got.tgz:51731.got - 2010.06.27 23:14:04.
