data_PCOD8075536
_publ_section_title
;
Structure prediction by ZEFSAII (Michael W. Deem and Ramdas Pophale) SiO2 
 PCOD8075536
Probable space group: P 21/M
;
_chemical_formula_sum "Si O2"
_cell_formula_units_Z 24
_cell_length_a 21.908569
_cell_length_b 8.642623
_cell_length_c 9.709718
_cell_angle_alpha 90.000000
_cell_angle_beta 44.560427
_cell_angle_gamma 90.000000
_cell_volume 1290.011554
_symmetry_space_group_name_H-M "P 21/M"
_symmetry_group_IT_number 11
_symmetry_cell_setting 'monoclinic'
loop_
_space_group_symop_operation_xyz
x,y,z
-x,1/2+y,-z
-x,-y,-z
x,1/2-y,z
loop_
_atom_site_type_symbol
_atom_site_label
_atom_site_fract_x
_atom_site_fract_y
_atom_site_fract_z
Si Si1 0.780855 0.930980 0.121152
Si Si2 0.536971 0.570662 0.301903
Si Si3 0.238590 0.932356 0.420803
Si Si4 0.279625 0.566736 0.055028
Si Si5 0.358056 0.571997 0.468470
Si Si6 0.904985 0.432695 0.139860
O O1 0.797084 0.750000 0.100623
O O2 0.687958 0.971985 0.338344
O O3 0.860617 0.013212 0.069775
O O4 0.779338 0.986847 0.965971
O O5 0.500000 0.500000 0.500000
O O6 0.562168 0.750000 0.283334
O O7 0.461819 0.551311 0.307040
O O8 0.619361 0.475147 0.119848
O O9 0.235147 0.750000 0.412425
O O10 0.245748 0.001132 0.255891
O O11 0.323200 0.981454 0.374930
O O12 0.152322 0.992775 0.638115
O O13 0.269426 0.750000 0.059653
O O14 0.330989 0.750000 0.540179
O O15 0.910301 0.250000 0.130338
O O16 0.000000 0.500000 0.000000
#
# Coordination Sequence:
#
# PCOD8075536 Si02
#       6
#     4   4   4   4   4   4
#     4  11  21  34  55  82 110 143 185 225 269 324
#     4  11  21  32  51  78 110 146 191 234 272 319
#     4   8  18  36  57  79 108 144 180 222 276 329
#     4  11  21  35  54  78 111 149 184 226 276 320
#     4   9  18  35  55  75 104 146 190 231 273 320
#     4  10  20  39  64  88 111 138 177 221 270 329
#
# _framework density 18.604483999999999
#
# number of rings (size 3 to 8) (size 9 to 14) (size 15 to 20)
#    0.000    2.000    1.667    4.000    0.000    1.333 
#    0.000    9.167    0.000    0.000    0.000    0.000 
#    0.000    0.000    0.000    0.000    0.000    0.000 
#
# Total GULP energy -297587.055758 kJ/mol
# GULP energy per Si atom -12399.460657 kJ/mol
# Density = 1.856214 g / cm^3
# Si number density = 18.604484 Si / 1000 Ang^3
#
#
#
# Elastic Constant Matrix: (Units=GPa)
#
#
# Indices 1 2 3 4 5 6 
#
# 1 132.3260 29.6803 77.5865 0.0000 4.2133 0.0000
# 2 29.6803 69.2261 25.0030 0.0000 1.2809 0.0000
# 3 77.5865 25.0030 114.2650 0.0000 15.4846 0.0000
# 4 0.0000 0.0000 0.0000 18.4717 0.0000 -6.8688
# 5 4.2133 1.2809 15.4846 0.0000 37.2125 0.0000
# 6 0.0000 0.0000 0.0000 -6.8688 0.0000 29.7987
#
#
#
# Elastic Compliance Matrix: (Units=1/GPa)
#
#
# Indices 1 2 3 4 5 6 
#
# 1 0.013136 -0.002544 -0.008661 0.000000 0.002204 0.000000
# 2 -0.002544 0.016209 -0.001889 0.000000 0.000516 0.000000
# 3 -0.008661 -0.001889 0.015795 0.000000 -0.005527 0.000000
# 4 0.000000 0.000000 0.000000 0.059212 0.000000 0.013649
# 5 0.002204 0.000516 -0.005527 0.000000 0.028905 0.000000
# 6 0.000000 0.000000 0.000000 0.013649 0.000000 0.036705
#
#
# Mechanical properties :
#
#
# Convention : Reuss Voigt Hill
#
# Bulk Modulus (GPa) = 52.76955 64.48408 58.62682
# Shear Modulus (GPa) = 24.69519 29.33308 27.01413
#
# Velocity S-wave (km/s) = 3.64727 3.97503 3.81468
# Velocity P-wave (km/s) = 6.79428 7.47018 7.14023
#
# Compressibility (1/GPa) = 0.01895032
#
# Stress axis : x y z
#
# Youngs Moduli (GPa) = 76.12638 61.69384 63.31106
#
# Poissons Ratio (x) = 0.15698 0.54836
# Poissons Ratio (y) = 0.19370 0.11960
# Poissons Ratio (z) = 0.65936 0.11654
#
# Static dielectric constant tensor:
#      x y z
#    x 3.469310 0.000000 -0.670850 
#    y 0.000000 3.356190 0.000000 
#    z -0.670850 0.000000 -1.421310 
# 
# 
# High freq. dielectric constant tensor:
#      x y z
#    x 1.732430 0.000000 0.007420 
#    y 0.000000 1.717330 0.000000 
#    z 0.007420 0.000000 1.701580 
# 
# From -- ./inp_files/23762.got.cif
#   From: 2010.06.25/outbox.cif.g09.slc.cpg/sg11_12_cif.got.tgz:23762.got - 2010.06.27 23:14:04.
