data_PCOD8075176
_publ_section_title
;
Structure prediction by ZEFSAII (Michael W. Deem and Ramdas Pophale) SiO2 
 PCOD8075176
Probable space group: P 21/M
;
_chemical_formula_sum "Si O2"
_cell_formula_units_Z 32
_cell_length_a 14.139766
_cell_length_b 8.729694
_cell_length_c 19.880770
_cell_angle_alpha 90.000000
_cell_angle_beta 138.986976
_cell_angle_gamma 90.000000
_cell_volume 1610.389386
_symmetry_space_group_name_H-M "P 21/M"
_symmetry_group_IT_number 11
_symmetry_cell_setting 'monoclinic'
loop_
_space_group_symop_operation_xyz
x,y,z
-x,1/2+y,-z
-x,-y,-z
x,1/2-y,z
loop_
_atom_site_type_symbol
_atom_site_label
_atom_site_fract_x
_atom_site_fract_y
_atom_site_fract_z
Si Si1 0.905875 0.568066 0.805582
Si Si2 0.161389 0.427278 0.376478
Si Si3 0.227392 0.569565 0.009887
Si Si4 0.311635 0.569576 0.205840
Si Si5 0.850376 0.427692 0.262148
Si Si6 0.634001 0.932517 0.401468
Si Si7 0.643574 0.930879 0.046578
Si Si8 0.846370 0.568308 0.399602
O O1 0.907516 0.750000 0.803759
O O2 0.857116 0.496589 0.707176
O O3 0.797700 0.513833 0.804092
O O4 0.065744 0.509454 0.909252
O O5 0.190041 0.250000 0.379168
O O6 0.295704 0.496394 0.491073
O O7 0.021299 0.450312 0.347605
O O8 0.241277 0.750000 0.004381
O O9 0.338915 0.483028 0.021125
O O10 0.271012 0.524689 0.108495
O O11 0.300519 0.750000 0.211638
O O12 0.471478 0.506834 0.307814
O O13 0.807048 0.250000 0.240820
O O14 0.780258 0.505721 0.160034
O O15 0.794215 0.509525 0.299106
O O16 0.637108 0.750000 0.403164
O O17 0.727620 0.991321 0.388697
O O18 0.636245 0.750000 0.047592
O O19 0.500000 0.000000 0.000000
O O20 0.858485 0.750000 0.406041
O O21 0.000000 0.500000 0.500000
#
# Coordination Sequence:
#
# PCOD8075176 Si02
#       8
#     4   4   4   4   4   4   4   4
#     4  10  20  37  61  85 113 154 203 252 306 366
#     4   9  17  34  60  84 114 157 197 240 300 360
#     4  10  21  40  63  87 119 160 201 246 305 363
#     4  10  22  38  59  86 118 155 198 251 306 364
#     4  11  21  39  62  87 121 160 201 249 303 364
#     4   9  19  36  56  83 119 159 198 240 302 364
#     4  12  26  42  62  92 126 160 199 246 301 363
#     4  11  21  35  58  88 119 161 207 250 301 362
#
# _framework density 19.870971999999998
#
# number of rings (size 3 to 8) (size 9 to 14) (size 15 to 20)
#    0.000    1.750    2.500    2.250    1.750    1.500 
#    0.000    1.250    0.000    0.000    0.000    0.000 
#    0.000    0.000    0.000    0.000    0.000    0.000 
#
# Total GULP energy -396845.073619 kJ/mol
# GULP energy per Si atom -12401.408551 kJ/mol
# Density = 1.982574 g / cm^3
# Si number density = 19.870972 Si / 1000 Ang^3
#
#
#
# Elastic Constant Matrix: (Units=GPa)
#
#
# Indices 1 2 3 4 5 6 
#
# 1 127.0564 32.8805 63.7273 0.0000 1.4246 0.0000
# 2 32.8805 58.9500 26.9687 0.0000 -1.1848 0.0000
# 3 63.7273 26.9687 147.4966 0.0000 -7.9777 0.0000
# 4 0.0000 0.0000 0.0000 21.1464 0.0000 -1.8502
# 5 1.4246 -1.1848 -7.9777 0.0000 34.3971 0.0000
# 6 0.0000 0.0000 0.0000 -1.8502 0.0000 32.8666
#
#
#
# Elastic Compliance Matrix: (Units=1/GPa)
#
#
# Indices 1 2 3 4 5 6 
#
# 1 0.011048 -0.004334 -0.004065 0.000000 -0.001550 0.000000
# 2 -0.004334 0.020213 -0.001798 0.000000 0.000459 0.000000
# 3 -0.004065 -0.001798 0.008983 0.000000 0.002190 0.000000
# 4 0.000000 0.000000 0.000000 0.047523 0.000000 0.002675
# 5 -0.001550 0.000459 0.002190 0.000000 0.029660 0.000000
# 6 0.000000 0.000000 0.000000 0.002675 0.000000 0.030577
#
#
# Mechanical properties :
#
#
# Convention : Reuss Voigt Hill
#
# Bulk Modulus (GPa) = 50.37797 64.51733 57.44765
# Shear Modulus (GPa) = 28.56884 31.67712 30.12298
#
# Velocity S-wave (km/s) = 3.79584 3.99700 3.89772
# Velocity P-wave (km/s) = 6.67973 7.33757 7.01636
#
# Compressibility (1/GPa) = 0.01984994
#
# Stress axis : x y z
#
# Youngs Moduli (GPa) = 90.51186 49.47353 111.31667
#
# Poissons Ratio (x) = 0.21441 0.45249
# Poissons Ratio (y) = 0.39227 0.20020
# Poissons Ratio (z) = 0.36792 0.08898
#
# Static dielectric constant tensor:
#      x y z
#    x 3.677100 0.000000 -0.119040 
#    y 0.000000 3.142660 0.000000 
#    z -0.119040 0.000000 4.012020 
# 
# 
# High freq. dielectric constant tensor:
#      x y z
#    x 1.782500 0.000000 -0.008280 
#    y 0.000000 1.745010 0.000000 
#    z -0.008280 0.000000 1.790810 
# 
# From -- ./inp_files/65236.got.cif
#   From: 2010.06.25/outbox.cif.g09.slc.cpg/sg11_33_cif.got.tgz:65236.got - 2010.06.27 23:14:04.
