data_PCOD8075354
_publ_section_title
;
Structure prediction by ZEFSAII (Michael W. Deem and Ramdas Pophale) SiO2 
 PCOD8075354
Probable space group: P 21/M
;
_chemical_formula_sum "Si O2"
_cell_formula_units_Z 28
_cell_length_a 9.749696
_cell_length_b 8.620431
_cell_length_c 29.278308
_cell_angle_alpha 90.000000
_cell_angle_beta 146.600708
_cell_angle_gamma 90.000000
_cell_volume 1354.565529
_symmetry_space_group_name_H-M "P 21/M"
_symmetry_group_IT_number 11
_symmetry_cell_setting 'monoclinic'
loop_
_space_group_symop_operation_xyz
x,y,z
-x,1/2+y,-z
-x,-y,-z
x,1/2-y,z
loop_
_atom_site_type_symbol
_atom_site_label
_atom_site_fract_x
_atom_site_fract_y
_atom_site_fract_z
Si Si1 0.910589 0.067148 0.062766
Si Si2 0.819934 0.434743 0.373734
Si Si3 0.546564 0.932789 0.806854
Si Si4 0.541731 0.569693 0.122967
Si Si5 0.360916 0.934205 0.505528
Si Si6 0.499237 0.066330 0.638142
Si Si7 0.023869 0.428915 0.824401
O O1 0.906124 0.250000 0.056962
O O2 0.175015 0.996493 0.119901
O O3 0.689606 0.998144 0.970067
O O4 0.867044 0.025008 0.103202
O O5 0.826526 0.250000 0.380221
O O6 0.623233 0.495291 0.281466
O O7 0.740815 0.507877 0.400323
O O8 0.086587 0.494727 0.432231
O O9 0.559707 0.750000 0.807395
O O10 0.426418 0.982190 0.820803
O O11 0.497388 0.750000 0.120192
O O12 0.798751 0.538646 0.168842
O O13 0.346093 0.750000 0.497785
O O14 0.500000 0.000000 0.500000
O O15 0.511399 0.983932 0.592492
O O16 0.483217 0.250000 0.626219
O O17 0.747152 0.016033 0.734288
O O18 0.026027 0.250000 0.839181
#
# Coordination Sequence:
#
# PCOD8075354 Si02
#       7
#     4   4   4   4   4   4   4
#     4  10  20  38  60  86 121 162 209 258 308 364
#     4  11  23  43  67  94 127 165 211 258 309 372
#     4  10  22  38  59  89 122 161 208 255 306 367
#     4  10  22  37  57  87 124 164 207 258 312 364
#     4  12  27  46  69  98 130 163 201 252 311 372
#     4  11  23  42  66  94 127 167 212 257 310 372
#     4  10  22  38  59  90 123 160 207 255 306 366
#
# _framework density 20.670833999999999
#
# number of rings (size 3 to 8) (size 9 to 14) (size 15 to 20)
#    0.000    1.429    1.429    3.429    2.000    3.429 
#    0.000    0.000    0.000    0.000    0.000    0.000 
#    0.000    0.000    0.000    0.000    0.000    0.000 
#
# Total GULP energy -347326.370566 kJ/mol
# GULP energy per Si atom -12404.513235 kJ/mol
# Density = 2.062379 g / cm^3
# Si number density = 20.670834 Si / 1000 Ang^3
#
#
#
# Elastic Constant Matrix: (Units=GPa)
#
#
# Indices 1 2 3 4 5 6 
#
# 1 109.6952 14.9613 39.1303 0.0000 -9.0000 0.0000
# 2 14.9613 34.5129 16.7036 0.0000 -1.3261 0.0000
# 3 39.1303 16.7036 77.8503 0.0000 -4.4045 0.0000
# 4 0.0000 0.0000 0.0000 23.7770 0.0000 -6.1552
# 5 -9.0000 -1.3261 -4.4045 0.0000 40.6460 0.0000
# 6 0.0000 0.0000 0.0000 -6.1552 0.0000 35.2431
#
#
#
# Elastic Compliance Matrix: (Units=1/GPa)
#
#
# Indices 1 2 3 4 5 6 
#
# 1 0.011426 -0.002402 -0.005120 0.000000 0.001897 0.000000
# 2 -0.002402 0.032841 -0.005844 0.000000 -0.000094 0.000000
# 3 -0.005120 -0.005844 0.016700 0.000000 0.000485 0.000000
# 4 0.000000 0.000000 0.000000 0.044049 0.000000 0.007693
# 5 0.001897 -0.000094 0.000485 0.000000 0.025072 0.000000
# 6 0.000000 0.000000 0.000000 0.007693 0.000000 0.029718
#
#
# Mechanical properties :
#
#
# Convention : Reuss Voigt Hill
#
# Bulk Modulus (GPa) = 29.21110 40.40543 34.80827
# Shear Modulus (GPa) = 25.25879 30.01743 27.63811
#
# Velocity S-wave (km/s) = 3.49944 3.81486 3.66055
# Velocity P-wave (km/s) = 5.52180 6.24450 5.89424
#
# Compressibility (1/GPa) = 0.03423356
#
# Stress axis : x y z
#
# Youngs Moduli (GPa) = 87.52016 30.44987 59.87937
#
# Poissons Ratio (x) = 0.07314 0.30660
# Poissons Ratio (y) = 0.21023 0.34995
# Poissons Ratio (z) = 0.44814 0.17796
#
# Static dielectric constant tensor:
#      x y z
#    x 3.783770 0.000000 0.088980 
#    y 0.000000 3.586820 0.000000 
#    z 0.088980 0.000000 4.037530 
# 
# 
# High freq. dielectric constant tensor:
#      x y z
#    x 1.820700 0.000000 0.000630 
#    y 0.000000 1.799560 0.000000 
#    z 0.000630 0.000000 1.822740 
# 
# From -- ./inp_files/70901.got.cif
#   From: 2010.06.25/outbox.cif.g09.slc.cpg/sg11_36_cif.got.tgz:70901.got - 2010.06.27 23:14:04.
