data_PCOD8075494
_publ_section_title
;
Structure prediction by ZEFSAII (Michael W. Deem and Ramdas Pophale) SiO2 
 PCOD8075494
Probable space group: P 21/M
;
_chemical_formula_sum "Si O2"
_cell_formula_units_Z 32
_cell_length_a 9.499761
_cell_length_b 19.165668
_cell_length_c 11.746366
_cell_angle_alpha 90.000000
_cell_angle_beta 52.563004
_cell_angle_gamma 90.000000
_cell_volume 1698.137500
_symmetry_space_group_name_H-M "P 21/M"
_symmetry_group_IT_number 11
_symmetry_cell_setting 'monoclinic'
loop_
_space_group_symop_operation_xyz
x,y,z
-x,1/2+y,-z
-x,-y,-z
x,1/2-y,z
loop_
_atom_site_type_symbol
_atom_site_label
_atom_site_fract_x
_atom_site_fract_y
_atom_site_fract_z
Si Si1 0.960129 0.928435 0.641356
Si Si2 0.564568 0.330965 0.301651
Si Si3 0.259241 0.167950 0.863821
Si Si4 0.562991 0.926002 0.827692
Si Si5 0.040883 0.669388 0.811666
Si Si6 0.073179 0.584478 0.342888
Si Si7 0.236050 0.167666 0.617471
Si Si8 0.524073 0.415685 0.878464
O O1 0.763683 0.921230 0.685349
O O2 0.992713 0.875627 0.726510
O O3 0.087443 0.911419 0.473090
O O4 0.988085 0.007833 0.669945
O O5 0.539473 0.250000 0.281723
O O6 0.555890 0.375727 0.190844
O O7 0.755739 0.345410 0.260355
O O8 0.415686 0.355937 0.464873
O O9 0.291478 0.250000 0.848308
O O10 0.238849 0.139474 0.745415
O O11 0.434743 0.133817 0.829835
O O12 0.082976 0.147515 0.021208
O O13 0.490330 0.004797 0.855467
O O14 0.566370 0.900433 0.956178
O O15 0.009451 0.750000 0.795692
O O16 0.269856 0.602053 0.203986
O O17 0.937853 0.639915 0.359293
O O18 0.219900 0.250000 0.624637
#
# Coordination Sequence:
#
# PCOD8075494 Si02
#       8
#     4   4   4   4   4   4   4   4
#     4  10  20  39  59  83 115 145 190 236 276 331
#     4  10  22  39  60  84 111 149 193 234 276 328
#     4  10  22  40  58  82 117 150 186 232 281 334
#     4  10  20  39  59  83 115 145 190 236 276 331
#     4  10  22  39  60  84 111 149 193 234 276 328
#     4  10  22  37  58  86 115 148 184 231 284 335
#     4  10  22  40  58  82 117 150 186 232 281 334
#     4  10  22  37  58  86 115 148 184 231 284 335
#
# _framework density 18.844176000000001
#
# number of rings (size 3 to 8) (size 9 to 14) (size 15 to 20)
#    0.000    2.000    2.500    0.000    3.500    3.000 
#    0.000    2.500    0.000    0.000    0.000    0.000 
#    0.000    0.000    0.000    0.000    0.000    0.000 
#
# Total GULP energy -396883.775446 kJ/mol
# GULP energy per Si atom -12402.617983 kJ/mol
# Density = 1.880129 g / cm^3
# Si number density = 18.844176 Si / 1000 Ang^3
#
#
#
# Elastic Constant Matrix: (Units=GPa)
#
#
# Indices 1 2 3 4 5 6 
#
# 1 90.3088 43.5668 41.8444 0.0000 5.5077 0.0000
# 2 43.5668 49.6736 38.2773 0.0000 9.5335 0.0000
# 3 41.8444 38.2773 86.0235 0.0000 2.3854 0.0000
# 4 0.0000 0.0000 0.0000 25.1183 0.0000 -1.4663
# 5 5.5077 9.5335 2.3854 0.0000 25.4463 0.0000
# 6 0.0000 0.0000 0.0000 -1.4663 0.0000 -3.8314
#
#
#
# Elastic Compliance Matrix: (Units=1/GPa)
#
#
# Indices 1 2 3 4 5 6 
#
# 1 0.019727 -0.015547 -0.002728 0.000000 0.001811 0.000000
# 2 -0.015547 0.045795 -0.012464 0.000000 -0.012624 0.000000
# 3 -0.002728 -0.012464 0.018400 0.000000 0.003535 0.000000
# 4 0.000000 0.000000 0.000000 0.038942 0.000000 -0.014903
# 5 0.001811 -0.012624 0.003535 0.000000 0.043305 0.000000
# 6 0.000000 0.000000 0.000000 -0.014903 0.000000 -0.255295
#
#
# Mechanical properties :
#
#
# Convention : Reuss Voigt Hill
#
# Bulk Modulus (GPa) = 44.55838 52.59810 48.57824
# Shear Modulus (GPa) = -247.91732 16.16781 -115.87476
#
# Velocity S-wave (km/s) = -11.48248 2.93230 -7.85013
# Velocity P-wave (km/s) = 12.33286 6.27990 7.50541
#
# Compressibility (1/GPa) = 0.02244247
#
# Stress axis : x y z
#
# Youngs Moduli (GPa) = 50.69204 21.83667 54.34816
#
# Poissons Ratio (x) = 0.33950 0.14827
# Poissons Ratio (y) = 0.78811 0.67741
# Poissons Ratio (z) = 0.13830 0.27218
#
# Static dielectric constant tensor:
#      x y z
#    x 3.252160 0.000000 -0.049740 
#    y 0.000000 3.388450 0.000000 
#    z -0.049740 0.000000 3.704690 
# 
# 
# High freq. dielectric constant tensor:
#      x y z
#    x 1.725250 0.000000 -0.003670 
#    y 0.000000 1.725570 0.000000 
#    z -0.003670 0.000000 1.749270 
# 
# From -- ./inp_files/23106.got.cif
#   From: 2010.06.25/outbox.cif.g09.slc.cpg/sg11_12_cif.got.tgz:23106.got - 2010.06.27 23:14:04.
