data_PCOD8075335
_publ_section_title
;
Structure prediction by ZEFSAII (Michael W. Deem and Ramdas Pophale) SiO2 
 PCOD8075335
Probable space group: P 21/M
;
_chemical_formula_sum "Si O2"
_cell_formula_units_Z 32
_cell_length_a 27.760918
_cell_length_b 8.811245
_cell_length_c 22.389714
_cell_angle_alpha 90.000000
_cell_angle_beta 161.692514
_cell_angle_gamma 90.000000
_cell_volume 1720.324591
_symmetry_space_group_name_H-M "P 21/M"
_symmetry_group_IT_number 11
_symmetry_cell_setting 'monoclinic'
loop_
_space_group_symop_operation_xyz
x,y,z
-x,1/2+y,-z
-x,-y,-z
x,1/2-y,z
loop_
_atom_site_type_symbol
_atom_site_label
_atom_site_fract_x
_atom_site_fract_y
_atom_site_fract_z
Si Si1 0.345090 0.075458 0.338271
Si Si2 0.215203 0.573480 0.080387
Si Si3 0.159119 0.430713 0.666558
Si Si4 0.446781 0.569962 0.064553
Si Si5 0.463718 0.424801 0.601216
Si Si6 0.748363 0.928314 0.353629
Si Si7 0.612864 0.427520 0.367691
Si Si8 0.098833 0.428976 0.346621
O O1 0.354465 0.250000 0.332899
O O2 0.333714 0.052220 0.396577
O O3 0.500000 0.000000 0.500000
O O4 0.207151 0.003574 0.136847
O O5 0.207571 0.750000 0.083927
O O6 0.369134 0.528763 0.226666
O O7 0.072186 0.520479 0.871837
O O8 0.146954 0.250000 0.652520
O O9 0.200140 0.497868 0.649078
O O10 0.000000 0.500000 0.500000
O O11 0.290051 0.484446 0.865804
O O12 0.421557 0.750000 0.032937
O O13 0.578717 0.515392 0.173293
O O14 0.496438 0.521902 0.189265
O O15 0.464105 0.250000 0.623559
O O16 0.425906 0.538406 0.609642
O O17 0.742272 0.750000 0.339380
O O18 0.871287 0.974807 0.549160
O O19 0.594904 0.250000 0.333410
O O20 0.786372 0.480036 0.560707
O O21 0.127992 0.250000 0.371756
#
# Coordination Sequence:
#
# PCOD8075335 Si02
#       8
#     4   4   4   4   4   4   4   4
#     4   9  17  30  50  74 103 137 176 217 261 311
#     4   9  18  32  54  80 105 136 177 219 262 311
#     4  11  22  36  54  82 114 141 173 216 261 307
#     4  10  20  38  60  78 100 138 179 216 261 313
#     4   9  18  33  52  76 104 139 177 215 261 316
#     4   8  17  34  57  79 102 137 179 215 253 305
#     4  11  22  35  53  80 108 136 172 217 262 310
#     4   9  18  36  57  77 103 138 175 213 260 313
#
# _framework density 18.601140999999998
#
# number of rings (size 3 to 8) (size 9 to 14) (size 15 to 20)
#    0.000    2.500    0.000    4.125    0.000    4.000 
#    0.000    8.750    0.000    0.000    0.000    0.000 
#    0.000    0.000    0.000    0.000    0.000    0.000 
#
# Total GULP energy -396709.185099 kJ/mol
# GULP energy per Si atom -12397.162034 kJ/mol
# Density = 1.855880 g / cm^3
# Si number density = 18.601141 Si / 1000 Ang^3
#
#
#
# Elastic Constant Matrix: (Units=GPa)
#
#
# Indices 1 2 3 4 5 6 
#
# 1 92.8538 32.6921 29.4226 0.0000 -8.1066 0.0000
# 2 32.6921 64.2921 27.0337 0.0000 -2.5015 0.0000
# 3 29.4226 27.0337 77.1488 0.0000 -6.6298 0.0000
# 4 0.0000 0.0000 0.0000 30.7479 0.0000 -2.9304
# 5 -8.1066 -2.5015 -6.6298 0.0000 19.6457 0.0000
# 6 0.0000 0.0000 0.0000 -2.9304 0.0000 25.2714
#
#
#
# Elastic Compliance Matrix: (Units=1/GPa)
#
#
# Indices 1 2 3 4 5 6 
#
# 1 0.014103 -0.005745 -0.003016 0.000000 0.004070 0.000000
# 2 -0.005745 0.020583 -0.005149 0.000000 -0.001487 0.000000
# 3 -0.003016 -0.005149 0.016224 0.000000 0.003575 0.000000
# 4 0.000000 0.000000 0.000000 0.032886 0.000000 0.003813
# 5 0.004070 -0.001487 0.003575 0.000000 0.053598 0.000000
# 6 0.000000 0.000000 0.000000 0.003813 0.000000 0.040013
#
#
# Mechanical properties :
#
#
# Convention : Reuss Voigt Hill
#
# Bulk Modulus (GPa) = 43.30943 45.84349 44.57646
# Shear Modulus (GPa) = 23.48271 24.80943 24.14607
#
# Velocity S-wave (km/s) = 3.55693 3.65603 3.60682
# Velocity P-wave (km/s) = 6.34056 6.52082 6.43132
#
# Compressibility (1/GPa) = 0.02308966
#
# Stress axis : x y z
#
# Youngs Moduli (GPa) = 70.90555 48.58490 61.63853
#
# Poissons Ratio (x) = 0.27912 0.18589
# Poissons Ratio (y) = 0.40735 0.31739
# Poissons Ratio (z) = 0.21383 0.25017
#
# Static dielectric constant tensor:
#      x y z
#    x 3.577850 0.000000 -0.220570 
#    y 0.000000 3.366480 0.000000 
#    z -0.220570 0.000000 3.632560 
# 
# 
# High freq. dielectric constant tensor:
#      x y z
#    x 1.714250 0.000000 -0.018740 
#    y 0.000000 1.713380 0.000000 
#    z -0.018740 0.000000 1.722300 
# 
# From -- ./inp_files/67228.got.cif
#   From: 2010.06.25/outbox.cif.g09.slc.cpg/sg11_34_cif.got.tgz:67228.got - 2010.06.27 23:14:04.
