data_PCOD8075004
_publ_section_title
;
Structure prediction by ZEFSAII (Michael W. Deem and Ramdas Pophale) SiO2 
 PCOD8075004
Probable space group: P 21/M
;
_chemical_formula_sum "Si O2"
_cell_formula_units_Z 32
_cell_length_a 26.935826
_cell_length_b 12.760494
_cell_length_c 8.719684
_cell_angle_alpha 90.000000
_cell_angle_beta 147.961962
_cell_angle_gamma 90.000000
_cell_volume 1589.898181
_symmetry_space_group_name_H-M "P 21/M"
_symmetry_group_IT_number 11
_symmetry_cell_setting 'monoclinic'
loop_
_space_group_symop_operation_xyz
x,y,z
-x,1/2+y,-z
-x,-y,-z
x,1/2-y,z
loop_
_atom_site_type_symbol
_atom_site_label
_atom_site_fract_x
_atom_site_fract_y
_atom_site_fract_z
Si Si1 0.339063 0.025280 0.607179
Si Si2 0.383584 0.129982 0.417158
Si Si3 0.225220 0.862645 0.118706
Si Si4 0.593508 0.371648 0.962286
Si Si5 0.162110 0.135415 0.234504
Si Si6 0.951360 0.047026 0.228504
Si Si7 0.919630 0.940944 0.696803
Si Si8 0.265709 0.963403 0.917769
O O1 0.393792 0.093253 0.622548
O O2 0.271118 0.100719 0.527841
O O3 0.277186 0.949439 0.346394
O O4 0.401713 0.953563 0.882762
O O5 0.347655 0.250000 0.320178
O O6 0.488009 0.121836 0.620943
O O7 0.312717 0.063817 0.125165
O O8 0.268020 0.750000 0.270928
O O9 0.117774 0.863292 0.893257
O O10 0.235538 0.879162 0.964865
O O11 0.616114 0.250000 0.069130
O O12 0.662969 0.408414 0.011378
O O13 0.155041 0.250000 0.136914
O O14 0.122363 0.148795 0.303572
O O15 0.102114 0.050024 0.988702
O O16 0.029467 0.100875 0.323316
O O17 0.000000 0.000000 0.500000
O O18 0.830149 0.012276 0.421640
O O19 0.000000 0.000000 0.000000
#
# Coordination Sequence:
#
# PCOD8075004 Si02
#       8
#     4   4   4   4   4   4   4   4
#     4  10  20  39  61  85 122 154 195 252 298 351
#     4  10  23  40  62  90 123 160 203 247 308 370
#     4  10  21  36  58  86 114 156 199 240 297 359
#     4  11  22  39  63  92 120 160 205 251 306 363
#     4  10  21  37  58  83 116 157 197 236 298 360
#     4  10  20  37  57  82 118 149 192 251 293 348
#     4  10  21  39  58  82 120 155 194 244 299 350
#     4  11  21  40  62  86 124 158 198 253 302 355
#
# _framework density 20.127074
#
# number of rings (size 3 to 8) (size 9 to 14) (size 15 to 20)
#    0.000    1.750    2.500    1.875    0.000    1.500 
#    0.000    0.625    0.000    5.250    0.000    0.000 
#    0.000    0.000    0.000    0.000    0.000    0.000 
#
# Total GULP energy -396439.272373 kJ/mol
# GULP energy per Si atom -12388.727262 kJ/mol
# Density = 2.008126 g / cm^3
# Si number density = 20.127074 Si / 1000 Ang^3
#
#
#
# Elastic Constant Matrix: (Units=GPa)
#
#
# Indices 1 2 3 4 5 6 
#
# 1 122.6954 29.9809 37.6350 0.0000 11.8720 0.0000
# 2 29.9809 102.3065 20.6973 0.0000 5.2198 0.0000
# 3 37.6350 20.6973 80.9802 0.0000 6.9176 0.0000
# 4 0.0000 0.0000 0.0000 -108.3142 0.0000 18.4912
# 5 11.8720 5.2198 6.9176 0.0000 31.7491 0.0000
# 6 0.0000 0.0000 0.0000 18.4912 0.0000 14.7402
#
#
#
# Elastic Compliance Matrix: (Units=1/GPa)
#
#
# Indices 1 2 3 4 5 6 
#
# 1 0.010111 -0.002030 -0.003959 0.000000 -0.002584 0.000000
# 2 -0.002030 0.010756 -0.001752 0.000000 -0.000628 0.000000
# 3 -0.003959 -0.001752 0.014760 0.000000 -0.001447 0.000000
# 4 0.000000 0.000000 0.000000 -0.007604 0.000000 0.009539
# 5 -0.002584 -0.000628 -0.001447 0.000000 0.032882 0.000000
# 6 0.000000 0.000000 0.000000 0.009539 0.000000 0.055875
#
#
# Mechanical properties :
#
#
# Convention : Reuss Voigt Hill
#
# Bulk Modulus (GPa) = 49.64220 53.62317 51.63269
# Shear Modulus (GPa) = 35.97699 2.14627 19.06163
#
# Velocity S-wave (km/s) = 4.23246 1.03377 3.08078
# Velocity P-wave (km/s) = 6.97158 5.30331 6.19387
#
# Compressibility (1/GPa) = 0.02014415
#
# Stress axis : x y z
#
# Youngs Moduli (GPa) = 98.90359 92.97199 67.74988
#
# Poissons Ratio (x) = 0.18875 0.26824
# Poissons Ratio (y) = 0.20079 0.11869
# Poissons Ratio (z) = 0.39159 0.16288
#
# Static dielectric constant tensor:
#      x y z
#    x 4.105070 0.000000 0.182580 
#    y 0.000000 4.116900 0.000000 
#    z 0.182580 0.000000 3.701590 
# 
# 
# High freq. dielectric constant tensor:
#      x y z
#    x 1.808960 0.000000 0.007050 
#    y 0.000000 1.774730 0.000000 
#    z 0.007050 0.000000 1.776280 
# 
# From -- ./inp_files/29282.got.cif
#   From: 2010.06.25/outbox.cif.g09.slc.cpg/sg11_15_cif.got.tgz:29282.got - 2010.06.27 23:14:04.
