data_PCOD8075115
_publ_section_title
;
Structure prediction by ZEFSAII (Michael W. Deem and Ramdas Pophale) SiO2 
 PCOD8075115
Probable space group: P 21/M
;
_chemical_formula_sum "Si O2"
_cell_formula_units_Z 28
_cell_length_a 15.024806
_cell_length_b 9.139931
_cell_length_c 18.611960
_cell_angle_alpha 90.000000
_cell_angle_beta 145.312947
_cell_angle_gamma 90.000000
_cell_volume 1454.546810
_symmetry_space_group_name_H-M "P 21/M"
_symmetry_group_IT_number 11
_symmetry_cell_setting 'monoclinic'
loop_
_space_group_symop_operation_xyz
x,y,z
-x,1/2+y,-z
-x,-y,-z
x,1/2-y,z
loop_
_atom_site_type_symbol
_atom_site_label
_atom_site_fract_x
_atom_site_fract_y
_atom_site_fract_z
Si Si1 0.093943 0.577302 0.625640
Si Si2 0.857362 0.077722 0.944816
Si Si3 0.253369 0.083746 0.991276
Si Si4 0.446320 0.921548 0.891661
Si Si5 0.304528 0.579992 0.426450
Si Si6 0.591934 0.420445 0.659884
Si Si7 0.011869 0.083471 0.709453
O O1 0.080094 0.750000 0.606119
O O2 0.275789 0.526659 0.750530
O O3 0.000000 0.500000 0.500000
O O4 0.010729 0.529304 0.643610
O O5 0.890813 0.250000 0.967705
O O6 0.700589 0.036867 0.798215
O O7 0.829233 0.022257 0.006705
O O8 0.000000 0.000000 0.000000
O O9 0.236778 0.250000 0.008814
O O10 0.433811 0.042994 0.094287
O O11 0.169268 0.065606 0.859046
O O12 0.445380 0.750000 0.908618
O O13 0.500000 0.000000 0.000000
O O14 0.338852 0.750000 0.455967
O O15 0.426698 0.500503 0.560241
O O16 0.324703 0.525375 0.358037
O O17 0.130513 0.539374 0.333611
O O18 0.558447 0.250000 0.634710
O O19 0.994353 0.250000 0.669191
#
# Coordination Sequence:
#
# PCOD8075115 Si02
#       7
#     4   4   4   4   4   4   4
#     4  11  24  40  60  89 122 156 197 245 299 360
#     4  11  23  38  57  83 117 153 192 241 291 347
#     4  10  21  38  61  87 116 154 195 242 300 355
#     4  10  21  39  64  89 117 155 200 250 302 360
#     4   9  18  33  56  81 107 145 190 234 283 346
#     4   9  19  36  54  77 111 149 188 233 287 340
#     4  10  20  37  60  84 114 152 192 238 296 353
#
# _framework density 19.249983
#
# number of rings (size 3 to 8) (size 9 to 14) (size 15 to 20)
#    0.000    2.000    1.429    1.714    0.000    6.857 
#    0.000    7.143    0.000    0.000    0.000    0.000 
#    0.000    0.000    0.000    0.000    0.000    0.000 
#
# Total GULP energy -347233.959345 kJ/mol
# GULP energy per Si atom -12401.212834 kJ/mol
# Density = 1.920617 g / cm^3
# Si number density = 19.249983 Si / 1000 Ang^3
#
#
#
# Elastic Constant Matrix: (Units=GPa)
#
#
# Indices 1 2 3 4 5 6 
#
# 1 85.0269 35.8545 40.6091 0.0000 3.3722 0.0000
# 2 35.8545 63.4755 46.4543 0.0000 -0.9778 0.0000
# 3 40.6091 46.4543 104.5805 0.0000 5.6991 0.0000
# 4 0.0000 0.0000 0.0000 34.9774 0.0000 -2.1306
# 5 3.3722 -0.9778 5.6991 0.0000 30.5444 0.0000
# 6 0.0000 0.0000 0.0000 -2.1306 0.0000 34.9800
#
#
#
# Elastic Compliance Matrix: (Units=1/GPa)
#
#
# Indices 1 2 3 4 5 6 
#
# 1 0.016228 -0.006865 -0.003175 0.000000 -0.001419 0.000000
# 2 -0.006865 0.026471 -0.009274 0.000000 0.003336 0.000000
# 3 -0.003175 -0.009274 0.015065 0.000000 -0.002757 0.000000
# 4 0.000000 0.000000 0.000000 0.028696 0.000000 0.001748
# 5 -0.001419 0.003336 -0.002757 0.000000 0.033517 0.000000
# 6 0.000000 0.000000 0.000000 0.001748 0.000000 0.028694
#
#
# Mechanical properties :
#
#
# Convention : Reuss Voigt Hill
#
# Bulk Modulus (GPa) = 52.25896 55.43541 53.84719
# Shear Modulus (GPa) = 25.81605 28.77804 27.29704
#
# Velocity S-wave (km/s) = 3.66607 3.87067 3.76976
# Velocity P-wave (km/s) = 6.71763 6.98830 6.85430
#
# Compressibility (1/GPa) = 0.01913547
#
# Stress axis : x y z
#
# Youngs Moduli (GPa) = 61.62010 37.77779 66.38078
#
# Poissons Ratio (x) = 0.25935 0.21074
# Poissons Ratio (y) = 0.42303 0.61563
# Poissons Ratio (z) = 0.19563 0.35036
#
# Static dielectric constant tensor:
#      x y z
#    x 3.511310 0.000000 0.140760 
#    y 0.000000 3.459910 0.000000 
#    z 0.140760 0.000000 3.664910 
# 
# 
# High freq. dielectric constant tensor:
#      x y z
#    x 1.750740 0.000000 0.010490 
#    y 0.000000 1.744340 0.000000 
#    z 0.010490 0.000000 1.753830 
# 
# From -- ./inp_files/60149.got.cif
#   From: 2010.06.25/outbox.cif.g09.slc.cpg/sg11_31_cif.got.tgz:60149.got - 2010.06.27 23:14:04.
