data_PCOD8075599
_publ_section_title
;
Structure prediction by ZEFSAII (Michael W. Deem and Ramdas Pophale) SiO2 
 PCOD8075599
Probable space group: P 21/M
;
_chemical_formula_sum "Si O2"
_cell_formula_units_Z 32
_cell_length_a 18.011424
_cell_length_b 16.592993
_cell_length_c 11.161748
_cell_angle_alpha 90.000000
_cell_angle_beta 150.650797
_cell_angle_gamma 90.000000
_cell_volume 1634.998320
_symmetry_space_group_name_H-M "P 21/M"
_symmetry_group_IT_number 11
_symmetry_cell_setting 'monoclinic'
loop_
_space_group_symop_operation_xyz
x,y,z
-x,1/2+y,-z
-x,-y,-z
x,1/2-y,z
loop_
_atom_site_type_symbol
_atom_site_label
_atom_site_fract_x
_atom_site_fract_y
_atom_site_fract_z
Si Si1 0.372324 0.456402 0.895969
Si Si2 0.738153 0.844935 0.686138
Si Si3 0.842357 0.342681 0.090618
Si Si4 0.887690 0.066813 0.389722
Si Si5 0.536272 0.408097 0.572270
Si Si6 0.832494 0.844000 0.555861
Si Si7 0.905200 0.657728 0.154252
Si Si8 0.595689 0.658978 0.849288
O O1 0.274229 0.528182 0.813256
O O2 0.272253 0.396308 0.676737
O O3 0.500000 0.500000 0.000000
O O4 0.448170 0.403840 0.108475
O O5 0.727659 0.750000 0.682883
O O6 0.568905 0.878625 0.465995
O O7 0.803257 0.872313 0.650486
O O8 0.848339 0.877170 0.946665
O O9 0.793175 0.250000 0.010853
O O10 0.710996 0.399021 0.853550
O O11 0.871372 0.362333 0.270040
O O12 0.992593 0.360862 0.225860
O O13 0.952353 0.105091 0.603103
O O14 0.000000 0.000000 0.500000
O O15 0.500000 0.500000 0.500000
O O16 0.505913 0.356777 0.410255
O O17 0.792139 0.750000 0.479733
O O18 0.957042 0.750000 0.214093
O O19 0.772719 0.648995 0.066488
O O20 0.562894 0.750000 0.847017
#
# Coordination Sequence:
#
# PCOD8075599 Si02
#       8
#     4   4   4   4   4   4   4   4
#     4  12  26  41  59  90 125 156 207 259 315 364
#     4   9  20  39  63  89 122 162 200 242 303 370
#     4  11  23  41  65  94 123 165 212 254 304 370
#     4  12  22  39  62  89 122 153 202 260 306 357
#     4  11  23  37  64  97 126 156 204 257 304 356
#     4  10  22  42  65  89 124 167 205 250 311 376
#     4   9  18  37  65  90 115 157 205 245 296 368
#     4  10  20  40  64  86 119 167 207 242 299 374
#
# _framework density 19.571884000000001
#
# number of rings (size 3 to 8) (size 9 to 14) (size 15 to 20)
#    0.000    1.500    2.500    3.375    5.250    2.000 
#    2.250    3.125    0.000    0.000    0.000    0.000 
#    0.000    0.000    0.000    0.000    0.000    0.000 
#
# Total GULP energy -396939.221873 kJ/mol
# GULP energy per Si atom -12404.350684 kJ/mol
# Density = 1.952734 g / cm^3
# Si number density = 19.571884 Si / 1000 Ang^3
#
#
#
# Elastic Constant Matrix: (Units=GPa)
#
#
# Indices 1 2 3 4 5 6 
#
# 1 126.5100 34.7910 38.1054 0.0000 4.3799 0.0000
# 2 34.7910 62.7448 29.5367 0.0000 4.2163 0.0000
# 3 38.1054 29.5367 93.4767 0.0000 2.7935 0.0000
# 4 0.0000 0.0000 0.0000 36.9204 0.0000 -2.1554
# 5 4.3799 4.2163 2.7935 0.0000 27.7385 0.0000
# 6 0.0000 0.0000 0.0000 -2.1554 0.0000 32.7025
#
#
#
# Elastic Compliance Matrix: (Units=1/GPa)
#
#
# Indices 1 2 3 4 5 6 
#
# 1 0.009885 -0.004169 -0.002692 0.000000 -0.000656 0.000000
# 2 -0.004169 0.020623 -0.004757 0.000000 -0.001997 0.000000
# 3 -0.002692 -0.004757 0.013304 0.000000 -0.000192 0.000000
# 4 0.000000 0.000000 0.000000 0.027190 0.000000 0.001792
# 5 -0.000656 -0.001997 -0.000192 0.000000 0.036477 0.000000
# 6 0.000000 0.000000 0.000000 0.001792 0.000000 0.030697
#
#
# Mechanical properties :
#
#
# Convention : Reuss Voigt Hill
#
# Bulk Modulus (GPa) = 48.60466 54.17752 51.39109
# Shear Modulus (GPa) = 29.71371 31.49216 30.60294
#
# Velocity S-wave (km/s) = 3.90061 4.01565 3.95855
# Velocity P-wave (km/s) = 6.72118 7.01726 6.87082
#
# Compressibility (1/GPa) = 0.02057416
#
# Stress axis : x y z
#
# Youngs Moduli (GPa) = 101.16522 48.48942 75.16377
#
# Poissons Ratio (x) = 0.20217 0.20237
# Poissons Ratio (y) = 0.42180 0.35756
# Poissons Ratio (z) = 0.27238 0.23067
#
# Static dielectric constant tensor:
#      x y z
#    x 3.990800 0.000000 -0.157540 
#    y 0.000000 3.620350 0.000000 
#    z -0.157540 0.000000 3.618780 
# 
# 
# High freq. dielectric constant tensor:
#      x y z
#    x 1.754730 0.000000 -0.012750 
#    y 0.000000 1.771640 0.000000 
#    z -0.012750 0.000000 1.760830 
# 
# From -- ./inp_files/41701.got.cif
#   From: 2010.06.25/outbox.cif.g09.slc.cpg/sg11_21_cif.got.tgz:41701.got - 2010.06.27 23:14:04.
