data_PCOD8075973
_publ_section_title
;
Structure prediction by ZEFSAII (Michael W. Deem and Ramdas Pophale) SiO2 
 PCOD8075973
Probable space group: P 21/M
;
_chemical_formula_sum "Si O2"
_cell_formula_units_Z 32
_cell_length_a 21.747617
_cell_length_b 8.827008
_cell_length_c 29.697535
_cell_angle_alpha 90.000000
_cell_angle_beta 18.626875
_cell_angle_gamma 90.000000
_cell_volume 1820.898428
_symmetry_space_group_name_H-M "P 21/M"
_symmetry_group_IT_number 11
_symmetry_cell_setting 'monoclinic'
loop_
_space_group_symop_operation_xyz
x,y,z
-x,1/2+y,-z
-x,-y,-z
x,1/2-y,z
loop_
_atom_site_type_symbol
_atom_site_label
_atom_site_fract_x
_atom_site_fract_y
_atom_site_fract_z
Si Si1 0.514041 0.923771 0.051814
Si Si2 0.657960 0.428858 0.358471
Si Si3 0.514442 0.924100 0.369921
Si Si4 0.912153 0.426852 0.349236
Si Si5 0.063639 0.571665 0.081861
Si Si6 0.211762 0.076155 0.063725
Si Si7 0.848754 0.575802 0.071665
Si Si8 0.191244 0.577953 0.215764
O O1 0.566857 0.750000 0.000841
O O2 0.285233 0.952846 0.200505
O O3 0.575824 0.944899 0.061176
O O4 0.637115 0.041898 0.937764
O O5 0.500000 0.500000 0.500000
O O6 0.655112 0.250000 0.365796
O O7 0.622311 0.475046 0.331861
O O8 0.862934 0.490821 0.231999
O O9 0.505538 0.750000 0.393201
O O10 0.301824 0.993387 0.509456
O O11 0.634734 0.935225 0.240471
O O12 0.893063 0.250000 0.366890
O O13 0.048414 0.474332 0.213134
O O14 0.001400 0.482599 0.334980
O O15 0.032366 0.750000 0.099682
O O16 0.204977 0.531345 0.025039
O O17 0.156866 0.511621 0.971387
O O18 0.178073 0.250000 0.072464
O O19 0.909996 0.750000 0.021333
O O20 0.000000 0.500000 0.000000
O O21 0.127207 0.750000 0.254936
#
# Coordination Sequence:
#
# PCOD8075973 Si02
#       8
#     4   4   4   4   4   4   4   4
#     4   8  15  27  43  65  97 135 168 201 243 292
#     4  12  24  37  55  76 102 133 167 205 252 306
#     4  10  21  37  56  76 100 131 171 211 253 303
#     4   9  18  32  49  72 104 137 164 201 251 303
#     4  12  24  37  53  75 103 133 170 212 258 306
#     4   9  17  31  50  72 102 137 170 205 251 301
#     4  11  22  38  59  78  98 129 171 218 261 303
#     4   9  15  24  42  69  99 132 168 201 238 292
#
# _framework density 17.573741999999999
#
# number of rings (size 3 to 8) (size 9 to 14) (size 15 to 20)
#    0.000    2.000    1.250    4.500    0.000    4.500 
#    0.000    0.000    0.000    0.000    0.000    0.875 
#    0.000    0.000    0.000    0.000    0.000    0.000 
#
# Total GULP energy -396661.600140 kJ/mol
# GULP energy per Si atom -12395.675004 kJ/mol
# Density = 1.753374 g / cm^3
# Si number density = 17.573742 Si / 1000 Ang^3
#
#
#
# Elastic Constant Matrix: (Units=GPa)
#
#
# Indices 1 2 3 4 5 6 
#
# 1 127.9146 43.9191 33.2645 0.0000 -10.8091 0.0000
# 2 43.9191 89.3637 21.0388 0.0000 4.6146 0.0000
# 3 33.2645 21.0388 34.8957 0.0000 7.1318 0.0000
# 4 0.0000 0.0000 0.0000 20.7698 0.0000 -1.8691
# 5 -10.8091 4.6146 7.1318 0.0000 23.5810 0.0000
# 6 0.0000 0.0000 0.0000 -1.8691 0.0000 32.0685
#
#
#
# Elastic Compliance Matrix: (Units=1/GPa)
#
#
# Indices 1 2 3 4 5 6 
#
# 1 0.013403 -0.004215 -0.012428 0.000000 0.010727 0.000000
# 2 -0.004215 0.014368 -0.003917 0.000000 -0.003559 0.000000
# 3 -0.012428 -0.003917 0.046763 0.000000 -0.019073 0.000000
# 4 0.000000 0.000000 0.000000 0.048401 0.000000 0.002821
# 5 0.010727 -0.003559 -0.019073 0.000000 0.053789 0.000000
# 6 0.000000 0.000000 0.000000 0.002821 0.000000 0.031348
#
#
# Mechanical properties :
#
#
# Convention : Reuss Voigt Hill
#
# Bulk Modulus (GPa) = 29.92694 49.84652 39.88673
# Shear Modulus (GPa) = 19.20639 25.54731 22.37685
#
# Velocity S-wave (km/s) = 3.30949 3.81691 3.57222
# Velocity P-wave (km/s) = 5.62761 6.91743 6.30558
#
# Compressibility (1/GPa) = 0.03341471
#
# Stress axis : x y z
#
# Youngs Moduli (GPa) = 74.60777 69.59988 21.38434
#
# Poissons Ratio (x) = 0.29339 0.26576
# Poissons Ratio (y) = 0.31450 0.08376
# Poissons Ratio (z) = 0.92721 0.27260
#
# Static dielectric constant tensor:
#      x y z
#    x 3.573320 0.000000 -0.269460 
#    y 0.000000 3.338060 0.000000 
#    z -0.269460 0.000000 3.172820 
# 
# 
# High freq. dielectric constant tensor:
#      x y z
#    x 1.686570 0.000000 -0.023250 
#    y 0.000000 1.684800 0.000000 
#    z -0.023250 0.000000 1.638230 
# 
# From -- ./inp_files/40656.got.cif
#   From: 2010.06.25/outbox.cif.g09.slc.cpg/sg11_21_cif.got.tgz:40656.got - 2010.06.27 23:14:04.
