data_PCOD8075074
_publ_section_title
;
Structure prediction by ZEFSAII (Michael W. Deem and Ramdas Pophale) SiO2 
 PCOD8075074
Probable space group: P 21/M
;
_chemical_formula_sum "Si O2"
_cell_formula_units_Z 24
_cell_length_a 11.645465
_cell_length_b 13.219154
_cell_length_c 7.931620
_cell_angle_alpha 90.000000
_cell_angle_beta 97.861042
_cell_angle_gamma 90.000000
_cell_volume 1209.544632
_symmetry_space_group_name_H-M "P 21/M"
_symmetry_group_IT_number 11
_symmetry_cell_setting 'monoclinic'
loop_
_space_group_symop_operation_xyz
x,y,z
-x,1/2+y,-z
-x,-y,-z
x,1/2-y,z
loop_
_atom_site_type_symbol
_atom_site_label
_atom_site_fract_x
_atom_site_fract_y
_atom_site_fract_z
Si Si1 0.358106 0.637367 0.176065
Si Si2 0.154604 0.003075 0.204343
Si Si3 0.793985 0.635907 0.468896
Si Si4 0.728294 0.363207 0.214909
Si Si5 0.892320 0.964965 0.171059
Si Si6 0.430624 0.027407 0.649058
O O1 0.373401 0.750000 0.258892
O O2 0.255586 0.579307 0.255965
O O3 0.477659 0.573830 0.200796
O O4 0.324217 0.649473 0.977911
O O5 0.153693 0.076880 0.362196
O O6 0.170846 0.056887 0.023133
O O7 0.029005 0.951391 0.174242
O O8 0.813137 0.750000 0.523493
O O9 0.857293 0.615726 0.304374
O O10 0.658996 0.614729 0.416436
O O11 0.748247 0.250000 0.296060
O O12 0.850833 0.423674 0.229148
O O13 0.635333 0.426923 0.302933
O O14 0.500000 0.000000 0.500000
#
# Coordination Sequence:
#
# PCOD8075074 Si02
#       6
#     4   4   4   4   4   4
#     4  10  20  37  59  84 114 150 195 238 287 346
#     4  10  20  40  61  87 116 157 192 240 289 344
#     4  11  23  38  57  86 119 153 195 238 290 345
#     4   9  20  37  60  85 110 150 194 237 290 349
#     4   9  21  39  62  85 121 150 194 242 291 340
#     4  11  21  38  56  81 117 149 190 239 288 342
#
# _framework density 19.842179999999999
#
# number of rings (size 3 to 8) (size 9 to 14) (size 15 to 20)
#    0.000    2.000    1.667    1.500    0.000    3.333 
#    0.000    3.333    0.000    0.000    0.000    0.000 
#    0.000    0.000    0.000    0.000    0.000    0.000 
#
# Total GULP energy -297466.884489 kJ/mol
# GULP energy per Si atom -12394.453520 kJ/mol
# Density = 1.979702 g / cm^3
# Si number density = 19.842180 Si / 1000 Ang^3
#
#
#
# Elastic Constant Matrix: (Units=GPa)
#
#
# Indices 1 2 3 4 5 6 
#
# 1 87.1958 5.1934 20.7639 0.0000 -1.3838 0.0000
# 2 5.1934 67.6493 27.3946 0.0000 -2.1778 0.0000
# 3 20.7639 27.3946 67.3469 0.0000 -18.5627 0.0000
# 4 0.0000 0.0000 0.0000 17.8436 0.0000 3.8161
# 5 -1.3838 -2.1778 -18.5627 0.0000 33.3194 0.0000
# 6 0.0000 0.0000 0.0000 3.8161 0.0000 14.3641
#
#
#
# Elastic Compliance Matrix: (Units=1/GPa)
#
#
# Indices 1 2 3 4 5 6 
#
# 1 0.012527 0.000921 -0.004817 0.000000 -0.002103 0.000000
# 2 0.000921 0.018091 -0.008632 0.000000 -0.003588 0.000000
# 3 -0.004817 -0.008632 0.023196 0.000000 0.012159 0.000000
# 4 0.000000 0.000000 0.000000 0.059418 0.000000 -0.015786
# 5 -0.002103 -0.003588 0.012159 0.000000 0.036464 0.000000
# 6 0.000000 0.000000 0.000000 -0.015786 0.000000 0.073812
#
#
# Mechanical properties :
#
#
# Convention : Reuss Voigt Hill
#
# Bulk Modulus (GPa) = 34.77108 36.54396 35.65752
# Shear Modulus (GPa) = 19.36850 24.36141 21.86496
#
# Velocity S-wave (km/s) = 3.12769 3.50774 3.32315
# Velocity P-wave (km/s) = 5.53219 5.90449 5.72137
#
# Compressibility (1/GPa) = 0.02875954
#
# Stress axis : x y z
#
# Youngs Moduli (GPa) = 79.82642 55.27474 43.11081
#
# Poissons Ratio (x) = -0.05091 0.20765
# Poissons Ratio (y) = -0.07353 0.37214
# Poissons Ratio (z) = 0.38449 0.47714
#
# Static dielectric constant tensor:
#      x y z
#    x 3.844670 0.000000 0.070040 
#    y 0.000000 4.083470 0.000000 
#    z 0.070040 0.000000 3.666780 
# 
# 
# High freq. dielectric constant tensor:
#      x y z
#    x 1.780730 0.000000 -0.001840 
#    y 0.000000 1.757760 0.000000 
#    z -0.001840 0.000000 1.782220 
# 
# From -- ./inp_files/16910.got.cif
#   From: 2010.06.25/outbox.cif.g09.slc.cpg/sg11_9_cif.got.tgz:16910.got - 2010.06.27 23:14:04.
