data_PCOD8075347
_publ_section_title
;
Structure prediction by ZEFSAII (Michael W. Deem and Ramdas Pophale) SiO2 
 PCOD8075347
Probable space group: P 21/M
;
_chemical_formula_sum "Si O2"
_cell_formula_units_Z 32
_cell_length_a 11.885274
_cell_length_b 8.956298
_cell_length_c 14.983779
_cell_angle_alpha 90.000000
_cell_angle_beta 86.344124
_cell_angle_gamma 90.000000
_cell_volume 1591.748360
_symmetry_space_group_name_H-M "P 21/M"
_symmetry_group_IT_number 11
_symmetry_cell_setting 'monoclinic'
loop_
_space_group_symop_operation_xyz
x,y,z
-x,1/2+y,-z
-x,-y,-z
x,1/2-y,z
loop_
_atom_site_type_symbol
_atom_site_label
_atom_site_fract_x
_atom_site_fract_y
_atom_site_fract_z
Si Si1 0.622003 0.572470 0.504206
Si Si2 0.582868 0.575843 0.832659
Si Si3 0.311038 0.579466 0.013375
Si Si4 0.355180 0.073249 0.828151
Si Si5 0.056967 0.918709 0.079395
Si Si6 0.755939 0.576963 0.671695
Si Si7 0.023552 0.572525 0.279679
Si Si8 0.221242 0.073854 0.662023
O O1 0.500000 0.500000 0.500000
O O2 0.607121 0.750000 0.499591
O O3 0.677588 0.521772 0.594554
O O4 0.705200 0.508762 0.423154
O O5 0.553655 0.750000 0.838949
O O6 0.478222 0.487267 0.796384
O O7 0.691111 0.544012 0.766655
O O8 0.601946 0.513549 0.930915
O O9 0.353423 0.750000 0.003034
O O10 0.304880 0.504956 0.917521
O O11 0.190512 0.571416 0.065423
O O12 0.358561 0.250000 0.841810
O O13 0.274109 0.023211 0.752619
O O14 0.012819 0.750000 0.077197
O O15 0.024048 0.988803 0.177327
O O16 0.000000 0.000000 0.000000
O O17 0.784431 0.750000 0.658382
O O18 0.873737 0.490263 0.667241
O O19 0.034605 0.750000 0.276641
O O20 0.908425 0.518150 0.333517
O O21 0.223159 0.250000 0.653811
#
# Coordination Sequence:
#
# PCOD8075347 Si02
#       8
#     4   4   4   4   4   4   4   4
#     4  10  21  40  63  90 120 152 192 238 290 349
#     4  11  22  37  56  81 115 153 192 239 291 345
#     4  11  22  37  55  81 113 150 194 239 288 345
#     4  11  22  37  58  83 113 151 193 240 292 348
#     4  10  21  35  55  81 112 151 196 242 284 338
#     4  10  22  38  59  87 120 154 191 242 296 341
#     4  10  20  38  60  84 115 153 197 238 282 348
#     4   9  20  38  61  86 116 152 190 235 289 344
#
# _framework density 20.103681000000002
#
# number of rings (size 3 to 8) (size 9 to 14) (size 15 to 20)
#    0.000    1.750    1.250    3.000    0.000    4.000 
#    0.000    2.500    0.000    0.000    0.000    0.000 
#    0.000    0.000    0.000    0.000    0.000    0.000 
#
# Total GULP energy -396865.531625 kJ/mol
# GULP energy per Si atom -12402.047863 kJ/mol
# Density = 2.005792 g / cm^3
# Si number density = 20.103681 Si / 1000 Ang^3
#
#
#
# Elastic Constant Matrix: (Units=GPa)
#
#
# Indices 1 2 3 4 5 6 
#
# 1 131.6454 31.1968 59.0002 0.0000 5.5503 0.0000
# 2 31.1968 55.1142 40.0438 0.0000 5.4144 0.0000
# 3 59.0002 40.0438 125.7078 0.0000 3.4974 0.0000
# 4 0.0000 0.0000 0.0000 21.2332 0.0000 2.4400
# 5 5.5503 5.4144 3.4974 0.0000 36.9027 0.0000
# 6 0.0000 0.0000 0.0000 2.4400 0.0000 35.0300
#
#
#
# Elastic Compliance Matrix: (Units=1/GPa)
#
#
# Indices 1 2 3 4 5 6 
#
# 1 0.009987 -0.002850 -0.003759 0.000000 -0.000728 0.000000
# 2 -0.002850 0.024705 -0.006460 0.000000 -0.002584 0.000000
# 3 -0.003759 -0.006460 0.011766 0.000000 0.000398 0.000000
# 4 0.000000 0.000000 0.000000 0.047476 0.000000 -0.003307
# 5 -0.000728 -0.002584 0.000398 0.000000 0.027549 0.000000
# 6 0.000000 0.000000 0.000000 -0.003307 0.000000 0.028777
#
#
# Mechanical properties :
#
#
# Convention : Reuss Voigt Hill
#
# Bulk Modulus (GPa) = 49.21492 63.66102 56.43797
# Shear Modulus (GPa) = 27.29666 30.78162 29.03914
#
# Velocity S-wave (km/s) = 3.68882 3.91723 3.80474
# Velocity P-wave (km/s) = 6.53276 7.22459 6.88736
#
# Compressibility (1/GPa) = 0.02031904
#
# Stress axis : x y z
#
# Youngs Moduli (GPa) = 100.12954 40.47772 84.99043
#
# Poissons Ratio (x) = 0.11538 0.31949
# Poissons Ratio (y) = 0.28540 0.54904
# Poissons Ratio (z) = 0.37640 0.26149
#
# Static dielectric constant tensor:
#      x y z
#    x 3.787780 0.000000 -0.095610 
#    y 0.000000 3.510710 0.000000 
#    z -0.095610 0.000000 3.778990 
# 
# 
# High freq. dielectric constant tensor:
#      x y z
#    x 1.798860 0.000000 -0.002560 
#    y 0.000000 1.766570 0.000000 
#    z -0.002560 0.000000 1.791040 
# 
# From -- ./inp_files/49375.got.cif
#   From: 2010.06.25/outbox.cif.g09.slc.cpg/sg11_25_cif.got.tgz:49375.got - 2010.06.27 23:14:04.
