data_PCOD8075163
_publ_section_title
;
Structure prediction by ZEFSAII (Michael W. Deem and Ramdas Pophale) SiO2 
 PCOD8075163
Probable space group: P 21/M
;
_chemical_formula_sum "Si O2"
_cell_formula_units_Z 32
_cell_length_a 9.942158
_cell_length_b 13.714988
_cell_length_c 10.980077
_cell_angle_alpha 90.000000
_cell_angle_beta 85.613672
_cell_angle_gamma 90.000000
_cell_volume 1492.820453
_symmetry_space_group_name_H-M "P 21/M"
_symmetry_group_IT_number 11
_symmetry_cell_setting 'monoclinic'
loop_
_space_group_symop_operation_xyz
x,y,z
-x,1/2+y,-z
-x,-y,-z
x,1/2-y,z
loop_
_atom_site_type_symbol
_atom_site_label
_atom_site_fract_x
_atom_site_fract_y
_atom_site_fract_z
Si Si1 0.249138 0.483074 0.148419
Si Si2 0.556383 0.136626 0.763033
Si Si3 0.968282 0.861171 0.445978
Si Si4 0.839493 0.136405 0.350159
Si Si5 0.707660 0.637271 0.614551
Si Si6 0.559534 0.135858 0.488482
Si Si7 0.955601 0.529122 0.201081
Si Si8 0.719810 0.863288 0.085839
O O1 0.341259 0.578440 0.157422
O O2 0.243041 0.419463 0.270737
O O3 0.096468 0.512611 0.120572
O O4 0.313191 0.419681 0.036114
O O5 0.595084 0.250000 0.772484
O O6 0.575413 0.096131 0.624521
O O7 0.402029 0.118005 0.812207
O O8 0.002964 0.750000 0.411258
O O9 0.814855 0.872930 0.498998
O O10 0.996681 0.924128 0.326253
O O11 0.068016 0.897850 0.544295
O O12 0.861025 0.250000 0.317431
O O13 0.687084 0.111471 0.396521
O O14 0.879590 0.074149 0.228574
O O15 0.688925 0.750000 0.653770
O O16 0.570160 0.590131 0.570380
O O17 0.534223 0.250000 0.502650
O O18 0.859703 0.600835 0.133634
O O19 0.735594 0.750000 0.054011
#
# Coordination Sequence:
#
# PCOD8075163 Si02
#       8
#     4   4   4   4   4   4   4   4
#     4  12  25  41  66  93 125 164 215 261 313 364
#     4  10  23  44  67  93 127 162 209 262 313 372
#     4  10  20  37  60  90 128 166 203 253 314 377
#     4  10  21  36  57  92 136 166 196 251 319 377
#     4  10  21  37  60  92 128 168 210 253 309 373
#     4   9  19  36  59  91 126 163 202 248 307 370
#     4  12  24  39  64  95 126 164 215 255 308 379
#     4  11  26  48  67  87 120 167 216 266 314 365
#
# _framework density 21.435934
#
# number of rings (size 3 to 8) (size 9 to 14) (size 15 to 20)
#    0.000    1.500    1.250    3.375    3.500    5.000 
#    0.000    0.625    0.000    0.000    0.000    0.000 
#    0.000    0.000    0.000    0.000    0.000    0.000 
#
# Total GULP energy -396976.477673 kJ/mol
# GULP energy per Si atom -12405.514927 kJ/mol
# Density = 2.138714 g / cm^3
# Si number density = 21.435934 Si / 1000 Ang^3
#
#
#
# Elastic Constant Matrix: (Units=GPa)
#
#
# Indices 1 2 3 4 5 6 
#
# 1 117.8846 25.0730 5.1475 0.0000 7.0497 0.0000
# 2 25.0730 78.3997 27.0867 0.0000 3.1099 0.0000
# 3 5.1475 27.0867 32.4210 0.0000 -2.7055 0.0000
# 4 0.0000 0.0000 0.0000 31.0053 0.0000 4.7699
# 5 7.0497 3.1099 -2.7055 0.0000 24.5270 0.0000
# 6 0.0000 0.0000 0.0000 4.7699 0.0000 34.1712
#
#
#
# Elastic Compliance Matrix: (Units=1/GPa)
#
#
# Indices 1 2 3 4 5 6 
#
# 1 0.009253 -0.003241 0.001061 0.000000 -0.002132 0.000000
# 2 -0.003241 0.019456 -0.016016 0.000000 -0.003302 0.000000
# 3 0.001061 -0.016016 0.044611 0.000000 0.006647 0.000000
# 4 0.000000 0.000000 0.000000 0.032960 0.000000 -0.004601
# 5 -0.002132 -0.003302 0.006647 0.000000 0.042536 0.000000
# 6 0.000000 0.000000 0.000000 -0.004601 0.000000 0.029907
#
#
# Mechanical properties :
#
#
# Convention : Reuss Voigt Hill
#
# Bulk Modulus (GPa) = 27.07954 38.14662 32.61308
# Shear Modulus (GPa) = 21.98519 29.36722 25.67620
#
# Velocity S-wave (km/s) = 3.20601 3.70537 3.46470
# Velocity P-wave (km/s) = 5.13467 6.01170 5.59041
#
# Compressibility (1/GPa) = 0.03692825
#
# Stress axis : x y z
#
# Youngs Moduli (GPa) = 108.06804 51.39761 22.41588
#
# Poissons Ratio (x) = 0.16660 -0.02378
# Poissons Ratio (y) = 0.35029 0.35901
# Poissons Ratio (z) = -0.11466 0.82318
#
# Static dielectric constant tensor:
#      x y z
#    x 3.936260 0.000000 -0.040940 
#    y 0.000000 3.978070 0.000000 
#    z -0.040940 0.000000 3.665180 
# 
# 
# High freq. dielectric constant tensor:
#      x y z
#    x 1.851640 0.000000 -0.002010 
#    y 0.000000 1.856990 0.000000 
#    z -0.002010 0.000000 1.820420 
# 
# From -- ./inp_files/31897.got.cif
#   From: 2010.06.25/outbox.cif.g09.slc.cpg/sg11_16_cif.got.tgz:31897.got - 2010.06.27 23:14:04.
