data_PCOD8075250
_publ_section_title
;
Structure prediction by ZEFSAII (Michael W. Deem and Ramdas Pophale) SiO2 
 PCOD8075250
Probable space group: P 21/M
;
_chemical_formula_sum "Si O2"
_cell_formula_units_Z 24
_cell_length_a 11.659525
_cell_length_b 8.979354
_cell_length_c 23.767603
_cell_angle_alpha 90.000000
_cell_angle_beta 151.324845
_cell_angle_gamma 90.000000
_cell_volume 1194.017215
_symmetry_space_group_name_H-M "P 21/M"
_symmetry_group_IT_number 11
_symmetry_cell_setting 'monoclinic'
loop_
_space_group_symop_operation_xyz
x,y,z
-x,1/2+y,-z
-x,-y,-z
x,1/2-y,z
loop_
_atom_site_type_symbol
_atom_site_label
_atom_site_fract_x
_atom_site_fract_y
_atom_site_fract_z
Si Si1 0.497633 0.426434 0.724648
Si Si2 0.840522 0.080863 0.503329
Si Si3 0.433599 0.423558 0.029480
Si Si4 0.581377 0.583976 0.589675
Si Si5 0.314310 0.573290 0.748882
Si Si6 0.105464 0.923844 0.192127
O O1 0.476311 0.250000 0.721276
O O2 0.253244 0.488835 0.591030
O O3 0.512555 0.503238 0.792190
O O4 0.734422 0.474558 0.792309
O O5 0.910415 0.250000 0.515807
O O6 0.631720 0.083692 0.458332
O O7 0.059548 0.998123 0.626610
O O8 0.446683 0.250000 0.023250
O O9 0.614625 0.470662 0.156878
O O10 0.500000 0.500000 0.000000
O O11 0.168348 0.468126 0.936344
O O12 0.500000 0.500000 0.500000
O O13 0.657836 0.750000 0.605552
O O14 0.811654 0.505232 0.715507
O O15 0.307568 0.750000 0.737851
O O16 0.141662 0.750000 0.218135
#
# Coordination Sequence:
#
# PCOD8075250 Si02
#       6
#     4   4   4   4   4   4
#     4  10  20  37  62  89 117 151 191 239 294 349
#     4  10  21  37  57  85 119 154 192 237 288 346
#     4  10  24  43  61  84 116 155 197 243 290 341
#     4  10  21  35  56  85 115 151 193 238 290 345
#     4  11  23  38  58  86 120 156 193 238 290 346
#     4   9  20  40  61  83 115 151 192 243 291 339
#
# _framework density 20.100214000000001
#
# number of rings (size 3 to 8) (size 9 to 14) (size 15 to 20)
#    0.000    2.000    0.000    2.500    2.333    5.333 
#    0.000    0.000    0.000    0.000    0.000    0.000 
#    0.000    0.000    0.000    0.000    0.000    0.000 
#
# Total GULP energy -297642.333730 kJ/mol
# GULP energy per Si atom -12401.763905 kJ/mol
# Density = 2.005446 g / cm^3
# Si number density = 20.100214 Si / 1000 Ang^3
#
#
#
# Elastic Constant Matrix: (Units=GPa)
#
#
# Indices 1 2 3 4 5 6 
#
# 1 81.5622 42.4221 57.7267 0.0000 -16.2755 0.0000
# 2 42.4221 101.0142 52.9417 0.0000 -10.7356 0.0000
# 3 57.7267 52.9417 119.2425 0.0000 -5.1027 0.0000
# 4 0.0000 0.0000 0.0000 30.3321 0.0000 -3.0519
# 5 -16.2755 -10.7356 -5.1027 0.0000 34.4248 0.0000
# 6 0.0000 0.0000 0.0000 -3.0519 0.0000 37.0918
#
#
#
# Elastic Compliance Matrix: (Units=1/GPa)
#
#
# Indices 1 2 3 4 5 6 
#
# 1 0.021895 -0.003883 -0.008539 0.000000 0.007875 0.000000
# 2 -0.003883 0.013949 -0.004233 0.000000 0.001887 0.000000
# 3 -0.008539 -0.004233 0.014260 0.000000 -0.003243 0.000000
# 4 0.000000 0.000000 0.000000 0.033244 0.000000 0.002735
# 5 0.007875 0.001887 -0.003243 0.000000 0.032880 0.000000
# 6 0.000000 0.000000 0.000000 0.002735 0.000000 0.027185
#
#
# Mechanical properties :
#
#
# Convention : Reuss Voigt Hill
#
# Bulk Modulus (GPa) = 59.53814 67.55553 63.54684
# Shear Modulus (GPa) = 27.42427 30.28497 28.85462
#
# Velocity S-wave (km/s) = 3.69775 3.88583 3.79296
# Velocity P-wave (km/s) = 6.92215 7.33589 7.13202
#
# Compressibility (1/GPa) = 0.01679596
#
# Stress axis : x y z
#
# Youngs Moduli (GPa) = 45.67261 71.68871 70.12440
#
# Poissons Ratio (x) = 0.27837 0.59877
# Poissons Ratio (y) = 0.17735 0.29681
# Poissons Ratio (z) = 0.38998 0.30343
#
# Static dielectric constant tensor:
#      x y z
#    x 3.841040 0.000000 0.184850 
#    y 0.000000 4.350840 0.000000 
#    z 0.184850 0.000000 3.455080 
# 
# 
# High freq. dielectric constant tensor:
#      x y z
#    x 1.793640 0.000000 0.000760 
#    y 0.000000 1.791610 0.000000 
#    z 0.000760 0.000000 1.781360 
# 
# From -- ./inp_files/43887.got.cif
#   From: 2010.06.25/outbox.cif.g09.slc.cpg/sg11_22_cif.got.tgz:43887.got - 2010.06.27 23:14:04.
