data_PCOD8075950
_publ_section_title
;
Structure prediction by ZEFSAII (Michael W. Deem and Ramdas Pophale) SiO2 
 PCOD8075950
Probable space group: P 21/M
;
_chemical_formula_sum "Si O2"
_cell_formula_units_Z 24
_cell_length_a 29.701045
_cell_length_b 9.297747
_cell_length_c 14.870167
_cell_angle_alpha 90.000000
_cell_angle_beta 160.497576
_cell_angle_gamma 90.000000
_cell_volume 1370.921030
_symmetry_space_group_name_H-M "P 21/M"
_symmetry_group_IT_number 11
_symmetry_cell_setting 'monoclinic'
loop_
_space_group_symop_operation_xyz
x,y,z
-x,1/2+y,-z
-x,-y,-z
x,1/2-y,z
loop_
_atom_site_type_symbol
_atom_site_label
_atom_site_fract_x
_atom_site_fract_y
_atom_site_fract_z
Si Si1 0.114484 0.580183 0.661249
Si Si2 0.175752 0.920439 0.581591
Si Si3 0.405152 0.582752 0.752199
Si Si4 0.580926 0.416365 0.727447
Si Si5 0.475251 0.582049 0.176459
Si Si6 0.105281 0.915350 0.256629
O O1 0.093923 0.750000 0.632669
O O2 0.099021 0.530894 0.527784
O O3 0.000000 0.500000 0.500000
O O4 0.262655 0.534373 0.975233
O O5 0.186740 0.750000 0.601831
O O6 0.100062 0.975468 0.349594
O O7 0.329161 0.975933 0.870282
O O8 0.445863 0.750000 0.826737
O O9 0.417037 0.512970 0.675305
O O10 0.252526 0.561866 0.494388
O O11 0.500000 0.500000 0.000000
O O12 0.500000 0.500000 0.500000
O O13 0.574435 0.250000 0.690389
O O14 0.508619 0.444845 0.686803
O O15 0.495691 0.750000 0.191731
O O16 0.062259 0.750000 0.174075
O O17 0.000000 0.000000 0.000000
#
# Coordination Sequence:
#
# PCOD8075950 Si02
#       6
#     4   4   4   4   4   4
#     4   9  18  34  56  78 101 135 177 217 257 307
#     4   8  15  33  56  73  99 138 174 210 256 307
#     4  11  21  34  56  82 107 136 174 220 262 309
#     4   9  19  35  56  79 108 141 172 215 266 314
#     4   9  17  34  57  79 103 137 180 218 257 310
#     4  10  21  37  54  75 106 141 173 213 260 308
#
# _framework density 17.506478999999999
#
# number of rings (size 3 to 8) (size 9 to 14) (size 15 to 20)
#    0.000    2.667    1.667    2.500    0.000    2.667 
#    3.000    3.333    0.000    0.000    0.000    0.000 
#    0.000    0.000    0.000    0.000    0.000    0.000 
#
# Total GULP energy -297505.220481 kJ/mol
# GULP energy per Si atom -12396.050853 kJ/mol
# Density = 1.746663 g / cm^3
# Si number density = 17.506479 Si / 1000 Ang^3
#
#
#
# Elastic Constant Matrix: (Units=GPa)
#
#
# Indices 1 2 3 4 5 6 
#
# 1 153.9409 65.1214 72.6502 0.0000 -10.4707 0.0000
# 2 65.1214 75.0584 55.5014 0.0000 -4.6921 0.0000
# 3 72.6502 55.5014 98.6057 0.0000 -22.7535 0.0000
# 4 0.0000 0.0000 0.0000 33.4887 0.0000 -0.0290
# 5 -10.4707 -4.6921 -22.7535 0.0000 29.4659 0.0000
# 6 0.0000 0.0000 0.0000 -0.0290 0.0000 35.0084
#
#
#
# Elastic Compliance Matrix: (Units=1/GPa)
#
#
# Indices 1 2 3 4 5 6 
#
# 1 0.011511 -0.006195 -0.005205 0.000000 -0.000916 0.000000
# 2 -0.006195 0.027666 -0.012775 0.000000 -0.007661 0.000000
# 3 -0.005205 -0.012775 0.024666 0.000000 0.015163 0.000000
# 4 0.000000 0.000000 0.000000 0.029861 0.000000 0.000025
# 5 -0.000916 -0.007661 0.015163 0.000000 0.044101 0.000000
# 6 0.000000 0.000000 0.000000 0.000025 0.000000 0.028565
#
#
# Mechanical properties :
#
#
# Convention : Reuss Voigt Hill
#
# Bulk Modulus (GPa) = 64.55224 79.35010 71.95117
# Shear Modulus (GPa) = 22.73915 28.54808 25.64362
#
# Velocity S-wave (km/s) = 3.60793 4.04259 3.83143
# Velocity P-wave (km/s) = 7.36951 8.19845 7.79501
#
# Compressibility (1/GPa) = 0.01549133
#
# Stress axis : x y z
#
# Youngs Moduli (GPa) = 86.87287 36.14564 40.54151
#
# Poissons Ratio (x) = 0.22394 0.21102
# Poissons Ratio (y) = 0.53822 0.51793
# Poissons Ratio (z) = 0.45219 0.46177
#
# Static dielectric constant tensor:
#      x y z
#    x 3.600920 0.000000 -0.128040 
#    y 0.000000 2.984860 0.000000 
#    z -0.128040 0.000000 3.031780 
# 
# 
# High freq. dielectric constant tensor:
#      x y z
#    x 1.693270 0.000000 -0.004920 
#    y 0.000000 1.658960 0.000000 
#    z -0.004920 0.000000 1.660490 
# 
# From -- ./inp_files/28944.got.cif
#   From: 2010.06.25/outbox.cif.g09.slc.cpg/sg11_15_cif.got.tgz:28944.got - 2010.06.27 23:14:04.
