data_PCOD8075645
_publ_section_title
;
Structure prediction by ZEFSAII (Michael W. Deem and Ramdas Pophale) SiO2 
 PCOD8075645
Probable space group: P 21/M
;
_chemical_formula_sum "Si O2"
_cell_formula_units_Z 32
_cell_length_a 14.651381
_cell_length_b 13.919236
_cell_length_c 9.586569
_cell_angle_alpha 90.000000
_cell_angle_beta 121.076430
_cell_angle_gamma 90.000000
_cell_volume 1674.457526
_symmetry_space_group_name_H-M "P 21/M"
_symmetry_group_IT_number 11
_symmetry_cell_setting 'monoclinic'
loop_
_space_group_symop_operation_xyz
x,y,z
-x,1/2+y,-z
-x,-y,-z
x,1/2-y,z
loop_
_atom_site_type_symbol
_atom_site_label
_atom_site_fract_x
_atom_site_fract_y
_atom_site_fract_z
Si Si1 0.075535 0.862363 0.029383
Si Si2 0.230111 0.044002 0.561854
Si Si3 0.780577 0.355980 0.121878
Si Si4 0.153367 0.053380 0.206193
Si Si5 0.855883 0.353721 0.478815
Si Si6 0.377940 0.023955 0.920806
Si Si7 0.092611 0.359089 0.670892
Si Si8 0.737951 0.639416 0.961568
O O1 0.087287 0.750000 0.087524
O O2 0.147160 0.885360 0.951414
O O3 0.951518 0.881394 0.897916
O O4 0.119265 0.939587 0.178691
O O5 0.215378 0.087657 0.396376
O O6 0.335385 0.067412 0.737527
O O7 0.127443 0.071834 0.573091
O O8 0.229960 0.929507 0.534892
O O9 0.729380 0.250000 0.058094
O O10 0.861158 0.353318 0.315077
O O11 0.685971 0.430242 0.078442
O O12 0.241949 0.076628 0.159787
O O13 0.820562 0.250000 0.509355
O O14 0.973215 0.381083 0.624659
O O15 0.365173 0.103369 0.032707
O O16 0.500000 0.000000 0.000000
O O17 0.106826 0.250000 0.629097
O O18 0.160092 0.378989 0.861424
O O19 0.721096 0.750000 0.907949
#
# Coordination Sequence:
#
# PCOD8075645 Si02
#       8
#     4   4   4   4   4   4   4   4
#     4  10  21  34  53  81 119 157 185 212 261 334
#     4  10  21  33  52  79 108 140 178 232 274 324
#     4   9  17  33  55  80 107 140 181 229 276 326
#     4  11  22  34  54  84 117 154 182 215 268 332
#     4   9  17  28  48  76 107 140 177 220 268 319
#     4  10  21  40  61  82 103 139 189 244 289 330
#     4   9  18  31  50  74 105 143 180 217 263 322
#     4  10  21  37  56  81 113 149 186 225 271 329
#
# _framework density 19.110668
#
# number of rings (size 3 to 8) (size 9 to 14) (size 15 to 20)
#    0.000    2.250    1.250    1.500    3.500    3.000 
#    0.000    0.625    0.000    0.000    0.000    0.000 
#    0.000    0.000    0.000    0.000    0.000    0.000 
#
# Total GULP energy -396525.718879 kJ/mol
# GULP energy per Si atom -12391.428715 kJ/mol
# Density = 1.906717 g / cm^3
# Si number density = 19.110668 Si / 1000 Ang^3
#
#
#
# Elastic Constant Matrix: (Units=GPa)
#
#
# Indices 1 2 3 4 5 6 
#
# 1 81.5759 19.4934 30.6428 0.0000 2.1548 0.0000
# 2 19.4934 84.4644 11.6149 0.0000 -5.8942 0.0000
# 3 30.6428 11.6149 74.9451 0.0000 -13.1298 0.0000
# 4 0.0000 0.0000 0.0000 18.5401 0.0000 -0.7703
# 5 2.1548 -5.8942 -13.1298 0.0000 17.5275 0.0000
# 6 0.0000 0.0000 0.0000 -0.7703 0.0000 20.8714
#
#
#
# Elastic Compliance Matrix: (Units=1/GPa)
#
#
# Indices 1 2 3 4 5 6 
#
# 1 0.016146 -0.003291 -0.007635 0.000000 -0.008811 0.000000
# 2 -0.003291 0.012913 0.000203 0.000000 0.004899 0.000000
# 3 -0.007635 0.000203 0.019119 0.000000 0.015329 0.000000
# 4 0.000000 0.000000 0.000000 0.054020 0.000000 0.001994
# 5 -0.008811 0.004899 0.015329 0.000000 0.071267 0.000000
# 6 0.000000 0.000000 0.000000 0.001994 0.000000 0.047986
#
#
# Mechanical properties :
#
#
# Convention : Reuss Voigt Hill
#
# Bulk Modulus (GPa) = 37.41066 40.49864 38.95465
# Shear Modulus (GPa) = 19.85645 23.33676 21.59661
#
# Velocity S-wave (km/s) = 3.22689 3.49827 3.36531
# Velocity P-wave (km/s) = 5.78809 6.12820 5.96057
#
# Compressibility (1/GPa) = 0.02673035
#
# Stress axis : x y z
#
# Youngs Moduli (GPa) = 61.93582 77.44215 52.30415
#
# Poissons Ratio (x) = 0.25488 0.39935
# Poissons Ratio (y) = 0.20384 -0.01060
# Poissons Ratio (z) = 0.47289 -0.01570
#
# Static dielectric constant tensor:
#      x y z
#    x 3.135990 0.000000 -0.190470 
#    y 0.000000 3.819820 0.000000 
#    z -0.190470 0.000000 3.470310 
# 
# 
# High freq. dielectric constant tensor:
#      x y z
#    x 1.700340 0.000000 -0.024000 
#    y 0.000000 1.759600 0.000000 
#    z -0.024000 0.000000 1.730310 
# 
# From -- ./inp_files/18085.got.cif
#   From: 2010.06.25/outbox.cif.g09.slc.cpg/sg11_10_cif.got.tgz:18085.got - 2010.06.27 23:14:04.
