data_PCOD8075427
_publ_section_title
;
Structure prediction by ZEFSAII (Michael W. Deem and Ramdas Pophale) SiO2 
 PCOD8075427
Probable space group: P 21/M
;
_chemical_formula_sum "Si O2"
_cell_formula_units_Z 28
_cell_length_a 17.222735
_cell_length_b 14.070775
_cell_length_c 6.757126
_cell_angle_alpha 90.000000
_cell_angle_beta 124.933685
_cell_angle_gamma 90.000000
_cell_volume 1342.450271
_symmetry_space_group_name_H-M "P 21/M"
_symmetry_group_IT_number 11
_symmetry_cell_setting 'monoclinic'
loop_
_space_group_symop_operation_xyz
x,y,z
-x,1/2+y,-z
-x,-y,-z
x,1/2-y,z
loop_
_atom_site_type_symbol
_atom_site_label
_atom_site_fract_x
_atom_site_fract_y
_atom_site_fract_z
Si Si1 0.078797 0.861646 0.631357
Si Si2 0.752474 0.540930 0.602537
Si Si3 0.579252 0.145855 0.775334
Si Si4 0.236380 0.853429 0.172276
Si Si5 0.944537 0.975183 0.720302
Si Si6 0.600483 0.978099 0.056393
Si Si7 0.382094 0.138104 0.303258
O O1 0.060425 0.750000 0.551584
O O2 0.999338 0.898682 0.667747
O O3 0.076415 0.927311 0.431857
O O4 0.180562 0.874480 0.886384
O O5 0.782507 0.432337 0.691051
O O6 0.848781 0.581095 0.647610
O O7 0.670528 0.554471 0.326490
O O8 0.713758 0.592033 0.745042
O O9 0.568170 0.250000 0.855319
O O10 0.650117 0.148568 0.693287
O O11 0.476147 0.106778 0.561036
O O12 0.631354 0.077434 0.005504
O O13 0.203943 0.750000 0.207113
O O14 0.000000 0.000000 0.000000
O O15 0.601549 0.894808 0.896382
O O16 0.500000 0.000000 0.000000
O O17 0.369147 0.250000 0.286634
#
# Coordination Sequence:
#
# PCOD8075427 Si02
#       7
#     4   4   4   4   4   4   4
#     4  10  23  44  68  97 132 166 210 272 329 382
#     4  12  24  40  68  94 129 168 214 260 321 385
#     4  10  20  38  62  90 125 166 211 259 316 376
#     4  10  20  38  66  95 125 162 207 263 325 379
#     4  11  24  42  68  98 127 169 217 265 320 386
#     4  12  23  38  66  93 126 169 213 259 317 375
#     4  11  25  43  61  89 133 174 215 265 311 375
#
# _framework density 20.857385000000001
#
# number of rings (size 3 to 8) (size 9 to 14) (size 15 to 20)
#    0.000    1.143    4.286    2.143    0.000    3.429 
#    0.000    1.429    0.000    0.000    0.000    0.000 
#    0.000    0.000    0.000    0.000    0.000    0.000 
#
# Total GULP energy -347047.777574 kJ/mol
# GULP energy per Si atom -12394.563485 kJ/mol
# Density = 2.080991 g / cm^3
# Si number density = 20.857385 Si / 1000 Ang^3
#
#
#
# Elastic Constant Matrix: (Units=GPa)
#
#
# Indices 1 2 3 4 5 6 
#
# 1 143.7280 29.8590 38.8044 0.0000 5.3727 0.0000
# 2 29.8590 101.5530 26.3044 0.0000 -4.0866 0.0000
# 3 38.8044 26.3044 79.1533 0.0000 0.4968 0.0000
# 4 0.0000 0.0000 0.0000 25.1307 0.0000 3.1777
# 5 5.3727 -4.0866 0.4968 0.0000 31.9184 0.0000
# 6 0.0000 0.0000 0.0000 3.1777 0.0000 21.0319
#
#
#
# Elastic Compliance Matrix: (Units=1/GPa)
#
#
# Indices 1 2 3 4 5 6 
#
# 1 0.008298 -0.001588 -0.003531 0.000000 -0.001545 0.000000
# 2 -0.001588 0.011144 -0.002936 0.000000 0.001740 0.000000
# 3 -0.003531 -0.002936 0.015341 0.000000 -0.000020 0.000000
# 4 0.000000 0.000000 0.000000 0.040567 0.000000 -0.006129
# 5 -0.001545 0.001740 -0.000020 0.000000 0.031813 0.000000
# 6 0.000000 0.000000 0.000000 -0.006129 0.000000 0.048473
#
#
# Mechanical properties :
#
#
# Convention : Reuss Voigt Hill
#
# Bulk Modulus (GPa) = 53.55010 57.15222 55.35116
# Shear Modulus (GPa) = 28.09455 30.91398 29.50426
#
# Velocity S-wave (km/s) = 3.67411 3.85406 3.76516
# Velocity P-wave (km/s) = 6.61278 6.87502 6.74518
#
# Compressibility (1/GPa) = 0.01867410
#
# Stress axis : x y z
#
# Youngs Moduli (GPa) = 120.50426 89.73129 65.18632
#
# Poissons Ratio (x) = 0.14245 0.23017
# Poissons Ratio (y) = 0.19130 0.19140
# Poissons Ratio (z) = 0.42550 0.26347
#
# Static dielectric constant tensor:
#      x y z
#    x 4.453250 0.000000 -0.201460 
#    y 0.000000 -4.720870 0.000000 
#    z -0.201460 0.000000 3.683240 
# 
# 
# High freq. dielectric constant tensor:
#      x y z
#    x 1.830610 0.000000 0.001830 
#    y 0.000000 1.815430 0.000000 
#    z 0.001830 0.000000 1.806490 
# 
# From -- ./inp_files/8139.got.cif
#   From: 2010.06.25/outbox.cif.g09.slc.cpg/sg11_5_cif.got.tgz:8139.got - 2010.06.27 23:14:04.
