data_PCOD8075248
_publ_section_title
;
Structure prediction by ZEFSAII (Michael W. Deem and Ramdas Pophale) SiO2 
 PCOD8075248
Probable space group: P 21/M
;
_chemical_formula_sum "Si O2"
_cell_formula_units_Z 28
_cell_length_a 15.439695
_cell_length_b 8.805083
_cell_length_c 11.745519
_cell_angle_alpha 90.000000
_cell_angle_beta 116.530027
_cell_angle_gamma 90.000000
_cell_volume 1428.637397
_symmetry_space_group_name_H-M "P 21/M"
_symmetry_group_IT_number 11
_symmetry_cell_setting 'monoclinic'
loop_
_space_group_symop_operation_xyz
x,y,z
-x,1/2+y,-z
-x,-y,-z
x,1/2-y,z
loop_
_atom_site_type_symbol
_atom_site_label
_atom_site_fract_x
_atom_site_fract_y
_atom_site_fract_z
Si Si1 0.872439 0.925488 0.529286
Si Si2 0.591312 0.071346 0.114602
Si Si3 0.697108 0.073638 0.554479
Si Si4 0.322027 0.573454 0.199118
Si Si5 0.933489 0.923423 0.314296
Si Si6 0.454908 0.071232 0.681738
Si Si7 0.752730 0.925316 0.061879
O O1 0.849719 0.750000 0.539528
O O2 0.876486 0.962460 0.397329
O O3 0.788302 0.025166 0.533709
O O4 0.974412 0.968251 0.647488
O O5 0.578023 0.250000 0.110358
O O6 0.600710 0.007295 0.246765
O O7 0.686498 0.030519 0.100910
O O8 0.500000 0.000000 0.000000
O O9 0.675704 0.250000 0.522358
O O10 0.718691 0.040044 0.699344
O O11 0.600142 0.982583 0.463944
O O12 0.313140 0.750000 0.161609
O O13 0.433571 0.520519 0.256494
O O14 0.257198 0.475299 0.074928
O O15 0.970360 0.750000 0.341386
O O16 0.863226 0.950045 0.165926
O O17 0.445344 0.250000 0.689067
O O18 0.721936 0.750000 0.058127
#
# Coordination Sequence:
#
# PCOD8075248 Si02
#       7
#     4   4   4   4   4   4   4
#     4  10  20  37  62  89 116 147 186 237 293 346
#     4  12  23  36  56  84 118 154 192 235 286 340
#     4  11  23  39  59  84 115 154 197 241 291 344
#     4  10  23  40  57  80 116 158 198 242 286 340
#     4   9  20  38  60  88 118 146 183 234 290 349
#     4  11  22  38  59  84 115 153 197 245 291 340
#     4  11  22  37  60  87 118 156 194 237 292 347
#
# _framework density 19.599094999999998
#
# number of rings (size 3 to 8) (size 9 to 14) (size 15 to 20)
#    0.000    1.429    1.429    4.286    0.000    4.571 
#    0.000    0.714    0.000    0.000    0.000    0.000 
#    0.000    0.000    0.000    0.000    0.000    0.000 
#
# Total GULP energy -347359.252155 kJ/mol
# GULP energy per Si atom -12405.687577 kJ/mol
# Density = 1.955449 g / cm^3
# Si number density = 19.599095 Si / 1000 Ang^3
#
#
#
# Elastic Constant Matrix: (Units=GPa)
#
#
# Indices 1 2 3 4 5 6 
#
# 1 54.4833 24.1403 38.8931 0.0000 0.5712 0.0000
# 2 24.1403 92.9341 48.1243 0.0000 0.4994 0.0000
# 3 38.8931 48.1243 124.0159 0.0000 8.5439 0.0000
# 4 0.0000 0.0000 0.0000 36.7211 0.0000 1.2424
# 5 0.5712 0.4994 8.5439 0.0000 24.9267 0.0000
# 6 0.0000 0.0000 0.0000 1.2424 0.0000 30.0777
#
#
#
# Elastic Compliance Matrix: (Units=1/GPa)
#
#
# Indices 1 2 3 4 5 6 
#
# 1 0.024358 -0.002900 -0.006636 0.000000 0.001774 0.000000
# 2 -0.002900 0.013871 -0.004566 0.000000 0.001354 0.000000
# 3 -0.006636 -0.004566 0.012187 0.000000 -0.003934 0.000000
# 4 0.000000 0.000000 0.000000 0.027270 0.000000 -0.001126
# 5 0.001774 0.001354 -0.003934 0.000000 0.041398 0.000000
# 6 0.000000 0.000000 0.000000 -0.001126 0.000000 0.033294
#
#
# Mechanical properties :
#
#
# Convention : Reuss Voigt Hill
#
# Bulk Modulus (GPa) = 45.02192 54.86096 49.94144
# Shear Modulus (GPa) = 26.59757 29.03013 27.81385
#
# Velocity S-wave (km/s) = 3.68786 3.85281 3.77123
# Velocity P-wave (km/s) = 6.41522 6.91697 6.67081
#
# Compressibility (1/GPa) = 0.02221140
#
# Stress axis : x y z
#
# Youngs Moduli (GPa) = 41.05487 72.09276 82.05155
#
# Poissons Ratio (x) = 0.20910 0.54446
# Poissons Ratio (y) = 0.11908 0.37467
# Poissons Ratio (z) = 0.27242 0.32919
#
# Static dielectric constant tensor:
#      x y z
#    x 3.448300 0.000000 0.001540 
#    y 0.000000 3.681570 0.000000 
#    z 0.001540 0.000000 3.732140 
# 
# 
# High freq. dielectric constant tensor:
#      x y z
#    x 1.749570 0.000000 0.002270 
#    y 0.000000 1.772320 0.000000 
#    z 0.002270 0.000000 1.770530 
# 
# From -- ./inp_files/38411.got.cif
#   From: 2010.06.25/outbox.cif.g09.slc.cpg/sg11_20_cif.got.tgz:38411.got - 2010.06.27 23:14:04.
