data_PCOD8075716
_publ_section_title
;
Structure prediction by ZEFSAII (Michael W. Deem and Ramdas Pophale) SiO2 
 PCOD8075716
Probable space group: P 21/M
;
_chemical_formula_sum "Si O2"
_cell_formula_units_Z 32
_cell_length_a 20.672127
_cell_length_b 8.957457
_cell_length_c 25.385650
_cell_angle_alpha 90.000000
_cell_angle_beta 22.134104
_cell_angle_gamma 90.000000
_cell_volume 1771.091749
_symmetry_space_group_name_H-M "P 21/M"
_symmetry_group_IT_number 11
_symmetry_cell_setting 'monoclinic'
loop_
_space_group_symop_operation_xyz
x,y,z
-x,1/2+y,-z
-x,-y,-z
x,1/2-y,z
loop_
_atom_site_type_symbol
_atom_site_label
_atom_site_fract_x
_atom_site_fract_y
_atom_site_fract_z
Si Si1 0.989475 0.425708 0.345135
Si Si2 0.840509 0.424230 0.349810
Si Si3 0.654474 0.423635 0.651309
Si Si4 0.085453 0.926021 0.090871
Si Si5 0.860363 0.074002 0.068603
Si Si6 0.588470 0.426461 0.087233
Si Si7 0.375256 0.426864 0.052393
Si Si8 0.486335 0.079217 0.665881
O O1 0.965979 0.250000 0.356616
O O2 0.942450 0.492624 0.323290
O O3 0.852244 0.477008 0.492925
O O4 0.181844 0.471530 0.215813
O O5 0.878137 0.250000 0.314785
O O6 0.638189 0.454714 0.509794
O O7 0.908430 0.506897 0.246636
O O8 0.643553 0.250000 0.675825
O O9 0.580832 0.525838 0.753173
O O10 0.550253 0.454050 0.676532
O O11 0.071872 0.750000 0.101895
O O12 0.111251 0.984604 0.012229
O O13 0.245247 0.980697 0.005744
O O14 0.878179 0.250000 0.059224
O O15 0.671191 0.026907 0.230231
O O16 0.000000 0.000000 0.000000
O O17 0.586653 0.250000 0.079326
O O18 0.583603 0.509828 0.035706
O O19 0.400294 0.250000 0.032912
O O20 0.500000 0.500000 0.000000
O O21 0.426208 0.250000 0.706307
#
# Coordination Sequence:
#
# PCOD8075716 Si02
#       8
#     4   4   4   4   4   4   4   4
#     4   8  16  32  54  80 109 140 178 224 270 318
#     4   9  17  32  56  84 109 138 181 225 270 325
#     4   9  17  32  56  83 108 139 180 225 272 321
#     4  10  21  35  53  81 114 141 177 228 273 318
#     4  11  23  39  56  79 112 149 186 225 274 329
#     4  11  21  35  54  83 115 143 181 228 274 322
#     4  11  22  38  58  81 112 149 185 225 275 331
#     4   9  18  33  55  83 112 141 178 225 274 326
#
# _framework density 18.067952999999999
#
# number of rings (size 3 to 8) (size 9 to 14) (size 15 to 20)
#    0.000    2.250    2.500    2.625    0.000    2.000 
#    0.000    4.375    0.000    0.000    0.000    0.000 
#    0.000    0.000    0.000    0.000    0.000    0.000 
#
# Total GULP energy -396794.536632 kJ/mol
# GULP energy per Si atom -12399.829270 kJ/mol
# Density = 1.802683 g / cm^3
# Si number density = 18.067953 Si / 1000 Ang^3
#
#
#
# Elastic Constant Matrix: (Units=GPa)
#
#
# Indices 1 2 3 4 5 6 
#
# 1 101.7581 39.3844 65.9099 0.0000 -3.4391 0.0000
# 2 39.3844 51.3695 45.9378 0.0000 -1.7378 0.0000
# 3 65.9099 45.9378 144.7297 0.0000 5.0168 0.0000
# 4 0.0000 0.0000 0.0000 29.8785 0.0000 -0.6414
# 5 -3.4391 -1.7378 5.0168 0.0000 27.4974 0.0000
# 6 0.0000 0.0000 0.0000 -0.6414 0.0000 27.2497
#
#
#
# Elastic Compliance Matrix: (Units=1/GPa)
#
#
# Indices 1 2 3 4 5 6 
#
# 1 0.016164 -0.007893 -0.004940 0.000000 0.002424 0.000000
# 2 -0.007893 0.031340 -0.006428 0.000000 0.002166 0.000000
# 3 -0.004940 -0.006428 0.011306 0.000000 -0.003087 0.000000
# 4 0.000000 0.000000 0.000000 0.033486 0.000000 0.000788
# 5 0.002424 0.002166 -0.003087 0.000000 0.037370 0.000000
# 6 0.000000 0.000000 0.000000 0.000788 0.000000 0.036716
#
#
# Mechanical properties :
#
#
# Convention : Reuss Voigt Hill
#
# Bulk Modulus (GPa) = 49.28954 66.70242 57.99598
# Shear Modulus (GPa) = 23.62209 26.70011 25.16110
#
# Velocity S-wave (km/s) = 3.61973 3.84834 3.73578
# Velocity P-wave (km/s) = 6.69397 7.53286 7.12577
#
# Compressibility (1/GPa) = 0.02028828
#
# Stress axis : x y z
#
# Youngs Moduli (GPa) = 61.86776 31.90815 88.44710
#
# Poissons Ratio (x) = 0.25185 0.43689
# Poissons Ratio (y) = 0.48833 0.56854
# Poissons Ratio (z) = 0.30560 0.20511
#
# Static dielectric constant tensor:
#      x y z
#    x 3.278850 0.000000 0.053290 
#    y 0.000000 3.163140 0.000000 
#    z 0.053290 0.000000 3.589550 
# 
# 
# High freq. dielectric constant tensor:
#      x y z
#    x 1.675610 0.000000 0.009130 
#    y 0.000000 1.688830 0.000000 
#    z 0.009130 0.000000 1.714060 
# 
# From -- ./inp_files/72042.got.cif
#   From: 2010.06.25/outbox.cif.g09.slc.cpg/sg11_37_cif.got.tgz:72042.got - 2010.06.27 23:14:04.
