data_PCOD8075179
_publ_section_title
;
Structure prediction by ZEFSAII (Michael W. Deem and Ramdas Pophale) SiO2 
 PCOD8075179
Probable space group: P 21/M
;
_chemical_formula_sum "Si O2"
_cell_formula_units_Z 32
_cell_length_a 14.238939
_cell_length_b 26.491493
_cell_length_c 8.330182
_cell_angle_alpha 90.000000
_cell_angle_beta 30.379576
_cell_angle_gamma 90.000000
_cell_volume 1589.110409
_symmetry_space_group_name_H-M "P 21/M"
_symmetry_group_IT_number 11
_symmetry_cell_setting 'monoclinic'
loop_
_space_group_symop_operation_xyz
x,y,z
-x,1/2+y,-z
-x,-y,-z
x,1/2-y,z
loop_
_atom_site_type_symbol
_atom_site_label
_atom_site_fract_x
_atom_site_fract_y
_atom_site_fract_z
Si Si1 0.158662 0.644932 0.758027
Si Si2 0.738366 0.880257 0.896505
Si Si3 0.422060 0.943698 0.474245
Si Si4 0.703353 0.000071 0.618473
Si Si5 0.792657 0.889376 0.461451
Si Si6 0.871221 0.097843 0.523479
Si Si7 0.466759 0.692874 0.466432
Si Si8 0.444418 0.890477 0.753169
O O1 0.284385 0.599562 0.626896
O O2 0.125561 0.641696 0.616101
O O3 0.284300 0.693779 0.618187
O O4 0.968853 0.641023 0.136956
O O5 0.735654 0.863915 0.713713
O O6 0.940238 0.896648 0.657417
O O7 0.619633 0.930917 0.101682
O O8 0.650556 0.832691 0.119173
O O9 0.338984 0.993559 0.511954
O O10 0.436434 0.940982 0.648124
O O11 0.838927 0.043244 0.488940
O O12 0.821268 0.948751 0.461031
O O13 0.500000 0.000000 0.000000
O O14 0.641916 0.885946 0.545122
O O15 0.706877 0.106343 0.888125
O O16 0.517540 0.750000 0.438097
O O17 0.411318 0.661173 0.705714
#
# Coordination Sequence:
#
# PCOD8075179 Si02
#       8
#     4   4   4   4   4   4   4   4
#     4   9  20  38  60  85 117 155 190 244 308 343
#     4  10  20  37  61  85 120 157 192 246 309 345
#     4   9  19  36  54  81 120 159 201 247 287 337
#     4  11  21  38  57  88 125 166 217 243 274 356
#     4  12  21  38  61  87 128 166 199 244 293 352
#     4  11  21  39  60  88 127 165 201 246 293 348
#     4  10  22  44  68  90 114 148 198 252 308 381
#     4  10  20  37  62  86 123 164 192 251 315 345
#
# _framework density 20.137055
#
# number of rings (size 3 to 8) (size 9 to 14) (size 15 to 20)
#    0.000    2.000    2.500    4.500    0.000    3.000 
#    0.000    7.500    0.000    0.750    0.000    0.000 
#    0.000    0.000    0.000    0.000    0.000    0.000 
#
# Total GULP energy -396439.689208 kJ/mol
# GULP energy per Si atom -12388.740288 kJ/mol
# Density = 2.009122 g / cm^3
# Si number density = 20.137055 Si / 1000 Ang^3
#
#
#
# Elastic Constant Matrix: (Units=GPa)
#
#
# Indices 1 2 3 4 5 6 
#
# 1 83.2774 8.3356 14.5121 0.0000 11.8214 0.0000
# 2 8.3356 61.0120 -3.6598 0.0000 2.3896 0.0000
# 3 14.5121 -3.6598 102.1078 0.0000 8.4995 0.0000
# 4 0.0000 0.0000 0.0000 20.5674 0.0000 -2.5864
# 5 11.8214 2.3896 8.4995 0.0000 43.1710 0.0000
# 6 0.0000 0.0000 0.0000 -2.5864 0.0000 19.3707
#
#
#
# Elastic Compliance Matrix: (Units=1/GPa)
#
#
# Indices 1 2 3 4 5 6 
#
# 1 0.012910 -0.001740 -0.001638 0.000000 -0.003116 0.000000
# 2 -0.001740 0.016706 0.000898 0.000000 -0.000625 0.000000
# 3 -0.001638 0.000898 0.010192 0.000000 -0.001608 0.000000
# 4 0.000000 0.000000 0.000000 0.049451 0.000000 0.006603
# 5 -0.003116 -0.000625 -0.001608 0.000000 0.024368 0.000000
# 6 0.000000 0.000000 0.000000 0.006603 0.000000 0.052506
#
#
# Mechanical properties :
#
#
# Convention : Reuss Voigt Hill
#
# Bulk Modulus (GPa) = 28.69493 31.64144 30.16818
# Shear Modulus (GPa) = 27.36583 31.76910 29.56747
#
# Velocity S-wave (km/s) = 3.69043 3.97627 3.83601
# Velocity P-wave (km/s) = 5.69560 6.06861 5.88506
#
# Compressibility (1/GPa) = 0.03484937
#
# Stress axis : x y z
#
# Youngs Moduli (GPa) = 77.45938 59.85769 98.11251
#
# Poissons Ratio (x) = 0.10415 0.16069
# Poissons Ratio (y) = 0.13478 -0.08812
# Poissons Ratio (z) = 0.12686 -0.05376
#
# Static dielectric constant tensor:
#      x y z
#    x 4.468080 0.000000 0.188210 
#    y 0.000000 3.724330 0.000000 
#    z 0.188210 0.000000 3.419010 
# 
# 
# High freq. dielectric constant tensor:
#      x y z
#    x 1.809150 0.000000 0.001980 
#    y 0.000000 1.740200 0.000000 
#    z 0.001980 0.000000 1.791880 
# 
# From -- ./inp_files/23456.got.cif
#   From: 2010.06.25/outbox.cif.g09.slc.cpg/sg11_12_cif.got.tgz:23456.got - 2010.06.27 23:14:04.
