data_PCOD8075372
_publ_section_title
;
Structure prediction by ZEFSAII (Michael W. Deem and Ramdas Pophale) SiO2 
 PCOD8075372
Probable space group: P 21/M
;
_chemical_formula_sum "Si O2"
_cell_formula_units_Z 28
_cell_length_a 29.304674
_cell_length_b 8.371360
_cell_length_c 9.290230
_cell_angle_alpha 90.000000
_cell_angle_beta 37.552320
_cell_angle_gamma 90.000000
_cell_volume 1389.065901
_symmetry_space_group_name_H-M "P 21/M"
_symmetry_group_IT_number 11
_symmetry_cell_setting 'monoclinic'
loop_
_space_group_symop_operation_xyz
x,y,z
-x,1/2+y,-z
-x,-y,-z
x,1/2-y,z
loop_
_atom_site_type_symbol
_atom_site_label
_atom_site_fract_x
_atom_site_fract_y
_atom_site_fract_z
Si Si1 0.866232 0.061484 0.491597
Si Si2 0.428594 0.936756 0.262171
Si Si3 0.003827 0.439705 0.330661
Si Si4 0.141232 0.937688 0.811153
Si Si5 0.700296 0.934430 0.604476
Si Si6 0.698526 0.063353 0.920459
Si Si7 0.566136 0.564091 0.433282
O O1 0.867897 0.250000 0.497769
O O2 0.884073 0.006310 0.284535
O O3 0.783096 0.003793 0.744499
O O4 0.930458 0.989938 0.433428
O O5 0.420065 0.750000 0.257057
O O6 0.356144 0.025319 0.382217
O O7 0.436044 0.969797 0.412245
O O8 0.500000 0.000000 0.000000
O O9 0.007485 0.250000 0.311794
O O10 0.000000 0.500000 0.500000
O O11 0.077989 0.514351 0.079932
O O12 0.156756 0.750000 0.777581
O O13 0.217702 0.026010 0.662101
O O14 0.694035 0.750000 0.661743
O O15 0.681024 0.035183 0.795819
O O16 0.687513 0.250000 0.980925
O O17 0.644657 0.962191 0.156845
O O18 0.500000 0.500000 0.500000
O O19 0.554238 0.750000 0.494171
#
# Coordination Sequence:
#
# PCOD8075372 Si02
#       7
#     4   4   4   4   4   4   4
#     4   8  18  36  60  84 112 149 193 237 287 346
#     4  12  25  43  64  89 120 158 198 243 293 349
#     4  11  22  37  55  82 117 155 195 242 294 351
#     4  10  20  38  61  86 113 150 195 243 295 352
#     4  11  22  39  62  91 121 154 194 242 295 354
#     4  10  20  39  63  89 118 154 196 244 297 353
#     4  12  25  42  62  89 121 158 200 245 293 349
#
# _framework density 20.157430000000002
#
# number of rings (size 3 to 8) (size 9 to 14) (size 15 to 20)
#    0.000    1.429    0.000    7.286    0.000    1.143 
#    0.000   12.143    0.000    0.000    0.000    0.000 
#    0.000    0.000    0.000    0.000    0.000    0.000 
#
# Total GULP energy -347313.433170 kJ/mol
# GULP energy per Si atom -12404.051185 kJ/mol
# Density = 2.011155 g / cm^3
# Si number density = 20.157430 Si / 1000 Ang^3
#
#
#
# Elastic Constant Matrix: (Units=GPa)
#
#
# Indices 1 2 3 4 5 6 
#
# 1 145.0685 14.7004 66.9474 0.0000 -8.6844 0.0000
# 2 14.7004 78.6189 12.7133 0.0000 -8.6200 0.0000
# 3 66.9474 12.7133 146.7822 0.0000 -0.9048 0.0000
# 4 0.0000 0.0000 0.0000 37.2988 0.0000 1.6870
# 5 -8.6844 -8.6200 -0.9048 0.0000 24.7090 0.0000
# 6 0.0000 0.0000 0.0000 1.6870 0.0000 29.4557
#
#
#
# Elastic Compliance Matrix: (Units=1/GPa)
#
#
# Indices 1 2 3 4 5 6 
#
# 1 0.008987 -0.000728 -0.004019 0.000000 0.002757 0.000000
# 2 -0.000728 0.013470 -0.000807 0.000000 0.004414 0.000000
# 3 -0.004019 -0.000807 0.008707 0.000000 -0.001375 0.000000
# 4 0.000000 0.000000 0.000000 0.026880 0.000000 -0.001539
# 5 0.002757 0.004414 -0.001375 0.000000 0.042930 0.000000
# 6 0.000000 0.000000 0.000000 -0.001539 0.000000 0.034037
#
#
# Mechanical properties :
#
#
# Convention : Reuss Voigt Hill
#
# Bulk Modulus (GPa) = 49.86150 62.13240 55.99695
# Shear Modulus (GPa) = 32.72135 36.69993 34.71064
#
# Velocity S-wave (km/s) = 4.03338 4.27155 4.15417
# Velocity P-wave (km/s) = 6.81767 7.43093 7.13089
#
# Compressibility (1/GPa) = 0.02005556
#
# Stress axis : x y z
#
# Youngs Moduli (GPa) = 111.27451 74.23775 114.84691
#
# Poissons Ratio (x) = 0.05406 0.46155
# Poissons Ratio (y) = 0.08103 0.09272
# Poissons Ratio (z) = 0.44719 0.05994
#
# Static dielectric constant tensor:
#      x y z
#    x 3.765060 0.000000 -0.136570 
#    y 0.000000 4.828960 0.000000 
#    z -0.136570 0.000000 3.746390 
# 
# 
# High freq. dielectric constant tensor:
#      x y z
#    x 1.792920 0.000000 -0.008540 
#    y 0.000000 1.789200 0.000000 
#    z -0.008540 0.000000 1.797060 
# 
# From -- ./inp_files/28234.got.cif
#   From: 2010.06.25/outbox.cif.g09.slc.cpg/sg11_15_cif.got.tgz:28234.got - 2010.06.27 23:14:04.
