data_PCOD8075326
_publ_section_title
;
Structure prediction by ZEFSAII (Michael W. Deem and Ramdas Pophale) SiO2 
 PCOD8075326
Probable space group: P 21/M
;
_chemical_formula_sum "Si O2"
_cell_formula_units_Z 32
_cell_length_a 12.399066
_cell_length_b 17.840515
_cell_length_c 15.296422
_cell_angle_alpha 90.000000
_cell_angle_beta 27.608220
_cell_angle_gamma 90.000000
_cell_volume 1568.064632
_symmetry_space_group_name_H-M "P 21/M"
_symmetry_group_IT_number 11
_symmetry_cell_setting 'monoclinic'
loop_
_space_group_symop_operation_xyz
x,y,z
-x,1/2+y,-z
-x,-y,-z
x,1/2-y,z
loop_
_atom_site_type_symbol
_atom_site_label
_atom_site_fract_x
_atom_site_fract_y
_atom_site_fract_z
Si Si1 0.358016 0.073435 0.583159
Si Si2 0.593555 0.910940 0.725019
Si Si3 0.087743 0.662907 0.391172
Si Si4 0.691745 0.050323 0.902267
Si Si5 0.337012 0.835293 0.749751
Si Si6 0.336409 0.665109 0.396519
Si Si7 0.188677 0.165500 0.861804
Si Si8 0.161642 0.515880 0.572454
O O1 0.525326 0.141072 0.435434
O O2 0.219576 0.102530 0.765877
O O3 0.500000 0.000000 0.500000
O O4 0.190987 0.048003 0.625326
O O5 0.433163 0.878799 0.763827
O O6 0.815701 0.860420 0.594434
O O7 0.700086 0.989963 0.614687
O O8 0.406539 0.919254 0.936040
O O9 0.096953 0.750000 0.360840
O O10 0.219885 0.620224 0.218588
O O11 0.230193 0.646705 0.377999
O O12 0.887054 0.985968 0.762472
O O13 0.500000 0.000000 0.000000
O O14 0.385450 0.750000 0.735992
O O15 0.068340 0.851111 0.918065
O O16 0.263144 0.750000 0.477474
O O17 0.618743 0.657600 0.198992
O O18 0.237875 0.602375 0.535659
O O19 0.200541 0.250000 0.813896
#
# Coordination Sequence:
#
# PCOD8075326 Si02
#       8
#     4   4   4   4   4   4   4   4
#     4  11  21  38  59  87 114 150 195 240 286 348
#     4  10  21  39  63  88 115 153 192 243 299 346
#     4  10  22  39  60  87 119 154 197 243 289 347
#     4  11  22  38  61  89 120 153 195 243 296 349
#     4  10  22  39  60  87 117 151 194 244 296 345
#     4  10  20  38  59  81 117 161 196 234 288 346
#     4  10  21  39  60  85 119 157 194 239 291 346
#     4  10  21  39  59  87 118 150 196 242 292 343
#
# _framework density 20.407322000000001
#
# number of rings (size 3 to 8) (size 9 to 14) (size 15 to 20)
#    0.000    1.750    1.250    3.000    0.000    3.500 
#    4.500    3.750    0.000    5.250    0.000    0.000 
#    0.000    0.000    0.000    0.000    0.000    0.000 
#
# Total GULP energy -396476.973980 kJ/mol
# GULP energy per Si atom -12389.905437 kJ/mol
# Density = 2.036087 g / cm^3
# Si number density = 20.407322 Si / 1000 Ang^3
#
#
#
# Elastic Constant Matrix: (Units=GPa)
#
#
# Indices 1 2 3 4 5 6 
#
# 1 74.5306 16.8114 30.0680 0.0000 -24.6995 0.0000
# 2 16.8114 85.5869 41.5379 0.0000 -15.5126 0.0000
# 3 30.0680 41.5379 98.2106 0.0000 -16.7096 0.0000
# 4 0.0000 0.0000 0.0000 25.0688 0.0000 -3.4422
# 5 -24.6995 -15.5126 -16.7096 0.0000 39.4003 0.0000
# 6 0.0000 0.0000 0.0000 -3.4422 0.0000 30.3185
#
#
#
# Elastic Compliance Matrix: (Units=1/GPa)
#
#
# Indices 1 2 3 4 5 6 
#
# 1 0.018238 0.000119 -0.003967 0.000000 0.009797 0.000000
# 2 0.000119 0.015137 -0.005833 0.000000 0.003560 0.000000
# 3 -0.003967 -0.005833 0.014065 0.000000 0.001182 0.000000
# 4 0.000000 0.000000 0.000000 0.040522 0.000000 0.004601
# 5 0.009797 0.003560 0.001182 0.000000 0.033425 0.000000
# 6 0.000000 0.000000 0.000000 0.004601 0.000000 0.033506
#
#
# Mechanical properties :
#
#
# Convention : Reuss Voigt Hill
#
# Bulk Modulus (GPa) = 35.61575 48.35142 41.98359
# Shear Modulus (GPa) = 27.23120 30.28489 28.75804
#
# Velocity S-wave (km/s) = 3.65688 3.85648 3.75801
# Velocity P-wave (km/s) = 5.94312 6.60110 6.28073
#
# Compressibility (1/GPa) = 0.02807747
#
# Stress axis : x y z
#
# Youngs Moduli (GPa) = 54.83121 66.06417 71.10027
#
# Poissons Ratio (x) = -0.00784 0.28205
# Poissons Ratio (y) = -0.00651 0.41470
# Poissons Ratio (z) = 0.21751 0.38533
#
# Static dielectric constant tensor:
#      x y z
#    x 3.912860 0.000000 -0.264800 
#    y 0.000000 4.039630 0.000000 
#    z -0.264800 0.000000 3.344370 
# 
# 
# High freq. dielectric constant tensor:
#      x y z
#    x 1.804990 0.000000 -0.022000 
#    y 0.000000 1.810550 0.000000 
#    z -0.022000 0.000000 1.790460 
# 
# From -- ./inp_files/50682.got.cif
#   From: 2010.06.25/outbox.cif.g09.slc.cpg/sg11_26_cif.got.tgz:50682.got - 2010.06.27 23:14:04.
