data_PCOD8075230
_publ_section_title
;
Structure prediction by ZEFSAII (Michael W. Deem and Ramdas Pophale) SiO2 
 PCOD8075230
Probable space group: P 21/M
;
_chemical_formula_sum "Si O2"
_cell_formula_units_Z 32
_cell_length_a 23.745873
_cell_length_b 14.153916
_cell_length_c 9.459513
_cell_angle_alpha 90.000000
_cell_angle_beta 150.776141
_cell_angle_gamma 90.000000
_cell_volume 1552.214987
_symmetry_space_group_name_H-M "P 21/M"
_symmetry_group_IT_number 11
_symmetry_cell_setting 'monoclinic'
loop_
_space_group_symop_operation_xyz
x,y,z
-x,1/2+y,-z
-x,-y,-z
x,1/2-y,z
loop_
_atom_site_type_symbol
_atom_site_label
_atom_site_fract_x
_atom_site_fract_y
_atom_site_fract_z
Si Si1 0.688535 0.148614 0.875860
Si Si2 0.843359 0.478113 0.392204
Si Si3 0.068715 0.139696 0.895072
Si Si4 0.579737 0.640060 0.026716
Si Si5 0.444072 0.401335 0.340027
Si Si6 0.686906 0.359165 0.550154
Si Si7 0.798201 0.643105 0.098253
Si Si8 0.780795 0.522409 0.572362
O O1 0.748928 0.250000 0.038586
O O2 0.551455 0.169822 0.588986
O O3 0.715625 0.115079 0.775426
O O4 0.729022 0.069192 0.073976
O O5 0.862564 0.577164 0.353730
O O6 0.826369 0.493967 0.519354
O O7 0.947563 0.407360 0.589796
O O8 0.050337 0.250000 0.888900
O O9 0.154858 0.123401 0.954320
O O10 0.120850 0.087608 0.144985
O O11 0.612134 0.750000 0.109398
O O12 0.661252 0.580720 0.309763
O O13 0.608200 0.602690 0.932146
O O14 0.447385 0.622257 0.778181
O O15 0.500000 0.500000 0.500000
O O16 0.339623 0.374787 0.215178
O O17 0.717873 0.250000 0.586262
O O18 0.764912 0.425496 0.623745
O O19 0.823809 0.750000 0.202450
#
# Coordination Sequence:
#
# PCOD8075230 Si02
#       8
#     4   4   4   4   4   4   4   4
#     4  10  20  38  65  90 127 166 201 256 315 366
#     4  12  24  43  65  95 122 163 213 263 313 364
#     4  11  27  46  64  88 124 166 214 264 311 364
#     4  10  20  37  61  90 130 168 209 253 306 378
#     4  11  19  35  62  98 128 158 201 255 315 371
#     4   9  21  38  60  94 129 168 205 252 314 378
#     4  11  23  42  67  94 126 163 210 262 308 372
#     4  12  23  40  65  89 125 171 210 258 313 370
#
# _framework density 20.615701000000001
#
# number of rings (size 3 to 8) (size 9 to 14) (size 15 to 20)
#    0.000    1.250    2.500    4.500    1.750    1.500 
#    2.250    1.875    0.000    0.000    0.000    0.000 
#    0.000    0.000    0.000    0.000    0.000    0.000 
#
# Total GULP energy -396858.222511 kJ/mol
# GULP energy per Si atom -12401.819453 kJ/mol
# Density = 2.056878 g / cm^3
# Si number density = 20.615701 Si / 1000 Ang^3
#
#
#
# Elastic Constant Matrix: (Units=GPa)
#
#
# Indices 1 2 3 4 5 6 
#
# 1 103.9627 58.6508 40.6904 0.0000 -8.5660 0.0000
# 2 58.6508 141.0898 45.8665 0.0000 -10.8379 0.0000
# 3 40.6904 45.8665 91.9501 0.0000 -3.8566 0.0000
# 4 0.0000 0.0000 0.0000 38.9700 0.0000 -1.7427
# 5 -8.5660 -10.8379 -3.8566 0.0000 24.7772 0.0000
# 6 0.0000 0.0000 0.0000 -1.7427 0.0000 20.0084
#
#
#
# Elastic Compliance Matrix: (Units=1/GPa)
#
#
# Indices 1 2 3 4 5 6 
#
# 1 0.013726 -0.004282 -0.003843 0.000000 0.002274 0.000000
# 2 -0.004282 0.010033 -0.003007 0.000000 0.002440 0.000000
# 3 -0.003843 -0.003007 0.014057 0.000000 -0.000456 0.000000
# 4 0.000000 0.000000 0.000000 0.025761 0.000000 0.002244
# 5 0.002274 0.002440 -0.000456 0.000000 0.042142 0.000000
# 6 0.000000 0.000000 0.000000 0.002244 0.000000 0.050174
#
#
# Mechanical properties :
#
#
# Convention : Reuss Voigt Hill
#
# Bulk Modulus (GPa) = 64.30214 69.71311 67.00762
# Shear Modulus (GPa) = 27.27155 29.53746 28.40451
#
# Velocity S-wave (km/s) = 3.64105 3.78929 3.71591
# Velocity P-wave (km/s) = 6.99535 7.28244 7.14034
#
# Compressibility (1/GPa) = 0.01555158
#
# Stress axis : x y z
#
# Youngs Moduli (GPa) = 72.85495 99.67370 71.13896
#
# Poissons Ratio (x) = 0.42679 0.27337
# Poissons Ratio (y) = 0.31196 0.21394
# Poissons Ratio (z) = 0.27997 0.29975
#
# Static dielectric constant tensor:
#      x y z
#    x 3.707800 0.000000 0.162020 
#    y 0.000000 3.944110 0.000000 
#    z 0.162020 0.000000 3.768080 
# 
# 
# High freq. dielectric constant tensor:
#      x y z
#    x 1.795650 0.000000 0.004100 
#    y 0.000000 1.828600 0.000000 
#    z 0.004100 0.000000 1.800220 
# 
# From -- ./inp_files/27828.got.cif
#   From: 2010.06.25/outbox.cif.g09.slc.cpg/sg11_14_cif.got.tgz:27828.got - 2010.06.27 23:14:04.
