data_PCOD8075031
_publ_section_title
;
Structure prediction by ZEFSAII (Michael W. Deem and Ramdas Pophale) SiO2 
 PCOD8075031
Probable space group: P 21/M
;
_chemical_formula_sum "Si O2"
_cell_formula_units_Z 20
_cell_length_a 19.238006
_cell_length_b 8.442012
_cell_length_c 13.557256
_cell_angle_alpha 90.000000
_cell_angle_beta 152.023629
_cell_angle_gamma 90.000000
_cell_volume 1032.880538
_symmetry_space_group_name_H-M "P 21/M"
_symmetry_group_IT_number 11
_symmetry_cell_setting 'monoclinic'
loop_
_space_group_symop_operation_xyz
x,y,z
-x,1/2+y,-z
-x,-y,-z
x,1/2-y,z
loop_
_atom_site_type_symbol
_atom_site_label
_atom_site_fract_x
_atom_site_fract_y
_atom_site_fract_z
Si Si1 0.558445 0.063653 0.878843
Si Si2 0.153780 0.935145 0.653782
Si Si3 0.566603 0.563099 0.483309
Si Si4 0.860136 0.064455 0.767825
Si Si5 0.753519 0.935925 0.434905
O O1 0.560767 0.250000 0.896641
O O2 0.545703 0.021271 0.747030
O O3 0.413868 0.999491 0.756374
O O4 0.708611 0.988442 0.112018
O O5 0.151859 0.750000 0.668548
O O6 0.173495 0.972859 0.564067
O O7 0.000000 0.000000 0.500000
O O8 0.500000 0.500000 0.500000
O O9 0.597699 0.750000 0.526551
O O10 0.718941 0.471275 0.658505
O O11 0.874150 0.250000 0.764968
O O12 0.851254 0.972132 0.653355
O O13 0.000000 0.000000 0.000000
O O14 0.756205 0.750000 0.416552
#
# Coordination Sequence:
#
# PCOD8075031 Si02
#       5
#     4   4   4   4   4
#     4   8  18  36  58  79 107 145 187 229 275 328
#     4  11  22  37  55  81 113 148 187 232 282 334
#     4  10  20  37  58  84 114 149 191 237 284 335
#     4  11  22  38  59  85 114 149 188 231 280 337
#     4  10  20  38  60  83 109 143 185 233 283 338
#
# _framework density 19.363323999999999
#
# number of rings (size 3 to 8) (size 9 to 14) (size 15 to 20)
#    0.000    2.000    0.000    5.400    0.000    1.600 
#    0.000   17.000    0.000    0.000    0.000    0.000 
#    0.000    0.000    0.000    0.000    0.000    0.000 
#
# Total GULP energy -248014.769321 kJ/mol
# GULP energy per Si atom -12400.738466 kJ/mol
# Density = 1.931925 g / cm^3
# Si number density = 19.363324 Si / 1000 Ang^3
#
#
#
# Elastic Constant Matrix: (Units=GPa)
#
#
# Indices 1 2 3 4 5 6 
#
# 1 149.5155 11.8662 70.1926 0.0000 -4.9828 0.0000
# 2 11.8662 54.6008 17.4186 0.0000 5.5705 0.0000
# 3 70.1926 17.4186 160.8757 0.0000 6.1996 0.0000
# 4 0.0000 0.0000 0.0000 27.6093 0.0000 0.1182
# 5 -4.9828 5.5705 6.1996 0.0000 20.8682 0.0000
# 6 0.0000 0.0000 0.0000 0.1182 0.0000 35.6560
#
#
#
# Elastic Compliance Matrix: (Units=1/GPa)
#
#
# Indices 1 2 3 4 5 6 
#
# 1 0.008673 -0.001025 -0.003807 0.000000 0.003475 0.000000
# 2 -0.001025 0.019519 -0.001473 0.000000 -0.005018 0.000000
# 3 -0.003807 -0.001473 0.008150 0.000000 -0.002937 0.000000
# 4 0.000000 0.000000 0.000000 0.036220 0.000000 -0.000120
# 5 0.003475 -0.005018 -0.002937 0.000000 0.050961 0.000000
# 6 0.000000 0.000000 0.000000 -0.000120 0.000000 0.028046
#
#
# Mechanical properties :
#
#
# Convention : Reuss Voigt Hill
#
# Bulk Modulus (GPa) = 42.13697 62.66076 52.39886
# Shear Modulus (GPa) = 29.05460 34.52767 31.79113
#
# Velocity S-wave (km/s) = 3.87783 4.22731 4.05634
# Velocity P-wave (km/s) = 6.46982 7.50051 7.00415
#
# Compressibility (1/GPa) = 0.02373213
#
# Stress axis : x y z
#
# Youngs Moduli (GPa) = 115.30447 51.23137 122.70406
#
# Poissons Ratio (x) = 0.05251 0.46713
# Poissons Ratio (y) = 0.11817 0.18073
# Poissons Ratio (z) = 0.43896 0.07546
#
# Static dielectric constant tensor:
#      x y z
#    x 3.705190 0.000000 0.104870 
#    y 0.000000 3.520150 0.000000 
#    z 0.104870 0.000000 4.011650 
# 
# 
# High freq. dielectric constant tensor:
#      x y z
#    x 1.756240 0.000000 -0.005680 
#    y 0.000000 1.748800 0.000000 
#    z -0.005680 0.000000 1.762670 
# 
# From -- ./inp_files/23905.got.cif
#   From: 2010.06.25/outbox.cif.g09.slc.cpg/sg11_12_cif.got.tgz:23905.got - 2010.06.27 23:14:04.
