data_PCOD8075493
_publ_section_title
;
Structure prediction by ZEFSAII (Michael W. Deem and Ramdas Pophale) SiO2 
 PCOD8075493
Probable space group: P 21/M
;
_chemical_formula_sum "Si O2"
_cell_formula_units_Z 32
_cell_length_a 5.370485
_cell_length_b 12.870854
_cell_length_c 23.365393
_cell_angle_alpha 90.000000
_cell_angle_beta 109.618712
_cell_angle_gamma 90.000000
_cell_volume 1521.320861
_symmetry_space_group_name_H-M "P 21/M"
_symmetry_group_IT_number 11
_symmetry_cell_setting 'monoclinic'
loop_
_space_group_symop_operation_xyz
x,y,z
-x,1/2+y,-z
-x,-y,-z
x,1/2-y,z
loop_
_atom_site_type_symbol
_atom_site_label
_atom_site_fract_x
_atom_site_fract_y
_atom_site_fract_z
Si Si1 0.387650 0.128531 0.242730
Si Si2 0.358379 0.489879 0.135362
Si Si3 0.026418 0.529450 0.714229
Si Si4 0.864584 0.531208 0.576647
Si Si5 0.139661 0.439545 0.943425
Si Si6 0.808677 0.628788 0.183800
Si Si7 0.707250 0.371911 0.470738
Si Si8 0.553836 0.135047 0.053212
O O1 0.408497 0.250000 0.234344
O O2 0.227194 0.073332 0.177779
O O3 0.686471 0.083915 0.265484
O O4 0.210966 0.107521 0.285377
O O5 0.512692 0.588631 0.173124
O O6 0.536915 0.403856 0.117254
O O7 0.169083 0.536557 0.070825
O O8 0.008291 0.431765 0.756433
O O9 0.960166 0.490794 0.645558
O O10 0.812521 0.428945 0.535421
O O11 0.597666 0.598231 0.563714
O O12 0.102248 0.599188 0.567709
O O13 0.137043 0.397983 0.878095
O O14 0.263566 0.553198 0.964972
O O15 0.271066 0.358893 0.997385
O O16 0.836378 0.750000 0.198078
O O17 0.725598 0.250000 0.483228
O O18 0.678659 0.250000 0.062525
#
# Coordination Sequence:
#
# PCOD8075493 Si02
#       8
#     4   4   4   4   4   4   4   4
#     4  11  23  39  61  87 122 163 200 250 307 359
#     4  10  21  39  55  81 113 147 196 252 300 365
#     4  11  23  41  59  92 126 155 208 247 293 362
#     4  10  22  38  61  90 126 161 198 255 294 345
#     4  10  20  39  56  79 114 144 192 247 299 368
#     4  10  22  39  59  81 112 155 196 245 300 354
#     4  10  21  39  63  91 123 163 203 243 301 353
#     4  10  21  34  56  84 109 145 191 245 308 367
#
# _framework density 21.034351000000001
#
# number of rings (size 3 to 8) (size 9 to 14) (size 15 to 20)
#    0.000    1.750    1.250    2.625    0.000    5.500 
#    0.000    0.000    0.000    4.500    0.000    0.000 
#    0.000    0.000    0.000    0.000    0.000    0.000 
#
# Total GULP energy -396455.804138 kJ/mol
# GULP energy per Si atom -12389.243879 kJ/mol
# Density = 2.098648 g / cm^3
# Si number density = 21.034351 Si / 1000 Ang^3
#
#
#
# Elastic Constant Matrix: (Units=GPa)
#
#
# Indices 1 2 3 4 5 6 
#
# 1 105.3046 33.4546 18.4428 0.0000 -3.6730 0.0000
# 2 33.4546 144.5665 30.5953 0.0000 2.4116 0.0000
# 3 18.4428 30.5953 93.8954 0.0000 -4.3075 0.0000
# 4 0.0000 0.0000 0.0000 15.9379 0.0000 -0.6943
# 5 -3.6730 2.4116 -4.3075 0.0000 23.6381 0.0000
# 6 0.0000 0.0000 0.0000 -0.6943 0.0000 20.2011
#
#
#
# Elastic Compliance Matrix: (Units=1/GPa)
#
#
# Indices 1 2 3 4 5 6 
#
# 1 0.010468 -0.002180 -0.001271 0.000000 0.001617 0.000000
# 2 -0.002180 0.007918 -0.002223 0.000000 -0.001552 0.000000
# 3 -0.001271 -0.002223 0.011724 0.000000 0.002166 0.000000
# 4 0.000000 0.000000 0.000000 0.062838 0.000000 0.002160
# 5 0.001617 -0.001552 0.002166 0.000000 0.043109 0.000000
# 6 0.000000 0.000000 0.000000 0.002160 0.000000 0.049576
#
#
# Mechanical properties :
#
#
# Convention : Reuss Voigt Hill
#
# Bulk Modulus (GPa) = 53.30451 56.52798 54.91624
# Shear Modulus (GPa) = 24.60198 29.37368 26.98783
#
# Velocity S-wave (km/s) = 3.42367 3.74098 3.58584
# Velocity P-wave (km/s) = 6.40510 6.75221 6.58095
#
# Compressibility (1/GPa) = 0.01876014
#
# Stress axis : x y z
#
# Youngs Moduli (GPa) = 95.52893 126.29231 85.29815
#
# Poissons Ratio (x) = 0.27536 0.10845
# Poissons Ratio (y) = 0.20829 0.18962
# Poissons Ratio (z) = 0.12146 0.28075
#
# Static dielectric constant tensor:
#      x y z
#    x 3.976610 0.000000 0.037390 
#    y 0.000000 3.609020 0.000000 
#    z 0.037390 0.000000 3.878120 
# 
# 
# High freq. dielectric constant tensor:
#      x y z
#    x 1.829400 0.000000 -0.001560 
#    y 0.000000 1.811690 0.000000 
#    z -0.001560 0.000000 1.826970 
# 
# From -- ./inp_files/67604.got.cif
#   From: 2010.06.25/outbox.cif.g09.slc.cpg/sg11_34_cif.got.tgz:67604.got - 2010.06.27 23:14:04.
