data_PCOD8075254
_publ_section_title
;
Structure prediction by ZEFSAII (Michael W. Deem and Ramdas Pophale) SiO2 
 PCOD8075254
Probable space group: P 21/M
;
_chemical_formula_sum "Si O2"
_cell_formula_units_Z 32
_cell_length_a 24.067455
_cell_length_b 11.061601
_cell_length_c 11.723580
_cell_angle_alpha 90.000000
_cell_angle_beta 150.088612
_cell_angle_gamma 90.000000
_cell_volume 1556.370427
_symmetry_space_group_name_H-M "P 21/M"
_symmetry_group_IT_number 11
_symmetry_cell_setting 'monoclinic'
loop_
_space_group_symop_operation_xyz
x,y,z
-x,1/2+y,-z
-x,-y,-z
x,1/2-y,z
loop_
_atom_site_type_symbol
_atom_site_label
_atom_site_fract_x
_atom_site_fract_y
_atom_site_fract_z
Si Si1 0.042732 0.965512 0.762351
Si Si2 0.959365 0.614358 0.852191
Si Si3 0.711815 0.613363 0.348974
Si Si4 0.865484 0.115567 0.306725
Si Si5 0.250988 0.114557 0.193821
Si Si6 0.350586 0.511325 0.983406
Si Si7 0.428604 0.114217 0.328107
Si Si8 0.419288 0.390364 0.676085
O O1 0.940146 0.031126 0.518784
O O2 0.997358 0.887629 0.787249
O O3 0.104098 0.888408 0.773439
O O4 0.131330 0.053853 0.977697
O O5 0.994795 0.750000 0.961260
O O6 0.826735 0.603906 0.621619
O O7 0.000000 0.500000 0.000000
O O8 0.684427 0.750000 0.264229
O O9 0.615439 0.560036 0.260947
O O10 0.717766 0.535563 0.245774
O O11 0.886803 0.250000 0.388818
O O12 0.734762 0.084912 0.088878
O O13 0.226098 0.250000 0.189385
O O14 0.307652 0.111124 0.170831
O O15 0.338360 0.049726 0.436346
O O16 0.405608 0.401854 0.152928
O O17 0.451256 0.594000 0.119334
O O18 0.482423 0.250000 0.444513
O O19 0.500000 0.000000 0.500000
O O20 0.392183 0.250000 0.625033
#
# Coordination Sequence:
#
# PCOD8075254 Si02
#       8
#     4   4   4   4   4   4   4   4
#     4  11  22  42  62  92 127 169 218 265 323 385
#     4  11  24  44  70  96 131 173 220 271 322 384
#     4  10  22  41  62  88 120 164 217 264 312 377
#     4  11  24  38  60  94 131 169 210 267 331 386
#     4  10  20  37  62  89 122 167 215 256 311 390
#     4  12  21  40  61  92 127 167 207 265 321 387
#     4  11  23  40  63  94 128 169 214 261 322 387
#     4  10  21  37  62  89 120 161 210 263 317 376
#
# _framework density 20.560659000000001
#
# number of rings (size 3 to 8) (size 9 to 14) (size 15 to 20)
#    0.000    1.250    3.750    2.625    0.000    2.500 
#    0.000    0.000    0.000    2.250    0.000    0.000 
#    0.000    0.000    0.000    0.000    0.000    0.000 
#
# Total GULP energy -396564.491721 kJ/mol
# GULP energy per Si atom -12392.640366 kJ/mol
# Density = 2.051386 g / cm^3
# Si number density = 20.560659 Si / 1000 Ang^3
#
#
#
# Elastic Constant Matrix: (Units=GPa)
#
#
# Indices 1 2 3 4 5 6 
#
# 1 122.0134 36.7634 29.7480 0.0000 8.1413 0.0000
# 2 36.7634 102.0917 32.3526 0.0000 -2.1331 0.0000
# 3 29.7480 32.3526 84.0716 0.0000 6.1348 0.0000
# 4 0.0000 0.0000 0.0000 16.2346 0.0000 0.2250
# 5 8.1413 -2.1331 6.1348 0.0000 40.5575 0.0000
# 6 0.0000 0.0000 0.0000 0.2250 0.0000 23.3552
#
#
#
# Elastic Compliance Matrix: (Units=1/GPa)
#
#
# Indices 1 2 3 4 5 6 
#
# 1 0.009706 -0.002830 -0.002217 0.000000 -0.001762 0.000000
# 2 -0.002830 0.012043 -0.003763 0.000000 0.001771 0.000000
# 3 -0.002217 -0.003763 0.014266 0.000000 -0.001911 0.000000
# 4 0.000000 0.000000 0.000000 0.061605 0.000000 -0.000594
# 5 -0.001762 0.001771 -0.001911 0.000000 0.025392 0.000000
# 6 0.000000 0.000000 0.000000 -0.000594 0.000000 0.042823
#
#
# Mechanical properties :
#
#
# Convention : Reuss Voigt Hill
#
# Bulk Modulus (GPa) = 54.35394 56.21163 55.28279
# Shear Modulus (GPa) = 26.37306 29.98363 28.17834
#
# Velocity S-wave (km/s) = 3.58536 3.82291 3.70604
# Velocity P-wave (km/s) = 6.60553 6.84726 6.72748
#
# Compressibility (1/GPa) = 0.01839793
#
# Stress axis : x y z
#
# Youngs Moduli (GPa) = 103.02375 83.03321 70.09443
#
# Poissons Ratio (x) = 0.23495 0.15541
# Poissons Ratio (y) = 0.29151 0.26373
# Poissons Ratio (z) = 0.22842 0.31242
#
# Static dielectric constant tensor:
#      x y z
#    x 3.987550 0.000000 -0.012200 
#    y 0.000000 3.640290 0.000000 
#    z -0.012200 0.000000 3.574890 
# 
# 
# High freq. dielectric constant tensor:
#      x y z
#    x 1.823120 0.000000 0.003120 
#    y 0.000000 1.785190 0.000000 
#    z 0.003120 0.000000 1.799570 
# 
# From -- ./inp_files/44246.got.cif
#   From: 2010.06.25/outbox.cif.g09.slc.cpg/sg11_23_cif.got.tgz:44246.got - 2010.06.27 23:14:04.
