data_PCOD8075652
_publ_section_title
;
Structure prediction by ZEFSAII (Michael W. Deem and Ramdas Pophale) SiO2 
 PCOD8075652
Probable space group: P 21/M
;
_chemical_formula_sum "Si O2"
_cell_formula_units_Z 24
_cell_length_a 18.277449
_cell_length_b 17.640328
_cell_length_c 5.157131
_cell_angle_alpha 90.000000
_cell_angle_beta 129.245073
_cell_angle_gamma 90.000000
_cell_volume 1287.722042
_symmetry_space_group_name_H-M "P 21/M"
_symmetry_group_IT_number 11
_symmetry_cell_setting 'monoclinic'
loop_
_space_group_symop_operation_xyz
x,y,z
-x,1/2+y,-z
-x,-y,-z
x,1/2-y,z
loop_
_atom_site_type_symbol
_atom_site_label
_atom_site_fract_x
_atom_site_fract_y
_atom_site_fract_z
Si Si1 0.897038 0.979292 0.667405
Si Si2 0.394059 0.526454 0.226711
Si Si3 0.286035 0.521897 0.495453
Si Si4 0.694499 0.165078 0.168254
Si Si5 0.007291 0.165647 0.173970
Si Si6 0.110313 0.869484 0.594774
O O1 0.818963 0.986523 0.719303
O O2 0.905041 0.892485 0.586155
O O3 0.871049 0.039254 0.381560
O O4 0.000000 0.000000 0.000000
O O5 0.500000 0.500000 0.500000
O O6 0.331740 0.498289 0.328171
O O7 0.350318 0.486912 0.872473
O O8 0.385565 0.618589 0.175414
O O9 0.282247 0.614329 0.522129
O O10 0.658708 0.250000 0.158478
O O11 0.789977 0.172327 0.214104
O O12 0.048273 0.250000 0.298862
O O13 0.926586 0.150172 0.204324
O O14 0.962757 0.157509 0.788698
#
# Coordination Sequence:
#
# PCOD8075652 Si02
#       6
#     4   4   4   4   4   4
#     4   9  20  34  55  78 111 145 185 212 261 321
#     4  10  21  37  57  78 107 139 178 220 273 318
#     4   9  21  35  55  79 108 142 178 217 263 319
#     4   9  20  32  54  81 109 133 169 220 279 323
#     4  11  21  33  50  75 110 146 182 220 260 305
#     4  10  21  34  49  76 109 144 176 218 267 322
#
# _framework density 18.637563
#
# number of rings (size 3 to 8) (size 9 to 14) (size 15 to 20)
#    1.000    1.333    0.000    2.500    7.000    3.333 
#    0.000    0.000    0.000    2.000    0.000    0.000 
#    0.000    0.000    0.000    0.000    0.000    0.000 
#
# Total GULP energy -297323.336467 kJ/mol
# GULP energy per Si atom -12388.472353 kJ/mol
# Density = 1.859514 g / cm^3
# Si number density = 18.637563 Si / 1000 Ang^3
#
#
#
# Elastic Constant Matrix: (Units=GPa)
#
#
# Indices 1 2 3 4 5 6 
#
# 1 78.7865 25.3471 11.6425 0.0000 3.5422 0.0000
# 2 25.3471 126.5742 6.5336 0.0000 10.3698 0.0000
# 3 11.6425 6.5336 45.2008 0.0000 1.0546 0.0000
# 4 0.0000 0.0000 0.0000 18.0352 0.0000 4.3554
# 5 3.5422 10.3698 1.0546 0.0000 33.0735 0.0000
# 6 0.0000 0.0000 0.0000 4.3554 0.0000 12.5039
#
#
#
# Elastic Compliance Matrix: (Units=1/GPa)
#
#
# Indices 1 2 3 4 5 6 
#
# 1 0.014030 -0.002595 -0.003225 0.000000 -0.000586 0.000000
# 2 -0.002595 0.008645 -0.000525 0.000000 -0.002416 0.000000
# 3 -0.003225 -0.000525 0.023035 0.000000 -0.000225 0.000000
# 4 0.000000 0.000000 0.000000 0.060540 0.000000 -0.021087
# 5 -0.000586 -0.002416 -0.000225 0.000000 0.031063 0.000000
# 6 0.000000 0.000000 0.000000 -0.021087 0.000000 0.087320
#
#
# Mechanical properties :
#
#
# Convention : Reuss Voigt Hill
#
# Bulk Modulus (GPa) = 30.28395 37.51201 33.89798
# Shear Modulus (GPa) = 20.13447 26.52508 23.32978
#
# Velocity S-wave (km/s) = 3.29038 3.77663 3.54186
# Velocity P-wave (km/s) = 5.54253 6.26004 5.91218
#
# Compressibility (1/GPa) = 0.03302079
#
# Stress axis : x y z
#
# Youngs Moduli (GPa) = 71.27401 115.67091 43.41171
#
# Poissons Ratio (x) = 0.30018 0.14000
# Poissons Ratio (y) = 0.18497 0.02278
# Poissons Ratio (z) = 0.22986 0.06071
#
# Static dielectric constant tensor:
#      x y z
#    x 3.360410 0.000000 -0.012940 
#    y 0.000000 3.901500 0.000000 
#    z -0.012940 0.000000 3.262450 
# 
# 
# High freq. dielectric constant tensor:
#      x y z
#    x 1.709250 0.000000 -0.016690 
#    y 0.000000 1.703110 0.000000 
#    z -0.016690 0.000000 1.707570 
# 
# From -- ./inp_files/8204.got.cif
#   From: 2010.06.25/outbox.cif.g09.slc.cpg/sg11_5_cif.got.tgz:8204.got - 2010.06.27 23:14:04.
