data_PCOD8075327
_publ_section_title
;
Structure prediction by ZEFSAII (Michael W. Deem and Ramdas Pophale) SiO2 
 PCOD8075327
Probable space group: P 21/M
;
_chemical_formula_sum "Si O2"
_cell_formula_units_Z 28
_cell_length_a 9.429747
_cell_length_b 14.726235
_cell_length_c 12.380353
_cell_angle_alpha 90.000000
_cell_angle_beta 121.182389
_cell_angle_gamma 90.000000
_cell_volume 1470.810465
_symmetry_space_group_name_H-M "P 21/M"
_symmetry_group_IT_number 11
_symmetry_cell_setting 'monoclinic'
loop_
_space_group_symop_operation_xyz
x,y,z
-x,1/2+y,-z
-x,-y,-z
x,1/2-y,z
loop_
_atom_site_type_symbol
_atom_site_label
_atom_site_fract_x
_atom_site_fract_y
_atom_site_fract_z
Si Si1 0.296169 0.352958 0.670676
Si Si2 0.993678 0.960705 0.379691
Si Si3 0.135299 0.531355 0.878979
Si Si4 0.323237 0.036847 0.463518
Si Si5 0.739735 0.851846 0.987027
Si Si6 0.543880 0.147126 0.961905
Si Si7 0.826669 0.646792 0.785951
O O1 0.305502 0.250000 0.634817
O O2 0.113199 0.368156 0.652701
O O3 0.332601 0.417447 0.584235
O O4 0.433047 0.375113 0.814238
O O5 0.893850 0.029927 0.261779
O O6 0.000000 0.000000 0.500000
O O7 0.184390 0.955177 0.410960
O O8 0.130050 0.427208 0.919360
O O9 0.989983 0.588500 0.877049
O O10 0.308097 0.576348 0.977888
O O11 0.273830 0.111516 0.356174
O O12 0.500000 0.000000 0.500000
O O13 0.806402 0.750000 0.042848
O O14 0.561912 0.867700 0.971527
O O15 0.712764 0.860229 0.847730
O O16 0.612395 0.250000 0.983562
O O17 0.880166 0.750000 0.783111
#
# Coordination Sequence:
#
# PCOD8075327 Si02
#       7
#     4   4   4   4   4   4   4
#     4  10  20  38  59  82 117 153 191 244 298 345
#     4   9  20  36  57  85 109 149 197 237 285 350
#     4  11  20  35  60  84 115 153 194 237 292 351
#     4  10  22  38  60  84 115 153 199 245 293 357
#     4  10  21  35  54  84 117 150 188 235 290 342
#     4  10  21  35  57  89 117 149 196 243 288 346
#     4  10  22  39  57  81 116 154 191 237 293 354
#
# _framework density 19.037123000000001
#
# number of rings (size 3 to 8) (size 9 to 14) (size 15 to 20)
#    0.000    2.000    1.429    1.714    2.000    1.143 
#    0.000    2.143    0.000    0.857    0.000    0.000 
#    0.000    0.000    0.000    0.000    0.000    0.000 
#
# Total GULP energy -347026.442181 kJ/mol
# GULP energy per Si atom -12393.801506 kJ/mol
# Density = 1.899379 g / cm^3
# Si number density = 19.037123 Si / 1000 Ang^3
#
#
#
# Elastic Constant Matrix: (Units=GPa)
#
#
# Indices 1 2 3 4 5 6 
#
# 1 121.5932 60.1360 53.3284 0.0000 7.0464 0.0000
# 2 60.1360 104.0820 44.1401 0.0000 8.7652 0.0000
# 3 53.3284 44.1401 105.1575 0.0000 -2.8045 0.0000
# 4 0.0000 0.0000 0.0000 22.4654 0.0000 -1.1229
# 5 7.0464 8.7652 -2.8045 0.0000 34.6222 0.0000
# 6 0.0000 0.0000 0.0000 -1.1229 0.0000 26.7145
#
#
#
# Elastic Compliance Matrix: (Units=1/GPa)
#
#
# Indices 1 2 3 4 5 6 
#
# 1 0.012921 -0.005518 -0.004279 0.000000 -0.001579 0.000000
# 2 -0.005518 0.014449 -0.003342 0.000000 -0.002806 0.000000
# 3 -0.004279 -0.003342 0.013156 0.000000 0.002783 0.000000
# 4 0.000000 0.000000 0.000000 0.044607 0.000000 0.001875
# 5 -0.001579 -0.002806 0.002783 0.000000 0.030140 0.000000
# 6 0.000000 0.000000 0.000000 0.001875 0.000000 0.037512
#
#
# Mechanical properties :
#
#
# Convention : Reuss Voigt Hill
#
# Bulk Modulus (GPa) = 70.17425 71.78243 70.97834
# Shear Modulus (GPa) = 27.20165 28.30895 27.75530
#
# Velocity S-wave (km/s) = 3.78415 3.86040 3.82246
# Velocity P-wave (km/s) = 7.48564 7.59333 7.53968
#
# Compressibility (1/GPa) = 0.01425024
#
# Stress axis : x y z
#
# Youngs Moduli (GPa) = 77.39189 69.20681 76.00945
#
# Poissons Ratio (x) = 0.38189 0.32522
# Poissons Ratio (y) = 0.42705 0.25400
# Poissons Ratio (z) = 0.33113 0.23127
#
# Static dielectric constant tensor:
#      x y z
#    x 3.608810 0.000000 -0.094840 
#    y 0.000000 3.652020 0.000000 
#    z -0.094840 0.000000 3.570660 
# 
# 
# High freq. dielectric constant tensor:
#      x y z
#    x 1.735320 0.000000 -0.013290 
#    y 0.000000 1.734090 0.000000 
#    z -0.013290 0.000000 1.750010 
# 
# From -- ./inp_files/17717.got.cif
#   From: 2010.06.25/outbox.cif.g09.slc.cpg/sg11_9_cif.got.tgz:17717.got - 2010.06.27 23:14:04.
