data_PCOD8075669
_publ_section_title
;
Structure prediction by ZEFSAII (Michael W. Deem and Ramdas Pophale) SiO2 
 PCOD8075669
Probable space group: P 21/M
;
_chemical_formula_sum "Si O2"
_cell_formula_units_Z 28
_cell_length_a 33.377504
_cell_length_b 7.609005
_cell_length_c 33.784732
_cell_angle_alpha 90.000000
_cell_angle_beta 8.905023
_cell_angle_gamma 90.000000
_cell_volume 1328.203862
_symmetry_space_group_name_H-M "P 21/M"
_symmetry_group_IT_number 11
_symmetry_cell_setting 'monoclinic'
loop_
_space_group_symop_operation_xyz
x,y,z
-x,1/2+y,-z
-x,-y,-z
x,1/2-y,z
loop_
_atom_site_type_symbol
_atom_site_label
_atom_site_fract_x
_atom_site_fract_y
_atom_site_fract_z
Si Si1 0.491133 0.046116 0.749547
Si Si2 0.863999 0.948872 0.249979
Si Si3 0.598841 0.051037 0.250026
Si Si4 0.105848 0.750000 0.250023
Si Si5 0.659436 0.750000 0.750016
Si Si6 0.275215 0.545025 0.249999
Si Si7 0.225337 0.952269 0.749998
Si Si8 0.958927 0.543868 0.750515
O O1 0.480492 0.250000 0.749992
O O2 0.766428 0.991896 0.498823
O O3 0.448966 0.945245 0.750004
O O4 0.265972 0.991686 0.999463
O O5 0.880191 0.750000 0.249985
O O6 0.632560 0.045021 0.499987
O O7 0.816107 0.943983 0.249999
O O8 0.132587 0.045013 0.999957
O O9 0.615023 0.250000 0.250035
O O10 0.080195 0.571513 0.250140
O O11 0.883280 0.750000 0.499503
O O12 0.382292 0.750000 0.000476
O O13 0.685167 0.572264 0.750038
O O14 0.287442 0.750000 0.250024
O O15 0.000000 0.500000 0.500000
O O16 0.500000 0.500000 0.000000
O O17 0.214185 0.750000 0.749976
O O18 0.500000 0.000000 0.500000
O O19 0.000000 0.000000 0.000000
O O20 0.947156 0.750000 0.750481
#
# Coordination Sequence:
#
# PCOD8075669 Si02
#       8
#     4   4   4   2   2   4   4   4
#     4  10  21  38  60  88 118 159 205 257 308 374
#     4  10  21  38  55  84 122 155 188 249 305 360
#     4  10  21  34  57  87 119 151 196 245 308 371
#     4  12  26  42  66  94 132 178 216 276 328 388
#     4  12  26  42  66 104 134 172 232 268 338 400
#     4  12  23  43  71 100 139 180 224 282 336 400
#     4  12  25  42  65  90 117 161 209 250 302 374
#     4  10  23  41  62  88 124 165 216 266 317 376
#
# _framework density 21.081102000000001
#
# number of rings (size 3 to 8) (size 9 to 14) (size 15 to 20)
#    0.000    1.143    1.429    4.714    2.000    3.429 
#    0.000    0.000    0.000    0.000    0.000    0.000 
#    0.000    0.000    0.000    0.000    0.000    0.000 
#
# Total GULP energy -347266.419336 kJ/mol
# GULP energy per Si atom -12402.372119 kJ/mol
# Density = 2.103312 g / cm^3
# Si number density = 21.081102 Si / 1000 Ang^3
#
#
#
# Elastic Constant Matrix: (Units=GPa)
#
#
# Indices 1 2 3 4 5 6 
#
# 1 169.0489 43.9906 106.4832 0.0000 -1.9155 0.0000
# 2 43.9906 94.0278 37.4175 0.0000 0.2934 0.0000
# 3 106.4832 37.4175 245.1948 0.0000 -1.6256 0.0000
# 4 0.0000 0.0000 0.0000 8.3851 0.0000 1.3344
# 5 -1.9155 0.2934 -1.6256 0.0000 51.8516 0.0000
# 6 0.0000 0.0000 0.0000 1.3344 0.0000 34.7456
#
#
#
# Elastic Compliance Matrix: (Units=1/GPa)
#
#
# Indices 1 2 3 4 5 6 
#
# 1 0.008768 -0.002755 -0.003386 0.000000 0.000233 0.000000
# 2 -0.002755 0.012189 -0.000665 0.000000 -0.000192 0.000000
# 3 -0.003386 -0.000665 0.005651 0.000000 0.000056 0.000000
# 4 0.000000 0.000000 0.000000 0.119992 0.000000 -0.004608
# 5 0.000233 -0.000192 0.000056 0.000000 0.019297 0.000000
# 6 0.000000 0.000000 0.000000 -0.004608 0.000000 0.028958
#
#
# Mechanical properties :
#
#
# Convention : Reuss Voigt Hill
#
# Bulk Modulus (GPa) = 76.94671 98.22822 87.58746
# Shear Modulus (GPa) = 23.49642 40.35514 31.92578
#
# Velocity S-wave (km/s) = 3.34214 4.38000 3.89579
# Velocity P-wave (km/s) = 7.17445 8.50151 7.86602
#
# Compressibility (1/GPa) = 0.01299601
#
# Stress axis : x y z
#
# Youngs Moduli (GPa) = 114.05511 82.03852 176.97515
#
# Poissons Ratio (x) = 0.22605 0.59917
# Poissons Ratio (y) = 0.31427 0.11765
# Poissons Ratio (z) = 0.38615 0.05454
#
# Static dielectric constant tensor:
#      x y z
#    x 3.676520 0.000000 -0.044490 
#    y 0.000000 3.871800 0.000000 
#    z -0.044490 0.000000 4.619100 
# 
# 
# High freq. dielectric constant tensor:
#      x y z
#    x 1.824510 0.000000 -0.001550 
#    y 0.000000 1.826330 0.000000 
#    z -0.001550 0.000000 1.858200 
# 
# From -- ./inp_files/73867.got.cif
#   From: 2010.06.25/outbox.cif.g09.slc.cpg/sg11_37_cif.got.tgz:73867.got - 2010.06.27 23:14:04.
