data_PCOD8075964
_publ_section_title
;
Structure prediction by ZEFSAII (Michael W. Deem and Ramdas Pophale) SiO2 
 PCOD8075964
Probable space group: P 21/M
;
_chemical_formula_sum "Si O2"
_cell_formula_units_Z 28
_cell_length_a 14.273741
_cell_length_b 9.159106
_cell_length_c 16.175731
_cell_angle_alpha 90.000000
_cell_angle_beta 137.692199
_cell_angle_gamma 90.000000
_cell_volume 1423.452329
_symmetry_space_group_name_H-M "P 21/M"
_symmetry_group_IT_number 11
_symmetry_cell_setting 'monoclinic'
loop_
_space_group_symop_operation_xyz
x,y,z
-x,1/2+y,-z
-x,-y,-z
x,1/2-y,z
loop_
_atom_site_type_symbol
_atom_site_label
_atom_site_fract_x
_atom_site_fract_y
_atom_site_fract_z
Si Si1 0.369167 0.584246 0.734892
Si Si2 0.419541 0.916868 0.376744
Si Si3 0.316216 0.415678 0.546113
Si Si4 0.646115 0.079345 0.093231
Si Si5 0.690898 0.923208 0.965613
Si Si6 0.188377 0.416313 0.293469
Si Si7 0.077091 0.581002 0.976640
O O1 0.364823 0.750000 0.703393
O O2 0.282494 0.497326 0.609262
O O3 0.292376 0.562930 0.773569
O O4 0.530526 0.535338 0.845166
O O5 0.396082 0.750000 0.386250
O O6 0.516328 0.930484 0.358870
O O7 0.500000 0.000000 0.500000
O O8 0.268153 0.993694 0.272253
O O9 0.270768 0.250000 0.529708
O O10 0.227449 0.479193 0.410218
O O11 0.628654 0.250000 0.059002
O O12 0.738480 0.997481 0.084041
O O13 0.500000 0.000000 0.000000
O O14 0.716653 0.750000 0.986090
O O15 0.781362 0.995775 0.951891
O O16 0.242994 0.250000 0.324273
O O17 0.024181 0.426104 0.169650
O O18 0.109884 0.750000 0.021215
O O19 0.000000 0.500000 0.000000
#
# Coordination Sequence:
#
# PCOD8075964 Si02
#       7
#     4   4   4   4   4   4   4
#     4   9  19  32  51  81 112 137 167 212 266 317
#     4   9  17  29  46  70  97 131 172 213 257 308
#     4   9  18  31  49  75 103 133 171 213 263 315
#     4   9  17  32  53  79 109 141 175 216 267 319
#     4  10  21  37  55  79 109 142 179 219 267 319
#     4   9  20  37  52  70 100 138 177 220 265 310
#     4  11  24  40  57  77 105 142 183 225 266 314
#
# _framework density 19.670487000000001
#
# number of rings (size 3 to 8) (size 9 to 14) (size 15 to 20)
#    0.000    2.571    0.000    3.429    2.000    7.429 
#    0.000    0.000    0.000    0.857    0.000    0.000 
#    0.000    0.000    0.000    0.000    0.000    0.000 
#
# Total GULP energy -346974.462775 kJ/mol
# GULP energy per Si atom -12391.945099 kJ/mol
# Density = 1.962572 g / cm^3
# Si number density = 19.670487 Si / 1000 Ang^3
#
#
#
# Elastic Constant Matrix: (Units=GPa)
#
#
# Indices 1 2 3 4 5 6 
#
# 1 82.1164 38.8494 12.3130 0.0000 -19.4774 0.0000
# 2 38.8494 102.8465 19.3049 0.0000 -14.6106 0.0000
# 3 12.3130 19.3049 46.8973 0.0000 -14.7472 0.0000
# 4 0.0000 0.0000 0.0000 24.9137 0.0000 -5.4899
# 5 -19.4774 -14.6106 -14.7472 0.0000 27.8682 0.0000
# 6 0.0000 0.0000 0.0000 -5.4899 0.0000 36.1599
#
#
#
# Elastic Compliance Matrix: (Units=1/GPa)
#
#
# Indices 1 2 3 4 5 6 
#
# 1 0.016714 -0.005108 0.000655 0.000000 0.009350 0.000000
# 2 -0.005108 0.012459 -0.003426 0.000000 0.001149 0.000000
# 3 0.000655 -0.003426 0.026561 0.000000 0.012716 0.000000
# 4 0.000000 0.000000 0.000000 0.041528 0.000000 0.006305
# 5 0.009350 0.001149 0.012716 0.000000 0.049750 0.000000
# 6 0.000000 0.000000 0.000000 0.006305 0.000000 0.028612
#
#
# Mechanical properties :
#
#
# Convention : Reuss Voigt Hill
#
# Bulk Modulus (GPa) = 25.01633 41.42164 33.21899
# Shear Modulus (GPa) = 24.42506 28.54787 26.48647
#
# Velocity S-wave (km/s) = 3.52762 3.81373 3.67346
# Velocity P-wave (km/s) = 5.41640 6.36366 5.90904
#
# Compressibility (1/GPa) = 0.03997389
#
# Stress axis : x y z
#
# Youngs Moduli (GPa) = 59.82969 80.26235 37.64989
#
# Poissons Ratio (x) = 0.41000 -0.02464
# Poissons Ratio (y) = 0.30562 0.12900
# Poissons Ratio (z) = -0.03916 0.27500
#
# Static dielectric constant tensor:
#      x y z
#    x 4.221070 0.000000 1.815370 
#    y 0.000000 3.801320 0.000000 
#    z 1.815370 0.000000 7.480060 
# 
# 
# High freq. dielectric constant tensor:
#      x y z
#    x 1.748870 0.000000 -0.022580 
#    y 0.000000 1.773460 0.000000 
#    z -0.022580 0.000000 1.742760 
# 
# From -- ./inp_files/60126.got.cif
#   From: 2010.06.25/outbox.cif.g09.slc.cpg/sg11_31_cif.got.tgz:60126.got - 2010.06.27 23:14:04.
