data_PCOD8075590
_publ_section_title
;
Structure prediction by ZEFSAII (Michael W. Deem and Ramdas Pophale) SiO2 
 PCOD8075590
Probable space group: P 21/M
;
_chemical_formula_sum "Si O2"
_cell_formula_units_Z 24
_cell_length_a 13.737589
_cell_length_b 9.082874
_cell_length_c 9.880160
_cell_angle_alpha 90.000000
_cell_angle_beta 89.760872
_cell_angle_gamma 90.000000
_cell_volume 1232.803912
_symmetry_space_group_name_H-M "P 21/M"
_symmetry_group_IT_number 11
_symmetry_cell_setting 'monoclinic'
loop_
_space_group_symop_operation_xyz
x,y,z
-x,1/2+y,-z
-x,-y,-z
x,1/2-y,z
loop_
_atom_site_type_symbol
_atom_site_label
_atom_site_fract_x
_atom_site_fract_y
_atom_site_fract_z
Si Si1 0.075188 0.420944 0.403354
Si Si2 0.711827 0.923349 0.523305
Si Si3 0.922120 0.577661 0.906235
Si Si4 0.638350 0.417959 0.262329
Si Si5 0.277688 0.579758 0.028207
Si Si6 0.417684 0.423589 0.225037
O O1 0.071298 0.250000 0.438141
O O2 0.183204 0.483608 0.430180
O O3 0.046221 0.450314 0.248339
O O4 0.000000 0.500000 0.500000
O O5 0.714161 0.750000 0.509091
O O6 0.632722 0.971803 0.634568
O O7 0.685615 0.987171 0.378928
O O8 0.918633 0.750000 0.940167
O O9 0.816216 0.511902 0.930255
O O10 0.000000 0.500000 0.000000
O O11 0.634538 0.250000 0.311623
O O12 0.529545 0.472536 0.231315
O O13 0.705983 0.436766 0.131492
O O14 0.263712 0.750000 0.068670
O O15 0.371099 0.514181 0.103036
O O16 0.404736 0.250000 0.196919
#
# Coordination Sequence:
#
# PCOD8075590 Si02
#       6
#     4   4   4   4   4   4
#     4  10  23  42  63  89 119 154 196 246 298 354
#     4  10  21  39  61  87 119 157 201 244 299 358
#     4  11  24  44  66  90 121 156 197 246 299 355
#     4  10  23  38  58  90 124 159 200 247 296 349
#     4  11  23  39  60  91 124 157 201 245 295 357
#     4  10  20  40  63  85 120 161 201 249 300 348
#
# _framework density 19.467817
#
# number of rings (size 3 to 8) (size 9 to 14) (size 15 to 20)
#    0.000    1.667    1.667    2.000    2.333    4.667 
#    0.000    0.000    0.000    0.000    0.000    0.000 
#    0.000    0.000    0.000    0.000    0.000    0.000 
#
# Total GULP energy -297718.979831 kJ/mol
# GULP energy per Si atom -12404.957493 kJ/mol
# Density = 1.942351 g / cm^3
# Si number density = 19.467817 Si / 1000 Ang^3
#
#
#
# Elastic Constant Matrix: (Units=GPa)
#
#
# Indices 1 2 3 4 5 6 
#
# 1 95.1214 39.5730 29.8658 0.0000 -0.9774 0.0000
# 2 39.5730 65.1763 39.9658 0.0000 1.2478 0.0000
# 3 29.8658 39.9658 86.6753 0.0000 4.4205 0.0000
# 4 0.0000 0.0000 0.0000 35.8782 0.0000 2.8785
# 5 -0.9774 1.2478 4.4205 0.0000 40.3051 0.0000
# 6 0.0000 0.0000 0.0000 2.8785 0.0000 31.8647
#
#
#
# Elastic Compliance Matrix: (Units=1/GPa)
#
#
# Indices 1 2 3 4 5 6 
#
# 1 0.014188 -0.007818 -0.001321 0.000000 0.000731 0.000000
# 2 -0.007818 0.025707 -0.009160 0.000000 0.000019 0.000000
# 3 -0.001321 -0.009160 0.016295 0.000000 -0.001536 0.000000
# 4 0.000000 0.000000 0.000000 0.028076 0.000000 -0.002536
# 5 0.000731 0.000019 -0.001536 0.000000 0.024996 0.000000
# 6 0.000000 0.000000 0.000000 -0.002536 0.000000 0.031612
#
#
# Mechanical properties :
#
#
# Convention : Reuss Voigt Hill
#
# Bulk Modulus (GPa) = 51.04686 51.75360 51.40023
# Shear Modulus (GPa) = 27.17359 30.78081 28.97720
#
# Velocity S-wave (km/s) = 3.74012 3.98063 3.86225
# Velocity P-wave (km/s) = 6.70294 6.91152 6.80803
#
# Compressibility (1/GPa) = 0.01958984
#
# Stress axis : x y z
#
# Youngs Moduli (GPa) = 70.48315 38.90023 61.37005
#
# Poissons Ratio (x) = 0.30414 0.08107
# Poissons Ratio (y) = 0.55106 0.56217
# Poissons Ratio (z) = 0.09310 0.35634
#
# Static dielectric constant tensor:
#      x y z
#    x 3.819810 0.000000 0.068560 
#    y 0.000000 3.501560 0.000000 
#    z 0.068560 0.000000 3.621180 
# 
# 
# High freq. dielectric constant tensor:
#      x y z
#    x 1.770720 0.000000 -0.000720 
#    y 0.000000 1.755760 0.000000 
#    z -0.000720 0.000000 1.769610 
# 
# From -- ./inp_files/20486.got.cif
#   From: 2010.06.25/outbox.cif.g09.slc.cpg/sg11_11_cif.got.tgz:20486.got - 2010.06.27 23:14:04.
