data_PCOD8075874
_publ_section_title
;
Structure prediction by ZEFSAII (Michael W. Deem and Ramdas Pophale) SiO2 
 PCOD8075874
Probable space group: P 21/M
;
_chemical_formula_sum "Si O2"
_cell_formula_units_Z 28
_cell_length_a 25.555979
_cell_length_b 8.754870
_cell_length_c 9.373149
_cell_angle_alpha 90.000000
_cell_angle_beta 45.438257
_cell_angle_gamma 90.000000
_cell_volume 1494.202287
_symmetry_space_group_name_H-M "P 21/M"
_symmetry_group_IT_number 11
_symmetry_cell_setting 'monoclinic'
loop_
_space_group_symop_operation_xyz
x,y,z
-x,1/2+y,-z
-x,-y,-z
x,1/2-y,z
loop_
_atom_site_type_symbol
_atom_site_label
_atom_site_fract_x
_atom_site_fract_y
_atom_site_fract_z
Si Si1 0.579969 0.068526 0.836468
Si Si2 0.931404 0.931105 0.717668
Si Si3 0.764487 0.930160 0.981438
Si Si4 0.317930 0.917307 0.606330
Si Si5 0.056335 0.570171 0.998908
Si Si6 0.304357 0.426831 0.180443
Si Si7 0.205376 0.916069 0.574572
O O1 0.577529 0.250000 0.842951
O O2 0.615039 0.012751 0.617591
O O3 0.626419 0.017180 0.886469
O O4 0.500000 0.000000 0.000000
O O5 0.934171 0.750000 0.695131
O O6 0.849266 0.992974 0.828242
O O7 0.945221 0.978108 0.852466
O O8 0.000000 0.000000 0.500000
O O9 0.770528 0.750000 0.965776
O O10 0.721439 0.990475 0.923918
O O11 0.710636 0.974175 0.213981
O O12 0.339617 0.750000 0.627982
O O13 0.252138 0.894646 0.625394
O O14 0.045434 0.750000 0.049195
O O15 0.128247 0.528788 0.775304
O O16 0.000000 0.500000 0.000000
O O17 0.325718 0.250000 0.132679
O O18 0.234693 0.452081 0.415578
O O19 0.202598 0.750000 0.501049
#
# Coordination Sequence:
#
# PCOD8075874 Si02
#       7
#     4   4   4   4   4   4   4
#     4  10  21  39  62  91 120 150 189 232 281 342
#     4  11  24  41  58  83 116 158 202 249 304 356
#     4  10  22  38  57  84 117 151 195 240 287 345
#     4   9  18  35  59  84 111 145 187 231 280 337
#     4  11  23  39  57  81 112 148 195 249 301 356
#     4  10  21  36  57  86 117 151 189 235 283 337
#     4   9  19  36  55  79 108 144 190 238 287 343
#
# _framework density 18.739097999999998
#
# number of rings (size 3 to 8) (size 9 to 14) (size 15 to 20)
#    0.000    2.000    1.429    2.571    2.000    5.714 
#    0.000    0.714    0.000    0.000    0.000    0.000 
#    0.000    0.000    0.000    0.000    0.000    0.000 
#
# Total GULP energy -346910.938443 kJ/mol
# GULP energy per Si atom -12389.676373 kJ/mol
# Density = 1.869645 g / cm^3
# Si number density = 18.739098 Si / 1000 Ang^3
#
#
#
# Elastic Constant Matrix: (Units=GPa)
#
#
# Indices 1 2 3 4 5 6 
#
# 1 182.5579 54.7537 16.4251 0.0000 -10.5533 0.0000
# 2 54.7537 55.1606 17.1652 0.0000 -4.9319 0.0000
# 3 16.4251 17.1652 219.1168 0.0000 -6.5775 0.0000
# 4 0.0000 0.0000 0.0000 25.6032 0.0000 7.4975
# 5 -10.5533 -4.9319 -6.5775 0.0000 35.0694 0.0000
# 6 0.0000 0.0000 0.0000 7.4975 0.0000 23.9616
#
#
#
# Elastic Compliance Matrix: (Units=1/GPa)
#
#
# Indices 1 2 3 4 5 6 
#
# 1 0.007857 -0.007700 0.000053 0.000000 0.001291 0.000000
# 2 -0.007700 0.026323 -0.001452 0.000000 0.001113 0.000000
# 3 0.000053 -0.001452 0.004694 0.000000 0.000692 0.000000
# 4 0.000000 0.000000 0.000000 0.042997 0.000000 -0.013454
# 5 0.001291 0.001113 0.000692 0.000000 0.029190 0.000000
# 6 0.000000 0.000000 0.000000 -0.013454 0.000000 0.045943
#
#
# Mechanical properties :
#
#
# Convention : Reuss Voigt Hill
#
# Bulk Modulus (GPa) = 48.36186 70.39148 59.37667
# Shear Modulus (GPa) = 27.45822 41.49293 34.47557
#
# Velocity S-wave (km/s) = 3.83206 4.71068 4.29390
# Velocity P-wave (km/s) = 6.74119 8.19956 7.50588
#
# Compressibility (1/GPa) = 0.02067745
#
# Stress axis : x y z
#
# Youngs Moduli (GPa) = 127.27393 37.98900 213.02457
#
# Poissons Ratio (x) = 0.29252 -0.01129
# Poissons Ratio (y) = 0.98003 0.30921
# Poissons Ratio (z) = -0.00675 0.05514
#
# Static dielectric constant tensor:
#      x y z
#    x 3.531490 0.000000 -0.122650 
#    y 0.000000 3.422880 0.000000 
#    z -0.122650 0.000000 4.165540 
# 
# 
# High freq. dielectric constant tensor:
#      x y z
#    x 1.723250 0.000000 -0.002780 
#    y 0.000000 1.727840 0.000000 
#    z -0.002780 0.000000 1.733700 
# 
# From -- ./inp_files/28431.got.cif
#   From: 2010.06.25/outbox.cif.g09.slc.cpg/sg11_15_cif.got.tgz:28431.got - 2010.06.27 23:14:04.
