data_PCOD8075256
_publ_section_title
;
Structure prediction by ZEFSAII (Michael W. Deem and Ramdas Pophale) SiO2 
 PCOD8075256
Probable space group: P 21/M
;
_chemical_formula_sum "Si O2"
_cell_formula_units_Z 32
_cell_length_a 8.471813
_cell_length_b 29.813431
_cell_length_c 11.798703
_cell_angle_alpha 90.000000
_cell_angle_beta 33.967747
_cell_angle_gamma 90.000000
_cell_volume 1665.028121
_symmetry_space_group_name_H-M "P 21/M"
_symmetry_group_IT_number 11
_symmetry_cell_setting 'monoclinic'
loop_
_space_group_symop_operation_xyz
x,y,z
-x,1/2+y,-z
-x,-y,-z
x,1/2-y,z
loop_
_atom_site_type_symbol
_atom_site_label
_atom_site_fract_x
_atom_site_fract_y
_atom_site_fract_z
Si Si1 0.283217 0.380820 0.189386
Si Si2 0.967179 0.799932 0.056763
Si Si3 0.937532 0.372078 0.169889
Si Si4 0.611907 0.698918 0.718664
Si Si5 0.806250 0.457452 0.093413
Si Si6 0.166709 0.456943 0.440017
Si Si7 0.330779 0.166796 0.560380
Si Si8 0.103683 0.589793 0.191287
O O1 0.101131 0.384274 0.185367
O O2 0.233173 0.333891 0.284995
O O3 0.195570 0.421750 0.321365
O O4 0.608081 0.383448 0.959130
O O5 0.969212 0.750000 0.001516
O O6 0.743492 0.799681 0.292869
O O7 0.881842 0.836786 0.013338
O O8 0.278630 0.812196 0.918224
O O9 0.879621 0.417177 0.134694
O O10 0.654222 0.347052 0.375110
O O11 0.673575 0.750000 0.718224
O O12 0.737569 0.690237 0.518697
O O13 0.475538 0.469750 0.305275
O O14 0.000000 0.500000 0.000000
O O15 0.863159 0.444516 0.930836
O O16 0.969114 0.436985 0.653548
O O17 0.000000 0.500000 0.500000
O O18 0.146233 0.123057 0.690309
#
# Coordination Sequence:
#
# PCOD8075256 Si02
#       8
#     4   4   4   4   4   4   4   4
#     4  11  24  40  61  90 125 160 194 248 309 353
#     4  10  20  38  64  89 116 158 203 243 297 359
#     4  11  24  39  60  91 127 156 195 253 303 351
#     4  10  20  37  62  90 118 155 201 246 292 356
#     4  11  25  41  61  92 122 159 203 250 302 357
#     4  11  25  42  63  90 120 160 205 249 297 362
#     4  11  18  40  64  88 114 159 203 242 294 352
#     4  11  21  42  66  82 123 159 199 245 294 359
#
# _framework density 19.218893999999999
#
# number of rings (size 3 to 8) (size 9 to 14) (size 15 to 20)
#    0.000    1.250    5.000    1.875    3.500    4.500 
#    0.000    0.000    0.000    0.000    0.000    0.000 
#    0.000    0.000    0.000    0.000    0.000    0.000 
#
# Total GULP energy -396865.138917 kJ/mol
# GULP energy per Si atom -12402.035591 kJ/mol
# Density = 1.917515 g / cm^3
# Si number density = 19.218894 Si / 1000 Ang^3
#
#
#
# Elastic Constant Matrix: (Units=GPa)
#
#
# Indices 1 2 3 4 5 6 
#
# 1 112.7337 49.7642 38.9942 0.0000 6.5887 0.0000
# 2 49.7642 121.1162 35.1671 0.0000 -1.5581 0.0000
# 3 38.9942 35.1671 105.6331 0.0000 17.1716 0.0000
# 4 0.0000 0.0000 0.0000 28.0880 0.0000 -2.8471
# 5 6.5887 -1.5581 17.1716 0.0000 19.9699 0.0000
# 6 0.0000 0.0000 0.0000 -2.8471 0.0000 12.8685
#
#
#
# Elastic Compliance Matrix: (Units=1/GPa)
#
#
# Indices 1 2 3 4 5 6 
#
# 1 0.011691 -0.004056 -0.002658 0.000000 -0.001888 0.000000
# 2 -0.004056 0.010812 -0.002856 0.000000 0.004638 0.000000
# 3 -0.002658 -0.002856 0.013128 0.000000 -0.010634 0.000000
# 4 0.000000 0.000000 0.000000 0.036419 0.000000 0.008057
# 5 -0.001888 0.004638 -0.010634 0.000000 0.060204 0.000000
# 6 0.000000 0.000000 0.000000 0.008057 0.000000 0.079492
#
#
# Mechanical properties :
#
#
# Convention : Reuss Voigt Hill
#
# Bulk Modulus (GPa) = 60.64556 65.25933 62.95245
# Shear Modulus (GPa) = 21.15218 26.55577 23.85398
#
# Velocity S-wave (km/s) = 3.32112 3.72123 3.52685
# Velocity P-wave (km/s) = 6.80662 7.24520 7.02933
#
# Compressibility (1/GPa) = 0.01648925
#
# Stress axis : x y z
#
# Youngs Moduli (GPa) = 85.53785 92.49001 76.17538
#
# Poissons Ratio (x) = 0.37513 0.20251
# Poissons Ratio (y) = 0.34693 0.21757
# Poissons Ratio (z) = 0.22740 0.26417
#
# Static dielectric constant tensor:
#      x y z
#    x 3.189100 0.000000 -0.474780 
#    y 0.000000 3.541120 0.000000 
#    z -0.474780 0.000000 1.963600 
# 
# 
# High freq. dielectric constant tensor:
#      x y z
#    x 1.730170 0.000000 0.012350 
#    y 0.000000 1.758250 0.000000 
#    z 0.012350 0.000000 1.761600 
# 
# From -- ./inp_files/33191.got.cif
#   From: 2010.06.25/outbox.cif.g09.slc.cpg/sg11_17_cif.got.tgz:33191.got - 2010.06.27 23:14:04.
