data_PCOD8075077
_publ_section_title
;
Structure prediction by ZEFSAII (Michael W. Deem and Ramdas Pophale) SiO2 
 PCOD8075077
Probable space group: P 21/M
;
_chemical_formula_sum "Si O2"
_cell_formula_units_Z 32
_cell_length_a 12.008882
_cell_length_b 8.692846
_cell_length_c 31.068624
_cell_angle_alpha 90.000000
_cell_angle_beta 29.866166
_cell_angle_gamma 90.000000
_cell_volume 1615.082703
_symmetry_space_group_name_H-M "P 21/M"
_symmetry_group_IT_number 11
_symmetry_cell_setting 'monoclinic'
loop_
_space_group_symop_operation_xyz
x,y,z
-x,1/2+y,-z
-x,-y,-z
x,1/2-y,z
loop_
_atom_site_type_symbol
_atom_site_label
_atom_site_fract_x
_atom_site_fract_y
_atom_site_fract_z
Si Si1 0.548010 0.932261 0.030101
Si Si2 0.157440 0.431546 0.216031
Si Si3 0.839652 0.572540 0.615384
Si Si4 0.315903 0.928149 0.417997
Si Si5 0.316451 0.930599 0.245154
Si Si6 0.210907 0.568008 0.904798
Si Si7 0.954076 0.430696 0.131281
Si Si8 0.234747 0.932492 0.715605
O O1 0.530025 0.750000 0.034214
O O2 0.376840 0.995639 0.122006
O O3 0.794379 0.989889 0.961265
O O4 0.500000 0.000000 0.000000
O O5 0.181403 0.250000 0.206976
O O6 0.142756 0.492423 0.269821
O O7 0.936972 0.483559 0.264024
O O8 0.787707 0.750000 0.643337
O O9 0.697795 0.526324 0.621108
O O10 0.764197 0.468901 0.680155
O O11 0.101023 0.541961 0.519762
O O12 0.335257 0.750000 0.399160
O O13 0.529377 0.986043 0.373392
O O14 0.318677 0.750000 0.237268
O O15 0.563493 0.994879 0.152538
O O16 0.215217 0.750000 0.909941
O O17 0.196680 0.523240 0.858996
O O18 0.000000 0.500000 0.000000
O O19 0.963864 0.250000 0.134390
O O20 0.852962 0.499353 0.209231
O O21 0.267384 0.750000 0.705321
#
# Coordination Sequence:
#
# PCOD8075077 Si02
#       8
#     4   4   4   4   4   4   4   4
#     4  11  20  35  56  82 116 155 199 244 292 345
#     4  11  23  40  60  84 115 157 204 247 297 355
#     4  10  21  40  64  90 121 157 194 237 293 355
#     4  10  21  37  62  95 124 149 189 243 296 353
#     4  12  25  41  61  87 119 157 202 247 296 357
#     4  11  22  38  60  85 119 159 198 243 295 350
#     4   9  19  35  55  80 111 149 192 239 288 341
#     4  10  20  37  59  84 116 153 194 241 298 355
#
# _framework density 19.813227000000001
#
# number of rings (size 3 to 8) (size 9 to 14) (size 15 to 20)
#    0.000    1.500    1.250    4.500    0.000    4.500 
#    0.000    3.125    0.000    0.000    0.000    0.000 
#    0.000    0.000    0.000    0.000    0.000    0.000 
#
# Total GULP energy -396928.933097 kJ/mol
# GULP energy per Si atom -12404.029159 kJ/mol
# Density = 1.976813 g / cm^3
# Si number density = 19.813227 Si / 1000 Ang^3
#
#
#
# Elastic Constant Matrix: (Units=GPa)
#
#
# Indices 1 2 3 4 5 6 
#
# 1 106.6330 34.3219 38.6652 0.0000 -17.1345 0.0000
# 2 34.3219 76.4365 28.0673 0.0000 -10.6923 0.0000
# 3 38.6652 28.0673 85.3068 0.0000 -14.9977 0.0000
# 4 0.0000 0.0000 0.0000 33.4825 0.0000 1.1337
# 5 -17.1345 -10.6923 -14.9977 0.0000 32.4699 0.0000
# 6 0.0000 0.0000 0.0000 1.1337 0.0000 31.0976
#
#
#
# Elastic Compliance Matrix: (Units=1/GPa)
#
#
# Indices 1 2 3 4 5 6 
#
# 1 0.012545 -0.003722 -0.003824 0.000000 0.003629 0.000000
# 2 -0.003722 0.016235 -0.003331 0.000000 0.001844 0.000000
# 3 -0.003824 -0.003331 0.015241 0.000000 0.003925 0.000000
# 4 0.000000 0.000000 0.000000 0.029903 0.000000 -0.001090
# 5 0.003629 0.001844 0.003925 0.000000 0.035133 0.000000
# 6 0.000000 0.000000 0.000000 -0.001090 0.000000 0.032197
#
#
# Mechanical properties :
#
#
# Convention : Reuss Voigt Hill
#
# Bulk Modulus (GPa) = 44.90385 52.27613 48.58999
# Shear Modulus (GPa) = 29.33770 30.56480 29.95125
#
# Velocity S-wave (km/s) = 3.85218 3.93191 3.89225
# Velocity P-wave (km/s) = 6.51909 6.85967 6.69154
#
# Compressibility (1/GPa) = 0.02226981
#
# Stress axis : x y z
#
# Youngs Moduli (GPa) = 79.71058 61.59646 65.61059
#
# Poissons Ratio (x) = 0.22923 0.25088
# Poissons Ratio (y) = 0.29665 0.21852
# Poissons Ratio (z) = 0.30480 0.20515
#
# Static dielectric constant tensor:
#      x y z
#    x 4.111430 0.000000 0.458520 
#    y 0.000000 3.528620 0.000000 
#    z 0.458520 0.000000 4.533060 
# 
# 
# High freq. dielectric constant tensor:
#      x y z
#    x 1.780020 0.000000 -0.006280 
#    y 0.000000 1.770120 0.000000 
#    z -0.006280 0.000000 1.770360 
# 
# From -- ./inp_files/73065.got.cif
#   From: 2010.06.25/outbox.cif.g09.slc.cpg/sg11_37_cif.got.tgz:73065.got - 2010.06.27 23:14:04.
