data_PCOD8075041
_publ_section_title
;
Structure prediction by ZEFSAII (Michael W. Deem and Ramdas Pophale) SiO2 
 PCOD8075041
Probable space group: P 21/M
;
_chemical_formula_sum "Si O2"
_cell_formula_units_Z 32
_cell_length_a 28.352363
_cell_length_b 8.804899
_cell_length_c 11.765544
_cell_angle_alpha 90.000000
_cell_angle_beta 32.013560
_cell_angle_gamma 90.000000
_cell_volume 1557.040120
_symmetry_space_group_name_H-M "P 21/M"
_symmetry_group_IT_number 11
_symmetry_cell_setting 'monoclinic'
loop_
_space_group_symop_operation_xyz
x,y,z
-x,1/2+y,-z
-x,-y,-z
x,1/2-y,z
loop_
_atom_site_type_symbol
_atom_site_label
_atom_site_fract_x
_atom_site_fract_y
_atom_site_fract_z
Si Si1 0.767011 0.570227 0.954733
Si Si2 0.073772 0.070174 0.525615
Si Si3 0.373092 0.922628 0.320158
Si Si4 0.463002 0.575680 0.905544
Si Si5 0.925936 0.922725 0.225161
Si Si6 0.803996 0.921773 0.276214
Si Si7 0.875234 0.427045 0.921724
Si Si8 0.419575 0.929205 0.736336
O O1 0.755037 0.750000 0.969562
O O2 0.845877 0.503241 0.713535
O O3 0.799245 0.524698 0.014379
O O4 0.673683 0.493498 0.117244
O O5 0.084363 0.250000 0.506263
O O6 0.084957 0.000362 0.629129
O O7 0.975682 0.026807 0.677924
O O8 0.346195 0.750000 0.401481
O O9 0.459286 0.961973 0.217935
O O10 0.298270 0.033233 0.520023
O O11 0.386548 0.944974 0.157071
O O12 0.497078 0.750000 0.836094
O O13 0.427905 0.528920 0.852737
O O14 0.955792 0.750000 0.182174
O O15 0.833270 0.937050 0.347530
O O16 0.000000 0.000000 0.000000
O O17 0.815619 0.750000 0.208176
O O18 0.864997 0.032581 0.075428
O O19 0.858030 0.250000 0.936191
O O20 0.421098 0.750000 0.714319
O O21 0.500000 0.000000 0.500000
#
# Coordination Sequence:
#
# PCOD8075041 Si02
#       8
#     4   4   4   4   4   4   4   4
#     4  11  24  42  65  92 123 160 205 256 311 368
#     4   9  20  39  63  90 123 161 203 253 307 362
#     4  10  21  38  63  92 121 157 199 246 302 365
#     4   9  21  42  64  88 121 155 198 252 304 360
#     4  10  20  37  58  86 121 159 199 243 296 355
#     4  11  23  36  58  90 125 161 200 248 303 364
#     4  11  22  40  64  88 123 165 210 258 302 360
#     4  11  25  45  66  91 123 161 206 255 308 365
#
# _framework density 20.551815000000001
#
# number of rings (size 3 to 8) (size 9 to 14) (size 15 to 20)
#    0.000    1.750    1.250    2.250    3.500    2.000 
#    0.000    3.125    0.000    0.000    0.000    0.000 
#    0.000    0.000    0.000    0.000    0.000    0.000 
#
# Total GULP energy -396779.718573 kJ/mol
# GULP energy per Si atom -12399.366205 kJ/mol
# Density = 2.050504 g / cm^3
# Si number density = 20.551815 Si / 1000 Ang^3
#
#
#
# Elastic Constant Matrix: (Units=GPa)
#
#
# Indices 1 2 3 4 5 6 
#
# 1 117.1114 39.0191 45.1539 0.0000 -3.8970 0.0000
# 2 39.0191 67.5613 38.6691 0.0000 -5.7446 0.0000
# 3 45.1539 38.6691 110.1690 0.0000 -15.0873 0.0000
# 4 0.0000 0.0000 0.0000 30.5141 0.0000 -0.3663
# 5 -3.8970 -5.7446 -15.0873 0.0000 31.9326 0.0000
# 6 0.0000 0.0000 0.0000 -0.3663 0.0000 27.9029
#
#
#
# Elastic Compliance Matrix: (Units=1/GPa)
#
#
# Indices 1 2 3 4 5 6 
#
# 1 0.011305 -0.004860 -0.003056 0.000000 -0.000939 0.000000
# 2 -0.004860 0.020614 -0.005150 0.000000 0.000682 0.000000
# 3 -0.003056 -0.005150 0.012787 0.000000 0.004742 0.000000
# 4 0.000000 0.000000 0.000000 0.032777 0.000000 0.000430
# 5 -0.000939 0.000682 0.004742 0.000000 0.033564 0.000000
# 6 0.000000 0.000000 0.000000 0.000430 0.000000 0.035844
#
#
# Mechanical properties :
#
#
# Convention : Reuss Voigt Hill
#
# Bulk Modulus (GPa) = 53.84090 60.05843 56.94966
# Shear Modulus (GPa) = 27.89950 29.53659 28.71804
#
# Velocity S-wave (km/s) = 3.68845 3.79512 3.74217
# Velocity P-wave (km/s) = 6.66289 6.96350 6.81485
#
# Compressibility (1/GPa) = 0.01857324
#
# Stress axis : x y z
#
# Youngs Moduli (GPa) = 88.45485 48.51141 78.20597
#
# Poissons Ratio (x) = 0.23575 0.23903
# Poissons Ratio (y) = 0.42986 0.40278
# Poissons Ratio (z) = 0.27035 0.24984
#
# Static dielectric constant tensor:
#      x y z
#    x 4.001290 0.000000 0.168190 
#    y 0.000000 3.642680 0.000000 
#    z 0.168190 0.000000 3.800300 
# 
# 
# High freq. dielectric constant tensor:
#      x y z
#    x 1.812720 0.000000 0.002870 
#    y 0.000000 1.795220 0.000000 
#    z 0.002870 0.000000 1.805960 
# 
# From -- ./inp_files/45226.got.cif
#   From: 2010.06.25/outbox.cif.g09.slc.cpg/sg11_23_cif.got.tgz:45226.got - 2010.06.27 23:14:04.
