data_PCOD8075665
_publ_section_title
;
Structure prediction by ZEFSAII (Michael W. Deem and Ramdas Pophale) SiO2 
 PCOD8075665
Probable space group: P 21/M
;
_chemical_formula_sum "Si O2"
_cell_formula_units_Z 28
_cell_length_a 5.233984
_cell_length_b 26.849273
_cell_length_c 10.956871
_cell_angle_alpha 90.000000
_cell_angle_beta 81.904431
_cell_angle_gamma 90.000000
_cell_volume 1524.410114
_symmetry_space_group_name_H-M "P 21/M"
_symmetry_group_IT_number 11
_symmetry_cell_setting 'monoclinic'
loop_
_space_group_symop_operation_xyz
x,y,z
-x,1/2+y,-z
-x,-y,-z
x,1/2-y,z
loop_
_atom_site_type_symbol
_atom_site_label
_atom_site_fract_x
_atom_site_fract_y
_atom_site_fract_z
Si Si1 0.952055 0.602143 0.150107
Si Si2 0.317094 0.559126 0.594236
Si Si3 0.313297 0.513649 0.121904
Si Si4 0.799061 0.194891 0.949281
Si Si5 0.603638 0.549179 0.340344
Si Si6 0.207749 0.082366 0.263749
Si Si7 0.742180 0.844015 0.950801
O O1 0.823568 0.589485 0.289743
O O2 0.109289 0.554468 0.089278
O O3 0.740939 0.613703 0.058153
O O4 0.134559 0.651402 0.154357
O O5 0.405126 0.572791 0.450882
O O6 0.266755 0.499669 0.607858
O O7 0.537345 0.576154 0.672822
O O8 0.048579 0.587426 0.636302
O O9 0.466370 0.536446 0.224209
O O10 0.164771 0.464319 0.176452
O O11 0.500000 0.500000 0.000000
O O12 0.817529 0.250000 0.888182
O O13 0.516132 0.188136 0.023749
O O14 0.006644 0.190901 0.045953
O O15 0.242081 0.132197 0.183680
#
# Coordination Sequence:
#
# PCOD8075665 Si02
#       7
#     4   4   4   4   4   4   4
#     4  10  21  34  56  83 114 146 188 233 277 339
#     4  10  23  34  54  73 115 163 195 222 264 312
#     4  11  22  32  54  80 120 160 186 232 274 331
#     4  10  21  38  58  84 112 139 174 231 304 351
#     4  10  21  35  49  78 114 158 199 229 262 320
#     4  11  21  37  53  80 113 153 187 225 265 332
#     4  10  22  36  58  85 114 138 183 229 283 348
#
# _framework density 18.367761999999999
#
# number of rings (size 3 to 8) (size 9 to 14) (size 15 to 20)
#    0.857    0.857    1.429    3.857    6.000    2.857 
#    0.000    0.000    0.000    0.000    0.000    6.000 
#    0.000    0.000    0.000    0.000    0.000    0.000 
#
# Total GULP energy -347061.614289 kJ/mol
# GULP energy per Si atom -12395.057653 kJ/mol
# Density = 1.832596 g / cm^3
# Si number density = 18.367762 Si / 1000 Ang^3
#
#
#
# Elastic Constant Matrix: (Units=GPa)
#
#
# Indices 1 2 3 4 5 6 
#
# 1 101.6470 32.3006 26.1274 0.0000 -21.5550 0.0000
# 2 32.3006 77.0193 32.8648 0.0000 -14.4249 0.0000
# 3 26.1274 32.8648 100.1145 0.0000 -26.6507 0.0000
# 4 0.0000 0.0000 0.0000 7.4843 0.0000 -3.8108
# 5 -21.5550 -14.4249 -26.6507 0.0000 31.5990 0.0000
# 6 0.0000 0.0000 0.0000 -3.8108 0.0000 15.0880
#
#
#
# Elastic Compliance Matrix: (Units=1/GPa)
#
#
# Indices 1 2 3 4 5 6 
#
# 1 0.012538 -0.003929 -0.000236 0.000000 0.006560 0.000000
# 2 -0.003929 0.016636 -0.004033 0.000000 0.001513 0.000000
# 3 -0.000236 -0.004033 0.013980 0.000000 0.009789 0.000000
# 4 0.000000 0.000000 0.000000 0.153333 0.000000 0.038728
# 5 0.006560 0.001513 0.009789 0.000000 0.045068 0.000000
# 6 0.000000 0.000000 0.000000 0.038728 0.000000 0.076060
#
#
# Mechanical properties :
#
#
# Convention : Reuss Voigt Hill
#
# Bulk Modulus (GPa) = 37.37241 51.26295 44.31768
# Shear Modulus (GPa) = 14.58024 23.33345 18.95684
#
# Velocity S-wave (km/s) = 2.82049 3.56806 3.21607
# Velocity P-wave (km/s) = 5.56757 6.70407 6.16208
#
# Compressibility (1/GPa) = 0.02675771
#
# Stress axis : x y z
#
# Youngs Moduli (GPa) = 79.75564 60.11158 71.53161
#
# Poissons Ratio (x) = 0.23618 0.01689
# Poissons Ratio (y) = 0.31336 0.28849
# Poissons Ratio (z) = 0.01883 0.24243
#
# Static dielectric constant tensor:
#      x y z
#    x 3.412240 0.000000 -0.135390 
#    y 0.000000 3.171150 0.000000 
#    z -0.135390 0.000000 3.295830 
# 
# 
# High freq. dielectric constant tensor:
#      x y z
#    x 1.726210 0.000000 -0.011750 
#    y 0.000000 1.676110 0.000000 
#    z -0.011750 0.000000 1.693530 
# 
# From -- ./inp_files/30092.got.cif
#   From: 2010.06.25/outbox.cif.g09.slc.cpg/sg11_16_cif.got.tgz:30092.got - 2010.06.27 23:14:04.
