data_PCOD8075234
_publ_section_title
;
Structure prediction by ZEFSAII (Michael W. Deem and Ramdas Pophale) SiO2 
 PCOD8075234
Probable space group: P 21/M
;
_chemical_formula_sum "Si O2"
_cell_formula_units_Z 32
_cell_length_a 8.627820
_cell_length_b 18.872263
_cell_length_c 12.606429
_cell_angle_alpha 90.000000
_cell_angle_beta 132.936239
_cell_angle_gamma 90.000000
_cell_volume 1502.777847
_symmetry_space_group_name_H-M "P 21/M"
_symmetry_group_IT_number 11
_symmetry_cell_setting 'monoclinic'
loop_
_space_group_symop_operation_xyz
x,y,z
-x,1/2+y,-z
-x,-y,-z
x,1/2-y,z
loop_
_atom_site_type_symbol
_atom_site_label
_atom_site_fract_x
_atom_site_fract_y
_atom_site_fract_z
Si Si1 0.708724 0.826700 0.444514
Si Si2 0.766465 0.977736 0.929174
Si Si3 0.725847 0.031196 0.569608
Si Si4 0.764258 0.172165 0.706787
Si Si5 0.970739 0.172469 0.221882
Si Si6 0.888163 0.829027 0.953173
Si Si7 0.838304 0.473525 0.186793
Si Si8 0.666841 0.970434 0.325824
O O1 0.779620 0.750000 0.429341
O O2 0.460166 0.826779 0.342559
O O3 0.757218 0.891252 0.387643
O O4 0.817633 0.838492 0.609477
O O5 0.722106 0.893667 0.888571
O O6 0.723283 0.991733 0.033059
O O7 0.589712 0.023872 0.785051
O O8 0.000000 0.000000 0.000000
O O9 0.763002 0.113528 0.613980
O O10 0.500000 0.000000 0.500000
O O11 0.757894 0.022818 0.458169
O O12 0.909932 0.986013 0.711919
O O13 0.812292 0.250000 0.678970
O O14 0.931193 0.154703 0.876557
O O15 0.870818 0.250000 0.198841
O O16 0.801528 0.111549 0.172326
O O17 0.019543 0.165986 0.121040
O O18 0.788516 0.750000 0.924420
O O19 0.747463 0.507481 0.249519
#
# Coordination Sequence:
#
# PCOD8075234 Si02
#       8
#     4   4   4   4   4   4   4   4
#     4  10  21  38  60  90 125 162 210 253 309 381
#     4  12  23  41  67  94 122 163 216 260 307 372
#     4  12  22  39  65  93 122 164 213 258 310 363
#     4  10  20  37  61  94 124 159 212 267 309 360
#     4  10  21  37  61  90 123 166 208 254 313 376
#     4  10  21  38  62  93 123 160 209 267 316 356
#     4  12  24  42  62  92 133 163 208 260 314 375
#     4  12  26  40  63  94 130 169 206 257 321 372
#
# _framework density 21.293899
#
# number of rings (size 3 to 8) (size 9 to 14) (size 15 to 20)
#    0.000    1.000    5.000    2.250    1.750    0.000 
#    0.000    2.500    0.000    0.000    0.000    0.000 
#    0.000    0.000    0.000    0.000    0.000    0.000 
#
# Total GULP energy -396615.635291 kJ/mol
# GULP energy per Si atom -12394.238603 kJ/mol
# Density = 2.124543 g / cm^3
# Si number density = 21.293899 Si / 1000 Ang^3
#
#
#
# Elastic Constant Matrix: (Units=GPa)
#
#
# Indices 1 2 3 4 5 6 
#
# 1 38.0053 44.6930 10.3515 0.0000 -12.5116 0.0000
# 2 44.6930 211.3902 59.4409 0.0000 -25.1912 0.0000
# 3 10.3515 59.4409 90.0468 0.0000 -18.0175 0.0000
# 4 0.0000 0.0000 0.0000 37.4331 0.0000 -6.1534
# 5 -12.5116 -25.1912 -18.0175 0.0000 33.0774 0.0000
# 6 0.0000 0.0000 0.0000 -6.1534 0.0000 23.2996
#
#
#
# Elastic Compliance Matrix: (Units=1/GPa)
#
#
# Indices 1 2 3 4 5 6 
#
# 1 0.037731 -0.007528 0.002627 0.000000 0.009970 0.000000
# 2 -0.007528 0.007520 -0.003954 0.000000 0.000726 0.000000
# 3 0.002627 -0.003954 0.014601 0.000000 0.005936 0.000000
# 4 0.000000 0.000000 0.000000 0.027927 0.000000 0.007375
# 5 0.009970 0.000726 0.005936 0.000000 0.037790 0.000000
# 6 0.000000 0.000000 0.000000 0.007375 0.000000 0.044867
#
#
# Mechanical properties :
#
#
# Convention : Reuss Voigt Hill
#
# Bulk Modulus (GPa) = 23.72883 63.15703 43.44293
# Shear Modulus (GPa) = 24.72882 33.75913 29.24398
#
# Velocity S-wave (km/s) = 3.41150 3.98602 3.70989
# Velocity P-wave (km/s) = 5.16579 7.13502 6.22872
#
# Compressibility (1/GPa) = 0.04214283
#
# Stress axis : x y z
#
# Youngs Moduli (GPa) = 26.50328 132.97104 68.48897
#
# Poissons Ratio (x) = 1.00098 -0.17989
# Poissons Ratio (y) = 0.19951 0.27078
# Poissons Ratio (z) = -0.06961 0.52571
#
# Static dielectric constant tensor:
#      x y z
#    x 3.296930 0.000000 0.054860 
#    y 0.000000 4.815930 0.000000 
#    z 0.054860 0.000000 4.188630 
# 
# 
# High freq. dielectric constant tensor:
#      x y z
#    x 1.782860 0.000000 -0.006400 
#    y 0.000000 1.860050 0.000000 
#    z -0.006400 0.000000 1.854370 
# 
# From -- ./inp_files/32845.got.cif
#   From: 2010.06.25/outbox.cif.g09.slc.cpg/sg11_17_cif.got.tgz:32845.got - 2010.06.27 23:14:04.
