data_PCOD8075219
_publ_section_title
;
Structure prediction by ZEFSAII (Michael W. Deem and Ramdas Pophale) SiO2 
 PCOD8075219
Probable space group: P 21/M
;
_chemical_formula_sum "Si O2"
_cell_formula_units_Z 24
_cell_length_a 13.718362
_cell_length_b 17.088755
_cell_length_c 9.460060
_cell_angle_alpha 90.000000
_cell_angle_beta 32.992249
_cell_angle_gamma 90.000000
_cell_volume 1207.604867
_symmetry_space_group_name_H-M "P 21/M"
_symmetry_group_IT_number 11
_symmetry_cell_setting 'monoclinic'
loop_
_space_group_symop_operation_xyz
x,y,z
-x,1/2+y,-z
-x,-y,-z
x,1/2-y,z
loop_
_atom_site_type_symbol
_atom_site_label
_atom_site_fract_x
_atom_site_fract_y
_atom_site_fract_z
Si Si1 0.169360 0.007496 0.696478
Si Si2 0.605357 0.838116 0.540462
Si Si3 0.238581 0.422901 0.151920
Si Si4 0.150209 0.934487 0.428945
Si Si5 0.484032 0.578155 0.432596
Si Si6 0.513054 0.161803 0.007587
O O1 0.116440 0.995699 0.597861
O O2 0.301126 0.933741 0.568758
O O3 0.244491 0.094667 0.632895
O O4 0.000000 0.000000 0.000000
O O5 0.688914 0.750000 0.432410
O O6 0.484988 0.850871 0.545156
O O7 0.481055 0.844999 0.829932
O O8 0.217963 0.515094 0.211933
O O9 0.338564 0.381997 0.160810
O O10 0.036521 0.389462 0.377335
O O11 0.349122 0.410335 0.874773
O O12 0.303639 0.872365 0.278448
O O13 0.500000 0.500000 0.500000
O O14 0.500137 0.250000 0.969383
#
# Coordination Sequence:
#
# PCOD8075219 Si02
#       6
#     4   4   4   4   4   4
#     4  11  21  38  65  94 123 165 215 256 308 377
#     4  10  22  41  62  88 127 167 204 259 321 371
#     4  11  22  38  66  93 122 161 208 263 301 369
#     4  11  21  38  65  96 122 159 213 259 306 369
#     4  10  20  37  61  88 122 163 205 251 305 368
#     4  11  23  41  63  90 127 168 203 257 322 370
#
# _framework density 19.874051000000001
#
# number of rings (size 3 to 8) (size 9 to 14) (size 15 to 20)
#    0.000    1.333    3.333    4.500    0.000    2.667 
#    0.000    3.333    0.000    0.000    0.000    0.000 
#    0.000    0.000    0.000    0.000    0.000    0.000 
#
# Total GULP energy -297477.428386 kJ/mol
# GULP energy per Si atom -12394.892849 kJ/mol
# Density = 1.982882 g / cm^3
# Si number density = 19.874051 Si / 1000 Ang^3
#
#
#
# Elastic Constant Matrix: (Units=GPa)
#
#
# Indices 1 2 3 4 5 6 
#
# 1 110.9776 37.5097 50.8459 0.0000 -10.7878 0.0000
# 2 37.5097 91.6402 54.8358 0.0000 -11.3105 0.0000
# 3 50.8459 54.8358 114.7997 0.0000 -8.2989 0.0000
# 4 0.0000 0.0000 0.0000 20.3492 0.0000 9.1867
# 5 -10.7878 -11.3105 -8.2989 0.0000 47.1563 0.0000
# 6 0.0000 0.0000 0.0000 9.1867 0.0000 16.7985
#
#
#
# Elastic Compliance Matrix: (Units=1/GPa)
#
#
# Indices 1 2 3 4 5 6 
#
# 1 0.011752 -0.002212 -0.004044 0.000000 0.001446 0.000000
# 2 -0.002212 0.015971 -0.006492 0.000000 0.002182 0.000000
# 3 -0.004044 -0.006492 0.013596 0.000000 -0.000089 0.000000
# 4 0.000000 0.000000 0.000000 0.065252 0.000000 -0.035685
# 5 0.001446 0.002182 -0.000089 0.000000 0.022045 0.000000
# 6 0.000000 0.000000 0.000000 -0.035685 0.000000 0.079045
#
#
# Mechanical properties :
#
#
# Convention : Reuss Voigt Hill
#
# Bulk Modulus (GPa) = 63.19219 67.08892 65.14055
# Shear Modulus (GPa) = 20.97048 28.47586 24.72317
#
# Velocity S-wave (km/s) = 3.25186 3.78936 3.53085
# Velocity P-wave (km/s) = 6.77974 7.27846 7.03352
#
# Compressibility (1/GPa) = 0.01582474
#
# Stress axis : x y z
#
# Youngs Moduli (GPa) = 85.09352 62.61203 73.54990
#
# Poissons Ratio (x) = 0.13849 0.29743
# Poissons Ratio (y) = 0.18822 0.47745
# Poissons Ratio (z) = 0.34411 0.40645
#
# Static dielectric constant tensor:
#      x y z
#    x 4.347430 0.000000 0.163930 
#    y 0.000000 3.583380 0.000000 
#    z 0.163930 0.000000 3.556910 
# 
# 
# High freq. dielectric constant tensor:
#      x y z
#    x 1.787350 0.000000 0.014510 
#    y 0.000000 1.750880 0.000000 
#    z 0.014510 0.000000 1.775900 
# 
# From -- ./inp_files/22671.got.cif
#   From: 2010.06.25/outbox.cif.g09.slc.cpg/sg11_12_cif.got.tgz:22671.got - 2010.06.27 23:14:04.
