data_PCOD8075369
_publ_section_title
;
Structure prediction by ZEFSAII (Michael W. Deem and Ramdas Pophale) SiO2 
 PCOD8075369
Probable space group: P 21/M
;
_chemical_formula_sum "Si O2"
_cell_formula_units_Z 32
_cell_length_a 12.382001
_cell_length_b 8.929776
_cell_length_c 28.779679
_cell_angle_alpha 90.000000
_cell_angle_beta 150.337029
_cell_angle_gamma 90.000000
_cell_volume 1574.825111
_symmetry_space_group_name_H-M "P 21/M"
_symmetry_group_IT_number 11
_symmetry_cell_setting 'monoclinic'
loop_
_space_group_symop_operation_xyz
x,y,z
-x,1/2+y,-z
-x,-y,-z
x,1/2-y,z
loop_
_atom_site_type_symbol
_atom_site_label
_atom_site_fract_x
_atom_site_fract_y
_atom_site_fract_z
Si Si1 0.213344 0.075148 0.268745
Si Si2 0.168395 0.927682 0.003490
Si Si3 0.753911 0.078235 0.817029
Si Si4 0.577940 0.425722 0.481272
Si Si5 0.933332 0.581027 0.234174
Si Si6 0.457067 0.914777 0.030009
Si Si7 0.452857 0.078411 0.786316
Si Si8 0.011263 0.572810 0.650962
O O1 0.160763 0.250000 0.245315
O O2 0.410868 0.040207 0.377366
O O3 0.268978 0.016223 0.238376
O O4 0.001779 0.989635 0.210144
O O5 0.129627 0.750000 0.993049
O O6 0.259109 0.977043 0.986689
O O7 0.345064 0.981579 0.107229
O O8 0.940985 0.015722 0.922128
O O9 0.806896 0.250000 0.824788
O O10 0.526294 0.065191 0.760001
O O11 0.500000 0.500000 0.500000
O O12 0.606834 0.250000 0.500588
O O13 0.805663 0.497302 0.548250
O O14 0.027081 0.750000 0.273790
O O15 0.673148 0.583941 0.142431
O O16 0.021705 0.475646 0.307897
O O17 0.395145 0.750000 0.990770
O O18 0.500000 0.000000 0.000000
O O19 0.398760 0.250000 0.779625
O O20 0.237487 0.980679 0.713182
O O21 0.997397 0.750000 0.641942
#
# Coordination Sequence:
#
# PCOD8075369 Si02
#       8
#     4   4   4   4   4   4   4   4
#     4  11  24  41  62  91 125 161 204 250 305 371
#     4  10  20  38  61  85 119 162 207 255 305 359
#     4  11  24  40  62  91 122 162 208 256 311 364
#     4  11  23  40  65  94 125 161 201 250 305 367
#     4  11  21  37  60  85 121 162 200 247 304 362
#     4  10  21  34  51  79 116 160 199 240 298 356
#     4  10  22  43  65  87 121 164 212 259 304 358
#     4  12  24  38  62  95 124 156 200 249 307 368
#
# _framework density 20.319717000000001
#
# number of rings (size 3 to 8) (size 9 to 14) (size 15 to 20)
#    0.000    1.250    2.500    3.750    0.000    6.500 
#    0.000    0.625    0.000    0.000    0.000    0.000 
#    0.000    0.000    0.000    0.000    0.000    0.000 
#
# Total GULP energy -396823.821388 kJ/mol
# GULP energy per Si atom -12400.744418 kJ/mol
# Density = 2.027347 g / cm^3
# Si number density = 20.319717 Si / 1000 Ang^3
#
#
#
# Elastic Constant Matrix: (Units=GPa)
#
#
# Indices 1 2 3 4 5 6 
#
# 1 81.7685 39.7590 21.3131 0.0000 14.3429 0.0000
# 2 39.7590 119.2203 41.9851 0.0000 10.0552 0.0000
# 3 21.3131 41.9851 80.1132 0.0000 12.6744 0.0000
# 4 0.0000 0.0000 0.0000 32.1610 0.0000 2.3380
# 5 14.3429 10.0552 12.6744 0.0000 25.1389 0.0000
# 6 0.0000 0.0000 0.0000 2.3380 0.0000 32.1470
#
#
#
# Elastic Compliance Matrix: (Units=1/GPa)
#
#
# Indices 1 2 3 4 5 6 
#
# 1 0.015779 -0.004400 -0.000811 0.000000 -0.006834 0.000000
# 2 -0.004400 0.011567 -0.004951 0.000000 0.000380 0.000000
# 3 -0.000811 -0.004951 0.016198 0.000000 -0.005724 0.000000
# 4 0.000000 0.000000 0.000000 0.031259 0.000000 -0.002273
# 5 -0.006834 0.000380 -0.005724 0.000000 0.046412 0.000000
# 6 0.000000 0.000000 0.000000 -0.002273 0.000000 0.031272
#
#
# Mechanical properties :
#
#
# Convention : Reuss Voigt Hill
#
# Bulk Modulus (GPa) = 43.06654 54.13516 48.60085
# Shear Modulus (GPa) = 27.69276 29.75904 28.72590
#
# Velocity S-wave (km/s) = 3.69569 3.83108 3.76399
# Velocity P-wave (km/s) = 6.28103 6.80214 6.54677
#
# Compressibility (1/GPa) = 0.02321988
#
# Stress axis : x y z
#
# Youngs Moduli (GPa) = 63.37398 86.45303 61.73436
#
# Poissons Ratio (x) = 0.38043 0.05004
# Poissons Ratio (y) = 0.27887 0.30567
# Poissons Ratio (z) = 0.05137 0.42807
#
# Static dielectric constant tensor:
#      x y z
#    x 3.614830 0.000000 0.140540 
#    y 0.000000 3.665380 0.000000 
#    z 0.140540 0.000000 3.905790 
# 
# 
# High freq. dielectric constant tensor:
#      x y z
#    x 1.794990 0.000000 0.008900 
#    y 0.000000 1.795810 0.000000 
#    z 0.008900 0.000000 1.793340 
# 
# From -- ./inp_files/45145.got.cif
#   From: 2010.06.25/outbox.cif.g09.slc.cpg/sg11_23_cif.got.tgz:45145.got - 2010.06.27 23:14:04.
