data_PCOD8075218
_publ_section_title
;
Structure prediction by ZEFSAII (Michael W. Deem and Ramdas Pophale) SiO2 
 PCOD8075218
Probable space group: P 21/M
;
_chemical_formula_sum "Si O2"
_cell_formula_units_Z 28
_cell_length_a 9.349241
_cell_length_b 8.792651
_cell_length_c 27.174196
_cell_angle_alpha 90.000000
_cell_angle_beta 141.817740
_cell_angle_gamma 90.000000
_cell_volume 1380.884451
_symmetry_space_group_name_H-M "P 21/M"
_symmetry_group_IT_number 11
_symmetry_cell_setting 'monoclinic'
loop_
_space_group_symop_operation_xyz
x,y,z
-x,1/2+y,-z
-x,-y,-z
x,1/2-y,z
loop_
_atom_site_type_symbol
_atom_site_label
_atom_site_fract_x
_atom_site_fract_y
_atom_site_fract_z
Si Si1 0.247770 0.571568 0.061732
Si Si2 0.296205 0.428948 0.974474
Si Si3 0.316401 0.070816 0.345980
Si Si4 0.521398 0.074847 0.221089
Si Si5 0.953463 0.570163 0.630644
Si Si6 0.808850 0.569420 0.484433
Si Si7 0.865789 0.922749 0.807829
O O1 0.222732 0.750000 0.048170
O O2 0.405045 0.535151 0.150561
O O3 0.355896 0.496229 0.043427
O O4 0.000000 0.500000 0.000000
O O5 0.313773 0.250000 0.981197
O O6 0.046596 0.470847 0.884792
O O7 0.500000 0.500000 0.000000
O O8 0.368247 0.250000 0.363803
O O9 0.189898 0.007146 0.361023
O O10 0.151551 0.035689 0.254609
O O11 0.554598 0.983716 0.400449
O O12 0.513750 0.250000 0.200930
O O13 0.388319 0.057335 0.236911
O O14 0.782017 0.014572 0.297039
O O15 0.945882 0.750000 0.630702
O O16 0.845531 0.510692 0.550386
O O17 0.829561 0.750000 0.486733
O O18 0.000000 0.500000 0.500000
O O19 0.952949 0.750000 0.837921
#
# Coordination Sequence:
#
# PCOD8075218 Si02
#       7
#     4   4   4   4   4   4   4
#     4  12  24  41  63  92 124 164 211 260 315 370
#     4  12  26  43  64  90 125 164 208 262 317 376
#     4  10  21  39  63  92 125 162 201 249 308 369
#     4  10  20  37  61  88 121 162 207 256 306 367
#     4   9  20  38  62  92 124 161 203 248 306 367
#     4  11  22  39  63  91 123 163 207 253 303 364
#     4  10  21  38  61  89 124 164 208 253 307 370
#
# _framework density 20.276859000000002
#
# number of rings (size 3 to 8) (size 9 to 14) (size 15 to 20)
#    0.000    1.429    1.429    4.286    2.000    2.857 
#    0.000    4.286    0.000    0.000    0.000    0.000 
#    0.000    0.000    0.000    0.000    0.000    0.000 
#
# Total GULP energy -347234.680025 kJ/mol
# GULP energy per Si atom -12401.238572 kJ/mol
# Density = 2.023071 g / cm^3
# Si number density = 20.276859 Si / 1000 Ang^3
#
#
#
# Elastic Constant Matrix: (Units=GPa)
#
#
# Indices 1 2 3 4 5 6 
#
# 1 130.5816 35.3575 25.7177 0.0000 -9.5962 0.0000
# 2 35.3575 108.0383 30.5373 0.0000 -4.8808 0.0000
# 3 25.7177 30.5373 83.0373 0.0000 -7.2683 0.0000
# 4 0.0000 0.0000 0.0000 33.9769 0.0000 1.4772
# 5 -9.5962 -4.8808 -7.2683 0.0000 44.1879 0.0000
# 6 0.0000 0.0000 0.0000 1.4772 0.0000 29.2693
#
#
#
# Elastic Compliance Matrix: (Units=1/GPa)
#
#
# Indices 1 2 3 4 5 6 
#
# 1 0.008723 -0.002303 -0.001736 0.000000 0.001354 0.000000
# 2 -0.002303 0.010950 -0.003299 0.000000 0.000167 0.000000
# 3 -0.001736 -0.003299 0.013929 0.000000 0.001550 0.000000
# 4 0.000000 0.000000 0.000000 0.029497 0.000000 -0.001489
# 5 0.001354 0.000167 0.001550 0.000000 0.023198 0.000000
# 6 0.000000 0.000000 0.000000 -0.001489 0.000000 0.034241
#
#
# Mechanical properties :
#
#
# Convention : Reuss Voigt Hill
#
# Bulk Modulus (GPa) = 52.83730 56.09801 54.46765
# Shear Modulus (GPa) = 35.33023 36.82315 36.07669
#
# Velocity S-wave (km/s) = 4.17872 4.26610 4.22264
# Velocity P-wave (km/s) = 7.02829 7.21056 7.12001
#
# Compressibility (1/GPa) = 0.01892602
#
# Stress axis : x y z
#
# Youngs Moduli (GPa) = 114.63865 91.32742 71.79083
#
# Poissons Ratio (x) = 0.21031 0.12464
# Poissons Ratio (y) = 0.26400 0.23683
# Poissons Ratio (z) = 0.19904 0.30128
#
# Static dielectric constant tensor:
#      x y z
#    x 4.007560 0.000000 -0.075400 
#    y 0.000000 3.604130 0.000000 
#    z -0.075400 0.000000 3.546070 
# 
# 
# High freq. dielectric constant tensor:
#      x y z
#    x 1.811500 0.000000 -0.004400 
#    y 0.000000 1.775870 0.000000 
#    z -0.004400 0.000000 1.798580 
# 
# From -- ./inp_files/28362.got.cif
#   From: 2010.06.25/outbox.cif.g09.slc.cpg/sg11_15_cif.got.tgz:28362.got - 2010.06.27 23:14:04.
