data_PCOD8075478
_publ_section_title
;
Structure prediction by ZEFSAII (Michael W. Deem and Ramdas Pophale) SiO2 
 PCOD8075478
Probable space group: P 21/M
;
_chemical_formula_sum "Si O2"
_cell_formula_units_Z 32
_cell_length_a 16.108790
_cell_length_b 17.086992
_cell_length_c 12.375198
_cell_angle_alpha 90.000000
_cell_angle_beta 27.705334
_cell_angle_gamma 90.000000
_cell_volume 1583.664192
_symmetry_space_group_name_H-M "P 21/M"
_symmetry_group_IT_number 11
_symmetry_cell_setting 'monoclinic'
loop_
_space_group_symop_operation_xyz
x,y,z
-x,1/2+y,-z
-x,-y,-z
x,1/2-y,z
loop_
_atom_site_type_symbol
_atom_site_label
_atom_site_fract_x
_atom_site_fract_y
_atom_site_fract_z
Si Si1 0.185768 0.065956 0.123436
Si Si2 0.015835 0.159439 0.910935
Si Si3 0.727877 0.841662 0.189916
Si Si4 0.948125 0.660741 0.522237
Si Si5 0.513744 0.515260 0.859214
Si Si6 0.367474 0.659269 0.705274
Si Si7 0.342461 0.838068 0.977706
Si Si8 0.111364 0.055283 0.599896
O O1 0.079544 0.118022 0.332012
O O2 0.227258 0.118277 0.973251
O O3 0.065072 0.993032 0.226973
O O4 0.372870 0.036661 0.956044
O O5 0.045634 0.250000 0.841191
O O6 0.112059 0.140309 0.911994
O O7 0.092274 0.103350 0.731578
O O8 0.804972 0.142423 0.170626
O O9 0.707574 0.750000 0.191034
O O10 0.544648 0.879278 0.449308
O O11 0.879151 0.750000 0.609154
O O12 0.842221 0.615220 0.550716
O O13 0.155695 0.657896 0.254026
O O14 0.481540 0.607537 0.878766
O O15 0.716777 0.497994 0.585832
O O16 0.500000 0.500000 0.000000
O O17 0.410238 0.750000 0.664489
O O18 0.322980 0.629341 0.877343
O O19 0.418528 0.750000 0.891066
#
# Coordination Sequence:
#
# PCOD8075478 Si02
#       8
#     4   4   4   4   4   4   4   4
#     4  12  25  44  60  88 134 170 203 250 315 384
#     4  10  20  38  65  96 122 157 214 266 305 357
#     4  10  23  41  63  90 126 170 210 250 305 379
#     4  11  21  39  68  92 118 161 208 258 315 371
#     4  12  24  40  60  89 124 167 204 251 316 375
#     4   9  17  35  62  89 121 156 199 260 313 353
#     4  10  20  38  65  95 121 154 207 267 318 361
#     4  12  23  39  67  93 125 165 208 260 320 364
#
# _framework density 20.206302999999998
#
# number of rings (size 3 to 8) (size 9 to 14) (size 15 to 20)
#    0.000    1.250    3.750    2.625    0.000    3.500 
#    0.000    4.375    0.000    1.500    0.000    0.000 
#    0.000    0.000    0.000    0.000    0.000    0.000 
#
# Total GULP energy -396793.460961 kJ/mol
# GULP energy per Si atom -12399.795655 kJ/mol
# Density = 2.016031 g / cm^3
# Si number density = 20.206303 Si / 1000 Ang^3
#
#
#
# Elastic Constant Matrix: (Units=GPa)
#
#
# Indices 1 2 3 4 5 6 
#
# 1 148.6154 57.8387 67.6844 0.0000 3.9176 0.0000
# 2 57.8387 75.1974 34.0772 0.0000 9.6371 0.0000
# 3 67.6844 34.0772 104.9906 0.0000 3.0088 0.0000
# 4 0.0000 0.0000 0.0000 20.1349 0.0000 3.9048
# 5 3.9176 9.6371 3.0088 0.0000 41.1393 0.0000
# 6 0.0000 0.0000 0.0000 3.9048 0.0000 28.8130
#
#
#
# Elastic Compliance Matrix: (Units=1/GPa)
#
#
# Indices 1 2 3 4 5 6 
#
# 1 0.011804 -0.006716 -0.005454 0.000000 0.000848 0.000000
# 2 -0.006716 0.019870 -0.002009 0.000000 -0.003868 0.000000
# 3 -0.005454 -0.002009 0.013693 0.000000 -0.000012 0.000000
# 4 0.000000 0.000000 0.000000 0.051005 0.000000 -0.006912
# 5 0.000848 -0.003868 -0.000012 0.000000 0.025134 0.000000
# 6 0.000000 0.000000 0.000000 -0.006912 0.000000 0.035643
#
#
# Mechanical properties :
#
#
# Convention : Reuss Voigt Hill
#
# Bulk Modulus (GPa) = 58.79181 72.00044 65.39612
# Shear Modulus (GPa) = 26.15350 29.29766 27.72558
#
# Velocity S-wave (km/s) = 3.60157 3.81192 3.70824
# Velocity P-wave (km/s) = 6.81572 7.42188 7.12525
#
# Compressibility (1/GPa) = 0.01700917
#
# Stress axis : x y z
#
# Youngs Moduli (GPa) = 84.71404 50.32627 73.02915
#
# Poissons Ratio (x) = 0.33801 0.39832
# Poissons Ratio (y) = 0.56898 0.14669
# Poissons Ratio (z) = 0.46205 0.10109
#
# Static dielectric constant tensor:
#      x y z
#    x 3.685970 0.000000 -0.116730 
#    y 0.000000 3.775900 0.000000 
#    z -0.116730 0.000000 3.809600 
# 
# 
# High freq. dielectric constant tensor:
#      x y z
#    x 1.791170 0.000000 -0.006260 
#    y 0.000000 1.779680 0.000000 
#    z -0.006260 0.000000 1.797190 
# 
# From -- ./inp_files/39945.got.cif
#   From: 2010.06.25/outbox.cif.g09.slc.cpg/sg11_20_cif.got.tgz:39945.got - 2010.06.27 23:14:04.
