data_PCOD8075739
_publ_section_title
;
Structure prediction by ZEFSAII (Michael W. Deem and Ramdas Pophale) SiO2 
 PCOD8075739
Probable space group: P 21/M
;
_chemical_formula_sum "Si O2"
_cell_formula_units_Z 32
_cell_length_a 12.263747
_cell_length_b 14.402601
_cell_length_c 17.397089
_cell_angle_alpha 90.000000
_cell_angle_beta 148.628896
_cell_angle_gamma 90.000000
_cell_volume 1599.659025
_symmetry_space_group_name_H-M "P 21/M"
_symmetry_group_IT_number 11
_symmetry_cell_setting 'monoclinic'
loop_
_space_group_symop_operation_xyz
x,y,z
-x,1/2+y,-z
-x,-y,-z
x,1/2-y,z
loop_
_atom_site_type_symbol
_atom_site_label
_atom_site_fract_x
_atom_site_fract_y
_atom_site_fract_z
Si Si1 0.331293 0.013033 0.185447
Si Si2 0.300153 0.851182 0.569606
Si Si3 0.982959 0.859917 0.720063
Si Si4 0.036603 0.486576 0.146639
Si Si5 0.734761 0.980884 0.162159
Si Si6 0.370535 0.147823 0.609679
Si Si7 0.942903 0.360040 0.727657
Si Si8 0.099784 0.407015 0.588258
O O1 0.529772 0.079995 0.292309
O O2 0.190044 0.047002 0.171426
O O3 0.423250 0.912800 0.259089
O O4 0.194746 0.008002 0.025970
O O5 0.404674 0.750000 0.631398
O O6 0.232933 0.880253 0.442844
O O7 0.089696 0.844737 0.493650
O O8 0.041696 0.750000 0.756563
O O9 0.759762 0.877440 0.545188
O O10 0.974237 0.900784 0.800793
O O11 0.149306 0.919097 0.770491
O O12 0.125111 0.582422 0.237485
O O13 0.736448 0.933911 0.246691
O O14 0.837472 0.906924 0.165142
O O15 0.500000 0.000000 0.000000
O O16 0.461954 0.250000 0.657044
O O17 0.220183 0.144931 0.593365
O O18 0.969762 0.250000 0.760084
O O19 0.000000 0.500000 0.500000
#
# Coordination Sequence:
#
# PCOD8075739 Si02
#       8
#     4   4   4   4   4   4   4   4
#     4  11  23  41  60  87 116 151 200 243 300 354
#     4  10  21  38  62  88 116 153 196 239 288 346
#     4  10  22  41  60  85 119 156 198 244 293 351
#     4  10  24  41  60  83 120 156 189 250 300 348
#     4  10  21  35  57  88 121 158 193 233 290 349
#     4  11  23  39  62  90 119 156 201 246 293 347
#     4   9  20  39  60  84 115 152 195 240 289 346
#     4  11  19  36  59  86 124 154 189 241 284 340
#
# _framework density 20.004263999999999
#
# number of rings (size 3 to 8) (size 9 to 14) (size 15 to 20)
#    0.000    1.750    2.500    1.875    3.500    5.000 
#    0.000    5.000    0.000    0.000    0.000    0.000 
#    0.000    0.000    0.000    0.000    0.000    0.000 
#
# Total GULP energy -396721.670947 kJ/mol
# GULP energy per Si atom -12397.552217 kJ/mol
# Density = 1.995873 g / cm^3
# Si number density = 20.004264 Si / 1000 Ang^3
#
#
#
# Elastic Constant Matrix: (Units=GPa)
#
#
# Indices 1 2 3 4 5 6 
#
# 1 61.5852 11.6879 30.8887 0.0000 -17.3510 0.0000
# 2 11.6879 117.9103 35.6151 0.0000 -7.0681 0.0000
# 3 30.8887 35.6151 106.9888 0.0000 -5.8424 0.0000
# 4 0.0000 0.0000 0.0000 16.9405 0.0000 -3.5078
# 5 -17.3510 -7.0681 -5.8424 0.0000 28.8420 0.0000
# 6 0.0000 0.0000 0.0000 -3.5078 0.0000 17.5020
#
#
#
# Elastic Compliance Matrix: (Units=1/GPa)
#
#
# Indices 1 2 3 4 5 6 
#
# 1 0.022704 0.000304 -0.005972 0.000000 0.012523 0.000000
# 2 0.000304 0.009516 -0.003153 0.000000 0.001876 0.000000
# 3 -0.005972 -0.003153 0.012015 0.000000 -0.001932 0.000000
# 4 0.000000 0.000000 0.000000 0.061586 0.000000 0.012343
# 5 0.012523 0.001876 -0.001932 0.000000 0.042274 0.000000
# 6 0.000000 0.000000 0.000000 0.012343 0.000000 0.059610
#
#
# Mechanical properties :
#
#
# Convention : Reuss Voigt Hill
#
# Bulk Modulus (GPa) = 37.60488 49.20752 43.40620
# Shear Modulus (GPa) = 21.34832 26.54308 23.94570
#
# Velocity S-wave (km/s) = 3.27033 3.64658 3.46357
# Velocity P-wave (km/s) = 5.75320 6.51014 6.14334
#
# Compressibility (1/GPa) = 0.02659229
#
# Stress axis : x y z
#
# Youngs Moduli (GPa) = 44.04602 105.08934 83.22870
#
# Poissons Ratio (x) = -0.03196 0.49705
# Poissons Ratio (y) = -0.01339 0.26242
# Poissons Ratio (z) = 0.26305 0.33134
#
# Static dielectric constant tensor:
#      x y z
#    x 3.496550 0.000000 -0.124940 
#    y 0.000000 3.600300 0.000000 
#    z -0.124940 0.000000 3.572460 
# 
# 
# High freq. dielectric constant tensor:
#      x y z
#    x 1.775500 0.000000 -0.013000 
#    y 0.000000 1.786510 0.000000 
#    z -0.013000 0.000000 1.777510 
# 
# From -- ./inp_files/59500.got.cif
#   From: 2010.06.25/outbox.cif.g09.slc.cpg/sg11_30_cif.got.tgz:59500.got - 2010.06.27 23:14:04.
