data_PCOD8075408
_publ_section_title
;
Structure prediction by ZEFSAII (Michael W. Deem and Ramdas Pophale) SiO2 
 PCOD8075408
Probable space group: P 21/M
;
_chemical_formula_sum "Si O2"
_cell_formula_units_Z 28
_cell_length_a 22.467960
_cell_length_b 9.029362
_cell_length_c 19.570609
_cell_angle_alpha 90.000000
_cell_angle_beta 159.773341
_cell_angle_gamma 90.000000
_cell_volume 1372.676445
_symmetry_space_group_name_H-M "P 21/M"
_symmetry_group_IT_number 11
_symmetry_cell_setting 'monoclinic'
loop_
_space_group_symop_operation_xyz
x,y,z
-x,1/2+y,-z
-x,-y,-z
x,1/2-y,z
loop_
_atom_site_type_symbol
_atom_site_label
_atom_site_fract_x
_atom_site_fract_y
_atom_site_fract_z
Si Si1 0.696483 0.421203 0.908399
Si Si2 0.583405 0.419586 0.933279
Si Si3 0.966274 0.073776 0.391588
Si Si4 0.759162 0.421435 0.410479
Si Si5 0.524933 0.919548 0.456220
Si Si6 0.978043 0.419416 0.773395
Si Si7 0.085331 0.420380 0.155430
O O1 0.753051 0.250000 0.962434
O O2 0.571211 0.439292 0.838273
O O3 0.602724 0.480468 0.739225
O O4 0.862230 0.522867 0.099456
O O5 0.549710 0.250000 0.918139
O O6 0.434707 0.517833 0.808208
O O7 0.772560 0.470769 0.161162
O O8 0.986430 0.250000 0.417021
O O9 0.000000 0.000000 0.500000
O O10 0.106681 0.012570 0.490162
O O11 0.764192 0.250000 0.393158
O O12 0.809758 0.438897 0.544932
O O13 0.485510 0.750000 0.428412
O O14 0.712943 0.945209 0.629790
O O15 0.500000 0.000000 0.500000
O O16 0.005057 0.250000 0.823714
O O17 0.977742 0.515121 0.841330
O O18 0.030756 0.250000 0.093639
O O19 0.000000 0.500000 0.000000
#
# Coordination Sequence:
#
# PCOD8075408 Si02
#       7
#     4   4   4   4   4   4   4
#     4  10  20  38  62  87 116 158 208 258 313 371
#     4  10  22  41  67  96 126 167 219 266 318 380
#     4  11  24  44  70  98 132 171 213 266 323 385
#     4  11  24  41  65  97 133 171 214 265 321 382
#     4  10  22  37  55  80 112 151 197 251 308 367
#     4  11  23  38  59  90 124 160 204 256 315 375
#     4  11  23  39  58  82 116 157 204 258 314 377
#
# _framework density 20.398107
#
# number of rings (size 3 to 8) (size 9 to 14) (size 15 to 20)
#    0.000    1.429    1.429    3.429    0.000    9.143 
#    0.000    0.000    0.000    0.000    0.000    0.000 
#    0.000    0.000    0.000    0.000    0.000    0.000 
#
# Total GULP energy -347258.319898 kJ/mol
# GULP energy per Si atom -12402.082854 kJ/mol
# Density = 2.035168 g / cm^3
# Si number density = 20.398107 Si / 1000 Ang^3
#
#
#
# Elastic Constant Matrix: (Units=GPa)
#
#
# Indices 1 2 3 4 5 6 
#
# 1 96.9930 49.2773 53.7710 0.0000 -0.8936 0.0000
# 2 49.2773 102.8849 68.0102 0.0000 14.5279 0.0000
# 3 53.7710 68.0102 124.0094 0.0000 4.2727 0.0000
# 4 0.0000 0.0000 0.0000 33.3657 0.0000 1.1189
# 5 -0.8936 14.5279 4.2727 0.0000 31.2878 0.0000
# 6 0.0000 0.0000 0.0000 1.1189 0.0000 37.4944
#
#
#
# Elastic Compliance Matrix: (Units=1/GPa)
#
#
# Indices 1 2 3 4 5 6 
#
# 1 0.015088 -0.005175 -0.003819 0.000000 0.003356 0.000000
# 2 -0.005175 0.018218 -0.007486 0.000000 -0.007585 0.000000
# 3 -0.003819 -0.007486 0.013774 0.000000 0.001486 0.000000
# 4 0.000000 0.000000 0.000000 0.030001 0.000000 -0.000895
# 5 0.003356 -0.007585 0.001486 0.000000 0.035376 0.000000
# 6 0.000000 0.000000 0.000000 -0.000895 0.000000 0.026697
#
#
# Mechanical properties :
#
#
# Convention : Reuss Voigt Hill
#
# Bulk Modulus (GPa) = 70.82856 74.00048 72.41452
# Shear Modulus (GPa) = 28.27720 30.61816 29.44768
#
# Velocity S-wave (km/s) = 3.72730 3.87852 3.80366
# Velocity P-wave (km/s) = 7.30220 7.51093 7.40730
#
# Compressibility (1/GPa) = 0.01411860
#
# Stress axis : x y z
#
# Youngs Moduli (GPa) = 66.27920 54.89188 72.59988
#
# Poissons Ratio (x) = 0.28409 0.27728
# Poissons Ratio (y) = 0.34302 0.54346
# Poissons Ratio (z) = 0.25314 0.41090
#
# Static dielectric constant tensor:
#      x y z
#    x 3.681890 0.000000 -0.042310 
#    y 0.000000 3.849680 0.000000 
#    z -0.042310 0.000000 3.859360 
# 
# 
# High freq. dielectric constant tensor:
#      x y z
#    x 1.802380 0.000000 -0.000450 
#    y 0.000000 1.798640 0.000000 
#    z -0.000450 0.000000 1.806810 
# 
# From -- ./inp_files/66736.got.cif
#   From: 2010.06.25/outbox.cif.g09.slc.cpg/sg11_34_cif.got.tgz:66736.got - 2010.06.27 23:14:04.
