data_PCOD8075902
_publ_section_title
;
Structure prediction by ZEFSAII (Michael W. Deem and Ramdas Pophale) SiO2 
 PCOD8075902
Probable space group: P 21/M
;
_chemical_formula_sum "Si O2"
_cell_formula_units_Z 32
_cell_length_a 14.381088
_cell_length_b 13.540009
_cell_length_c 21.260795
_cell_angle_alpha 90.000000
_cell_angle_beta 158.252765
_cell_angle_gamma 90.000000
_cell_volume 1533.886394
_symmetry_space_group_name_H-M "P 21/M"
_symmetry_group_IT_number 11
_symmetry_cell_setting 'monoclinic'
loop_
_space_group_symop_operation_xyz
x,y,z
-x,1/2+y,-z
-x,-y,-z
x,1/2-y,z
loop_
_atom_site_type_symbol
_atom_site_label
_atom_site_fract_x
_atom_site_fract_y
_atom_site_fract_z
Si Si1 0.110355 0.364902 0.949692
Si Si2 0.940904 0.863487 0.670012
Si Si3 0.710587 0.520371 0.826198
Si Si4 0.686407 0.483819 0.013241
Si Si5 0.968527 0.139220 0.503061
Si Si6 0.561423 0.043997 0.607316
Si Si7 0.149252 0.533228 0.687203
Si Si8 0.520140 0.360530 0.795191
O O1 0.124006 0.250000 0.948215
O O2 0.214829 0.412960 0.951667
O O3 0.821684 0.397677 0.774776
O O4 0.292581 0.391284 0.124279
O O5 0.016845 0.750000 0.729890
O O6 0.655867 0.878757 0.511868
O O7 0.116573 0.941754 0.814372
O O8 0.989651 0.889934 0.627865
O O9 0.583271 0.540388 0.677006
O O10 0.567252 0.424046 0.762458
O O11 0.000000 0.500000 0.000000
O O12 0.422909 0.500779 0.884372
O O13 0.678003 0.404362 0.951966
O O14 0.884051 0.250000 0.469509
O O15 0.230852 0.139950 0.631435
O O16 0.781743 0.087321 0.336002
O O17 0.985377 0.067708 0.574515
O O18 0.500000 0.000000 0.500000
O O19 0.617296 0.250000 0.842675
#
# Coordination Sequence:
#
# PCOD8075902 Si02
#       8
#     4   4   4   4   4   4   4   4
#     4  10  21  41  64  87 118 164 207 244 303 367
#     4  12  24  39  63  90 118 158 205 252 306 368
#     4   9  20  34  56  87 119 153 194 250 304 357
#     4  10  21  39  57  87 124 161 194 248 302 362
#     4   9  18  35  59  87 117 155 199 245 300 362
#     4  11  22  42  65  87 125 157 200 260 313 358
#     4  10  21  36  58  89 124 156 196 250 307 358
#     4   9  17  33  59  86 115 151 200 250 296 350
#
# _framework density 20.862038999999999
#
# number of rings (size 3 to 8) (size 9 to 14) (size 15 to 20)
#    0.000    2.000    1.250    2.250    0.000    6.000 
#    0.000    1.875    0.000    0.000    0.000    0.000 
#    0.000    0.000    0.000    0.000    0.000    0.000 
#
# Total GULP energy -396549.528864 kJ/mol
# GULP energy per Si atom -12392.172777 kJ/mol
# Density = 2.081456 g / cm^3
# Si number density = 20.862039 Si / 1000 Ang^3
#
#
#
# Elastic Constant Matrix: (Units=GPa)
#
#
# Indices 1 2 3 4 5 6 
#
# 1 73.9451 33.2675 15.1714 0.0000 -10.5591 0.0000
# 2 33.2675 146.6209 31.2985 0.0000 -12.0352 0.0000
# 3 15.1714 31.2985 68.4311 0.0000 -16.1498 0.0000
# 4 0.0000 0.0000 0.0000 20.4730 0.0000 5.1682
# 5 -10.5591 -12.0352 -16.1498 0.0000 28.4604 0.0000
# 6 0.0000 0.0000 0.0000 5.1682 0.0000 22.9726
#
#
#
# Elastic Compliance Matrix: (Units=1/GPa)
#
#
# Indices 1 2 3 4 5 6 
#
# 1 0.015663 -0.002981 -0.001195 0.000000 0.003872 0.000000
# 2 -0.002981 0.008176 -0.002914 0.000000 0.000698 0.000000
# 3 -0.001195 -0.002914 0.018261 0.000000 0.008686 0.000000
# 4 0.000000 0.000000 0.000000 0.051786 0.000000 -0.011650
# 5 0.003872 0.000698 0.008686 0.000000 0.041797 0.000000
# 6 0.000000 0.000000 0.000000 -0.011650 0.000000 0.046151
#
#
# Mechanical properties :
#
#
# Convention : Reuss Voigt Hill
#
# Bulk Modulus (GPa) = 35.81691 49.83022 42.82357
# Shear Modulus (GPa) = 24.35215 28.33184 26.34200
#
# Velocity S-wave (km/s) = 3.42028 3.68918 3.55727
# Velocity P-wave (km/s) = 5.72743 6.48723 6.11914
#
# Compressibility (1/GPa) = 0.02791977
#
# Stress axis : x y z
#
# Youngs Moduli (GPa) = 63.84564 122.31001 54.76163
#
# Poissons Ratio (x) = 0.36458 0.06546
# Poissons Ratio (y) = 0.19031 0.15957
# Poissons Ratio (z) = 0.07631 0.35639
#
# Static dielectric constant tensor:
#      x y z
#    x 3.917990 0.000000 -0.072620 
#    y 0.000000 3.933600 0.000000 
#    z -0.072620 0.000000 3.874610 
# 
# 
# High freq. dielectric constant tensor:
#      x y z
#    x 1.812650 0.000000 0.002020 
#    y 0.000000 1.799450 0.000000 
#    z 0.002020 0.000000 1.826870 
# 
# From -- ./inp_files/65791.got.cif
#   From: 2010.06.25/outbox.cif.g09.slc.cpg/sg11_33_cif.got.tgz:65791.got - 2010.06.27 23:14:04.
