data_PCOD8075568
_publ_section_title
;
Structure prediction by ZEFSAII (Michael W. Deem and Ramdas Pophale) SiO2 
 PCOD8075568
Probable space group: P 21/M
;
_chemical_formula_sum "Si O2"
_cell_formula_units_Z 24
_cell_length_a 8.393375
_cell_length_b 23.134017
_cell_length_c 5.145004
_cell_angle_alpha 90.000000
_cell_angle_beta 94.681018
_cell_angle_gamma 90.000000
_cell_volume 995.685939
_symmetry_space_group_name_H-M "P 21/M"
_symmetry_group_IT_number 11
_symmetry_cell_setting 'monoclinic'
loop_
_space_group_symop_operation_xyz
x,y,z
-x,1/2+y,-z
-x,-y,-z
x,1/2-y,z
loop_
_atom_site_type_symbol
_atom_site_label
_atom_site_fract_x
_atom_site_fract_y
_atom_site_fract_z
Si Si1 0.134313 0.079948 0.469826
Si Si2 0.592998 0.613999 0.159463
Si Si3 0.836215 0.040609 0.724317
Si Si4 0.767954 0.686531 0.804492
Si Si5 0.330859 0.582505 0.788119
Si Si6 0.422051 0.813797 0.516280
O O1 0.308872 0.073930 0.629254
O O2 0.114310 0.141395 0.321950
O O3 0.991760 0.076520 0.658252
O O4 0.122248 0.027759 0.258337
O O5 0.436694 0.646800 0.258602
O O6 0.722183 0.661199 0.079812
O O7 0.515148 0.574456 0.917710
O O8 0.698684 0.047951 0.484095
O O9 0.791986 0.062398 0.006029
O O10 0.849095 0.750000 0.843859
O O11 0.604717 0.692637 0.625350
O O12 0.315565 0.651331 0.713489
O O13 0.347471 0.750000 0.456416
#
# Coordination Sequence:
#
# PCOD8075568 Si02
#       6
#     4   4   4   4   4   4
#     4  10  25  42  66  93 127 181 214 262 325 382
#     4  10  20  39  67 101 124 169 219 267 323 379
#     4  11  26  44  66  92 138 170 217 260 325 393
#     4   9  19  37  64  96 128 163 218 270 316 379
#     4  11  23  43  64  97 128 169 211 275 317 379
#     4   9  18  38  64  94 129 169 215 266 327 383
#
# _framework density 24.103987
#
# number of rings (size 3 to 8) (size 9 to 14) (size 15 to 20)
#    0.000    2.000    1.667    0.500    4.667    4.000 
#    0.000    1.667    0.000    0.000    0.000    0.000 
#    0.000    0.000    0.000    0.000    0.000    0.000 
#
# Total GULP energy -297354.302948 kJ/mol
# GULP energy per Si atom -12389.762623 kJ/mol
# Density = 2.404913 g / cm^3
# Si number density = 24.103987 Si / 1000 Ang^3
#
#
#
# Elastic Constant Matrix: (Units=GPa)
#
#
# Indices 1 2 3 4 5 6 
#
# 1 46.7390 35.1262 9.9248 0.0000 -4.2683 0.0000
# 2 35.1262 142.2543 25.6533 0.0000 -21.2936 0.0000
# 3 9.9248 25.6533 88.3127 0.0000 -17.3919 0.0000
# 4 0.0000 0.0000 0.0000 23.2562 0.0000 -16.3388
# 5 -4.2683 -21.2936 -17.3919 0.0000 25.7985 0.0000
# 6 0.0000 0.0000 0.0000 -16.3388 0.0000 25.9033
#
#
#
# Elastic Compliance Matrix: (Units=1/GPa)
#
#
# Indices 1 2 3 4 5 6 
#
# 1 0.026462 -0.006575 -0.001465 0.000000 -0.002036 0.000000
# 2 -0.006575 0.009763 -0.000835 0.000000 0.006407 0.000000
# 3 -0.001465 -0.000835 0.013315 0.000000 0.008044 0.000000
# 4 0.000000 0.000000 0.000000 0.077218 0.000000 0.048706
# 5 -0.002036 0.006407 0.008044 0.000000 0.049136 0.000000
# 6 0.000000 0.000000 0.000000 0.048706 0.000000 0.069327
#
#
# Mechanical properties :
#
#
# Convention : Reuss Voigt Hill
#
# Bulk Modulus (GPa) = 31.45685 46.52386 38.99035
# Shear Modulus (GPa) = 18.27707 28.76505 23.52106
#
# Velocity S-wave (km/s) = 2.75664 3.45827 3.12719
# Velocity P-wave (km/s) = 4.81777 5.94049 5.40834
#
# Compressibility (1/GPa) = 0.03178958
#
# Stress axis : x y z
#
# Youngs Moduli (GPa) = 37.79052 102.42956 75.10393
#
# Poissons Ratio (x) = 0.67344 0.11003
# Poissons Ratio (y) = 0.24846 0.06273
# Poissons Ratio (z) = 0.05536 0.08555
#
# Static dielectric constant tensor:
#      x y z
#    x 3.934750 0.000000 0.015940 
#    y 0.000000 4.749610 0.000000 
#    z 0.015940 0.000000 4.446210 
# 
# 
# High freq. dielectric constant tensor:
#      x y z
#    x 1.915560 0.000000 -0.004990 
#    y 0.000000 1.953520 0.000000 
#    z -0.004990 0.000000 1.963320 
# 
# From -- ./inp_files/2711.got.cif
#   From: 2010.06.25/outbox.cif.g09.slc.cpg/sg11_2_cif.got.tgz:2711.got - 2010.06.27 23:14:04.
