data_PCOD8075937
_publ_section_title
;
Structure prediction by ZEFSAII (Michael W. Deem and Ramdas Pophale) SiO2 
 PCOD8075937
Probable space group: P 21/M
;
_chemical_formula_sum "Si O2"
_cell_formula_units_Z 28
_cell_length_a 11.793167
_cell_length_b 14.839183
_cell_length_c 8.471378
_cell_angle_alpha 90.000000
_cell_angle_beta 60.794687
_cell_angle_gamma 90.000000
_cell_volume 1294.039305
_symmetry_space_group_name_H-M "P 21/M"
_symmetry_group_IT_number 11
_symmetry_cell_setting 'monoclinic'
loop_
_space_group_symop_operation_xyz
x,y,z
-x,1/2+y,-z
-x,-y,-z
x,1/2-y,z
loop_
_atom_site_type_symbol
_atom_site_label
_atom_site_fract_x
_atom_site_fract_y
_atom_site_fract_z
Si Si1 0.706659 0.515839 0.630121
Si Si2 0.951677 0.614406 0.945975
Si Si3 0.872435 0.653030 0.667495
Si Si4 0.856821 0.353662 0.649908
Si Si5 0.178770 0.574556 0.984664
Si Si6 0.563400 0.984413 0.288412
Si Si7 0.729344 0.850247 0.320574
O O1 0.759810 0.576792 0.739512
O O2 0.780830 0.420149 0.580760
O O3 0.553476 0.494428 0.758635
O O4 0.734566 0.575460 0.455490
O O5 0.929431 0.669834 0.802416
O O6 0.102180 0.626522 0.896506
O O7 0.909281 0.513456 0.929608
O O8 0.869863 0.655064 0.146353
O O9 0.815095 0.750000 0.650762
O O10 0.989745 0.625400 0.470539
O O11 0.825983 0.250000 0.625195
O O12 0.813145 0.369983 0.859185
O O13 0.325438 0.556821 0.827481
O O14 0.628011 0.884770 0.253906
O O15 0.500000 0.000000 0.500000
O O16 0.688943 0.750000 0.406771
#
# Coordination Sequence:
#
# PCOD8075937 Si02
#       7
#     4   4   4   4   4   4   4
#     4  11  22  41  66  90 132 172 211 260 325 383
#     4  10  21  36  67  94 123 159 210 268 329 370
#     4  11  23  38  62  98 128 164 216 270 326 382
#     4  11  25  41  61  93 131 172 217 267 323 378
#     4  10  21  40  63  90 123 166 210 259 319 383
#     4   9  22  40  66  92 123 168 214 253 314 381
#     4  10  21  40  66  97 127 166 217 267 322 385
#
# _framework density 21.637671999999998
#
# number of rings (size 3 to 8) (size 9 to 14) (size 15 to 20)
#    0.000    1.714    1.429    2.143    8.000    3.429 
#    0.000    3.571    0.000    0.000    0.000    0.000 
#    0.000    0.000    0.000    0.000    0.000    0.000 
#
# Total GULP energy -346984.483604 kJ/mol
# GULP energy per Si atom -12392.302986 kJ/mol
# Density = 2.158842 g / cm^3
# Si number density = 21.637672 Si / 1000 Ang^3
#
#
#
# Elastic Constant Matrix: (Units=GPa)
#
#
# Indices 1 2 3 4 5 6 
#
# 1 154.7489 74.1982 33.6748 0.0000 -6.9613 0.0000
# 2 74.1982 141.4443 22.3519 0.0000 -1.4873 0.0000
# 3 33.6748 22.3519 79.8894 0.0000 5.6952 0.0000
# 4 0.0000 0.0000 0.0000 20.7562 0.0000 -0.4384
# 5 -6.9613 -1.4873 5.6952 0.0000 28.4544 0.0000
# 6 0.0000 0.0000 0.0000 -0.4384 0.0000 15.5320
#
#
#
# Elastic Compliance Matrix: (Units=1/GPa)
#
#
# Indices 1 2 3 4 5 6 
#
# 1 0.009320 -0.004406 -0.002883 0.000000 0.002627 0.000000
# 2 -0.004406 0.009498 -0.000770 0.000000 -0.000427 0.000000
# 3 -0.002883 -0.000770 0.014204 0.000000 -0.003589 0.000000
# 4 0.000000 0.000000 0.000000 0.048207 0.000000 0.001361
# 5 0.002627 -0.000427 -0.003589 0.000000 0.036483 0.000000
# 6 0.000000 0.000000 0.000000 0.001361 0.000000 0.064422
#
#
# Mechanical properties :
#
#
# Convention : Reuss Voigt Hill
#
# Bulk Modulus (GPa) = 59.15607 70.72583 64.94095
# Shear Modulus (GPa) = 24.52347 29.33903 26.93125
#
# Velocity S-wave (km/s) = 3.37021 3.68628 3.53178
# Velocity P-wave (km/s) = 6.52251 7.13271 6.83443
#
# Compressibility (1/GPa) = 0.01690443
#
# Stress axis : x y z
#
# Youngs Moduli (GPa) = 107.29409 105.28183 70.40353
#
# Poissons Ratio (x) = 0.46386 0.20299
# Poissons Ratio (y) = 0.47273 0.05420
# Poissons Ratio (z) = 0.30935 0.08105
#
# Static dielectric constant tensor:
#      x y z
#    x 4.629420 0.000000 0.002130 
#    y 0.000000 3.978990 0.000000 
#    z 0.002130 0.000000 3.661070 
# 
# 
# High freq. dielectric constant tensor:
#      x y z
#    x 1.849300 0.000000 0.007820 
#    y 0.000000 1.846630 0.000000 
#    z 0.007820 0.000000 1.835640 
# 
# From -- ./inp_files/17968.got.cif
#   From: 2010.06.25/outbox.cif.g09.slc.cpg/sg11_9_cif.got.tgz:17968.got - 2010.06.27 23:14:04.
