data_PCOD8075203
_publ_section_title
;
Structure prediction by ZEFSAII (Michael W. Deem and Ramdas Pophale) SiO2 
 PCOD8075203
Probable space group: P 21/M
;
_chemical_formula_sum "Si O2"
_cell_formula_units_Z 28
_cell_length_a 9.603040
_cell_length_b 8.788318
_cell_length_c 26.546078
_cell_angle_alpha 90.000000
_cell_angle_beta 38.958324
_cell_angle_gamma 90.000000
_cell_volume 1408.627876
_symmetry_space_group_name_H-M "P 21/M"
_symmetry_group_IT_number 11
_symmetry_cell_setting 'monoclinic'
loop_
_space_group_symop_operation_xyz
x,y,z
-x,1/2+y,-z
-x,-y,-z
x,1/2-y,z
loop_
_atom_site_type_symbol
_atom_site_label
_atom_site_fract_x
_atom_site_fract_y
_atom_site_fract_z
Si Si1 0.309334 0.427458 0.280706
Si Si2 0.208470 0.571873 0.414569
Si Si3 0.867935 0.072042 0.991757
Si Si4 0.797209 0.420542 0.166844
Si Si5 0.641222 0.421575 0.322943
Si Si6 0.448259 0.569851 0.068774
Si Si7 0.095779 0.070824 0.236613
O O1 0.265459 0.250000 0.303153
O O2 0.217330 0.516345 0.354652
O O3 0.571020 0.458636 0.200357
O O4 0.185598 0.485546 0.265408
O O5 0.180443 0.750000 0.422611
O O6 0.428663 0.530249 0.384692
O O7 0.000000 0.500000 0.500000
O O8 0.828789 0.250000 0.010282
O O9 0.011590 0.040058 0.901165
O O10 0.632705 0.989396 0.055681
O O11 0.000000 0.000000 0.000000
O O12 0.876881 0.250000 0.130238
O O13 0.759405 0.434689 0.236223
O O14 0.556018 0.250000 0.356069
O O15 0.831883 0.466509 0.309509
O O16 0.451299 0.750000 0.062950
O O17 0.214203 0.516155 0.157300
O O18 0.500000 0.500000 0.000000
O O19 0.138021 0.250000 0.217286
#
# Coordination Sequence:
#
# PCOD8075203 Si02
#       7
#     4   4   4   4   4   4   4
#     4   9  19  36  59  86 116 149 184 226 281 340
#     4  11  22  38  62  88 116 148 186 229 274 329
#     4  12  24  37  54  78 109 146 192 244 295 345
#     4   9  17  32  53  77 109 147 187 232 279 334
#     4   9  19  36  59  85 113 145 180 220 273 335
#     4  12  25  40  58  81 113 154 200 248 296 346
#     4  10  20  37  61  87 117 151 187 233 288 345
#
# _framework density 19.877497999999999
#
# number of rings (size 3 to 8) (size 9 to 14) (size 15 to 20)
#    0.000    1.714    0.000    6.429    0.000    5.714 
#    0.000    0.714    0.000    0.000    0.000    0.000 
#    0.000    0.000    0.000    0.000    0.000    0.000 
#
# Total GULP energy -347239.641449 kJ/mol
# GULP energy per Si atom -12401.415766 kJ/mol
# Density = 1.983226 g / cm^3
# Si number density = 19.877498 Si / 1000 Ang^3
#
#
#
# Elastic Constant Matrix: (Units=GPa)
#
#
# Indices 1 2 3 4 5 6 
#
# 1 102.3671 28.0473 16.4876 0.0000 -13.4274 0.0000
# 2 28.0473 124.4507 46.1620 0.0000 -5.2854 0.0000
# 3 16.4876 46.1620 81.5913 0.0000 -14.0183 0.0000
# 4 0.0000 0.0000 0.0000 36.6840 0.0000 -1.9606
# 5 -13.4274 -5.2854 -14.0183 0.0000 20.2920 0.0000
# 6 0.0000 0.0000 0.0000 -1.9606 0.0000 27.4097
#
#
#
# Elastic Compliance Matrix: (Units=1/GPa)
#
#
# Indices 1 2 3 4 5 6 
#
# 1 0.011292 -0.002339 0.000250 0.000000 0.007036 0.000000
# 2 -0.002339 0.010695 -0.006088 0.000000 -0.002968 0.000000
# 3 0.000250 -0.006088 0.017481 0.000000 0.010656 0.000000
# 4 0.000000 0.000000 0.000000 0.027364 0.000000 0.001957
# 5 0.007036 -0.002968 0.010656 0.000000 0.060525 0.000000
# 6 0.000000 0.000000 0.000000 0.001957 0.000000 0.036623
#
#
# Mechanical properties :
#
#
# Convention : Reuss Voigt Hill
#
# Bulk Modulus (GPa) = 43.26310 54.42256 48.84283
# Shear Modulus (GPa) = 26.59033 31.39128 28.99081
#
# Velocity S-wave (km/s) = 3.66144 3.97827 3.82314
# Velocity P-wave (km/s) = 6.29976 6.96711 6.64182
#
# Compressibility (1/GPa) = 0.02311439
#
# Stress axis : x y z
#
# Youngs Moduli (GPa) = 88.55691 93.50550 57.20544
#
# Poissons Ratio (x) = 0.21870 -0.01432
# Poissons Ratio (y) = 0.20713 0.34826
# Poissons Ratio (z) = -0.02216 0.56926
#
# Static dielectric constant tensor:
#      x y z
#    x 3.913380 0.000000 -0.298780 
#    y 0.000000 3.627400 0.000000 
#    z -0.298780 0.000000 3.437300 
# 
# 
# High freq. dielectric constant tensor:
#      x y z
#    x 1.787510 0.000000 -0.011010 
#    y 0.000000 1.768520 0.000000 
#    z -0.011010 0.000000 1.760830 
# 
# From -- ./inp_files/70777.got.cif
#   From: 2010.06.25/outbox.cif.g09.slc.cpg/sg11_36_cif.got.tgz:70777.got - 2010.06.27 23:14:04.
