data_PCOD8075410
_publ_section_title
;
Structure prediction by ZEFSAII (Michael W. Deem and Ramdas Pophale) SiO2 
 PCOD8075410
Probable space group: P 21/M
;
_chemical_formula_sum "Si O2"
_cell_formula_units_Z 32
_cell_length_a 15.127206
_cell_length_b 13.217561
_cell_length_c 21.684503
_cell_angle_alpha 90.000000
_cell_angle_beta 158.989038
_cell_angle_gamma 90.000000
_cell_volume 1554.551361
_symmetry_space_group_name_H-M "P 21/M"
_symmetry_group_IT_number 11
_symmetry_cell_setting 'monoclinic'
loop_
_space_group_symop_operation_xyz
x,y,z
-x,1/2+y,-z
-x,-y,-z
x,1/2-y,z
loop_
_atom_site_type_symbol
_atom_site_label
_atom_site_fract_x
_atom_site_fract_y
_atom_site_fract_z
Si Si1 0.359685 0.869829 0.023270
Si Si2 0.765980 0.019392 0.305491
Si Si3 0.402775 0.024801 0.370762
Si Si4 0.938393 0.128815 0.915576
Si Si5 0.213661 0.979532 0.813495
Si Si6 0.789649 0.368029 0.537555
Si Si7 0.070013 0.866521 0.951587
Si Si8 0.533087 0.865852 0.791336
O O1 0.374887 0.750000 0.029879
O O2 0.637690 0.913553 0.201187
O O3 0.175738 0.906361 0.848047
O O4 0.254236 0.910990 0.020156
O O5 0.851160 0.071558 0.295830
O O6 0.557177 0.083937 0.204046
O O7 0.000000 0.000000 0.500000
O O8 0.622957 0.064222 0.472740
O O9 0.208604 0.115443 0.251146
O O10 0.500000 0.000000 0.500000
O O11 0.278281 0.922135 0.264338
O O12 0.916038 0.250000 0.897786
O O13 0.903063 0.086733 0.962378
O O14 0.204548 0.091199 0.062562
O O15 0.060923 0.083988 0.719897
O O16 0.500000 0.000000 0.000000
O O17 0.797680 0.250000 0.562706
O O18 0.682461 0.379943 0.399150
O O19 0.125368 0.750000 0.992964
O O20 0.575905 0.750000 0.835159
#
# Coordination Sequence:
#
# PCOD8075410 Si02
#       8
#     4   4   4   4   4   4   4   4
#     4  10  23  41  62  88 126 171 212 257 322 394
#     4  11  22  38  64  93 124 161 217 275 331 381
#     4  12  24  37  61  96 135 172 206 261 323 386
#     4  10  22  40  64  94 129 172 220 262 313 383
#     4  10  23  43  63  91 127 170 213 268 327 392
#     4  11  23  41  67  96 126 166 217 270 327 383
#     4  10  20  38  62  87 118 165 214 256 309 378
#     4  10  21  39  65  98 129 164 218 275 319 380
#
# _framework density 20.584719
#
# number of rings (size 3 to 8) (size 9 to 14) (size 15 to 20)
#    0.000    1.500    2.500    2.250    1.750    5.000 
#    0.000    5.000    0.000    0.000    0.000    0.000 
#    0.000    0.000    0.000    0.000    0.000    0.000 
#
# Total GULP energy -396605.496469 kJ/mol
# GULP energy per Si atom -12393.921765 kJ/mol
# Density = 2.053787 g / cm^3
# Si number density = 20.584719 Si / 1000 Ang^3
#
#
#
# Elastic Constant Matrix: (Units=GPa)
#
#
# Indices 1 2 3 4 5 6 
#
# 1 137.5700 54.1354 54.6926 0.0000 -15.1163 0.0000
# 2 54.1354 77.5913 42.7654 0.0000 -0.2998 0.0000
# 3 54.6926 42.7654 128.0422 0.0000 -9.5524 0.0000
# 4 0.0000 0.0000 0.0000 38.8128 0.0000 0.7085
# 5 -15.1163 -0.2998 -9.5524 0.0000 41.8604 0.0000
# 6 0.0000 0.0000 0.0000 0.7085 0.0000 28.3154
#
#
#
# Elastic Compliance Matrix: (Units=1/GPa)
#
#
# Indices 1 2 3 4 5 6 
#
# 1 0.011115 -0.006454 -0.002336 0.000000 0.003434 0.000000
# 2 -0.006454 0.019594 -0.004019 0.000000 -0.003108 0.000000
# 3 -0.002336 -0.004019 0.010260 0.000000 0.001469 0.000000
# 4 0.000000 0.000000 0.000000 0.025776 0.000000 -0.000645
# 5 0.003434 -0.003108 0.001469 0.000000 0.025442 0.000000
# 6 0.000000 0.000000 0.000000 -0.000645 0.000000 0.035333
#
#
# Mechanical properties :
#
#
# Convention : Reuss Voigt Hill
#
# Bulk Modulus (GPa) = 65.14534 71.82114 68.48324
# Shear Modulus (GPa) = 31.59448 34.57172 33.08310
#
# Velocity S-wave (km/s) = 3.92197 4.10260 4.01330
# Velocity P-wave (km/s) = 7.22670 7.57681 7.40382
#
# Compressibility (1/GPa) = 0.01535029
#
# Stress axis : x y z
#
# Youngs Moduli (GPa) = 89.97018 51.03490 97.46886
#
# Poissons Ratio (x) = 0.32939 0.22766
# Poissons Ratio (y) = 0.58068 0.39177
# Poissons Ratio (z) = 0.21015 0.20513
#
# Static dielectric constant tensor:
#      x y z
#    x 4.543890 0.000000 -0.159840 
#    y 0.000000 3.653810 0.000000 
#    z -0.159840 0.000000 3.662630 
# 
# 
# High freq. dielectric constant tensor:
#      x y z
#    x 1.829550 0.000000 -0.000150 
#    y 0.000000 1.799740 0.000000 
#    z -0.000150 0.000000 1.797650 
# 
# From -- ./inp_files/65798.got.cif
#   From: 2010.06.25/outbox.cif.g09.slc.cpg/sg11_33_cif.got.tgz:65798.got - 2010.06.27 23:14:04.
