data_PCOD8075582
_publ_section_title
;
Structure prediction by ZEFSAII (Michael W. Deem and Ramdas Pophale) SiO2 
 PCOD8075582
Probable space group: P 21/M
;
_chemical_formula_sum "Si O2"
_cell_formula_units_Z 24
_cell_length_a 6.497239
_cell_length_b 12.856828
_cell_length_c 14.234956
_cell_angle_alpha 90.000000
_cell_angle_beta 93.262531
_cell_angle_gamma 90.000000
_cell_volume 1187.173929
_symmetry_space_group_name_H-M "P 21/M"
_symmetry_group_IT_number 11
_symmetry_cell_setting 'monoclinic'
loop_
_space_group_symop_operation_xyz
x,y,z
-x,1/2+y,-z
-x,-y,-z
x,1/2-y,z
loop_
_atom_site_type_symbol
_atom_site_label
_atom_site_fract_x
_atom_site_fract_y
_atom_site_fract_z
Si Si1 0.451613 0.133086 0.306222
Si Si2 0.590239 0.456999 0.127082
Si Si3 0.202250 0.869098 0.538867
Si Si4 0.193604 0.558880 0.045314
Si Si5 0.096173 0.132577 0.814227
Si Si6 0.894003 0.486658 0.642384
O O1 0.364247 0.250000 0.295071
O O2 0.576771 0.120483 0.405927
O O3 0.603202 0.110859 0.221981
O O4 0.267794 0.050481 0.299293
O O5 0.351439 0.479934 0.099613
O O6 0.714251 0.565576 0.140479
O O7 0.688289 0.391026 0.042199
O O8 0.129370 0.750000 0.532829
O O9 0.225329 0.913058 0.434291
O O10 0.031550 0.931056 0.591330
O O11 0.101553 0.637810 0.120287
O O12 0.000000 0.500000 0.000000
O O13 0.175009 0.250000 0.800566
O O14 0.030778 0.084995 0.712890
#
# Coordination Sequence:
#
# PCOD8075582 Si02
#       6
#     4   4   4   4   4   4
#     4  11  22  38  62  90 118 157 200 243 299 352
#     4  10  20  40  61  88 123 155 196 251 293 350
#     4  10  22  39  60  86 119 158 197 242 299 352
#     4   9  20  39  63  83 120 157 195 248 297 344
#     4  11  22  37  61  90 122 162 201 239 298 355
#     4  11  21  39  61  86 123 155 198 248 290 349
#
# _framework density 20.216078
#
# number of rings (size 3 to 8) (size 9 to 14) (size 15 to 20)
#    0.000    1.667    3.333    1.500    0.000    1.333 
#    0.000    6.667    0.000    0.000    0.000    0.000 
#    0.000    0.000    0.000    0.000    0.000    0.000 
#
# Total GULP energy -297527.118153 kJ/mol
# GULP energy per Si atom -12396.963256 kJ/mol
# Density = 2.017007 g / cm^3
# Si number density = 20.216078 Si / 1000 Ang^3
#
#
#
# Elastic Constant Matrix: (Units=GPa)
#
#
# Indices 1 2 3 4 5 6 
#
# 1 74.9728 23.9043 27.2257 0.0000 5.3665 0.0000
# 2 23.9043 100.9101 38.4614 0.0000 1.2347 0.0000
# 3 27.2257 38.4614 113.2282 0.0000 -2.5075 0.0000
# 4 0.0000 0.0000 0.0000 19.6414 0.0000 2.4655
# 5 5.3665 1.2347 -2.5075 0.0000 32.8165 0.0000
# 6 0.0000 0.0000 0.0000 2.4655 0.0000 22.5317
#
#
#
# Elastic Compliance Matrix: (Units=1/GPa)
#
#
# Indices 1 2 3 4 5 6 
#
# 1 0.015381 -0.002503 -0.002907 0.000000 -0.002643 0.000000
# 2 -0.002503 0.011808 -0.003416 0.000000 -0.000296 0.000000
# 3 -0.002907 -0.003416 0.010722 0.000000 0.001423 0.000000
# 4 0.000000 0.000000 0.000000 0.051622 0.000000 -0.005649
# 5 -0.002643 -0.000296 0.001423 0.000000 0.031025 0.000000
# 6 0.000000 0.000000 0.000000 -0.005649 0.000000 0.045000
#
#
# Mechanical properties :
#
#
# Convention : Reuss Voigt Hill
#
# Bulk Modulus (GPa) = 49.35717 52.03263 50.69490
# Shear Modulus (GPa) = 26.32093 28.29924 27.31008
#
# Velocity S-wave (km/s) = 3.61221 3.74550 3.67946
# Velocity P-wave (km/s) = 6.47033 6.67077 6.57132
#
# Compressibility (1/GPa) = 0.02026048
#
# Stress axis : x y z
#
# Youngs Moduli (GPa) = 65.01511 84.68608 93.26315
#
# Poissons Ratio (x) = 0.21200 0.27107
# Poissons Ratio (y) = 0.16276 0.31856
# Poissons Ratio (z) = 0.18897 0.28926
#
# Static dielectric constant tensor:
#      x y z
#    x 3.647710 0.000000 -0.140110 
#    y 0.000000 3.441150 0.000000 
#    z -0.140110 0.000000 4.024530 
# 
# 
# High freq. dielectric constant tensor:
#      x y z
#    x 1.786280 0.000000 -0.000250 
#    y 0.000000 1.766420 0.000000 
#    z -0.000250 0.000000 1.812620 
# 
# From -- ./inp_files/45729.got.cif
#   From: 2010.06.25/outbox.cif.g09.slc.cpg/sg11_23_cif.got.tgz:45729.got - 2010.06.27 23:14:04.
