data_PCOD8075600
_publ_section_title
;
Structure prediction by ZEFSAII (Michael W. Deem and Ramdas Pophale) SiO2 
 PCOD8075600
Probable space group: P 21/M
;
_chemical_formula_sum "Si O2"
_cell_formula_units_Z 32
_cell_length_a 12.427647
_cell_length_b 8.297662
_cell_length_c 29.373478
_cell_angle_alpha 90.000000
_cell_angle_beta 148.890048
_cell_angle_gamma 90.000000
_cell_volume 1565.032628
_symmetry_space_group_name_H-M "P 21/M"
_symmetry_group_IT_number 11
_symmetry_cell_setting 'monoclinic'
loop_
_space_group_symop_operation_xyz
x,y,z
-x,1/2+y,-z
-x,-y,-z
x,1/2-y,z
loop_
_atom_site_type_symbol
_atom_site_label
_atom_site_fract_x
_atom_site_fract_y
_atom_site_fract_z
Si Si1 0.293443 0.062253 0.311961
Si Si2 0.223182 0.062576 0.019860
Si Si3 0.796063 0.059448 0.821756
Si Si4 0.612149 0.556899 0.493460
Si Si5 0.952545 0.570704 0.251218
Si Si6 0.571836 0.063058 0.072952
Si Si7 0.525799 0.943120 0.802662
Si Si8 0.077199 0.568664 0.667242
O O1 0.246904 0.250000 0.299991
O O2 0.245083 0.012792 0.242886
O O3 0.521640 0.017597 0.413637
O O4 0.162284 0.961011 0.300447
O O5 0.183524 0.250000 0.012167
O O6 0.397965 0.024476 0.046743
O O7 0.311072 0.990936 0.099606
O O8 0.005049 0.987503 0.922060
O O9 0.813084 0.250000 0.822575
O O10 0.599410 0.008459 0.780816
O O11 0.500000 0.500000 0.500000
O O12 0.607701 0.750000 0.491553
O O13 0.850731 0.489357 0.575774
O O14 0.962690 0.750000 0.276019
O O15 0.767354 0.553059 0.149001
O O16 0.901785 0.437592 0.270784
O O17 0.635083 0.250000 0.095389
O O18 0.500000 0.000000 0.000000
O O19 0.520955 0.750000 0.803024
O O20 0.288750 0.012037 0.723336
O O21 0.072993 0.750000 0.647983
#
# Coordination Sequence:
#
# PCOD8075600 Si02
#       8
#     4   4   4   4   4   4   4   4
#     4  12  25  42  63  88 122 166 207 253 310 374
#     4   9  19  36  60  85 119 161 204 251 301 358
#     4  11  23  40  61  91 124 159 206 262 310 360
#     4  11  22  38  64  97 126 158 199 252 309 373
#     4  12  23  36  58  88 123 159 199 252 308 366
#     4  11  21  36  55  82 121 165 207 251 307 370
#     4  10  20  40  64  88 120 165 208 248 301 369
#     4  10  21  39  64  90 122 159 199 245 303 368
#
# _framework density 20.446857000000001
#
# number of rings (size 3 to 8) (size 9 to 14) (size 15 to 20)
#    0.000    1.250    2.500    4.500    0.000    2.000 
#    0.000    3.125    0.000    0.000    0.000    0.000 
#    0.000    0.000    0.000    0.000    0.000    0.000 
#
# Total GULP energy -396500.065237 kJ/mol
# GULP energy per Si atom -12390.627039 kJ/mol
# Density = 2.040032 g / cm^3
# Si number density = 20.446857 Si / 1000 Ang^3
#
#
#
# Elastic Constant Matrix: (Units=GPa)
#
#
# Indices 1 2 3 4 5 6 
#
# 1 112.4808 13.0400 69.8865 0.0000 12.9036 0.0000
# 2 13.0400 59.1405 12.1010 0.0000 -0.5778 0.0000
# 3 69.8865 12.1010 172.7952 0.0000 23.0724 0.0000
# 4 0.0000 0.0000 0.0000 10.4694 0.0000 -6.0383
# 5 12.9036 -0.5778 23.0724 0.0000 28.0353 0.0000
# 6 0.0000 0.0000 0.0000 -6.0383 0.0000 27.7631
#
#
#
# Elastic Compliance Matrix: (Units=1/GPa)
#
#
# Indices 1 2 3 4 5 6 
#
# 1 0.012125 -0.001766 -0.004528 0.000000 -0.001891 0.000000
# 2 -0.001766 0.017469 -0.000748 0.000000 0.001788 0.000000
# 3 -0.004528 -0.000748 0.008308 0.000000 -0.004768 0.000000
# 4 0.000000 0.000000 0.000000 0.109217 0.000000 0.023754
# 5 -0.001891 0.001788 -0.004768 0.000000 0.040501 0.000000
# 6 0.000000 0.000000 0.000000 0.023754 0.000000 0.041185
#
#
# Mechanical properties :
#
#
# Convention : Reuss Voigt Hill
#
# Bulk Modulus (GPa) = 41.98410 59.38574 50.68492
# Shear Modulus (GPa) = 19.93404 29.87949 24.90676
#
# Velocity S-wave (km/s) = 3.12576 3.82687 3.49395
# Velocity P-wave (km/s) = 5.79698 6.97378 6.41243
#
# Compressibility (1/GPa) = 0.02381854
#
# Stress axis : x y z
#
# Youngs Moduli (GPa) = 82.47230 57.24527 120.37192
#
# Poissons Ratio (x) = 0.10107 0.54504
# Poissons Ratio (y) = 0.14561 0.09005
# Poissons Ratio (z) = 0.37343 0.04282
#
# Static dielectric constant tensor:
#      x y z
#    x 3.506250 0.000000 0.166670 
#    y 0.000000 3.598490 0.000000 
#    z 0.166670 0.000000 4.334480 
# 
# 
# High freq. dielectric constant tensor:
#      x y z
#    x 1.788770 0.000000 0.006160 
#    y 0.000000 1.783510 0.000000 
#    z 0.006160 0.000000 1.819070 
# 
# From -- ./inp_files/73160.got.cif
#   From: 2010.06.25/outbox.cif.g09.slc.cpg/sg11_37_cif.got.tgz:73160.got - 2010.06.27 23:14:04.
