data_PCOD8075545
_publ_section_title
;
Structure prediction by ZEFSAII (Michael W. Deem and Ramdas Pophale) SiO2 
 PCOD8075545
Probable space group: P 21/M
;
_chemical_formula_sum "Si O2"
_cell_formula_units_Z 32
_cell_length_a 28.882077
_cell_length_b 8.554058
_cell_length_c 12.060351
_cell_angle_alpha 90.000000
_cell_angle_beta 32.394638
_cell_angle_gamma 90.000000
_cell_volume 1596.323610
_symmetry_space_group_name_H-M "P 21/M"
_symmetry_group_IT_number 11
_symmetry_cell_setting 'monoclinic'
loop_
_space_group_symop_operation_xyz
x,y,z
-x,1/2+y,-z
-x,-y,-z
x,1/2-y,z
loop_
_atom_site_type_symbol
_atom_site_label
_atom_site_fract_x
_atom_site_fract_y
_atom_site_fract_z
Si Si1 0.591464 0.073650 0.330021
Si Si2 0.153678 0.435670 0.919103
Si Si3 0.841172 0.932962 0.557242
Si Si4 0.655568 0.933467 0.417410
Si Si5 0.005633 0.934709 0.611389
Si Si6 0.093911 0.434615 0.806738
Si Si7 0.500276 0.435199 0.874531
Si Si8 0.343363 0.927361 0.048046
O O1 0.584424 0.250000 0.390571
O O2 0.500000 0.000000 0.500000
O O3 0.639555 0.966156 0.321181
O O4 0.637230 0.070098 0.120412
O O5 0.150893 0.250000 0.931857
O O6 0.247575 0.498528 0.762826
O O7 0.143128 0.497170 0.815256
O O8 0.075867 0.502486 0.153245
O O9 0.858625 0.750000 0.534198
O O10 0.860785 0.997675 0.395035
O O11 0.741048 0.967428 0.774807
O O12 0.902830 0.018123 0.520470
O O13 0.647599 0.750000 0.458689
O O14 0.589285 0.020221 0.633269
O O15 0.000899 0.750000 0.616117
O O16 0.000000 0.000000 0.500000
O O17 0.091013 0.250000 0.813352
O O18 0.000000 0.500000 0.000000
O O19 0.490857 0.250000 0.898304
O O20 0.500000 0.500000 0.000000
O O21 0.420114 0.503274 0.967194
O O22 0.326420 0.750000 0.122263
#
# Coordination Sequence:
#
# PCOD8075545 Si02
#       8
#     4   4   4   4   4   4   4   4
#     4  11  23  41  66  93 125 165 211 264 322 380
#     4   9  21  40  63  90 124 166 207 254 316 373
#     4  11  24  40  64  96 127 167 212 260 319 382
#     4  11  23  41  66  95 128 168 214 264 318 381
#     4  11  23  42  64  90 127 169 212 264 317 378
#     4  10  20  39  64  91 122 161 208 259 311 372
#     4  12  26  45  67  94 130 170 212 263 319 383
#     4  11  25  44  66  95 128 168 215 265 317 378
#
# _framework density 20.046060000000001
#
# number of rings (size 3 to 8) (size 9 to 14) (size 15 to 20)
#    0.000    1.250    2.500    3.000    3.500    2.000 
#    0.000    3.125    0.000    0.000    0.000    0.000 
#    0.000    0.000    0.000    0.000    0.000    0.000 
#
# Total GULP energy -396779.232725 kJ/mol
# GULP energy per Si atom -12399.351023 kJ/mol
# Density = 2.000043 g / cm^3
# Si number density = 20.046060 Si / 1000 Ang^3
#
#
#
# Elastic Constant Matrix: (Units=GPa)
#
#
# Indices 1 2 3 4 5 6 
#
# 1 153.0240 22.5122 56.8965 0.0000 -0.4518 0.0000
# 2 22.5122 61.1088 20.3750 0.0000 8.6616 0.0000
# 3 56.8965 20.3750 112.3534 0.0000 -6.5390 0.0000
# 4 0.0000 0.0000 0.0000 30.3154 0.0000 2.1499
# 5 -0.4518 8.6616 -6.5390 0.0000 43.0985 0.0000
# 6 0.0000 0.0000 0.0000 2.1499 0.0000 30.9176
#
#
#
# Elastic Compliance Matrix: (Units=1/GPa)
#
#
# Indices 1 2 3 4 5 6 
#
# 1 0.008223 -0.001720 -0.003861 0.000000 -0.000154 0.000000
# 2 -0.001720 0.018494 -0.002724 0.000000 -0.004148 0.000000
# 3 -0.003861 -0.002724 0.011481 0.000000 0.002249 0.000000
# 4 0.000000 0.000000 0.000000 0.033150 0.000000 -0.002305
# 5 -0.000154 -0.004148 0.002249 0.000000 0.024376 0.000000
# 6 0.000000 0.000000 0.000000 -0.002305 0.000000 0.032504
#
#
# Mechanical properties :
#
#
# Convention : Reuss Voigt Hill
#
# Bulk Modulus (GPa) = 46.32437 58.45039 52.38738
# Shear Modulus (GPa) = 32.88706 35.97979 34.43342
#
# Velocity S-wave (km/s) = 4.05479 4.24117 4.14903
# Velocity P-wave (km/s) = 6.71423 7.29416 7.01019
#
# Compressibility (1/GPa) = 0.02158691
#
# Stress axis : x y z
#
# Youngs Moduli (GPa) = 121.60696 54.07098 87.10198
#
# Poissons Ratio (x) = 0.09301 0.33633
# Poissons Ratio (y) = 0.20918 0.23728
# Poissons Ratio (z) = 0.46956 0.14730
#
# Static dielectric constant tensor:
#      x y z
#    x 3.878090 0.000000 0.027900 
#    y 0.000000 3.681150 0.000000 
#    z 0.027900 0.000000 3.895210 
# 
# 
# High freq. dielectric constant tensor:
#      x y z
#    x 1.801060 0.000000 0.001950 
#    y 0.000000 1.780420 0.000000 
#    z 0.001950 0.000000 1.794250 
# 
# From -- ./inp_files/45111.got.cif
#   From: 2010.06.25/outbox.cif.g09.slc.cpg/sg11_23_cif.got.tgz:45111.got - 2010.06.27 23:14:04.
