data_PCOD8075424
_publ_section_title
;
Structure prediction by ZEFSAII (Michael W. Deem and Ramdas Pophale) SiO2 
 PCOD8075424
Probable space group: P 21/M
;
_chemical_formula_sum "Si O2"
_cell_formula_units_Z 28
_cell_length_a 21.310672
_cell_length_b 8.560449
_cell_length_c 14.693335
_cell_angle_alpha 90.000000
_cell_angle_beta 150.499551
_cell_angle_gamma 90.000000
_cell_volume 1319.954340
_symmetry_space_group_name_H-M "P 21/M"
_symmetry_group_IT_number 11
_symmetry_cell_setting 'monoclinic'
loop_
_space_group_symop_operation_xyz
x,y,z
-x,1/2+y,-z
-x,-y,-z
x,1/2-y,z
loop_
_atom_site_type_symbol
_atom_site_label
_atom_site_fract_x
_atom_site_fract_y
_atom_site_fract_z
Si Si1 0.395395 0.436419 0.939320
Si Si2 0.100826 0.431649 0.554835
Si Si3 0.896089 0.570604 0.803251
Si Si4 0.262506 0.430282 0.127150
Si Si5 0.664045 0.068478 0.601086
Si Si6 0.024402 0.570339 0.272005
Si Si7 0.569314 0.931325 0.816761
O O1 0.398717 0.250000 0.936706
O O2 0.247936 0.496060 0.741114
O O3 0.500000 0.500000 0.000000
O O4 0.437386 0.506476 0.091208
O O5 0.106422 0.250000 0.583027
O O6 0.044925 0.463419 0.384957
O O7 0.000000 0.500000 0.500000
O O8 0.928045 0.750000 0.823787
O O9 0.764956 0.552512 0.689510
O O10 0.880126 0.479081 0.687658
O O11 0.000000 0.500000 0.000000
O O12 0.299100 0.250000 0.192019
O O13 0.341808 0.536442 0.298135
O O14 0.299767 0.474581 0.070149
O O15 0.112979 0.460560 0.946294
O O16 0.698028 0.250000 0.626702
O O17 0.537693 0.016355 0.389470
O O18 0.044585 0.750000 0.325570
O O19 0.560055 0.750000 0.824885
#
# Coordination Sequence:
#
# PCOD8075424 Si02
#       7
#     4   4   4   4   4   4   4
#     4  10  23  44  66  92 125 166 214 271 327 385
#     4  11  24  43  68  98 131 168 218 273 326 386
#     4  12  24  40  60  87 124 163 208 257 308 371
#     4  10  20  38  62  88 122 163 202 249 306 369
#     4  11  22  36  59  90 123 160 203 250 304 370
#     4  11  23  39  64  93 125 166 208 255 316 373
#     4   9  20  39  62  87 119 160 204 250 309 371
#
# _framework density 21.212852999999999
#
# number of rings (size 3 to 8) (size 9 to 14) (size 15 to 20)
#    0.000    1.429    1.429    3.857    2.000    4.000 
#    0.000    2.143    0.000    0.000    0.000    0.000 
#    0.000    0.000    0.000    0.000    0.000    0.000 
#
# Total GULP energy -347039.335979 kJ/mol
# GULP energy per Si atom -12394.261999 kJ/mol
# Density = 2.116457 g / cm^3
# Si number density = 21.212853 Si / 1000 Ang^3
#
#
#
# Elastic Constant Matrix: (Units=GPa)
#
#
# Indices 1 2 3 4 5 6 
#
# 1 146.4893 22.7696 56.3237 0.0000 -9.6475 0.0000
# 2 22.7696 54.4920 36.3405 0.0000 2.4780 0.0000
# 3 56.3237 36.3405 86.3607 0.0000 -7.1996 0.0000
# 4 0.0000 0.0000 0.0000 23.4681 0.0000 -1.8192
# 5 -9.6475 2.4780 -7.1996 0.0000 41.4518 0.0000
# 6 0.0000 0.0000 0.0000 -1.8192 0.0000 37.1052
#
#
#
# Elastic Compliance Matrix: (Units=1/GPa)
#
#
# Indices 1 2 3 4 5 6 
#
# 1 0.009161 0.000063 -0.005910 0.000000 0.001102 0.000000
# 2 0.000063 0.026003 -0.011275 0.000000 -0.003498 0.000000
# 3 -0.005910 -0.011275 0.020415 0.000000 0.002844 0.000000
# 4 0.000000 0.000000 0.000000 0.042774 0.000000 0.002097
# 5 0.001102 -0.003498 0.002844 0.000000 0.025084 0.000000
# 6 0.000000 0.000000 0.000000 0.002097 0.000000 0.027053
#
#
# Mechanical properties :
#
#
# Convention : Reuss Voigt Hill
#
# Bulk Modulus (GPa) = 46.86754 57.57885 52.22319
# Shear Modulus (GPa) = 26.06259 31.86556 28.96407
#
# Velocity S-wave (km/s) = 3.50897 3.88000 3.69914
# Velocity P-wave (km/s) = 6.20960 6.87567 6.55111
#
# Compressibility (1/GPa) = 0.02133673
#
# Stress axis : x y z
#
# Youngs Moduli (GPa) = 109.15334 38.45680 48.98345
#
# Poissons Ratio (x) = -0.00242 0.28947
# Poissons Ratio (y) = -0.00686 0.55228
# Poissons Ratio (z) = 0.64505 0.43359
#
# Static dielectric constant tensor:
#      x y z
#    x 3.860360 0.000000 -0.493380 
#    y 0.000000 3.408140 0.000000 
#    z -0.493380 0.000000 2.813150 
# 
# 
# High freq. dielectric constant tensor:
#      x y z
#    x 1.853000 0.000000 -0.002450 
#    y 0.000000 1.810630 0.000000 
#    z -0.002450 0.000000 1.833480 
# 
# From -- ./inp_files/49139.got.cif
#   From: 2010.06.25/outbox.cif.g09.slc.cpg/sg11_25_cif.got.tgz:49139.got - 2010.06.27 23:14:04.
