data_PCOD8075542
_publ_section_title
;
Structure prediction by ZEFSAII (Michael W. Deem and Ramdas Pophale) SiO2 
 PCOD8075542
Probable space group: P 21/M
;
_chemical_formula_sum "Si O2"
_cell_formula_units_Z 32
_cell_length_a 28.680875
_cell_length_b 11.968250
_cell_length_c 8.869489
_cell_angle_alpha 90.000000
_cell_angle_beta 32.187288
_cell_angle_gamma 90.000000
_cell_volume 1621.791377
_symmetry_space_group_name_H-M "P 21/M"
_symmetry_group_IT_number 11
_symmetry_cell_setting 'monoclinic'
loop_
_space_group_symop_operation_xyz
x,y,z
-x,1/2+y,-z
-x,-y,-z
x,1/2-y,z
loop_
_atom_site_type_symbol
_atom_site_label
_atom_site_fract_x
_atom_site_fract_y
_atom_site_fract_z
Si Si1 0.901839 0.121543 0.266844
Si Si2 0.425935 0.983125 0.507044
Si Si3 0.422967 0.875571 0.823800
Si Si4 0.467556 0.122073 0.020178
Si Si5 0.014200 0.016700 0.710428
Si Si6 0.104292 0.376164 0.181173
Si Si7 0.261436 0.621513 0.467027
Si Si8 0.293867 0.449743 0.619015
O O1 0.894924 0.250000 0.325731
O O2 0.809310 0.075035 0.458547
O O3 0.922870 0.063841 0.367343
O O4 0.973904 0.103900 0.939391
O O5 0.481506 0.097238 0.370976
O O6 0.340457 0.008875 0.643799
O O7 0.395152 0.948815 0.756836
O O8 0.491053 0.886691 0.260522
O O9 0.419268 0.750000 0.778377
O O10 0.357224 0.899115 0.139454
O O11 0.495776 0.250000 0.002776
O O12 0.362059 0.118543 0.325212
O O13 0.500000 0.000000 0.000000
O O14 0.073087 0.080106 0.428311
O O15 0.936451 0.948550 0.842473
O O16 0.071144 0.250000 0.251339
O O17 0.209944 0.375193 0.888065
O O18 0.241148 0.750000 0.558655
O O19 0.256252 0.558671 0.639240
#
# Coordination Sequence:
#
# PCOD8075542 Si02
#       8
#     4   4   4   4   4   4   4   4
#     4  10  20  39  64  90 118 153 197 245 302 359
#     4  10  22  37  60  84 119 154 200 250 296 357
#     4  10  21  38  58  84 116 156 198 246 302 355
#     4  10  21  37  59  85 117 156 200 245 293 354
#     4  10  22  39  64  87 119 155 198 244 298 366
#     4  11  23  40  60  88 123 158 197 247 302 361
#     4  10  21  37  60  88 120 154 195 249 302 358
#     4  11  22  39  58  89 120 157 201 246 300 356
#
# _framework density 19.731269000000001
#
# number of rings (size 3 to 8) (size 9 to 14) (size 15 to 20)
#    0.000    1.750    2.500    1.500    1.750    5.000 
#    0.000    0.625    0.000    0.000    0.000    0.000 
#    0.000    0.000    0.000    0.000    0.000    0.000 
#
# Total GULP energy -396529.646833 kJ/mol
# GULP energy per Si atom -12391.551464 kJ/mol
# Density = 1.968636 g / cm^3
# Si number density = 19.731269 Si / 1000 Ang^3
#
#
#
# Elastic Constant Matrix: (Units=GPa)
#
#
# Indices 1 2 3 4 5 6 
#
# 1 97.9858 25.0285 13.3597 0.0000 -13.6174 0.0000
# 2 25.0285 74.7123 21.1948 0.0000 3.7411 0.0000
# 3 13.3597 21.1948 60.0455 0.0000 -7.8497 0.0000
# 4 0.0000 0.0000 0.0000 21.0501 0.0000 -0.8828
# 5 -13.6174 3.7411 -7.8497 0.0000 27.7365 0.0000
# 6 0.0000 0.0000 0.0000 -0.8828 0.0000 26.6211
#
#
#
# Elastic Compliance Matrix: (Units=1/GPa)
#
#
# Indices 1 2 3 4 5 6 
#
# 1 0.012265 -0.004336 -0.000348 0.000000 0.006508 0.000000
# 2 -0.004336 0.016767 -0.005740 0.000000 -0.006015 0.000000
# 3 -0.000348 -0.005740 0.019560 0.000000 0.006139 0.000000
# 4 0.000000 0.000000 0.000000 0.047572 0.000000 0.001578
# 5 0.006508 -0.006015 0.006139 0.000000 0.041797 0.000000
# 6 0.000000 0.000000 0.000000 0.001578 0.000000 0.037617
#
#
# Mechanical properties :
#
#
# Convention : Reuss Voigt Hill
#
# Bulk Modulus (GPa) = 36.04279 39.10105 37.57192
# Shear Modulus (GPa) = 24.31049 26.62558 25.46803
#
# Velocity S-wave (km/s) = 3.51391 3.67742 3.59659
# Velocity P-wave (km/s) = 5.89660 6.15557 6.02747
#
# Compressibility (1/GPa) = 0.02774480
#
# Stress axis : x y z
#
# Youngs Moduli (GPa) = 81.53324 59.64191 51.12479
#
# Poissons Ratio (x) = 0.25861 0.01777
# Poissons Ratio (y) = 0.35353 0.29345
# Poissons Ratio (z) = 0.02834 0.34234
#
# Static dielectric constant tensor:
#      x y z
#    x 3.574730 0.000000 0.000450 
#    y 0.000000 3.655130 0.000000 
#    z 0.000450 0.000000 3.705430 
# 
# 
# High freq. dielectric constant tensor:
#      x y z
#    x 1.767630 0.000000 0.001860 
#    y 0.000000 1.767830 0.000000 
#    z 0.001860 0.000000 1.770050 
# 
# From -- ./inp_files/29264.got.cif
#   From: 2010.06.25/outbox.cif.g09.slc.cpg/sg11_15_cif.got.tgz:29264.got - 2010.06.27 23:14:04.
