data_PCOD8075646
_publ_section_title
;
Structure prediction by ZEFSAII (Michael W. Deem and Ramdas Pophale) SiO2 
 PCOD8075646
Probable space group: P 21/M
;
_chemical_formula_sum "Si O2"
_cell_formula_units_Z 32
_cell_length_a 12.436055
_cell_length_b 14.026077
_cell_length_c 21.092948
_cell_angle_alpha 90.000000
_cell_angle_beta 151.897963
_cell_angle_gamma 90.000000
_cell_volume 1733.073225
_symmetry_space_group_name_H-M "P 21/M"
_symmetry_group_IT_number 11
_symmetry_cell_setting 'monoclinic'
loop_
_space_group_symop_operation_xyz
x,y,z
-x,1/2+y,-z
-x,-y,-z
x,1/2-y,z
loop_
_atom_site_type_symbol
_atom_site_label
_atom_site_fract_x
_atom_site_fract_y
_atom_site_fract_z
Si Si1 0.656719 0.024669 0.885772
Si Si2 0.080640 0.977558 0.182926
Si Si3 0.611702 0.358486 0.214707
Si Si4 0.576365 0.362374 0.718173
Si Si5 0.087371 0.361262 0.412778
Si Si6 0.056719 0.358337 0.255994
Si Si7 0.266260 0.357586 0.921345
Si Si8 0.457186 0.642512 0.054253
O O1 0.517628 0.926069 0.801299
O O2 0.655670 0.092983 0.825224
O O3 0.529058 0.075305 0.877868
O O4 0.920150 0.002395 0.039343
O O5 0.286626 0.911107 0.267809
O O6 0.938854 0.924514 0.163921
O O7 0.176402 0.074700 0.264910
O O8 0.613526 0.250000 0.242297
O O9 0.866449 0.400011 0.335520
O O10 0.477734 0.364088 0.079062
O O11 0.629583 0.250000 0.745971
O O12 0.309942 0.384116 0.569864
O O13 0.043537 0.250000 0.380811
O O14 0.115229 0.400995 0.355868
O O15 0.147447 0.250000 0.294045
O O16 0.786027 0.363383 0.106135
O O17 0.173451 0.250000 0.870137
O O18 0.352662 0.391381 0.897287
O O19 0.506630 0.750000 0.102538
#
# Coordination Sequence:
#
# PCOD8075646 Si02
#       8
#     4   4   4   4   4   4   4   4
#     4  10  21  33  53  77 103 132 170 207 254 300
#     4  10  21  33  53  77 103 132 170 207 254 300
#     4   9  17  31  52  79 104 128 166 212 256 295
#     4  11  23  39  52  69 102 142 177 203 237 300
#     4   9  18  33  54  75 101 136 170 205 245 296
#     4   9  17  31  52  79 104 128 166 212 256 295
#     4   9  16  28  50  80 108 129 157 208 266 305
#     4   9  16  28  50  80 108 129 157 208 266 305
#
# _framework density 18.464309
#
# number of rings (size 3 to 8) (size 9 to 14) (size 15 to 20)
#    0.000    2.500    1.250    1.125    1.750    3.500 
#    0.000    0.625    0.000    0.000    0.000    1.750 
#    0.000    0.000    0.000    0.000    0.000    0.000 
#
# Total GULP energy -396725.766470 kJ/mol
# GULP energy per Si atom -12397.680202 kJ/mol
# Density = 1.842228 g / cm^3
# Si number density = 18.464309 Si / 1000 Ang^3
#
#
#
# Elastic Constant Matrix: (Units=GPa)
#
#
# Indices 1 2 3 4 5 6 
#
# 1 40.1338 20.6366 -0.5963 0.0000 -1.6876 0.0000
# 2 20.6366 82.7867 9.7447 0.0000 -1.6895 0.0000
# 3 -0.5963 9.7447 30.5145 0.0000 0.9270 0.0000
# 4 0.0000 0.0000 0.0000 17.4436 0.0000 -1.4563
# 5 -1.6876 -1.6895 0.9270 0.0000 19.1126 0.0000
# 6 0.0000 0.0000 0.0000 -1.4563 0.0000 35.1293
#
#
#
# Elastic Compliance Matrix: (Units=1/GPa)
#
#
# Indices 1 2 3 4 5 6 
#
# 1 0.028895 -0.007510 0.002910 0.000000 0.001746 0.000000
# 2 -0.007510 0.014535 -0.004815 0.000000 0.000855 0.000000
# 3 0.002910 -0.004815 0.034422 0.000000 -0.001838 0.000000
# 4 0.000000 0.000000 0.000000 0.057527 0.000000 0.002385
# 5 0.001746 0.000855 -0.001838 0.000000 0.052641 0.000000
# 6 0.000000 0.000000 0.000000 0.002385 0.000000 0.028565
#
#
# Mechanical properties :
#
#
# Convention : Reuss Voigt Hill
#
# Bulk Modulus (GPa) = 16.94260 23.66721 20.30490
# Shear Modulus (GPa) = 19.60116 22.58044 21.09080
#
# Velocity S-wave (km/s) = 3.26171 3.50083 3.38338
# Velocity P-wave (km/s) = 4.83537 5.40247 5.12677
#
# Compressibility (1/GPa) = 0.05902283
#
# Stress axis : x y z
#
# Youngs Moduli (GPa) = 34.60843 68.79781 29.05160
#
# Poissons Ratio (x) = 0.51664 -0.08453
# Poissons Ratio (y) = 0.25989 0.13987
# Poissons Ratio (z) = -0.10070 0.33123
#
# Static dielectric constant tensor:
#      x y z
#    x 3.257180 0.000000 0.031070 
#    y 0.000000 3.744620 0.000000 
#    z 0.031070 0.000000 3.092470 
# 
# 
# High freq. dielectric constant tensor:
#      x y z
#    x 1.701270 0.000000 0.000530 
#    y 0.000000 1.724070 0.000000 
#    z 0.000530 0.000000 1.683400 
# 
# From -- ./inp_files/59538.got.cif
#   From: 2010.06.25/outbox.cif.g09.slc.cpg/sg11_30_cif.got.tgz:59538.got - 2010.06.27 23:14:04.
