data_PCOD8075885
_publ_section_title
;
Structure prediction by ZEFSAII (Michael W. Deem and Ramdas Pophale) SiO2 
 PCOD8075885
Probable space group: P 21/M
;
_chemical_formula_sum "Si O2"
_cell_formula_units_Z 28
_cell_length_a 23.295505
_cell_length_b 9.003662
_cell_length_c 20.212074
_cell_angle_alpha 90.000000
_cell_angle_beta 19.878074
_cell_angle_gamma 90.000000
_cell_volume 1441.472182
_symmetry_space_group_name_H-M "P 21/M"
_symmetry_group_IT_number 11
_symmetry_cell_setting 'monoclinic'
loop_
_space_group_symop_operation_xyz
x,y,z
-x,1/2+y,-z
-x,-y,-z
x,1/2-y,z
loop_
_atom_site_type_symbol
_atom_site_label
_atom_site_fract_x
_atom_site_fract_y
_atom_site_fract_z
Si Si1 0.025061 0.586108 0.040425
Si Si2 0.405651 0.590850 0.656689
Si Si3 0.403914 0.577861 0.942231
Si Si4 0.495807 0.423346 0.309328
Si Si5 0.843225 0.425636 0.352915
Si Si6 0.046452 0.573434 0.381153
Si Si7 0.783040 0.926102 0.553141
O O1 0.935589 0.750000 0.136485
O O2 0.975682 0.489116 0.157115
O O3 0.000000 0.500000 0.000000
O O4 0.220256 0.613326 0.833277
O O5 0.500000 0.500000 0.500000
O O6 0.498622 0.750000 0.559112
O O7 0.406545 0.525996 0.730361
O O8 0.398867 0.750000 0.963926
O O9 0.389647 0.545738 0.879243
O O10 0.585708 0.517787 0.773902
O O11 0.232600 0.508756 0.159339
O O12 0.440877 0.250000 0.367985
O O13 0.337613 0.531319 0.479329
O O14 0.863931 0.250000 0.336090
O O15 0.870767 0.498459 0.394857
O O16 0.051782 0.750000 0.382189
O O17 0.897825 0.527538 0.491073
O O18 0.000000 0.500000 0.500000
O O19 0.784188 0.750000 0.540083
#
# Coordination Sequence:
#
# PCOD8075885 Si02
#       7
#     4   4   4   4   4   4   4
#     4  11  23  38  56  80 111 149 190 233 282 339
#     4  10  22  36  55  79 106 143 186 232 281 333
#     4   8  16  33  57  82 108 143 190 234 278 338
#     4   9  18  36  59  80 104 141 188 234 281 337
#     4  11  22  36  56  84 114 145 183 233 289 340
#     4  10  21  36  58  85 116 151 189 236 288 347
#     4   9  19  37  60  82 110 152 195 234 284 341
#
# _framework density 19.424586000000001
#
# number of rings (size 3 to 8) (size 9 to 14) (size 15 to 20)
#    0.000    2.286    0.000    3.429    2.000    5.143 
#    0.000    2.857    0.000    0.000    0.000    0.000 
#    0.000    0.000    0.000    0.000    0.000    0.000 
#
# Total GULP energy -346926.784963 kJ/mol
# GULP energy per Si atom -12390.242320 kJ/mol
# Density = 1.938037 g / cm^3
# Si number density = 19.424586 Si / 1000 Ang^3
#
#
#
# Elastic Constant Matrix: (Units=GPa)
#
#
# Indices 1 2 3 4 5 6 
#
# 1 169.0315 46.9807 73.4268 0.0000 5.5884 0.0000
# 2 46.9807 73.4715 35.9654 0.0000 6.8875 0.0000
# 3 73.4268 35.9654 132.4636 0.0000 15.9869 0.0000
# 4 0.0000 0.0000 0.0000 23.4720 0.0000 9.1696
# 5 5.5884 6.8875 15.9869 0.0000 30.3464 0.0000
# 6 0.0000 0.0000 0.0000 9.1696 0.0000 29.0443
#
#
#
# Elastic Compliance Matrix: (Units=1/GPa)
#
#
# Indices 1 2 3 4 5 6 
#
# 1 0.008607 -0.003707 -0.003925 0.000000 0.001324 0.000000
# 2 -0.003707 0.017350 -0.002417 0.000000 -0.001982 0.000000
# 3 -0.003925 -0.002417 0.010922 0.000000 -0.004483 0.000000
# 4 0.000000 0.000000 0.000000 0.048598 0.000000 -0.015343
# 5 0.001324 -0.001982 -0.004483 0.000000 0.035520 0.000000
# 6 0.000000 0.000000 0.000000 -0.015343 0.000000 0.039274
#
#
# Mechanical properties :
#
#
# Convention : Reuss Voigt Hill
#
# Bulk Modulus (GPa) = 59.58456 76.41247 67.99852
# Shear Modulus (GPa) = 26.88722 31.14545 29.01634
#
# Velocity S-wave (km/s) = 3.72450 4.00860 3.86916
# Velocity P-wave (km/s) = 7.01693 7.80055 7.41909
#
# Compressibility (1/GPa) = 0.01678287
#
# Stress axis : x y z
#
# Youngs Moduli (GPa) = 116.17925 57.63733 91.55981
#
# Poissons Ratio (x) = 0.21366 0.35933
# Poissons Ratio (y) = 0.43066 0.22127
# Poissons Ratio (z) = 0.45595 0.13929
#
# Static dielectric constant tensor:
#      x y z
#    x 3.713990 0.000000 -0.062300 
#    y 0.000000 3.348200 0.000000 
#    z -0.062300 0.000000 3.735600 
# 
# 
# High freq. dielectric constant tensor:
#      x y z
#    x 1.764500 0.000000 0.000470 
#    y 0.000000 1.733540 0.000000 
#    z 0.000470 0.000000 1.758470 
# 
# From -- ./inp_files/29023.got.cif
#   From: 2010.06.25/outbox.cif.g09.slc.cpg/sg11_15_cif.got.tgz:29023.got - 2010.06.27 23:14:04.
