data_PCOD8075128
_publ_section_title
;
Structure prediction by ZEFSAII (Michael W. Deem and Ramdas Pophale) SiO2 
 PCOD8075128
Probable space group: P 21/M
;
_chemical_formula_sum "Si O2"
_cell_formula_units_Z 24
_cell_length_a 23.204755
_cell_length_b 8.842287
_cell_length_c 18.635220
_cell_angle_alpha 90.000000
_cell_angle_beta 17.779597
_cell_angle_gamma 90.000000
_cell_volume 1167.569947
_symmetry_space_group_name_H-M "P 21/M"
_symmetry_group_IT_number 11
_symmetry_cell_setting 'monoclinic'
loop_
_space_group_symop_operation_xyz
x,y,z
-x,1/2+y,-z
-x,-y,-z
x,1/2-y,z
loop_
_atom_site_type_symbol
_atom_site_label
_atom_site_fract_x
_atom_site_fract_y
_atom_site_fract_z
Si Si1 0.677221 0.927593 0.326264
Si Si2 0.677479 0.923084 0.487285
Si Si3 0.417340 0.571401 0.169168
Si Si4 0.355684 0.921609 0.974949
Si Si5 0.018203 0.073250 0.149282
Si Si6 0.009559 0.072580 0.673777
O O1 0.647293 0.750000 0.362844
O O2 0.691236 0.989243 0.390629
O O3 0.500000 0.000000 0.500000
O O4 0.860641 0.975776 0.063664
O O5 0.750538 0.750000 0.403379
O O6 0.466302 0.935793 0.768226
O O7 0.803455 0.027506 0.388915
O O8 0.411747 0.750000 0.168142
O O9 0.555878 0.530372 0.070461
O O10 0.205018 0.513590 0.430820
O O11 0.500000 0.500000 0.000000
O O12 0.370290 0.750000 0.986683
O O13 0.137384 0.963295 0.216642
O O14 0.033944 0.250000 0.146536
O O15 0.087301 0.983941 0.137668
O O16 0.051293 0.250000 0.629509
#
# Coordination Sequence:
#
# PCOD8075128 Si02
#       6
#     4   4   4   4   4   4
#     4  10  22  37  54  83 121 163 214 265 316 372
#     4  10  20  37  60  85 120 166 213 260 314 375
#     4  12  26  45  70  98 131 166 206 259 317 380
#     4  10  22  41  67  96 127 168 216 262 315 376
#     4  11  22  36  57  89 125 164 213 266 317 371
#     4  11  23  42  68  96 130 171 213 259 316 381
#
# _framework density 20.555513000000001
#
# number of rings (size 3 to 8) (size 9 to 14) (size 15 to 20)
#    0.000    1.333    1.667    4.000    0.000    5.333 
#    0.000    0.000    0.000    0.000    0.000    0.000 
#    0.000    0.000    0.000    0.000    0.000    0.000 
#
# Total GULP energy -297658.531343 kJ/mol
# GULP energy per Si atom -12402.438806 kJ/mol
# Density = 2.050873 g / cm^3
# Si number density = 20.555513 Si / 1000 Ang^3
#
#
#
# Elastic Constant Matrix: (Units=GPa)
#
#
# Indices 1 2 3 4 5 6 
#
# 1 128.9339 59.9172 63.6740 0.0000 -2.6124 0.0000
# 2 59.9172 108.5380 49.5446 0.0000 -2.0123 0.0000
# 3 63.6740 49.5446 83.3895 0.0000 1.1200 0.0000
# 4 0.0000 0.0000 0.0000 27.2950 0.0000 3.3066
# 5 -2.6124 -2.0123 1.1200 0.0000 40.6685 0.0000
# 6 0.0000 0.0000 0.0000 3.3066 0.0000 36.7306
#
#
#
# Elastic Compliance Matrix: (Units=1/GPa)
#
#
# Indices 1 2 3 4 5 6 
#
# 1 0.013520 -0.003744 -0.008111 0.000000 0.000907 0.000000
# 2 -0.003744 0.013707 -0.005293 0.000000 0.000583 0.000000
# 3 -0.008111 -0.005293 0.021348 0.000000 -0.001371 0.000000
# 4 0.000000 0.000000 0.000000 0.037041 0.000000 -0.003335
# 5 0.000907 0.000583 -0.001371 0.000000 0.024714 0.000000
# 6 0.000000 0.000000 0.000000 -0.003335 0.000000 0.027525
#
#
# Mechanical properties :
#
#
# Convention : Reuss Voigt Hill
#
# Bulk Modulus (GPa) = 70.03125 74.12589 72.07857
# Shear Modulus (GPa) = 28.26279 30.78719 29.52499
#
# Velocity S-wave (km/s) = 3.71205 3.87429 3.79404
# Velocity P-wave (km/s) = 7.24677 7.49354 7.37119
#
# Compressibility (1/GPa) = 0.01427934
#
# Stress axis : x y z
#
# Youngs Moduli (GPa) = 73.96504 72.95478 46.84225
#
# Poissons Ratio (x) = 0.27316 0.37994
# Poissons Ratio (y) = 0.27694 0.24792
# Poissons Ratio (z) = 0.59993 0.38613
#
# Static dielectric constant tensor:
#      x y z
#    x 3.951230 0.000000 0.207460 
#    y 0.000000 3.566380 0.000000 
#    z 0.207460 0.000000 3.831270 
# 
# 
# High freq. dielectric constant tensor:
#      x y z
#    x 1.811770 0.000000 0.000860 
#    y 0.000000 1.801050 0.000000 
#    z 0.000860 0.000000 1.809060 
# 
# From -- ./inp_files/61841.got.cif
#   From: 2010.06.25/outbox.cif.g09.slc.cpg/sg11_31_cif.got.tgz:61841.got - 2010.06.27 23:14:04.
