data_PCOD8075649
_publ_section_title
;
Structure prediction by ZEFSAII (Michael W. Deem and Ramdas Pophale) SiO2 
 PCOD8075649
Probable space group: P 21/M
;
_chemical_formula_sum "Si O2"
_cell_formula_units_Z 32
_cell_length_a 28.054272
_cell_length_b 9.564338
_cell_length_c 22.567792
_cell_angle_alpha 90.000000
_cell_angle_beta 18.076800
_cell_angle_gamma 90.000000
_cell_volume 1878.939960
_symmetry_space_group_name_H-M "P 21/M"
_symmetry_group_IT_number 11
_symmetry_cell_setting 'monoclinic'
loop_
_space_group_symop_operation_xyz
x,y,z
-x,1/2+y,-z
-x,-y,-z
x,1/2-y,z
loop_
_atom_site_type_symbol
_atom_site_label
_atom_site_fract_x
_atom_site_fract_y
_atom_site_fract_z
Si Si1 0.641500 0.586580 0.358547
Si Si2 0.133570 0.592265 0.366500
Si Si3 0.718550 0.087746 0.923001
Si Si4 0.972002 0.911613 0.921721
Si Si5 0.240761 0.088380 0.652817
Si Si6 0.876882 0.412222 0.379479
Si Si7 0.389164 0.087744 0.354346
Si Si8 0.002519 0.087766 0.355777
O O1 0.500000 0.500000 0.500000
O O2 0.603107 0.750000 0.396875
O O3 0.668189 0.545883 0.395595
O O4 0.795792 0.545736 0.140634
O O5 0.079176 0.750000 0.420824
O O6 0.281994 0.564361 0.148802
O O7 0.000000 0.500000 0.500000
O O8 0.143000 0.564427 0.426447
O O9 0.744385 0.250000 0.908167
O O10 0.851340 0.000071 0.797001
O O11 0.558957 0.034663 0.138365
O O12 0.998997 0.750000 0.906349
O O13 0.006507 0.942202 0.812153
O O14 0.084638 0.999999 0.830815
O O15 0.190549 0.250000 0.714597
O O16 0.356105 0.057663 0.462390
O O17 0.831437 0.250000 0.436716
O O18 0.723141 0.500085 0.554120
O O19 0.954804 0.465160 0.347590
O O20 0.367385 0.250000 0.364387
O O21 0.050497 0.250000 0.296884
#
# Coordination Sequence:
#
# PCOD8075649 Si02
#       8
#     4   4   4   4   4   4   4   4
#     4  10  21  34  48  70  98 122 147 184 226 266
#     4   8  14  26  43  62  86 116 148 182 221 264
#     4   9  17  29  46  67  90 117 150 187 225 266
#     4   9  18  33  51  69  90 119 154 187 220 264
#     4   9  18  33  51  69  90 119 154 187 220 264
#     4   9  18  32  48  67  92 120 150 185 224 266
#     4   9  18  32  48  67  92 120 150 185 224 266
#     4   9  17  29  46  67  90 117 150 187 225 266
#
# _framework density 17.03088
#
# number of rings (size 3 to 8) (size 9 to 14) (size 15 to 20)
#    0.000    3.000    0.000    0.375    0.000    3.000 
#    0.000    0.625    0.000    0.000    0.000    0.000 
#    0.000    0.000    0.000    0.000    0.000    0.000 
#
# Total GULP energy -396563.525351 kJ/mol
# GULP energy per Si atom -12392.610167 kJ/mol
# Density = 1.699212 g / cm^3
# Si number density = 17.030880 Si / 1000 Ang^3
#
#
#
# Elastic Constant Matrix: (Units=GPa)
#
#
# Indices 1 2 3 4 5 6 
#
# 1 128.7292 52.3353 87.6160 0.0000 0.6556 0.0000
# 2 52.3353 53.4362 52.1236 0.0000 -5.1566 0.0000
# 3 87.6160 52.1236 131.4115 0.0000 0.6132 0.0000
# 4 0.0000 0.0000 0.0000 31.1871 0.0000 -1.4083
# 5 0.6556 -5.1566 0.6132 0.0000 20.5346 0.0000
# 6 0.0000 0.0000 0.0000 -1.4083 0.0000 31.5134
#
#
#
# Elastic Compliance Matrix: (Units=1/GPa)
#
#
# Indices 1 2 3 4 5 6 
#
# 1 0.016564 -0.009327 -0.007332 0.000000 -0.002652 0.000000
# 2 -0.009327 0.037158 -0.008566 0.000000 0.009885 0.000000
# 3 -0.007332 -0.008566 0.015907 0.000000 -0.002392 0.000000
# 4 0.000000 0.000000 0.000000 0.032129 0.000000 0.001436
# 5 -0.002652 0.009885 -0.002392 0.000000 0.051337 0.000000
# 6 0.000000 0.000000 0.000000 0.001436 0.000000 0.031797
#
#
# Mechanical properties :
#
#
# Convention : Reuss Voigt Hill
#
# Bulk Modulus (GPa) = 52.13960 77.52520 64.83240
# Shear Modulus (GPa) = 20.68387 24.74717 22.71552
#
# Velocity S-wave (km/s) = 3.48874 3.81606 3.65606
# Velocity P-wave (km/s) = 6.84906 8.06447 7.48148
#
# Compressibility (1/GPa) = 0.01917928
#
# Stress axis : x y z
#
# Youngs Moduli (GPa) = 60.37289 26.91194 62.86567
#
# Poissons Ratio (x) = 0.25100 0.46092
# Poissons Ratio (y) = 0.56308 0.53853
# Poissons Ratio (z) = 0.44264 0.23054
#
# Static dielectric constant tensor:
#      x y z
#    x 3.469160 0.000000 0.256420 
#    y 0.000000 3.171790 0.000000 
#    z 0.256420 0.000000 3.508280 
# 
# 
# High freq. dielectric constant tensor:
#      x y z
#    x 1.650360 0.000000 0.027140 
#    y 0.000000 1.657370 0.000000 
#    z 0.027140 0.000000 1.654350 
# 
# From -- ./inp_files/67010.got.cif
#   From: 2010.06.25/outbox.cif.g09.slc.cpg/sg11_34_cif.got.tgz:67010.got - 2010.06.27 23:14:04.
