data_PCOD8075830
_publ_section_title
;
Structure prediction by ZEFSAII (Michael W. Deem and Ramdas Pophale) SiO2 
 PCOD8075830
Probable space group: P 21/M
;
_chemical_formula_sum "Si O2"
_cell_formula_units_Z 24
_cell_length_a 15.652278
_cell_length_b 8.745095
_cell_length_c 15.706881
_cell_angle_alpha 90.000000
_cell_angle_beta 36.659797
_cell_angle_gamma 90.000000
_cell_volume 1283.665208
_symmetry_space_group_name_H-M "P 21/M"
_symmetry_group_IT_number 11
_symmetry_cell_setting 'monoclinic'
loop_
_space_group_symop_operation_xyz
x,y,z
-x,1/2+y,-z
-x,-y,-z
x,1/2-y,z
loop_
_atom_site_type_symbol
_atom_site_label
_atom_site_fract_x
_atom_site_fract_y
_atom_site_fract_z
Si Si1 0.196307 0.073589 0.893633
Si Si2 0.576899 0.573012 0.858900
Si Si3 0.111717 0.926727 0.792036
Si Si4 0.457541 0.924302 0.771919
Si Si5 0.771699 0.571660 0.468902
Si Si6 0.862728 0.430205 0.566028
O O1 0.198131 0.250000 0.864480
O O2 0.198677 0.970801 0.807238
O O3 0.333910 0.036777 0.839998
O O4 0.055798 0.037386 0.061604
O O5 0.609697 0.750000 0.849685
O O6 0.475418 0.552043 0.858355
O O7 0.725533 0.487886 0.726730
O O8 0.500000 0.500000 0.000000
O O9 0.140278 0.750000 0.748227
O O10 0.167572 0.030470 0.671254
O O11 0.414658 0.750000 0.785375
O O12 0.603765 0.969904 0.606868
O O13 0.792835 0.750000 0.471364
O O14 0.858415 0.479556 0.470928
O O15 0.870491 0.250000 0.565467
O O16 0.000000 0.500000 0.500000
#
# Coordination Sequence:
#
# PCOD8075830 Si02
#       6
#     4   4   4   4   4   4
#     4  10  21  36  56  81 108 141 182 226 271 322
#     4  10  21  38  58  83 114 148 187 229 276 331
#     4  10  21  37  56  80 110 144 182 224 272 325
#     4   9  20  37  56  79 109 143 179 222 271 324
#     4  10  21  38  58  82 111 143 182 226 273 327
#     4  11  22  38  59  83 112 147 186 230 279 329
#
# _framework density 18.696463999999999
#
# number of rings (size 3 to 8) (size 9 to 14) (size 15 to 20)
#    0.000    2.000    0.000    4.500    0.000    8.000 
#    0.000    3.333    0.000    0.000    0.000    0.000 
#    0.000    0.000    0.000    0.000    0.000    0.000 
#
# Total GULP energy -297718.977828 kJ/mol
# GULP energy per Si atom -12404.957409 kJ/mol
# Density = 1.865391 g / cm^3
# Si number density = 18.696464 Si / 1000 Ang^3
#
#
#
# Elastic Constant Matrix: (Units=GPa)
#
#
# Indices 1 2 3 4 5 6 
#
# 1 108.6872 50.1927 60.2345 0.0000 -12.6348 0.0000
# 2 50.1927 109.2348 44.6185 0.0000 -3.8269 0.0000
# 3 60.2345 44.6185 104.3725 0.0000 14.5708 0.0000
# 4 0.0000 0.0000 0.0000 34.5857 0.0000 1.8859
# 5 -12.6348 -3.8269 14.5708 0.0000 27.0055 0.0000
# 6 0.0000 0.0000 0.0000 1.8859 0.0000 37.1134
#
#
#
# Elastic Compliance Matrix: (Units=1/GPa)
#
#
# Indices 1 2 3 4 5 6 
#
# 1 0.018786 -0.003484 -0.011367 0.000000 0.014429 0.000000
# 2 -0.003484 0.012259 -0.003509 0.000000 0.002001 0.000000
# 3 -0.011367 -0.003509 0.019956 0.000000 -0.016583 0.000000
# 4 0.000000 0.000000 0.000000 0.028994 0.000000 -0.001473
# 5 0.014429 0.002001 -0.016583 0.000000 0.053011 0.000000
# 6 0.000000 0.000000 0.000000 -0.001473 0.000000 0.027019
#
#
# Mechanical properties :
#
#
# Convention : Reuss Voigt Hill
#
# Bulk Modulus (GPa) = 70.02043 70.26510 70.14277
# Shear Modulus (GPa) = 24.81312 30.89084 27.85198
#
# Velocity S-wave (km/s) = 3.64697 4.06917 3.86384
# Velocity P-wave (km/s) = 7.43413 7.72924 7.58312
#
# Compressibility (1/GPa) = 0.01428155
#
# Stress axis : x y z
#
# Youngs Moduli (GPa) = 53.23000 81.57323 50.10958
#
# Poissons Ratio (x) = 0.28418 0.56959
# Poissons Ratio (y) = 0.18544 0.17585
# Poissons Ratio (z) = 0.60506 0.28627
#
# Static dielectric constant tensor:
#      x y z
#    x 3.380800 0.000000 0.020440 
#    y 0.000000 3.537440 0.000000 
#    z 0.020440 0.000000 3.483260 
# 
# 
# High freq. dielectric constant tensor:
#      x y z
#    x 1.726920 0.000000 0.001240 
#    y 0.000000 1.740670 0.000000 
#    z 0.001240 0.000000 1.727830 
# 
# From -- ./inp_files/20364.got.cif
#   From: 2010.06.25/outbox.cif.g09.slc.cpg/sg11_11_cif.got.tgz:20364.got - 2010.06.27 23:14:04.
