data_PCOD8075133
_publ_section_title
;
Structure prediction by ZEFSAII (Michael W. Deem and Ramdas Pophale) SiO2 
 PCOD8075133
Probable space group: P 21/M
;
_chemical_formula_sum "Si O2"
_cell_formula_units_Z 28
_cell_length_a 20.390014
_cell_length_b 8.795644
_cell_length_c 16.104606
_cell_angle_alpha 90.000000
_cell_angle_beta 29.824020
_cell_angle_gamma 90.000000
_cell_volume 1436.437257
_symmetry_space_group_name_H-M "P 21/M"
_symmetry_group_IT_number 11
_symmetry_cell_setting 'monoclinic'
loop_
_space_group_symop_operation_xyz
x,y,z
-x,1/2+y,-z
-x,-y,-z
x,1/2-y,z
loop_
_atom_site_type_symbol
_atom_site_label
_atom_site_fract_x
_atom_site_fract_y
_atom_site_fract_z
Si Si1 0.447502 0.930605 0.304419
Si Si2 0.121016 0.929548 0.915547
Si Si3 0.088922 0.430016 0.128002
Si Si4 0.714703 0.427794 0.958266
Si Si5 0.402112 0.928400 0.542152
Si Si6 0.861662 0.072957 0.631422
Si Si7 0.812093 0.069778 0.503643
O O1 0.465411 0.750000 0.274664
O O2 0.442865 0.979958 0.405442
O O3 0.314354 0.990767 0.407084
O O4 0.565327 0.018630 0.130897
O O5 0.104977 0.750000 0.933527
O O6 0.253153 0.981622 0.723104
O O7 0.129975 0.989174 0.998721
O O8 0.000000 0.000000 0.000000
O O9 0.091515 0.250000 0.111930
O O10 0.193821 0.474136 0.082288
O O11 0.944806 0.489388 0.313390
O O12 0.729140 0.250000 0.963889
O O13 0.755299 0.463159 0.819077
O O14 0.413375 0.750000 0.539730
O O15 0.500000 0.000000 0.500000
O O16 0.889085 0.250000 0.592573
O O17 0.807165 0.008490 0.603708
O O18 0.000000 0.000000 0.500000
O O19 0.812101 0.250000 0.501870
#
# Coordination Sequence:
#
# PCOD8075133 Si02
#       7
#     4   4   4   4   4   4   4
#     4  10  21  39  60  82 111 152 198 236 284 350
#     4  11  23  39  59  87 120 151 192 244 296 347
#     4  11  21  37  62  87 113 152 199 240 289 348
#     4  11  23  37  56  87 122 150 187 241 292 343
#     4  10  22  39  59  82 112 152 196 241 286 343
#     4  10  20  37  60  86 117 151 191 238 289 345
#     4   9  19  37  61  85 113 152 196 241 287 344
#
# _framework density 19.492671000000001
#
# number of rings (size 3 to 8) (size 9 to 14) (size 15 to 20)
#    0.000    1.714    1.429    3.000    0.000    7.429 
#    0.000    3.571    0.000    0.000    0.000    0.000 
#    0.000    0.000    0.000    0.000    0.000    0.000 
#
# Total GULP energy -347292.535786 kJ/mol
# GULP energy per Si atom -12403.304849 kJ/mol
# Density = 1.944830 g / cm^3
# Si number density = 19.492671 Si / 1000 Ang^3
#
#
#
# Elastic Constant Matrix: (Units=GPa)
#
#
# Indices 1 2 3 4 5 6 
#
# 1 123.2973 24.4539 51.2791 0.0000 -1.8193 0.0000
# 2 24.4539 39.3423 40.5241 0.0000 1.2006 0.0000
# 3 51.2791 40.5241 149.1567 0.0000 -0.4071 0.0000
# 4 0.0000 0.0000 0.0000 30.6583 0.0000 -3.5482
# 5 -1.8193 1.2006 -0.4071 0.0000 40.6851 0.0000
# 6 0.0000 0.0000 0.0000 -3.5482 0.0000 25.7092
#
#
#
# Elastic Compliance Matrix: (Units=1/GPa)
#
#
# Indices 1 2 3 4 5 6 
#
# 1 0.009838 -0.003678 -0.002382 0.000000 0.000525 0.000000
# 2 -0.003678 0.036723 -0.008716 0.000000 -0.001335 0.000000
# 3 -0.002382 -0.008716 0.009892 0.000000 0.000250 0.000000
# 4 0.000000 0.000000 0.000000 0.033147 0.000000 0.004575
# 5 0.000525 -0.001335 0.000250 0.000000 0.024644 0.000000
# 6 0.000000 0.000000 0.000000 0.004575 0.000000 0.039528
#
#
# Mechanical properties :
#
#
# Convention : Reuss Voigt Hill
#
# Bulk Modulus (GPa) = 37.17303 60.47893 48.82598
# Shear Modulus (GPa) = 26.00221 32.44648 29.22434
#
# Velocity S-wave (km/s) = 3.65629 4.08431 3.87621
# Velocity P-wave (km/s) = 6.07752 7.30315 6.71834
#
# Compressibility (1/GPa) = 0.02690123
#
# Stress axis : x y z
#
# Youngs Moduli (GPa) = 101.64474 27.23094 101.09219
#
# Poissons Ratio (x) = 0.10015 0.24076
# Poissons Ratio (y) = 0.37384 0.88116
# Poissons Ratio (z) = 0.24208 0.23736
#
# Static dielectric constant tensor:
#      x y z
#    x 3.754380 0.000000 0.180060 
#    y 0.000000 3.427680 0.000000 
#    z 0.180060 0.000000 4.262000 
# 
# 
# High freq. dielectric constant tensor:
#      x y z
#    x 1.772330 0.000000 0.003740 
#    y 0.000000 1.744320 0.000000 
#    z 0.003740 0.000000 1.775850 
# 
# From -- ./inp_files/28441.got.cif
#   From: 2010.06.25/outbox.cif.g09.slc.cpg/sg11_15_cif.got.tgz:28441.got - 2010.06.27 23:14:04.
