data_PCOD8075617
_publ_section_title
;
Structure prediction by ZEFSAII (Michael W. Deem and Ramdas Pophale) SiO2 
 PCOD8075617
Probable space group: P 21/M
;
_chemical_formula_sum "Si O2"
_cell_formula_units_Z 20
_cell_length_a 9.151531
_cell_length_b 16.283957
_cell_length_c 7.925685
_cell_angle_alpha 90.000000
_cell_angle_beta 129.490075
_cell_angle_gamma 90.000000
_cell_volume 911.503980
_symmetry_space_group_name_H-M "P 21/M"
_symmetry_group_IT_number 11
_symmetry_cell_setting 'monoclinic'
loop_
_space_group_symop_operation_xyz
x,y,z
-x,1/2+y,-z
-x,-y,-z
x,1/2-y,z
loop_
_atom_site_type_symbol
_atom_site_label
_atom_site_fract_x
_atom_site_fract_y
_atom_site_fract_z
Si Si1 0.095592 0.250000 0.294756
Si Si2 0.712993 0.750000 0.895229
Si Si3 0.331641 0.750000 0.044517
Si Si4 0.145606 0.414938 0.503849
Si Si5 0.688344 0.250000 0.571056
Si Si6 0.779503 0.412796 0.447342
Si Si7 0.431617 0.379369 0.979354
O O1 0.108955 0.250000 0.100508
O O2 0.200489 0.332472 0.440885
O O3 0.877961 0.250000 0.188750
O O4 0.524847 0.750000 0.646351
O O5 0.718277 0.827728 0.021004
O O6 0.314610 0.750000 0.231649
O O7 0.438886 0.828703 0.054454
O O8 0.168740 0.501124 0.415697
O O9 0.933193 0.402167 0.412354
O O10 0.292187 0.434079 0.764774
O O11 0.789867 0.332918 0.576181
O O12 0.571462 0.425091 0.210934
#
# Coordination Sequence:
#
# PCOD8075617 Si02
#       7
#     2   2   2   4   2   4   4
#     4  12  22  39  60  93 124 157 201 260 286 364
#     4   9  21  36  61  90 117 156 208 236 306 355
#     4  11  22  37  64  89 121 162 207 241 309 347
#     4  11  22  38  65  88 126 159 200 245 308 355
#     4  10  21  40  61  84 126 155 198 257 293 356
#     4  10  22  40  61  96 118 160 201 249 299 365
#     4  10  20  41  62  89 119 163 198 249 297 371
#
# _framework density 21.941758
#
# number of rings (size 3 to 8) (size 9 to 14) (size 15 to 20)
#    0.000    1.600    2.000    4.200    2.800    0.000 
#    0.000   12.000    0.000    0.000    0.000    0.000 
#    0.000    0.000    0.000    0.000    0.000    0.000 
#
# Total GULP energy -247770.582487 kJ/mol
# GULP energy per Si atom -12388.529124 kJ/mol
# Density = 2.189182 g / cm^3
# Si number density = 21.941758 Si / 1000 Ang^3
#
#
#
# Elastic Constant Matrix: (Units=GPa)
#
#
# Indices 1 2 3 4 5 6 
#
# 1 72.6242 25.6024 10.9535 0.0000 -0.1690 0.0000
# 2 25.6024 152.6923 14.5071 0.0000 -13.7313 0.0000
# 3 10.9535 14.5071 38.5567 0.0000 -7.7843 0.0000
# 4 0.0000 0.0000 0.0000 24.4230 0.0000 39.7169
# 5 -0.1690 -13.7313 -7.7843 0.0000 30.9616 0.0000
# 6 0.0000 0.0000 0.0000 39.7169 0.0000 168.9444
#
#
#
# Elastic Compliance Matrix: (Units=1/GPa)
#
#
# Indices 1 2 3 4 5 6 
#
# 1 0.015170 -0.002354 -0.003811 0.000000 -0.001919 0.000000
# 2 -0.002354 0.007345 -0.001517 0.000000 0.002863 0.000000
# 3 -0.003811 -0.001517 0.028917 0.000000 0.006577 0.000000
# 4 0.000000 0.000000 0.000000 0.066287 0.000000 -0.015583
# 5 -0.001919 0.002863 0.006577 0.000000 0.035211 0.000000
# 6 0.000000 0.000000 0.000000 -0.015583 0.000000 0.009583
#
#
# Mechanical properties :
#
#
# Convention : Reuss Voigt Hill
#
# Bulk Modulus (GPa) = 27.72564 40.66660 34.19612
# Shear Modulus (GPa) = 26.32967 59.05314 42.69140
#
# Velocity S-wave (km/s) = 3.46783 5.19346 4.41576
# Velocity P-wave (km/s) = 5.35704 7.38490 6.45115
#
# Compressibility (1/GPa) = 0.03606770
#
# Stress axis : x y z
#
# Youngs Moduli (GPa) = 65.92050 136.13868 34.58163
#
# Poissons Ratio (x) = 0.32048 0.13180
# Poissons Ratio (y) = 0.15518 0.05246
# Poissons Ratio (z) = 0.25125 0.20651
#
# Static dielectric constant tensor:
#      x y z
#    x 3.801250 0.000000 0.089340 
#    y 0.000000 4.092580 0.000000 
#    z 0.089340 0.000000 3.857760 
# 
# 
# High freq. dielectric constant tensor:
#      x y z
#    x 1.849050 0.000000 0.021510 
#    y 0.000000 1.871720 0.000000 
#    z 0.021510 0.000000 1.855310 
# 
# From -- ./inp_files/13080.got.cif
#   From: 2010.06.25/outbox.cif.g09.slc.cpg/sg11_7_cif.got.tgz:13080.got - 2010.06.27 23:14:04.
