data_PCOD8075435
_publ_section_title
;
Structure prediction by ZEFSAII (Michael W. Deem and Ramdas Pophale) SiO2 
 PCOD8075435
Probable space group: P 21/M
;
_chemical_formula_sum "Si O2"
_cell_formula_units_Z 28
_cell_length_a 9.593483
_cell_length_b 8.653840
_cell_length_c 25.311580
_cell_angle_alpha 90.000000
_cell_angle_beta 135.395982
_cell_angle_gamma 90.000000
_cell_volume 1475.594737
_symmetry_space_group_name_H-M "P 21/M"
_symmetry_group_IT_number 11
_symmetry_cell_setting 'monoclinic'
loop_
_space_group_symop_operation_xyz
x,y,z
-x,1/2+y,-z
-x,-y,-z
x,1/2-y,z
loop_
_atom_site_type_symbol
_atom_site_label
_atom_site_fract_x
_atom_site_fract_y
_atom_site_fract_z
Si Si1 0.878586 0.426136 0.692215
Si Si2 0.100827 0.073081 0.195487
Si Si3 0.217488 0.068205 0.567871
Si Si4 0.274538 0.568047 0.784506
Si Si5 0.476341 0.929134 0.732229
Si Si6 0.508191 0.428557 0.445184
Si Si7 0.663358 0.425185 0.080262
O O1 0.820179 0.250000 0.661681
O O2 0.911111 0.443190 0.763071
O O3 0.710631 0.551375 0.635866
O O4 0.075161 0.476968 0.713904
O O5 0.124268 0.250000 0.223096
O O6 0.289180 0.030490 0.209826
O O7 0.880572 0.057923 0.110307
O O8 0.197235 0.250000 0.566389
O O9 0.332494 0.013515 0.651735
O O10 0.339929 0.023191 0.549353
O O11 0.000000 0.000000 0.500000
O O12 0.228024 0.750000 0.774178
O O13 0.430126 0.525985 0.780429
O O14 0.343394 0.508518 0.861105
O O15 0.436997 0.750000 0.711039
O O16 0.500000 0.500000 0.500000
O O17 0.571390 0.250000 0.463036
O O18 0.599253 0.250000 0.067627
O O19 0.500000 0.500000 0.000000
#
# Coordination Sequence:
#
# PCOD8075435 Si02
#       7
#     4   4   4   4   4   4   4
#     4  11  21  35  56  83 112 147 190 237 290 344
#     4   9  18  35  59  83 110 148 192 235 286 346
#     4  12  26  43  61  86 120 158 199 246 302 355
#     4   9  20  37  58  84 114 151 196 238 288 348
#     4  10  20  38  63  85 112 152 198 246 295 350
#     4  12  25  42  61  83 113 150 197 247 297 351
#     4   9  18  34  56  84 117 153 192 239 289 346
#
# _framework density 18.975397999999998
#
# number of rings (size 3 to 8) (size 9 to 14) (size 15 to 20)
#    0.000    1.714    1.429    4.714    2.000    2.857 
#    0.000    0.714    0.000    0.000    0.000    0.000 
#    0.000    0.000    0.000    0.000    0.000    0.000 
#
# Total GULP energy -346936.654693 kJ/mol
# GULP energy per Si atom -12390.594810 kJ/mol
# Density = 1.893221 g / cm^3
# Si number density = 18.975398 Si / 1000 Ang^3
#
#
#
# Elastic Constant Matrix: (Units=GPa)
#
#
# Indices 1 2 3 4 5 6 
#
# 1 158.9496 37.8413 73.1608 0.0000 12.5060 0.0000
# 2 37.8413 79.7226 38.5403 0.0000 4.4371 0.0000
# 3 73.1608 38.5403 126.3449 0.0000 16.9864 0.0000
# 4 0.0000 0.0000 0.0000 33.6347 0.0000 0.8583
# 5 12.5060 4.4371 16.9864 0.0000 24.8216 0.0000
# 6 0.0000 0.0000 0.0000 0.8583 0.0000 25.8448
#
#
#
# Elastic Compliance Matrix: (Units=1/GPa)
#
#
# Indices 1 2 3 4 5 6 
#
# 1 0.008875 -0.002039 -0.004366 0.000000 -0.001119 0.000000
# 2 -0.002039 0.015187 -0.003552 0.000000 0.000743 0.000000
# 3 -0.004366 -0.003552 0.012275 0.000000 -0.005565 0.000000
# 4 0.000000 0.000000 0.000000 0.029756 0.000000 -0.000988
# 5 -0.001119 0.000743 -0.005565 0.000000 0.044527 0.000000
# 6 0.000000 0.000000 0.000000 -0.000988 0.000000 0.038725
#
#
# Mechanical properties :
#
#
# Convention : Reuss Voigt Hill
#
# Bulk Modulus (GPa) = 60.89507 73.78910 67.34209
# Shear Modulus (GPa) = 28.61493 31.22520 29.92007
#
# Velocity S-wave (km/s) = 3.88751 4.06095 3.97518
# Velocity P-wave (km/s) = 7.23268 7.80766 7.52566
#
# Compressibility (1/GPa) = 0.01642169
#
# Stress axis : x y z
#
# Youngs Moduli (GPa) = 112.68152 65.84530 81.46724
#
# Poissons Ratio (x) = 0.13428 0.35572
# Poissons Ratio (y) = 0.22979 0.28935
# Poissons Ratio (z) = 0.49201 0.23386
#
# Static dielectric constant tensor:
#      x y z
#    x 3.740380 0.000000 0.119220 
#    y 0.000000 3.432380 0.000000 
#    z 0.119220 0.000000 3.560400 
# 
# 
# High freq. dielectric constant tensor:
#      x y z
#    x 1.742080 0.000000 0.015210 
#    y 0.000000 1.735610 0.000000 
#    z 0.015210 0.000000 1.726790 
# 
# From -- ./inp_files/70755.got.cif
#   From: 2010.06.25/outbox.cif.g09.slc.cpg/sg11_36_cif.got.tgz:70755.got - 2010.06.27 23:14:04.
