data_PCOD8075033
_publ_section_title
;
Structure prediction by ZEFSAII (Michael W. Deem and Ramdas Pophale) SiO2 
 PCOD8075033
Probable space group: P 21/M
;
_chemical_formula_sum "Si O2"
_cell_formula_units_Z 24
_cell_length_a 9.407743
_cell_length_b 8.468307
_cell_length_c 32.167889
_cell_angle_alpha 90.000000
_cell_angle_beta 28.502255
_cell_angle_gamma 90.000000
_cell_volume 1222.922629
_symmetry_space_group_name_H-M "P 21/M"
_symmetry_group_IT_number 11
_symmetry_cell_setting 'monoclinic'
loop_
_space_group_symop_operation_xyz
x,y,z
-x,1/2+y,-z
-x,-y,-z
x,1/2-y,z
loop_
_atom_site_type_symbol
_atom_site_label
_atom_site_fract_x
_atom_site_fract_y
_atom_site_fract_z
Si Si1 0.170573 0.562963 0.579602
Si Si2 0.786474 0.436168 0.265587
Si Si3 0.652657 0.434529 0.920100
Si Si4 0.140849 0.934642 0.421931
Si Si5 0.681230 0.064389 0.070585
Si Si6 0.108316 0.434534 0.264979
O O1 0.500000 0.500000 0.500000
O O2 0.173080 0.750000 0.579344
O O3 0.028235 0.507124 0.573597
O O4 0.981216 0.493557 0.667378
O O5 0.725627 0.250000 0.281785
O O6 0.487765 0.525584 0.330018
O O7 0.035976 0.474861 0.167078
O O8 0.900805 0.501269 0.280975
O O9 0.717784 0.250000 0.907502
O O10 0.424175 0.467135 0.941874
O O11 0.500000 0.500000 0.000000
O O12 0.090308 0.750000 0.433904
O O13 0.000000 0.000000 0.500000
O O14 0.687166 0.250000 0.058530
O O15 0.455083 0.028883 0.166801
O O16 0.000000 0.000000 0.000000
O O17 0.049735 0.250000 0.280800
#
# Coordination Sequence:
#
# PCOD8075033 Si02
#       6
#     4   4   4   4   4   4
#     4  11  22  39  61  87 117 153 193 239 290 347
#     4  10  20  39  63  88 117 152 193 244 297 351
#     4  11  22  38  59  86 118 157 200 246 295 349
#     4  12  25  41  60  87 119 156 199 245 293 348
#     4  10  20  37  58  84 116 154 196 242 291 346
#     4   8  18  36  59  82 111 148 187 230 287 347
#
# _framework density 19.625115999999998
#
# number of rings (size 3 to 8) (size 9 to 14) (size 15 to 20)
#    0.000    1.667    0.000    6.500    0.000    2.667 
#    0.000   14.167    0.000    0.000    0.000    0.000 
#    0.000    0.000    0.000    0.000    0.000    0.000 
#
# Total GULP energy -297626.583892 kJ/mol
# GULP energy per Si atom -12401.107662 kJ/mol
# Density = 1.958045 g / cm^3
# Si number density = 19.625116 Si / 1000 Ang^3
#
#
#
# Elastic Constant Matrix: (Units=GPa)
#
#
# Indices 1 2 3 4 5 6 
#
# 1 128.3516 25.5769 91.3200 0.0000 1.7858 0.0000
# 2 25.5769 73.4512 26.8602 0.0000 6.9387 0.0000
# 3 91.3200 26.8602 157.5114 -0.0001 6.9417 0.0000
# 4 0.0000 0.0000 -0.0001 34.2226 0.0000 -4.5100
# 5 1.7858 6.9387 6.9417 0.0000 46.0985 0.0000
# 6 0.0000 0.0000 0.0000 -4.5100 0.0000 34.0580
#
#
#
# Elastic Compliance Matrix: (Units=1/GPa)
#
#
# Indices 1 2 3 4 5 6 
#
# 1 0.013560 -0.002047 -0.007553 0.000000 0.000920 0.000000
# 2 -0.002047 0.014983 -0.001281 0.000000 -0.001983 0.000000
# 3 -0.007553 -0.001281 0.010998 0.000000 -0.001171 0.000000
# 4 0.000000 0.000000 0.000000 0.029739 0.000000 0.003938
# 5 0.000920 -0.001983 -0.001171 0.000000 0.022132 0.000000
# 6 0.000000 0.000000 0.000000 0.003938 0.000000 0.029883
#
#
# Mechanical properties :
#
#
# Convention : Reuss Voigt Hill
#
# Bulk Modulus (GPa) = 56.24579 71.86981 64.05780
# Shear Modulus (GPa) = 33.56069 37.24629 35.40349
#
# Velocity S-wave (km/s) = 4.13981 4.36120 4.25195
# Velocity P-wave (km/s) = 7.18144 7.87788 7.53770
#
# Compressibility (1/GPa) = 0.01777911
#
# Stress axis : x y z
#
# Youngs Moduli (GPa) = 73.74532 66.74249 90.92599
#
# Poissons Ratio (x) = 0.13660 0.68679
# Poissons Ratio (y) = 0.15093 0.11648
# Poissons Ratio (z) = 0.55702 0.08550
#
# Static dielectric constant tensor:
#      x y z
#    x 3.555610 0.000000 0.223540 
#    y 0.000000 3.636860 0.000000 
#    z 0.223540 0.000000 3.854880 
# 
# 
# High freq. dielectric constant tensor:
#      x y z
#    x 1.765690 0.000000 0.000860 
#    y 0.000000 1.765010 0.000000 
#    z 0.000860 0.000000 1.782510 
# 
# From -- ./inp_files/60199.got.cif
#   From: 2010.06.25/outbox.cif.g09.slc.cpg/sg11_31_cif.got.tgz:60199.got - 2010.06.27 23:14:04.
