data_PCOD8075162
_publ_section_title
;
Structure prediction by ZEFSAII (Michael W. Deem and Ramdas Pophale) SiO2 
 PCOD8075162
Probable space group: P 21/M
;
_chemical_formula_sum "Si O2"
_cell_formula_units_Z 32
_cell_length_a 7.662127
_cell_length_b 22.018653
_cell_length_c 12.948088
_cell_angle_alpha 90.000000
_cell_angle_beta 45.223803
_cell_angle_gamma 90.000000
_cell_volume 1550.674075
_symmetry_space_group_name_H-M "P 21/M"
_symmetry_group_IT_number 11
_symmetry_cell_setting 'monoclinic'
loop_
_space_group_symop_operation_xyz
x,y,z
-x,1/2+y,-z
-x,-y,-z
x,1/2-y,z
loop_
_atom_site_type_symbol
_atom_site_label
_atom_site_fract_x
_atom_site_fract_y
_atom_site_fract_z
Si Si1 0.797795 0.969873 0.658364
Si Si2 0.014280 0.530668 0.795179
Si Si3 0.455441 0.434018 0.889771
Si Si4 0.529442 0.111016 0.341672
Si Si5 0.144913 0.901478 0.128602
Si Si6 0.752379 0.680334 0.368117
Si Si7 0.823442 0.183249 0.068643
Si Si8 0.378957 0.184793 0.812739
O O1 0.923892 0.953760 0.716058
O O2 0.686084 0.911646 0.645708
O O3 0.561313 0.013092 0.773481
O O4 0.000000 0.000000 0.500000
O O5 0.043941 0.458193 0.803821
O O6 0.282653 0.558242 0.702640
O O7 0.827645 0.556656 0.960506
O O8 0.609908 0.432167 0.930447
O O9 0.518309 0.371228 0.805067
O O10 0.411994 0.138803 0.492052
O O11 0.673603 0.167735 0.233245
O O12 0.024239 0.849438 0.250528
O O13 0.230845 0.871550 0.986778
O O14 0.773872 0.750000 0.397355
O O15 0.635874 0.676317 0.303450
O O16 0.740593 0.250000 0.061269
O O17 0.109736 0.185583 0.975454
O O18 0.507960 0.250000 0.783634
#
# Coordination Sequence:
#
# PCOD8075162 Si02
#       8
#     4   4   4   4   4   4   4   4
#     4  11  26  41  60  94 129 160 207 261 303 374
#     4  11  24  40  62  99 127 157 208 252 313 382
#     4  11  21  40  60  90 131 156 199 263 308 366
#     4  12  23  39  68  88 123 169 198 251 332 357
#     4  10  21  38  63  87 121 165 199 250 306 364
#     4  10  23  42  60  86 120 160 212 253 298 371
#     4  10  20  37  60  90 119 154 209 253 296 366
#     4   9  20  37  59  86 116 159 206 249 296 362
#
# _framework density 20.636187
#
# number of rings (size 3 to 8) (size 9 to 14) (size 15 to 20)
#    0.000    1.500    1.250    6.000    5.250    3.000 
#    0.000    0.000    0.000    1.500    0.000    0.000 
#    0.000    0.000    0.000    0.000    0.000    0.000 
#
# Total GULP energy -396656.487333 kJ/mol
# GULP energy per Si atom -12395.515229 kJ/mol
# Density = 2.058922 g / cm^3
# Si number density = 20.636187 Si / 1000 Ang^3
#
#
#
# Elastic Constant Matrix: (Units=GPa)
#
#
# Indices 1 2 3 4 5 6 
#
# 1 47.2478 24.5084 15.6662 0.0000 2.7911 0.0000
# 2 24.5084 115.7660 12.5074 0.0000 7.2020 0.0000
# 3 15.6662 12.5074 89.8184 0.0000 11.4916 0.0000
# 4 0.0000 0.0000 0.0000 20.3201 0.0000 3.0824
# 5 2.7911 7.2020 11.4916 0.0000 16.5651 0.0000
# 6 0.0000 0.0000 0.0000 3.0824 0.0000 29.6398
#
#
#
# Elastic Compliance Matrix: (Units=1/GPa)
#
#
# Indices 1 2 3 4 5 6 
#
# 1 0.024915 -0.004904 -0.003729 0.000000 0.000521 0.000000
# 2 -0.004904 0.009898 -0.000086 0.000000 -0.003418 0.000000
# 3 -0.003729 -0.000086 0.012851 0.000000 -0.008250 0.000000
# 4 0.000000 0.000000 0.000000 0.050001 0.000000 -0.005200
# 5 0.000521 -0.003418 -0.008250 0.000000 0.067489 0.000000
# 6 0.000000 0.000000 0.000000 -0.005200 0.000000 0.034279
#
#
# Mechanical properties :
#
#
# Convention : Reuss Voigt Hill
#
# Bulk Modulus (GPa) = 33.08421 39.79958 36.44190
# Shear Modulus (GPa) = 22.03153 26.64835 24.33994
#
# Velocity S-wave (km/s) = 3.27098 3.59742 3.43808
# Velocity P-wave (km/s) = 5.50752 6.04842 5.78430
#
# Compressibility (1/GPa) = 0.03022590
#
# Stress axis : x y z
#
# Youngs Moduli (GPa) = 40.13707 101.02827 77.81197
#
# Poissons Ratio (x) = 0.49545 0.29019
# Poissons Ratio (y) = 0.19684 0.00667
# Poissons Ratio (z) = 0.14969 0.00866
#
# Static dielectric constant tensor:
#      x y z
#    x 3.469530 0.000000 0.081420 
#    y 0.000000 4.029810 0.000000 
#    z 0.081420 0.000000 3.743670 
# 
# 
# High freq. dielectric constant tensor:
#      x y z
#    x 1.783740 0.000000 0.007920 
#    y 0.000000 1.822130 0.000000 
#    z 0.007920 0.000000 1.812710 
# 
# From -- ./inp_files/32849.got.cif
#   From: 2010.06.25/outbox.cif.g09.slc.cpg/sg11_17_cif.got.tgz:32849.got - 2010.06.27 23:14:04.
