data_PCOD8075873
_publ_section_title
;
Structure prediction by ZEFSAII (Michael W. Deem and Ramdas Pophale) SiO2 
 PCOD8075873
Probable space group: P 21/M
;
_chemical_formula_sum "Si O2"
_cell_formula_units_Z 28
_cell_length_a 13.416099
_cell_length_b 17.354795
_cell_length_c 6.600571
_cell_angle_alpha 90.000000
_cell_angle_beta 64.126207
_cell_angle_gamma 90.000000
_cell_volume 1382.778804
_symmetry_space_group_name_H-M "P 21/M"
_symmetry_group_IT_number 11
_symmetry_cell_setting 'monoclinic'
loop_
_space_group_symop_operation_xyz
x,y,z
-x,1/2+y,-z
-x,-y,-z
x,1/2-y,z
loop_
_atom_site_type_symbol
_atom_site_label
_atom_site_fract_x
_atom_site_fract_y
_atom_site_fract_z
Si Si1 0.115181 0.571358 0.974117
Si Si2 0.937080 0.659564 0.403430
Si Si3 0.691525 0.661195 0.515094
Si Si4 0.982181 0.555615 0.706307
Si Si5 0.511693 0.837068 0.012148
Si Si6 0.480223 0.086495 0.587006
Si Si7 0.662567 0.162589 0.168405
O O1 0.111088 0.483875 0.066901
O O2 0.024404 0.621580 0.174076
O O3 0.235774 0.604625 0.905610
O O4 0.089452 0.569865 0.755387
O O5 0.953411 0.750000 0.376382
O O6 0.815600 0.632417 0.442814
O O7 0.949569 0.636321 0.630482
O O8 0.689672 0.750000 0.452072
O O9 0.641986 0.611535 0.375559
O O10 0.617125 0.646995 0.778255
O O11 0.000000 0.500000 0.500000
O O12 0.519128 0.750000 0.094790
O O13 0.514408 0.903728 0.177218
O O14 0.395832 0.846882 0.996888
O O15 0.572845 0.143610 0.418132
O O16 0.500000 0.000000 0.500000
O O17 0.704274 0.250000 0.163876
#
# Coordination Sequence:
#
# PCOD8075873 Si02
#       7
#     4   4   4   4   4   4   4
#     4  10  21  38  60  85 117 156 192 241 300 349
#     4  10  21  36  57  86 116 151 195 240 291 353
#     4   9  20  38  57  79 109 144 189 238 280 336
#     4   9  21  39  57  81 116 154 194 238 287 345
#     4   9  19  38  59  78 108 150 190 235 289 338
#     4  11  23  35  56  86 114 149 190 236 291 347
#     4  10  22  39  59  86 117 150 194 241 287 350
#
# _framework density 20.249082000000001
#
# number of rings (size 3 to 8) (size 9 to 14) (size 15 to 20)
#    0.000    2.286    0.000    2.571    0.000   12.571 
#    0.000    2.857    0.000    0.000    0.000    0.000 
#    0.000    0.000    0.000    0.000    0.000    0.000 
#
# Total GULP energy -347099.713636 kJ/mol
# GULP energy per Si atom -12396.418344 kJ/mol
# Density = 2.020299 g / cm^3
# Si number density = 20.249082 Si / 1000 Ang^3
#
#
#
# Elastic Constant Matrix: (Units=GPa)
#
#
# Indices 1 2 3 4 5 6 
#
# 1 96.0381 13.9411 41.7060 0.0000 6.0865 0.0000
# 2 13.9411 49.8255 21.1038 0.0000 13.8296 0.0000
# 3 41.7060 21.1038 73.2604 0.0000 23.9832 0.0000
# 4 0.0000 0.0000 0.0000 29.1311 0.0000 6.3773
# 5 6.0865 13.8296 23.9832 0.0000 28.7958 0.0000
# 6 0.0000 0.0000 0.0000 6.3773 0.0000 36.2134
#
#
#
# Elastic Compliance Matrix: (Units=1/GPa)
#
#
# Indices 1 2 3 4 5 6 
#
# 1 0.014474 -0.001546 -0.009674 0.000000 0.005740 0.000000
# 2 -0.001546 0.024285 -0.003306 0.000000 -0.008583 0.000000
# 3 -0.009674 -0.003306 0.026013 0.000000 -0.018033 0.000000
# 4 0.000000 0.000000 0.000000 0.035704 0.000000 -0.006288
# 5 0.005740 -0.008583 -0.018033 0.000000 0.052655 0.000000
# 6 0.000000 0.000000 0.000000 -0.006288 0.000000 0.028721
#
#
# Mechanical properties :
#
#
# Convention : Reuss Voigt Hill
#
# Bulk Modulus (GPa) = 27.99441 41.40286 34.69863
# Shear Modulus (GPa) = 22.44060 28.31959 25.38010
#
# Velocity S-wave (km/s) = 3.33262 3.74379 3.54417
# Velocity P-wave (km/s) = 5.35383 6.25932 5.82420
#
# Compressibility (1/GPa) = 0.03572142
#
# Stress axis : x y z
#
# Youngs Moduli (GPa) = 69.08905 41.17752 38.44268
#
# Poissons Ratio (x) = 0.06365 0.37188
# Poissons Ratio (y) = 0.10679 0.12709
# Poissons Ratio (z) = 0.66834 0.13613
#
# Static dielectric constant tensor:
#      x y z
#    x 3.769770 0.000000 0.210850 
#    y 0.000000 3.857120 0.000000 
#    z 0.210850 0.000000 3.695020 
# 
# 
# High freq. dielectric constant tensor:
#      x y z
#    x 1.790540 0.000000 0.010220 
#    y 0.000000 1.795670 0.000000 
#    z 0.010220 0.000000 1.785410 
# 
# From -- ./inp_files/6650.got.cif
#   From: 2010.06.25/outbox.cif.g09.slc.cpg/sg11_4_cif.got.tgz:6650.got - 2010.06.27 23:14:04.
