data_PCOD8075312
_publ_section_title
;
Structure prediction by ZEFSAII (Michael W. Deem and Ramdas Pophale) SiO2 
 PCOD8075312
Probable space group: P 21/M
;
_chemical_formula_sum "Si O2"
_cell_formula_units_Z 24
_cell_length_a 9.588168
_cell_length_b 10.016466
_cell_length_c 19.548889
_cell_angle_alpha 90.000000
_cell_angle_beta 42.632964
_cell_angle_gamma 90.000000
_cell_volume 1271.606970
_symmetry_space_group_name_H-M "P 21/M"
_symmetry_group_IT_number 11
_symmetry_cell_setting 'monoclinic'
loop_
_space_group_symop_operation_xyz
x,y,z
-x,1/2+y,-z
-x,-y,-z
x,1/2-y,z
loop_
_atom_site_type_symbol
_atom_site_label
_atom_site_fract_x
_atom_site_fract_y
_atom_site_fract_z
Si Si1 0.724048 0.250000 0.380875
Si Si2 0.251498 0.250000 0.574642
Si Si3 0.866666 0.250000 0.619129
Si Si4 0.024583 0.750000 0.574637
Si Si5 0.929129 0.517445 0.275012
Si Si6 0.052747 0.402143 0.884105
Si Si7 0.245836 0.017451 0.275014
Si Si8 0.705067 0.097859 0.115897
O O1 0.479486 0.250000 0.462639
O O2 0.810617 0.378210 0.310091
O O3 0.794002 0.250000 0.434736
O O4 0.219964 0.118920 0.631579
O O5 0.098207 0.250000 0.565265
O O6 0.740885 0.378210 0.689913
O O7 0.867391 0.250000 0.537367
O O8 0.885303 0.618919 0.631573
O O9 0.989966 0.574467 0.179838
O O10 0.142484 0.499992 0.238346
O O11 0.123662 0.250000 0.871216
O O12 0.232947 0.499998 0.844700
O O13 0.841644 0.434287 0.000002
O O14 0.470519 0.074478 0.179845
O O15 0.737330 0.250000 0.128780
#
# Coordination Sequence:
#
# PCOD8075312 Si02
#       8
#     2   2   2   2   4   4   4   4
#     4  10  22  34  57  84 115 149 190 233 283 336
#     4  10  20  38  55  82 115 151 190 237 281 336
#     4  10  22  34  57  84 115 149 190 233 283 336
#     4  10  20  38  55  82 115 151 190 237 281 336
#     4  10  21  38  59  84 116 152 191 236 283 337
#     4  10  22  40  61  86 116 149 189 238 288 342
#     4  10  21  38  59  84 116 152 191 236 283 337
#     4  10  22  40  61  86 116 149 189 238 288 342
#
# _framework density 18.873754999999999
#
# number of rings (size 3 to 8) (size 9 to 14) (size 15 to 20)
#    0.000    2.000    1.667    1.000    2.333    3.333 
#    0.000    0.000    0.000    0.000    0.000    0.000 
#    0.000    0.000    0.000    0.000    0.000    0.000 
#
# Total GULP energy -297727.649498 kJ/mol
# GULP energy per Si atom -12405.318729 kJ/mol
# Density = 1.883080 g / cm^3
# Si number density = 18.873755 Si / 1000 Ang^3
#
#
#
# Elastic Constant Matrix: (Units=GPa)
#
#
# Indices 1 2 3 4 5 6 
#
# 1 66.7636 22.4697 38.0025 0.0000 -0.0006 0.0000
# 2 22.4697 122.2878 20.2008 0.0000 0.0032 0.0000
# 3 38.0025 20.2008 60.4399 0.0000 0.0037 0.0000
# 4 0.0000 0.0000 0.0000 -4.2814 0.0000 -0.0035
# 5 -0.0006 0.0032 0.0037 0.0000 33.3348 0.0000
# 6 0.0000 0.0000 0.0000 -0.0035 0.0000 17.8963
#
#
#
# Elastic Compliance Matrix: (Units=1/GPa)
#
#
# Indices 1 2 3 4 5 6 
#
# 1 0.023785 -0.002011 -0.014283 0.000000 0.000002 0.000000
# 2 -0.002011 0.008825 -0.001685 0.000000 -0.000001 0.000000
# 3 -0.014283 -0.001685 0.026089 0.000000 -0.000003 0.000000
# 4 0.000000 0.000000 0.000000 -0.233567 0.000000 -0.000046
# 5 0.000002 -0.000001 -0.000003 0.000000 0.029999 0.000000
# 6 0.000000 0.000000 0.000000 -0.000046 0.000000 0.055877
#
#
# Mechanical properties :
#
#
# Convention : Reuss Voigt Hill
#
# Bulk Modulus (GPa) = 43.97322 45.64858 44.81090
# Shear Modulus (GPa) = -110.00569 20.64448 -44.68061
#
# Velocity S-wave (km/s) = -7.64274 3.31088 -4.87081
# Velocity P-wave (km/s) = 7.38464 6.23335 2.79984
#
# Compressibility (1/GPa) = 0.02274111
#
# Stress axis : x y z
#
# Youngs Moduli (GPa) = 42.04309 113.31025 38.32978
#
# Poissons Ratio (x) = 0.22786 0.54747
# Poissons Ratio (y) = 0.08455 0.06460
# Poissons Ratio (z) = 0.60051 0.19096
#
# Static dielectric constant tensor:
#      x y z
#    x 3.343170 0.000000 0.000020 
#    y 0.000000 3.817130 0.000000 
#    z 0.000020 0.000000 3.213810 
# 
# 
# High freq. dielectric constant tensor:
#      x y z
#    x 1.726070 0.000000 0.000000 
#    y 0.000000 1.757810 0.000000 
#    z 0.000000 0.000000 1.723340 
# 
# From -- ./inp_files/27583.got.cif
#   From: 2010.06.25/outbox.cif.g09.slc.cpg/sg11_14_cif.got.tgz:27583.got - 2010.06.27 23:14:04.
