data_PCOD8075576
_publ_section_title
;
Structure prediction by ZEFSAII (Michael W. Deem and Ramdas Pophale) SiO2 
 PCOD8075576
Probable space group: P 21/M
;
_chemical_formula_sum "Si O2"
_cell_formula_units_Z 24
_cell_length_a 5.233228
_cell_length_b 12.372928
_cell_length_c 18.721536
_cell_angle_alpha 90.000000
_cell_angle_beta 111.830337
_cell_angle_gamma 90.000000
_cell_volume 1125.296204
_symmetry_space_group_name_H-M "P 21/M"
_symmetry_group_IT_number 11
_symmetry_cell_setting 'monoclinic'
loop_
_space_group_symop_operation_xyz
x,y,z
-x,1/2+y,-z
-x,-y,-z
x,1/2-y,z
loop_
_atom_site_type_symbol
_atom_site_label
_atom_site_fract_x
_atom_site_fract_y
_atom_site_fract_z
Si Si1 0.329467 0.622970 0.552254
Si Si2 0.731180 0.558373 0.949544
Si Si3 0.898087 0.502723 0.598741
Si Si4 0.333961 0.127554 0.901290
Si Si5 0.005823 0.002015 0.235581
Si Si6 0.540585 0.869875 0.791935
O O1 0.322109 0.750000 0.562703
O O2 0.643841 0.585279 0.578627
O O3 0.167880 0.593679 0.462605
O O4 0.171213 0.567440 0.602190
O O5 0.551926 0.459962 0.898428
O O6 0.739758 0.638753 0.883356
O O7 0.642838 0.624122 0.010283
O O8 0.000000 0.500000 0.000000
O O9 0.960390 0.448931 0.682431
O O10 0.402112 0.250000 0.884507
O O11 0.053219 0.088702 0.832032
O O12 0.761401 0.089779 0.216203
O O13 0.298602 0.057725 0.248859
O O14 0.508717 0.750000 0.756566
#
# Coordination Sequence:
#
# PCOD8075576 Si02
#       6
#     4   4   4   4   4   4
#     4  10  21  39  63  88 114 153 195 231 286 347
#     4  10  20  40  57  81 113 151 203 248 283 346
#     4  10  22  38  60  88 120 151 188 243 283 340
#     4  10  22  38  59  83 114 156 196 242 296 344
#     4  11  23  40  57  88 123 149 194 239 290 351
#     4  11  23  38  59  85 117 157 197 242 292 340
#
# _framework density 21.327715999999999
#
# number of rings (size 3 to 8) (size 9 to 14) (size 15 to 20)
#    0.000    1.667    1.667    2.500    0.000    6.000 
#    0.000    0.000    0.000    6.000    0.000    0.000 
#    0.000    0.000    0.000    0.000    0.000    0.000 
#
# Total GULP energy -297351.396311 kJ/mol
# GULP energy per Si atom -12389.641513 kJ/mol
# Density = 2.127917 g / cm^3
# Si number density = 21.327716 Si / 1000 Ang^3
#
#
#
# Elastic Constant Matrix: (Units=GPa)
#
#
# Indices 1 2 3 4 5 6 
#
# 1 93.3497 6.1962 -4.4679 0.0000 -3.1809 0.0000
# 2 6.1962 86.3886 10.9926 0.0000 -2.9370 0.0000
# 3 -4.4679 10.9926 77.3740 0.0000 -19.8668 0.0000
# 4 0.0000 0.0000 0.0000 9.5805 0.0000 -0.2985
# 5 -3.1809 -2.9370 -19.8668 0.0000 34.2449 0.0000
# 6 0.0000 0.0000 0.0000 -0.2985 0.0000 16.2663
#
#
#
# Elastic Compliance Matrix: (Units=1/GPa)
#
#
# Indices 1 2 3 4 5 6 
#
# 1 0.010881 -0.000874 0.001167 0.000000 0.001613 0.000000
# 2 -0.000874 0.011859 -0.001757 0.000000 -0.000083 0.000000
# 3 0.001167 -0.001757 0.015546 0.000000 0.008977 0.000000
# 4 0.000000 0.000000 0.000000 0.104439 0.000000 0.001916
# 5 0.001613 -0.000083 0.008977 0.000000 0.034552 0.000000
# 6 0.000000 0.000000 0.000000 0.001916 0.000000 0.061512
#
#
# Mechanical properties :
#
#
# Convention : Reuss Voigt Hill
#
# Bulk Modulus (GPa) = 28.28226 31.39490 29.83858
# Shear Modulus (GPa) = 19.72364 28.31110 24.01737
#
# Velocity S-wave (km/s) = 3.04433 3.64735 3.35940
# Velocity P-wave (km/s) = 5.06427 5.69998 5.39150
#
# Compressibility (1/GPa) = 0.03535785
#
# Stress axis : x y z
#
# Youngs Moduli (GPa) = 91.90164 84.32422 64.32516
#
# Poissons Ratio (x) = 0.07371 -0.07504
# Poissons Ratio (y) = 0.08033 0.11300
# Poissons Ratio (z) = -0.10721 0.14813
#
# Static dielectric constant tensor:
#      x y z
#    x 3.680030 0.000000 0.162090 
#    y 0.000000 3.522140 0.000000 
#    z 0.162090 0.000000 3.187430 
# 
# 
# High freq. dielectric constant tensor:
#      x y z
#    x 1.833930 0.000000 -0.001550 
#    y 0.000000 1.808450 0.000000 
#    z -0.001550 0.000000 1.859190 
# 
# From -- ./inp_files/7703.got.cif
#   From: 2010.06.25/outbox.cif.g09.slc.cpg/sg11_4_cif.got.tgz:7703.got - 2010.06.27 23:14:04.
