data_PCOD8075893
_publ_section_title
;
Structure prediction by ZEFSAII (Michael W. Deem and Ramdas Pophale) SiO2 
 PCOD8075893
Probable space group: P 21/M
;
_chemical_formula_sum "Si O2"
_cell_formula_units_Z 28
_cell_length_a 26.430770
_cell_length_b 9.115837
_cell_length_c 9.510387
_cell_angle_alpha 90.000000
_cell_angle_beta 38.903553
_cell_angle_gamma 90.000000
_cell_volume 1439.037216
_symmetry_space_group_name_H-M "P 21/M"
_symmetry_group_IT_number 11
_symmetry_cell_setting 'monoclinic'
loop_
_space_group_symop_operation_xyz
x,y,z
-x,1/2+y,-z
-x,-y,-z
x,1/2-y,z
loop_
_atom_site_type_symbol
_atom_site_label
_atom_site_fract_x
_atom_site_fract_y
_atom_site_fract_z
Si Si1 0.865988 0.922310 0.522934
Si Si2 0.564808 0.083730 0.269718
Si Si3 0.012058 0.080584 0.119064
Si Si4 0.261734 0.580640 0.017165
Si Si5 0.308728 0.580969 0.602510
Si Si6 0.187029 0.082825 0.677495
Si Si7 0.470211 0.082115 0.200591
O O1 0.878761 0.750000 0.512696
O O2 0.830587 0.962036 0.445805
O O3 0.953058 0.000869 0.357957
O O4 0.807988 0.980139 0.769638
O O5 0.563634 0.250000 0.327519
O O6 0.654139 0.020562 0.100938
O O7 0.543287 0.071953 0.152657
O O8 0.500000 0.000000 0.500000
O O9 0.986971 0.250000 0.159265
O O10 0.107105 0.066111 0.948389
O O11 0.000000 0.000000 0.000000
O O12 0.247410 0.750000 0.090536
O O13 0.260697 0.560731 0.851535
O O14 0.329139 0.750000 0.528664
O O15 0.255834 0.522381 0.587716
O O16 0.391658 0.493129 0.435449
O O17 0.218014 0.250000 0.616367
O O18 0.449615 0.250000 0.208689
O O19 0.500000 0.000000 0.000000
#
# Coordination Sequence:
#
# PCOD8075893 Si02
#       7
#     4   4   4   4   4   4   4
#     4  10  21  36  58  88 115 147 190 234 281 333
#     4  10  21  39  61  83 110 148 190 231 281 334
#     4   9  17  33  57  84 115 149 185 231 282 332
#     4  10  22  39  57  82 115 149 189 235 279 333
#     4  11  23  39  59  83 114 152 189 232 286 335
#     4   9  20  37  57  85 117 148 186 232 281 334
#     4  11  24  40  60  86 115 149 188 234 285 335
#
# _framework density 19.457453000000001
#
# number of rings (size 3 to 8) (size 9 to 14) (size 15 to 20)
#    0.000    2.000    1.429    2.571    2.000    5.714 
#    0.000    0.714    0.000    0.000    0.000    0.000 
#    0.000    0.000    0.000    0.000    0.000    0.000 
#
# Total GULP energy -347210.945904 kJ/mol
# GULP energy per Si atom -12400.390925 kJ/mol
# Density = 1.941317 g / cm^3
# Si number density = 19.457453 Si / 1000 Ang^3
#
#
#
# Elastic Constant Matrix: (Units=GPa)
#
#
# Indices 1 2 3 4 5 6 
#
# 1 38.4706 15.9143 -4.8686 0.0000 4.7977 0.0000
# 2 15.9143 103.3336 35.4304 0.0000 2.8846 0.0000
# 3 -4.8686 35.4304 89.2140 0.0000 1.7566 0.0000
# 4 0.0000 0.0000 0.0000 41.2387 0.0000 -2.5722
# 5 4.7977 2.8846 1.7566 0.0000 22.6402 0.0000
# 6 0.0000 0.0000 0.0000 -2.5722 0.0000 26.4566
#
#
#
# Elastic Compliance Matrix: (Units=1/GPa)
#
#
# Indices 1 2 3 4 5 6 
#
# 1 0.029625 -0.005780 0.004027 0.000000 -0.005854 0.000000
# 2 -0.005780 0.012357 -0.005224 0.000000 0.000056 0.000000
# 3 0.004027 -0.005224 0.013528 0.000000 -0.001237 0.000000
# 4 0.000000 0.000000 0.000000 0.024397 0.000000 0.002372
# 5 -0.005854 0.000056 -0.001237 0.000000 0.045499 0.000000
# 6 0.000000 0.000000 0.000000 0.002372 0.000000 0.038028
#
#
# Mechanical properties :
#
#
# Convention : Reuss Voigt Hill
#
# Bulk Modulus (GPa) = 24.06364 35.99671 30.03018
# Shear Modulus (GPa) = 26.14528 30.36989 28.25758
#
# Velocity S-wave (km/s) = 3.66965 3.95503 3.81501
# Velocity P-wave (km/s) = 5.50902 6.27668 5.90534
#
# Compressibility (1/GPa) = 0.04155646
#
# Stress axis : x y z
#
# Youngs Moduli (GPa) = 33.75569 80.92442 73.92159
#
# Poissons Ratio (x) = 0.46774 -0.29771
# Poissons Ratio (y) = 0.19511 0.38617
# Poissons Ratio (z) = -0.13595 0.42275
#
# Static dielectric constant tensor:
#      x y z
#    x 3.503990 0.000000 -0.184640 
#    y 0.000000 3.710670 0.000000 
#    z -0.184640 0.000000 3.585540 
# 
# 
# High freq. dielectric constant tensor:
#      x y z
#    x 1.743150 0.000000 -0.010650 
#    y 0.000000 1.766100 0.000000 
#    z -0.010650 0.000000 1.759760 
# 
# From -- ./inp_files/28233.got.cif
#   From: 2010.06.25/outbox.cif.g09.slc.cpg/sg11_15_cif.got.tgz:28233.got - 2010.06.27 23:14:04.
