data_PCOD8075124
_publ_section_title
;
Structure prediction by ZEFSAII (Michael W. Deem and Ramdas Pophale) SiO2 
 PCOD8075124
Probable space group: P 21/M
;
_chemical_formula_sum "Si O2"
_cell_formula_units_Z 32
_cell_length_a 21.514271
_cell_length_b 8.816281
_cell_length_c 27.765946
_cell_angle_alpha 90.000000
_cell_angle_beta 18.691427
_cell_angle_gamma 90.000000
_cell_volume 1687.771385
_symmetry_space_group_name_H-M "P 21/M"
_symmetry_group_IT_number 11
_symmetry_cell_setting 'monoclinic'
loop_
_space_group_symop_operation_xyz
x,y,z
-x,1/2+y,-z
-x,-y,-z
x,1/2-y,z
loop_
_atom_site_type_symbol
_atom_site_label
_atom_site_fract_x
_atom_site_fract_y
_atom_site_fract_z
Si Si1 0.196286 0.428463 0.599295
Si Si2 0.423951 0.574447 0.161831
Si Si3 0.652364 0.925174 0.683006
Si Si4 0.462956 0.573848 0.326461
Si Si5 0.156123 0.425616 0.185044
Si Si6 0.793414 0.924664 0.155338
Si Si7 0.912813 0.425532 0.663582
Si Si8 0.515969 0.069712 0.540617
O O1 0.210495 0.250000 0.596551
O O2 0.303144 0.474997 0.471527
O O3 0.288197 0.510996 0.578004
O O4 0.973180 0.479163 0.757870
O O5 0.406662 0.750000 0.189507
O O6 0.422353 0.472031 0.210113
O O7 0.247490 0.525232 0.257340
O O8 0.620265 0.539556 0.989212
O O9 0.605136 0.750000 0.708592
O O10 0.880428 0.958838 0.512138
O O11 0.533096 0.023229 0.731677
O O12 0.406221 0.750000 0.373479
O O13 0.675131 0.544007 0.193101
O O14 0.105627 0.250000 0.215180
O O15 0.110212 0.471177 0.273087
O O16 0.833138 0.750000 0.134334
O O17 0.668096 0.986142 0.292613
O O18 0.000000 0.000000 0.000000
O O19 0.889736 0.250000 0.695645
O O20 0.525386 0.250000 0.530807
O O21 0.500000 0.000000 0.500000
#
# Coordination Sequence:
#
# PCOD8075124 Si02
#       8
#     4   4   4   4   4   4   4   4
#     4  11  21  36  60  87 115 151 194 241 286 337
#     4  10  23  40  56  81 118 154 190 238 292 345
#     4  11  22  36  58  87 115 150 194 238 289 342
#     4  10  20  37  60  85 115 152 194 237 281 339
#     4  11  22  37  59  85 113 153 196 236 289 345
#     4   9  20  37  59  87 117 149 188 231 278 334
#     4  10  21  38  60  85 113 147 193 241 286 346
#     4  10  21  39  61  89 120 153 192 235 282 340
#
# _framework density 18.959913
#
# number of rings (size 3 to 8) (size 9 to 14) (size 15 to 20)
#    0.000    1.750    1.250    4.125    0.000    5.000 
#    2.250    0.000    0.000    0.000    0.000    0.000 
#    0.000    0.000    0.000    0.000    0.000    0.000 
#
# Total GULP energy -396943.949036 kJ/mol
# GULP energy per Si atom -12404.498407 kJ/mol
# Density = 1.891676 g / cm^3
# Si number density = 18.959913 Si / 1000 Ang^3
#
#
#
# Elastic Constant Matrix: (Units=GPa)
#
#
# Indices 1 2 3 4 5 6 
#
# 1 122.4233 38.4106 32.2275 0.0000 -6.7552 0.0000
# 2 38.4106 81.4798 30.1271 0.0000 -4.9416 0.0000
# 3 32.2275 30.1271 64.1062 0.0000 -10.4756 0.0000
# 4 0.0000 0.0000 0.0000 30.1407 0.0000 -0.1793
# 5 -6.7552 -4.9416 -10.4756 0.0000 27.8186 0.0000
# 6 0.0000 0.0000 0.0000 -0.1793 0.0000 37.5680
#
#
#
# Elastic Compliance Matrix: (Units=1/GPa)
#
#
# Indices 1 2 3 4 5 6 
#
# 1 0.010194 -0.003523 -0.003375 0.000000 0.000579 0.000000
# 2 -0.003523 0.016071 -0.005813 0.000000 -0.000189 0.000000
# 3 -0.003375 -0.005813 0.021018 0.000000 0.006063 0.000000
# 4 0.000000 0.000000 0.000000 0.033179 0.000000 0.000158
# 5 0.000579 -0.000189 0.006063 0.000000 0.038337 0.000000
# 6 0.000000 0.000000 0.000000 0.000158 0.000000 0.026619
#
#
# Mechanical properties :
#
#
# Convention : Reuss Voigt Hill
#
# Bulk Modulus (GPa) = 45.73916 52.17107 48.95511
# Shear Modulus (GPa) = 28.06995 30.25507 29.16251
#
# Velocity S-wave (km/s) = 3.85189 3.99900 3.92613
# Velocity P-wave (km/s) = 6.63017 6.99278 6.81389
#
# Compressibility (1/GPa) = 0.02186311
#
# Stress axis : x y z
#
# Youngs Moduli (GPa) = 98.09765 62.22215 47.57804
#
# Poissons Ratio (x) = 0.21919 0.16056
# Poissons Ratio (y) = 0.34557 0.27657
# Poissons Ratio (z) = 0.33104 0.36169
#
# Static dielectric constant tensor:
#      x y z
#    x 3.569870 0.000000 -0.169020 
#    y 0.000000 3.485830 0.000000 
#    z -0.169020 0.000000 3.538660 
# 
# 
# High freq. dielectric constant tensor:
#      x y z
#    x 1.744100 0.000000 -0.011180 
#    y 0.000000 1.743280 0.000000 
#    z -0.011180 0.000000 1.729920 
# 
# From -- ./inp_files/71983.got.cif
#   From: 2010.06.25/outbox.cif.g09.slc.cpg/sg11_36_cif.got.tgz:71983.got - 2010.06.27 23:14:04.
