data_PCOD8075991
_publ_section_title
;
Structure prediction by ZEFSAII (Michael W. Deem and Ramdas Pophale) SiO2 
 PCOD8075991
Probable space group: P 21/M
;
_chemical_formula_sum "Si O2"
_cell_formula_units_Z 32
_cell_length_a 26.098022
_cell_length_b 9.312731
_cell_length_c 5.633577
_cell_angle_alpha 90.000000
_cell_angle_beta 94.508236
_cell_angle_gamma 90.000000
_cell_volume 1364.970029
_symmetry_space_group_name_H-M "P 21/M"
_symmetry_group_IT_number 11
_symmetry_cell_setting 'monoclinic'
loop_
_space_group_symop_operation_xyz
x,y,z
-x,1/2+y,-z
-x,-y,-z
x,1/2-y,z
loop_
_atom_site_type_symbol
_atom_site_label
_atom_site_fract_x
_atom_site_fract_y
_atom_site_fract_z
Si Si1 0.161280 0.583337 0.310397
Si Si2 0.782194 0.082953 0.168706
Si Si3 0.402368 0.406683 0.944436
Si Si4 0.974724 0.407228 0.290758
Si Si5 0.699003 0.908573 0.356980
Si Si6 0.077665 0.407690 0.065528
Si Si7 0.356279 0.908704 0.332133
Si Si8 0.538763 0.089992 0.352912
O O1 0.146382 0.750000 0.302296
O O2 0.189070 0.544446 0.569662
O O3 0.109718 0.486896 0.285156
O O4 0.189986 0.543724 0.070250
O O5 0.767074 0.250000 0.163726
O O6 0.731486 0.982919 0.157537
O O7 0.422023 0.250000 0.037660
O O8 0.360799 0.385068 0.723796
O O9 0.452497 0.498581 0.885273
O O10 0.372026 0.486702 0.133460
O O11 0.956172 0.250000 0.376015
O O12 0.000000 0.500000 0.500000
O O13 0.018632 0.383370 0.111980
O O14 0.924394 0.488574 0.167046
O O15 0.721897 0.750000 0.430301
O O16 0.695658 0.022374 0.572836
O O17 0.101677 0.250000 0.016368
O O18 0.340507 0.750000 0.233246
O O19 0.404770 0.892201 0.521209
O O20 0.516210 0.250000 0.295145
O O21 0.500000 0.000000 0.500000
#
# Coordination Sequence:
#
# PCOD8075991 Si02
#       8
#     4   4   4   4   4   4   4   4
#     4  10  23  42  63  91 126 167 210 256 313 374
#     4  10  23  42  63  91 124 165 211 255 312 377
#     4  10  21  37  58  85 115 150 192 243 299 358
#     4  10  21  37  60  89 121 160 206 258 312 372
#     4  10  22  39  60  87 118 151 194 247 301 357
#     4  10  22  39  59  88 122 160 207 257 312 372
#     4  10  21  37  59  85 113 150 194 241 295 357
#     4  10  21  37  56  81 113 151 193 239 294 356
#
# _framework density 23.443739999999998
#
# number of rings (size 3 to 8) (size 9 to 14) (size 15 to 20)
#    0.000    2.000    0.000    2.250    3.500    6.000 
#    0.000    0.000    0.000    0.000    0.000    0.000 
#    0.000    0.000    0.000    0.000    0.000    0.000 
#
# Total GULP energy -396426.395103 kJ/mol
# GULP energy per Si atom -12388.324847 kJ/mol
# Density = 2.339038 g / cm^3
# Si number density = 23.443740 Si / 1000 Ang^3
#
#
#
# Elastic Constant Matrix: (Units=GPa)
#
#
# Indices 1 2 3 4 5 6 
#
# 1 50.1268 9.7948 -0.1177 0.0000 -2.9228 0.0000
# 2 9.7948 176.6771 16.8215 0.0000 -6.7769 0.0000
# 3 -0.1177 16.8215 74.9636 0.0000 -6.5281 0.0000
# 4 0.0000 0.0000 0.0000 16.8066 0.0000 -8.5783
# 5 -2.9228 -6.7769 -6.5281 0.0000 37.9718 0.0000
# 6 0.0000 0.0000 0.0000 -8.5783 0.0000 31.8738
#
#
#
# Elastic Compliance Matrix: (Units=1/GPa)
#
#
# Indices 1 2 3 4 5 6 
#
# 1 0.020250 -0.001106 0.000405 0.000000 0.001431 0.000000
# 2 -0.001106 0.005869 -0.001254 0.000000 0.000747 0.000000
# 3 0.000405 -0.001254 0.013812 0.000000 0.002182 0.000000
# 4 0.000000 0.000000 0.000000 0.068976 0.000000 0.018564
# 5 0.001431 0.000747 0.002182 0.000000 0.026954 0.000000
# 6 0.000000 0.000000 0.000000 0.018564 0.000000 0.036370
#
#
# Mechanical properties :
#
#
# Convention : Reuss Voigt Hill
#
# Bulk Modulus (GPa) = 27.76209 39.41831 33.59020
# Shear Modulus (GPa) = 26.57483 35.68170 31.12826
#
# Velocity S-wave (km/s) = 3.37049 3.90553 3.64783
# Velocity P-wave (km/s) = 5.19756 6.09820 5.66581
#
# Compressibility (1/GPa) = 0.03602034
#
# Stress axis : x y z
#
# Youngs Moduli (GPa) = 49.38284 170.37540 72.40186
#
# Poissons Ratio (x) = 0.18848 -0.02930
# Poissons Ratio (y) = 0.05463 0.09078
# Poissons Ratio (z) = -0.01998 0.21361
#
# Static dielectric constant tensor:
#      x y z
#    x 4.196110 0.000000 0.007090 
#    y 0.000000 4.890180 0.000000 
#    z 0.007090 0.000000 4.220380 
# 
# 
# High freq. dielectric constant tensor:
#      x y z
#    x 1.913130 0.000000 -0.003790 
#    y 0.000000 1.947810 0.000000 
#    z -0.003790 0.000000 1.914350 
# 
# From -- ./inp_files/9668.got.cif
#   From: 2010.06.25/outbox.cif.g09.slc.cpg/sg11_5_cif.got.tgz:9668.got - 2010.06.27 23:14:04.
