data_PCOD8075911
_publ_section_title
;
Structure prediction by ZEFSAII (Michael W. Deem and Ramdas Pophale) SiO2 
 PCOD8075911
Probable space group: P 21/M
;
_chemical_formula_sum "Si O2"
_cell_formula_units_Z 24
_cell_length_a 5.122342
_cell_length_b 25.454301
_cell_length_c 7.899841
_cell_angle_alpha 90.000000
_cell_angle_beta 85.348569
_cell_angle_gamma 90.000000
_cell_volume 1026.633383
_symmetry_space_group_name_H-M "P 21/M"
_symmetry_group_IT_number 11
_symmetry_cell_setting 'monoclinic'
loop_
_space_group_symop_operation_xyz
x,y,z
-x,1/2+y,-z
-x,-y,-z
x,1/2-y,z
loop_
_atom_site_type_symbol
_atom_site_label
_atom_site_fract_x
_atom_site_fract_y
_atom_site_fract_z
Si Si1 0.864058 0.009210 0.286405
Si Si2 0.736864 0.546940 0.980470
Si Si3 0.080293 0.310550 0.362257
Si Si4 0.597041 0.308428 0.145582
Si Si5 0.926065 0.088130 0.550424
Si Si6 0.758839 0.395062 0.915491
O O1 0.777157 0.061933 0.394699
O O2 0.685382 0.997915 0.129300
O O3 0.866296 0.957570 0.406342
O O4 0.160080 0.019315 0.196565
O O5 0.464831 0.575545 0.965575
O O6 0.955494 0.586782 0.040727
O O7 0.127991 0.250000 0.427812
O O8 0.313939 0.328512 0.225375
O O9 0.800850 0.313394 0.287731
O O10 0.069696 0.356204 0.506053
O O11 0.559903 0.250000 0.084117
O O12 0.712505 0.335377 0.972135
O O13 0.725014 0.098962 0.714968
#
# Coordination Sequence:
#
# PCOD8075911 Si02
#       6
#     4   4   4   4   4   4
#     4   9  20  38  58  85 119 156 193 233 284 342
#     4  10  22  39  58  81 116 158 196 228 277 347
#     4  10  22  41  63  85 113 152 193 236 288 344
#     4  10  21  39  62  84 110 151 197 235 281 344
#     4  10  21  36  59  89 120 150 188 241 293 336
#     4  11  22  37  59  86 116 152 191 239 287 335
#
# _framework density 23.377382999999998
#
# number of rings (size 3 to 8) (size 9 to 14) (size 15 to 20)
#    0.000    2.000    0.000    3.000    0.000   10.000 
#    0.000    6.667    0.000    7.000    0.000    0.000 
#    0.000    0.000    0.000    0.000    0.000    0.000 
#
# Total GULP energy -297331.754434 kJ/mol
# GULP energy per Si atom -12388.823101 kJ/mol
# Density = 2.332418 g / cm^3
# Si number density = 23.377383 Si / 1000 Ang^3
#
#
#
# Elastic Constant Matrix: (Units=GPa)
#
#
# Indices 1 2 3 4 5 6 
#
# 1 53.8101 9.8780 -3.1453 0.0000 -18.0247 0.0000
# 2 9.8780 141.1001 69.2889 0.0000 -16.1167 0.0000
# 3 -3.1453 69.2889 108.0566 0.0000 -6.5994 0.0000
# 4 0.0000 0.0000 0.0000 53.1980 0.0000 -9.1248
# 5 -18.0247 -16.1167 -6.5994 0.0000 23.6656 0.0000
# 6 0.0000 0.0000 0.0000 -9.1248 0.0000 24.9619
#
#
#
# Elastic Compliance Matrix: (Units=1/GPa)
#
#
# Indices 1 2 3 4 5 6 
#
# 1 0.025394 -0.000725 0.002396 0.000000 0.019516 0.000000
# 2 -0.000725 0.011058 -0.006802 0.000000 0.005082 0.000000
# 3 0.002396 -0.006802 0.013748 0.000000 0.001027 0.000000
# 4 0.000000 0.000000 0.000000 0.020055 0.000000 0.007331
# 5 0.019516 0.005082 0.001027 0.000000 0.060866 0.000000
# 6 0.000000 0.000000 0.000000 0.007331 0.000000 0.042741
#
#
# Mechanical properties :
#
#
# Convention : Reuss Voigt Hill
#
# Bulk Modulus (GPa) = 25.03810 50.55667 37.79738
# Shear Modulus (GPa) = 25.32434 35.49477 30.40955
#
# Velocity S-wave (km/s) = 3.29490 3.90081 3.61059
# Velocity P-wave (km/s) = 5.02083 6.47779 5.79528
#
# Compressibility (1/GPa) = 0.03993914
#
# Stress axis : x y z
#
# Youngs Moduli (GPa) = 39.37910 90.42821 72.73605
#
# Poissons Ratio (x) = 0.06559 -0.17429
# Poissons Ratio (y) = 0.02856 0.49473
# Poissons Ratio (z) = -0.09436 0.61507
#
# Static dielectric constant tensor:
#      x y z
#    x 3.904220 0.000000 -0.149750 
#    y 0.000000 4.668960 0.000000 
#    z -0.149750 0.000000 4.313100 
# 
# 
# High freq. dielectric constant tensor:
#      x y z
#    x 1.905470 0.000000 -0.011190 
#    y 0.000000 1.941460 0.000000 
#    z -0.011190 0.000000 1.914910 
# 
# From -- ./inp_files/10522.got.cif
#   From: 2010.06.25/outbox.cif.g09.slc.cpg/sg11_6_cif.got.tgz:10522.got - 2010.06.27 23:14:04.
