data_PCOD8075314
_publ_section_title
;
Structure prediction by ZEFSAII (Michael W. Deem and Ramdas Pophale) SiO2 
 PCOD8075314
Probable space group: P 21/M
;
_chemical_formula_sum "Si O2"
_cell_formula_units_Z 24
_cell_length_a 17.759325
_cell_length_b 14.080107
_cell_length_c 8.866733
_cell_angle_alpha 90.000000
_cell_angle_beta 145.661847
_cell_angle_gamma 90.000000
_cell_volume 1250.643925
_symmetry_space_group_name_H-M "P 21/M"
_symmetry_group_IT_number 11
_symmetry_cell_setting 'monoclinic'
loop_
_space_group_symop_operation_xyz
x,y,z
-x,1/2+y,-z
-x,-y,-z
x,1/2-y,z
loop_
_atom_site_type_symbol
_atom_site_label
_atom_site_fract_x
_atom_site_fract_y
_atom_site_fract_z
Si Si1 0.103116 0.565859 0.975046
Si Si2 0.223822 0.750000 0.706269
Si Si3 0.388461 0.750000 0.518800
Si Si4 0.602051 0.455608 0.554795
Si Si5 0.126629 0.750000 0.887373
Si Si6 0.619815 0.947335 0.272405
Si Si7 0.497643 0.750000 0.028632
Si Si8 0.867485 0.066488 0.626409
O O1 0.039896 0.655341 0.778715
O O2 0.008925 0.474555 0.803192
O O3 0.246435 0.547884 0.130870
O O4 0.124596 0.595387 0.185307
O O5 0.182432 0.750000 0.811371
O O6 0.385839 0.750000 0.975456
O O7 0.166435 0.657017 0.529948
O O8 0.455088 0.849625 0.576529
O O9 0.402266 0.750000 0.723007
O O10 0.239720 0.750000 0.206485
O O11 0.500000 0.500000 0.500000
O O12 0.613072 0.528291 0.435875
O O13 0.757447 0.983492 0.425503
O O14 0.600715 0.836296 0.211813
O O15 0.500000 0.000000 0.000000
#
# Coordination Sequence:
#
# PCOD8075314 Si02
#       8
#     4   2   2   4   2   4   2   4
#     4   9  20  40  62  83 115 158 198 239 288 358
#     4  12  22  34  60  89 118 155 194 246 293 365
#     4  10  20  38  57  80 115 163 199 235 298 365
#     4  10  21  36  60  88 120 154 196 246 301 358
#     4  10  22  35  58  87 116 153 196 237 303 358
#     4  11  21  35  59  90 114 149 198 249 290 340
#     4  12  22  37  59  88 121 151 207 248 294 352
#     4  10  21  40  63  85 115 157 203 242 291 347
#
# _framework density 19.190114000000001
#
# number of rings (size 3 to 8) (size 9 to 14) (size 15 to 20)
#    0.000    1.667    3.333    2.500    4.667    1.333 
#    0.000    5.833    3.667    0.000    0.000    0.000 
#    0.000    0.000    0.000    0.000    0.000    0.000 
#
# Total GULP energy -297400.880154 kJ/mol
# GULP energy per Si atom -12391.703340 kJ/mol
# Density = 1.914644 g / cm^3
# Si number density = 19.190114 Si / 1000 Ang^3
#
#
#
# Elastic Constant Matrix: (Units=GPa)
#
#
# Indices 1 2 3 4 5 6 
#
# 1 95.0039 60.5310 31.9956 0.0000 16.6343 0.0000
# 2 60.5310 164.2186 47.6948 0.0000 4.6987 0.0000
# 3 31.9956 47.6948 65.1491 0.0000 7.4892 0.0000
# 4 0.0000 0.0000 0.0000 27.1725 0.0000 -2.2293
# 5 16.6343 4.6987 7.4892 0.0000 24.7311 0.0000
# 6 0.0000 0.0000 0.0000 -2.2293 0.0000 26.5097
#
#
#
# Elastic Compliance Matrix: (Units=1/GPa)
#
#
# Indices 1 2 3 4 5 6 
#
# 1 0.016297 -0.004732 -0.003505 0.000000 -0.009001 0.000000
# 2 -0.004732 0.009109 -0.004675 0.000000 0.002867 0.000000
# 3 -0.003505 -0.004675 0.020846 0.000000 -0.003067 0.000000
# 4 0.000000 0.000000 0.000000 0.037058 0.000000 0.003116
# 5 -0.009001 0.002867 -0.003067 0.000000 0.046873 0.000000
# 6 0.000000 0.000000 0.000000 0.003116 0.000000 0.037984
#
#
# Mechanical properties :
#
#
# Convention : Reuss Voigt Hill
#
# Bulk Modulus (GPa) = 48.94922 67.20161 58.07541
# Shear Modulus (GPa) = 24.90057 27.95933 26.42995
#
# Velocity S-wave (km/s) = 3.60609 3.82116 3.71518
# Velocity P-wave (km/s) = 6.54992 7.38670 6.98086
#
# Compressibility (1/GPa) = 0.02042933
#
# Stress axis : x y z
#
# Youngs Moduli (GPa) = 61.36091 109.78023 47.97190
#
# Poissons Ratio (x) = 0.51943 0.16814
# Poissons Ratio (y) = 0.29033 0.22425
# Poissons Ratio (z) = 0.21507 0.51317
#
# Static dielectric constant tensor:
#      x y z
#    x 3.336390 0.000000 0.189580 
#    y 0.000000 3.867200 0.000000 
#    z 0.189580 0.000000 2.726010 
# 
# 
# High freq. dielectric constant tensor:
#      x y z
#    x 1.732010 0.000000 -0.003610 
#    y 0.000000 1.764990 0.000000 
#    z -0.003610 0.000000 1.729770 
# 
# From -- ./inp_files/22067.got.cif
#   From: 2010.06.25/outbox.cif.g09.slc.cpg/sg11_12_cif.got.tgz:22067.got - 2010.06.27 23:14:04.
