data_PCOD8075933
_publ_section_title
;
Structure prediction by ZEFSAII (Michael W. Deem and Ramdas Pophale) SiO2 
 PCOD8075933
Probable space group: P 21/M
;
_chemical_formula_sum "Si O2"
_cell_formula_units_Z 28
_cell_length_a 8.919018
_cell_length_b 26.761496
_cell_length_c 8.908406
_cell_angle_alpha 90.000000
_cell_angle_beta 138.664597
_cell_angle_gamma 90.000000
_cell_volume 1404.357665
_symmetry_space_group_name_H-M "P 21/M"
_symmetry_group_IT_number 11
_symmetry_cell_setting 'monoclinic'
loop_
_space_group_symop_operation_xyz
x,y,z
-x,1/2+y,-z
-x,-y,-z
x,1/2-y,z
loop_
_atom_site_type_symbol
_atom_site_label
_atom_site_fract_x
_atom_site_fract_y
_atom_site_fract_z
Si Si1 0.480490 0.623878 0.309266
Si Si2 0.066280 0.120137 0.512094
Si Si3 0.271410 0.944740 0.918609
Si Si4 0.280217 0.058193 0.929618
Si Si5 0.237204 0.692687 0.542594
Si Si6 0.653914 0.869280 0.759438
Si Si7 0.910851 0.193090 0.905410
O O1 0.699410 0.640894 0.379065
O O2 0.541220 0.608584 0.524700
O O3 0.310338 0.670699 0.179934
O O4 0.365692 0.575522 0.147558
O O5 0.108104 0.085627 0.688311
O O6 0.945264 0.087144 0.294072
O O7 0.915053 0.167578 0.443181
O O8 0.194058 0.001642 0.884037
O O9 0.461328 0.940561 0.932643
O O10 0.266692 0.084367 0.080724
O O11 0.280443 0.750000 0.620030
O O12 0.479319 0.665271 0.720164
O O13 0.107144 0.688560 0.287332
O O14 0.867640 0.835869 0.872108
O O15 0.931557 0.250000 0.973653
#
# Coordination Sequence:
#
# PCOD8075933 Si02
#       7
#     4   4   4   4   4   4   4
#     4  10  24  38  59  87 127 158 196 247 304 361
#     4  11  20  40  61  89 125 156 201 254 296 359
#     4  10  21  40  58  92 123 161 200 248 303 359
#     4  10  21  36  66  88 119 164 205 245 302 354
#     4  10  21  36  62  91 116 152 201 248 301 356
#     4  11  20  40  62  89 119 157 199 252 294 358
#     4  10  21  40  62  86 119 160 200 246 302 361
#
# _framework density 19.937940999999999
#
# number of rings (size 3 to 8) (size 9 to 14) (size 15 to 20)
#    0.000    1.714    2.857    1.714    0.000    1.714 
#    0.000    5.000    0.000    0.000    0.000    0.000 
#    0.000    0.000    0.000    0.000    0.000    0.000 
#
# Total GULP energy -347373.200614 kJ/mol
# GULP energy per Si atom -12406.185736 kJ/mol
# Density = 1.989256 g / cm^3
# Si number density = 19.937941 Si / 1000 Ang^3
#
#
#
# Elastic Constant Matrix: (Units=GPa)
#
#
# Indices 1 2 3 4 5 6 
#
# 1 101.3097 65.8390 45.2760 0.0000 6.3408 0.0000
# 2 65.8390 128.3794 43.3702 0.0000 -7.0814 0.0000
# 3 45.2760 43.3702 98.7423 0.0000 -1.0092 0.0000
# 4 0.0000 0.0000 0.0000 26.0847 0.0000 -1.0363
# 5 6.3408 -7.0814 -1.0092 0.0000 29.4453 0.0000
# 6 0.0000 0.0000 0.0000 -1.0363 0.0000 26.5289
#
#
#
# Elastic Compliance Matrix: (Units=1/GPa)
#
#
# Indices 1 2 3 4 5 6 
#
# 1 0.017222 -0.007584 -0.004624 0.000000 -0.005691 0.000000
# 2 -0.007584 0.012613 -0.002016 0.000000 0.004598 0.000000
# 3 -0.004624 -0.002016 0.013143 0.000000 0.000961 0.000000
# 4 0.000000 0.000000 0.000000 0.038396 0.000000 0.001500
# 5 -0.005691 0.004598 0.000961 0.000000 0.036325 0.000000
# 6 0.000000 0.000000 0.000000 0.001500 0.000000 0.037753
#
#
# Mechanical properties :
#
#
# Convention : Reuss Voigt Hill
#
# Bulk Modulus (GPa) = 68.81825 70.82241 69.82033
# Shear Modulus (GPa) = 26.49087 28.00817 27.24952
#
# Velocity S-wave (km/s) = 3.64904 3.75209 3.70092
# Velocity P-wave (km/s) = 7.23500 7.37356 7.30461
#
# Compressibility (1/GPa) = 0.01453103
#
# Stress axis : x y z
#
# Youngs Moduli (GPa) = 58.06487 79.28031 76.08808
#
# Poissons Ratio (x) = 0.60128 0.35182
# Poissons Ratio (y) = 0.44037 0.15337
# Poissons Ratio (z) = 0.26848 0.15980
#
# Static dielectric constant tensor:
#      x y z
#    x 3.498880 0.000000 0.072110 
#    y 0.000000 3.600860 0.000000 
#    z 0.072110 0.000000 3.664770 
# 
# 
# High freq. dielectric constant tensor:
#      x y z
#    x 1.771130 0.000000 0.006300 
#    y 0.000000 1.773090 0.000000 
#    z 0.006300 0.000000 1.785900 
# 
# From -- ./inp_files/3213.got.cif
#   From: 2010.06.25/outbox.cif.g09.slc.cpg/sg11_2_cif.got.tgz:3213.got - 2010.06.27 23:14:04.
