data_PCOD8075763
_publ_section_title
;
Structure prediction by ZEFSAII (Michael W. Deem and Ramdas Pophale) SiO2 
 PCOD8075763
Probable space group: P 21/M
;
_chemical_formula_sum "Si O2"
_cell_formula_units_Z 24
_cell_length_a 19.052565
_cell_length_b 9.096583
_cell_length_c 9.312819
_cell_angle_alpha 90.000000
_cell_angle_beta 59.845300
_cell_angle_gamma 90.000000
_cell_volume 1395.611101
_symmetry_space_group_name_H-M "P 21/M"
_symmetry_group_IT_number 11
_symmetry_cell_setting 'monoclinic'
loop_
_space_group_symop_operation_xyz
x,y,z
-x,1/2+y,-z
-x,-y,-z
x,1/2-y,z
loop_
_atom_site_type_symbol
_atom_site_label
_atom_site_fract_x
_atom_site_fract_y
_atom_site_fract_z
Si Si1 0.779179 0.580394 0.079802
Si Si2 0.918004 0.416171 0.052766
Si Si3 0.502444 0.422565 0.344987
Si Si4 0.654021 0.578860 0.681051
Si Si5 0.363790 0.080505 0.975587
Si Si6 0.761801 0.416193 0.367315
O O1 0.795354 0.750000 0.098806
O O2 0.728203 0.560751 0.986862
O O3 0.727644 0.509181 0.265498
O O4 0.866558 0.497191 0.978294
O O5 0.937656 0.250000 0.984358
O O6 0.860681 0.418076 0.254813
O O7 0.000000 0.500000 0.000000
O O8 0.500000 0.500000 0.500000
O O9 0.511703 0.250000 0.359475
O O10 0.420969 0.461719 0.343087
O O11 0.577401 0.478373 0.175069
O O12 0.675511 0.750000 0.657145
O O13 0.732648 0.490468 0.544654
O O14 0.633898 0.527254 0.862663
O O15 0.391643 0.250000 0.931462
O O16 0.728470 0.250000 0.392484
#
# Coordination Sequence:
#
# PCOD8075763 Si02
#       6
#     4   4   4   4   4   4
#     4   9  17  31  52  75 102 133 167 210 257 301
#     4   9  18  31  52  81 107 131 168 211 253 303
#     4  11  23  36  53  75 102 137 177 221 261 302
#     4  10  21  36  52  73 103 139 176 213 260 309
#     4  10  21  36  53  75 103 137 176 215 258 309
#     4   9  19  32  50  77 104 131 170 212 252 302
#
# _framework density 17.196769
#
# number of rings (size 3 to 8) (size 9 to 14) (size 15 to 20)
#    1.000    1.333    0.000    3.000    0.000    7.333 
#    0.000    0.000    0.000    1.000    0.000    0.000 
#    0.000    0.000    0.000    0.000    0.000    0.000 
#
# Total GULP energy -297457.045975 kJ/mol
# GULP energy per Si atom -12394.043582 kJ/mol
# Density = 1.715763 g / cm^3
# Si number density = 17.196769 Si / 1000 Ang^3
#
#
#
# Elastic Constant Matrix: (Units=GPa)
#
#
# Indices 1 2 3 4 5 6 
#
# 1 91.6429 60.2308 58.3651 0.0000 1.3940 0.0000
# 2 60.2308 116.1687 53.2851 0.0000 3.2176 0.0000
# 3 58.3651 53.2851 99.4495 0.0000 15.7612 0.0000
# 4 0.0000 0.0000 0.0000 30.9415 0.0000 -5.1973
# 5 1.3940 3.2176 15.7612 0.0000 23.0175 0.0000
# 6 0.0000 0.0000 0.0000 -5.1973 0.0000 25.6567
#
#
#
# Elastic Compliance Matrix: (Units=1/GPa)
#
#
# Indices 1 2 3 4 5 6 
#
# 1 0.021758 -0.006798 -0.010173 0.000000 0.006599 0.000000
# 2 -0.006798 0.013713 -0.003499 0.000000 0.000891 0.000000
# 3 -0.010173 -0.003499 0.019883 0.000000 -0.012510 0.000000
# 4 0.000000 0.000000 0.000000 0.033457 0.000000 0.006777
# 5 0.006599 0.000891 -0.012510 0.000000 0.051487 0.000000
# 6 0.000000 0.000000 0.000000 0.006777 0.000000 0.040349
#
#
# Mechanical properties :
#
#
# Convention : Reuss Voigt Hill
#
# Bulk Modulus (GPa) = 69.37421 72.33591 70.85506
# Shear Modulus (GPa) = 22.08553 24.94848 23.51700
#
# Velocity S-wave (km/s) = 3.58758 3.81302 3.70202
# Velocity P-wave (km/s) = 7.58880 7.84478 7.71785
#
# Compressibility (1/GPa) = 0.01441458
#
# Stress axis : x y z
#
# Youngs Moduli (GPa) = 45.95983 72.92394 50.29371
#
# Poissons Ratio (x) = 0.49571 0.51164
# Poissons Ratio (y) = 0.31242 0.17599
# Poissons Ratio (z) = 0.46755 0.25517
#
# Static dielectric constant tensor:
#      x y z
#    x 3.103960 0.000000 0.047850 
#    y 0.000000 3.314400 0.000000 
#    z 0.047850 0.000000 3.072820 
# 
# 
# High freq. dielectric constant tensor:
#      x y z
#    x 1.651290 0.000000 -0.003400 
#    y 0.000000 1.679560 0.000000 
#    z -0.003400 0.000000 1.642580 
# 
# From -- ./inp_files/25518.got.cif
#   From: 2010.06.25/outbox.cif.g09.slc.cpg/sg11_13_cif.got.tgz:25518.got - 2010.06.27 23:14:04.
