data_PCOD8075146
_publ_section_title
;
Structure prediction by ZEFSAII (Michael W. Deem and Ramdas Pophale) SiO2 
 PCOD8075146
Probable space group: P 21/M
;
_chemical_formula_sum "Si O2"
_cell_formula_units_Z 32
_cell_length_a 8.972491
_cell_length_b 13.107679
_cell_length_c 21.015451
_cell_angle_alpha 90.000000
_cell_angle_beta 38.787660
_cell_angle_gamma 90.000000
_cell_volume 1548.296795
_symmetry_space_group_name_H-M "P 21/M"
_symmetry_group_IT_number 11
_symmetry_cell_setting 'monoclinic'
loop_
_space_group_symop_operation_xyz
x,y,z
-x,1/2+y,-z
-x,-y,-z
x,1/2-y,z
loop_
_atom_site_type_symbol
_atom_site_label
_atom_site_fract_x
_atom_site_fract_y
_atom_site_fract_z
Si Si1 0.104947 0.367777 0.588296
Si Si2 0.447239 0.040569 0.374429
Si Si3 0.646304 0.494366 0.733667
Si Si4 0.206213 0.131652 0.698394
Si Si5 0.345226 0.369651 0.144313
Si Si6 0.795363 0.363140 0.921121
Si Si7 0.088069 0.863936 0.801589
Si Si8 0.118399 0.465722 0.897734
O O1 0.110242 0.250000 0.564695
O O2 0.244658 0.440518 0.493480
O O3 0.224261 0.382059 0.617161
O O4 0.834790 0.405063 0.681182
O O5 0.324090 0.046378 0.345782
O O6 0.646885 0.128200 0.316163
O O7 0.579736 0.931350 0.340250
O O8 0.660216 0.578130 0.784769
O O9 0.391143 0.439884 0.819401
O O10 0.236388 0.250000 0.708131
O O11 0.943818 0.091080 0.810853
O O12 0.394887 0.250000 0.139849
O O13 0.095698 0.389609 0.193342
O O14 0.552759 0.416775 0.028221
O O15 0.719131 0.250000 0.927799
O O16 0.987793 0.365270 0.914591
O O17 0.043692 0.750000 0.842412
O O18 0.068193 0.942121 0.865676
O O19 0.000000 0.500000 0.000000
#
# Coordination Sequence:
#
# PCOD8075146 Si02
#       8
#     4   4   4   4   4   4   4   4
#     4  11  25  42  62  89 120 160 205 256 307 356
#     4  11  22  43  64  88 121 160 203 254 311 358
#     4  11  23  38  63  89 122 156 202 250 302 360
#     4  10  21  39  64  91 121 159 204 250 302 362
#     4  10  22  39  62  92 124 162 204 246 299 362
#     4  10  20  37  60  87 123 161 197 242 297 357
#     4  10  22  39  61  87 121 162 207 253 297 358
#     4  11  22  38  59  93 121 162 200 242 302 362
#
# _framework density 20.667871999999999
#
# number of rings (size 3 to 8) (size 9 to 14) (size 15 to 20)
#    0.000    1.500    3.750    1.875    0.000    5.500 
#    0.000    3.125    0.000    0.000    0.000    0.000 
#    0.000    0.000    0.000    0.000    0.000    0.000 
#
# Total GULP energy -396536.137000 kJ/mol
# GULP energy per Si atom -12391.754281 kJ/mol
# Density = 2.062083 g / cm^3
# Si number density = 20.667872 Si / 1000 Ang^3
#
#
#
# Elastic Constant Matrix: (Units=GPa)
#
#
# Indices 1 2 3 4 5 6 
#
# 1 96.9816 34.9658 31.8691 0.0000 1.2418 0.0000
# 2 34.9658 78.3644 28.5606 0.0000 3.0928 0.0000
# 3 31.8691 28.5606 111.5386 0.0000 17.8994 0.0000
# 4 0.0000 0.0000 0.0000 26.5414 0.0000 -5.1408
# 5 1.2418 3.0928 17.8994 0.0000 31.7413 0.0000
# 6 0.0000 0.0000 0.0000 -5.1408 0.0000 25.6267
#
#
#
# Elastic Compliance Matrix: (Units=1/GPa)
#
#
# Indices 1 2 3 4 5 6 
#
# 1 0.012923 -0.004844 -0.002690 0.000000 0.001483 0.000000
# 2 -0.004844 0.015906 -0.002716 0.000000 0.000171 0.000000
# 3 -0.002690 -0.002716 0.011402 0.000000 -0.006060 0.000000
# 4 0.000000 0.000000 0.000000 0.039200 0.000000 0.007864
# 5 0.001483 0.000171 -0.006060 0.000000 0.034847 0.000000
# 6 0.000000 0.000000 0.000000 0.007864 0.000000 0.040599
#
#
# Mechanical properties :
#
#
# Convention : Reuss Voigt Hill
#
# Bulk Modulus (GPa) = 50.68521 53.07510 51.88015
# Shear Modulus (GPa) = 27.47944 29.54781 28.51362
#
# Velocity S-wave (km/s) = 3.65029 3.78517 3.71834
# Velocity P-wave (km/s) = 6.50715 6.69620 6.60235
#
# Compressibility (1/GPa) = 0.01972962
#
# Stress axis : x y z
#
# Youngs Moduli (GPa) = 77.38308 62.87121 87.70346
#
# Poissons Ratio (x) = 0.30456 0.23592
# Poissons Ratio (y) = 0.37486 0.23822
# Poissons Ratio (z) = 0.20816 0.17077
#
# Static dielectric constant tensor:
#      x y z
#    x 3.803450 0.000000 -0.019390 
#    y 0.000000 3.601290 0.000000 
#    z -0.019390 0.000000 3.848280 
# 
# 
# High freq. dielectric constant tensor:
#      x y z
#    x 1.809020 0.000000 0.002380 
#    y 0.000000 1.799800 0.000000 
#    z 0.002380 0.000000 1.819870 
# 
# From -- ./inp_files/63790.got.cif
#   From: 2010.06.25/outbox.cif.g09.slc.cpg/sg11_32_cif.got.tgz:63790.got - 2010.06.27 23:14:04.
