data_PCOD8075572
_publ_section_title
;
Structure prediction by ZEFSAII (Michael W. Deem and Ramdas Pophale) SiO2 
 PCOD8075572
Probable space group: P 21/M
;
_chemical_formula_sum "Si O2"
_cell_formula_units_Z 32
_cell_length_a 17.950931
_cell_length_b 14.901978
_cell_length_c 11.338981
_cell_angle_alpha 90.000000
_cell_angle_beta 30.340472
_cell_angle_gamma 90.000000
_cell_volume 1532.196357
_symmetry_space_group_name_H-M "P 21/M"
_symmetry_group_IT_number 11
_symmetry_cell_setting 'monoclinic'
loop_
_space_group_symop_operation_xyz
x,y,z
-x,1/2+y,-z
-x,-y,-z
x,1/2-y,z
loop_
_atom_site_type_symbol
_atom_site_label
_atom_site_fract_x
_atom_site_fract_y
_atom_site_fract_z
Si Si1 0.787810 0.652667 0.157072
Si Si2 0.206656 0.145811 0.581849
Si Si3 0.903145 0.353350 0.873193
Si Si4 0.668195 0.029173 0.690999
Si Si5 0.364465 0.031468 0.016970
Si Si6 0.070426 0.144061 0.408388
Si Si7 0.651686 0.491845 0.222160
Si Si8 0.924868 0.348253 0.366336
O O1 0.710552 0.750000 0.247186
O O2 0.766870 0.618961 0.318677
O O3 0.724972 0.587326 0.144581
O O4 0.959322 0.662257 0.896324
O O5 0.251440 0.250000 0.494255
O O6 0.308184 0.076935 0.369951
O O7 0.034574 0.132416 0.786683
O O8 0.852077 0.250000 0.937997
O O9 0.964398 0.385139 0.661304
O O10 0.762367 0.411637 0.109041
O O11 0.527611 0.073168 0.816848
O O12 0.808016 0.087200 0.464399
O O13 0.652592 0.040168 0.853793
O O14 0.373954 0.978410 0.881341
O O15 0.233174 0.103178 0.199878
O O16 0.094868 0.250000 0.373331
O O17 0.994569 0.109829 0.391300
O O18 0.500000 0.500000 0.500000
O O19 0.857841 0.250000 0.488330
#
# Coordination Sequence:
#
# PCOD8075572 Si02
#       8
#     4   4   4   4   4   4   4   4
#     4  10  22  39  60  87 120 163 212 257 309 381
#     4  10  21  39  63  89 121 165 215 265 322 381
#     4  10  22  40  65  94 119 159 217 267 312 378
#     4  11  23  39  60  93 129 165 207 266 322 377
#     4  11  24  38  59  94 130 166 209 260 321 378
#     4  10  20  39  67  95 125 166 215 266 322 375
#     4  12  25  40  61  89 127 172 211 257 320 382
#     4  10  21  38  62  91 123 163 208 257 315 376
#
# _framework density 20.885051000000001
#
# number of rings (size 3 to 8) (size 9 to 14) (size 15 to 20)
#    0.000    1.500    2.500    2.250    0.000    5.000 
#    0.000    2.500    0.000    0.000    0.000    0.000 
#    0.000    0.000    0.000    0.000    0.000    0.000 
#
# Total GULP energy -396625.737079 kJ/mol
# GULP energy per Si atom -12394.554284 kJ/mol
# Density = 2.083752 g / cm^3
# Si number density = 20.885051 Si / 1000 Ang^3
#
#
#
# Elastic Constant Matrix: (Units=GPa)
#
#
# Indices 1 2 3 4 5 6 
#
# 1 78.2992 32.8356 26.3699 0.0000 -1.5957 0.0000
# 2 32.8356 89.5513 50.3827 0.0000 -13.1640 0.0000
# 3 26.3699 50.3827 107.5317 0.0000 -15.1553 0.0000
# 4 0.0000 0.0000 0.0000 10.2959 0.0000 3.5629
# 5 -1.5957 -13.1640 -15.1553 0.0000 39.6058 0.0000
# 6 0.0000 0.0000 0.0000 3.5629 0.0000 18.9006
#
#
#
# Elastic Compliance Matrix: (Units=1/GPa)
#
#
# Indices 1 2 3 4 5 6 
#
# 1 0.015376 -0.004928 -0.001696 0.000000 -0.001668 0.000000
# 2 -0.004928 0.016973 -0.006317 0.000000 0.003025 0.000000
# 3 -0.001696 -0.006317 0.013075 0.000000 0.002835 0.000000
# 4 0.000000 0.000000 0.000000 0.103904 0.000000 -0.019587
# 5 -0.001668 0.003025 0.002835 0.000000 0.027272 0.000000
# 6 0.000000 0.000000 0.000000 -0.019587 0.000000 0.056601
#
#
# Mechanical properties :
#
#
# Convention : Reuss Voigt Hill
#
# Bulk Modulus (GPa) = 51.17973 54.95095 53.06534
# Shear Modulus (GPa) = 18.82545 24.81340 21.81942
#
# Velocity S-wave (km/s) = 3.00556 3.45061 3.23575
# Velocity P-wave (km/s) = 6.05006 6.49953 6.27882
#
# Compressibility (1/GPa) = 0.01953899
#
# Stress axis : x y z
#
# Youngs Moduli (GPa) = 65.03783 58.91736 76.48094
#
# Poissons Ratio (x) = 0.29037 0.12974
# Poissons Ratio (y) = 0.32054 0.48317
# Poissons Ratio (z) = 0.11033 0.37221
#
# Static dielectric constant tensor:
#      x y z
#    x 3.906350 0.000000 0.001060 
#    y 0.000000 4.231640 0.000000 
#    z 0.001060 0.000000 3.825330 
# 
# 
# High freq. dielectric constant tensor:
#      x y z
#    x 1.825420 0.000000 0.004260 
#    y 0.000000 1.807740 0.000000 
#    z 0.004260 0.000000 1.813240 
# 
# From -- ./inp_files/41681.got.cif
#   From: 2010.06.25/outbox.cif.g09.slc.cpg/sg11_21_cif.got.tgz:41681.got - 2010.06.27 23:14:04.
