data_PCOD8075289
_publ_section_title
;
Structure prediction by ZEFSAII (Michael W. Deem and Ramdas Pophale) SiO2 
 PCOD8075289
Probable space group: P 21/M
;
_chemical_formula_sum "Si O2"
_cell_formula_units_Z 20
_cell_length_a 20.674828
_cell_length_b 8.689368
_cell_length_c 12.710048
_cell_angle_alpha 90.000000
_cell_angle_beta 23.966364
_cell_angle_gamma 90.000000
_cell_volume 927.507632
_symmetry_space_group_name_H-M "P 21/M"
_symmetry_group_IT_number 11
_symmetry_cell_setting 'monoclinic'
loop_
_space_group_symop_operation_xyz
x,y,z
-x,1/2+y,-z
-x,-y,-z
x,1/2-y,z
loop_
_atom_site_type_symbol
_atom_site_label
_atom_site_fract_x
_atom_site_fract_y
_atom_site_fract_z
Si Si1 0.185772 0.917513 0.821529
Si Si2 0.822088 0.067470 0.773498
Si Si3 0.664876 0.929771 0.214510
Si Si4 0.816028 0.917215 0.374262
Si Si5 0.341307 0.068357 0.185715
O O1 0.259754 0.750000 0.740430
O O2 0.212154 0.041393 0.873631
O O3 0.264149 0.972366 0.594300
O O4 0.000548 0.901101 0.077276
O O5 0.838070 0.250000 0.752325
O O6 0.710811 0.016490 0.842574
O O7 0.000000 0.000000 0.500000
O O8 0.732279 0.012626 0.011495
O O9 0.647782 0.750000 0.216544
O O10 0.500000 0.000000 0.500000
O O11 0.733202 0.750000 0.484555
O O12 0.792496 0.972841 0.528580
O O13 0.357456 0.250000 0.139166
O O14 0.500000 0.000000 0.000000
#
# Coordination Sequence:
#
# PCOD8075289 Si02
#       5
#     4   4   4   4   4
#     4  10  20  37  63  93 125 164 212 265 322 388
#     4  12  26  47  73 102 137 181 232 283 343 412
#     4  12  26  44  67  96 133 175 222 276 338 400
#     4   9  20  38  61  89 125 167 212 261 318 386
#     4  11  24  42  65  95 134 177 225 277 334 397
#
# _framework density 21.563165999999999
#
# number of rings (size 3 to 8) (size 9 to 14) (size 15 to 20)
#    0.000    1.200    0.000    6.000    2.800    4.000 
#    0.000    0.000    0.000    0.000    0.000    0.000 
#    0.000    0.000    0.000    0.000    0.000    0.000 
#
# Total GULP energy -247915.560691 kJ/mol
# GULP energy per Si atom -12395.778035 kJ/mol
# Density = 2.151409 g / cm^3
# Si number density = 21.563166 Si / 1000 Ang^3
#
#
#
# Elastic Constant Matrix: (Units=GPa)
#
#
# Indices 1 2 3 4 5 6 
#
# 1 154.6814 67.7952 50.6016 0.0000 18.6595 0.0000
# 2 67.7952 167.5092 58.8398 0.0000 8.9954 0.0000
# 3 50.6016 58.8398 101.2460 0.0000 18.3387 0.0000
# 4 0.0000 0.0000 0.0000 31.9698 0.0000 0.6262
# 5 18.6595 8.9954 18.3387 0.0000 39.7692 0.0000
# 6 0.0000 0.0000 0.0000 0.6262 0.0000 43.6282
#
#
#
# Elastic Compliance Matrix: (Units=1/GPa)
#
#
# Indices 1 2 3 4 5 6 
#
# 1 0.008650 -0.002520 -0.002430 0.000000 -0.002368 0.000000
# 2 -0.002520 0.008240 -0.003716 0.000000 0.001032 0.000000
# 3 -0.002430 -0.003716 0.014067 0.000000 -0.004506 0.000000
# 4 0.000000 0.000000 0.000000 0.031288 0.000000 -0.000449
# 5 -0.002368 0.001032 -0.004506 0.000000 0.028101 0.000000
# 6 0.000000 0.000000 0.000000 -0.000449 0.000000 0.022927
#
#
# Mechanical properties :
#
#
# Convention : Reuss Voigt Hill
#
# Bulk Modulus (GPa) = 73.39391 86.43440 79.91416
# Shear Modulus (GPa) = 36.99701 39.48679 38.24190
#
# Velocity S-wave (km/s) = 4.14666 4.28391 4.21584
# Velocity P-wave (km/s) = 7.55228 8.03993 7.79992
#
# Compressibility (1/GPa) = 0.01362511
#
# Stress axis : x y z
#
# Youngs Moduli (GPa) = 115.60735 121.36416 71.08880
#
# Poissons Ratio (x) = 0.30587 0.17271
# Poissons Ratio (y) = 0.29136 0.26416
# Poissons Ratio (z) = 0.28087 0.45098
#
# Static dielectric constant tensor:
#      x y z
#    x 4.246640 0.000000 0.304340 
#    y 0.000000 4.642530 0.000000 
#    z 0.304340 0.000000 4.027420 
# 
# 
# High freq. dielectric constant tensor:
#      x y z
#    x 1.860080 0.000000 0.012970 
#    y 0.000000 1.860230 0.000000 
#    z 0.012970 0.000000 1.846450 
# 
# From -- ./inp_files/40871.got.cif
#   From: 2010.06.25/outbox.cif.g09.slc.cpg/sg11_21_cif.got.tgz:40871.got - 2010.06.27 23:14:04.
