data_PCOD8075242
_publ_section_title
;
Structure prediction by ZEFSAII (Michael W. Deem and Ramdas Pophale) SiO2 
 PCOD8075242
Probable space group: P 21/M
;
_chemical_formula_sum "Si O2"
_cell_formula_units_Z 32
_cell_length_a 11.997551
_cell_length_b 9.042179
_cell_length_c 15.477875
_cell_angle_alpha 90.000000
_cell_angle_beta 89.196650
_cell_angle_gamma 90.000000
_cell_volume 1678.936803
_symmetry_space_group_name_H-M "P 21/M"
_symmetry_group_IT_number 11
_symmetry_cell_setting 'monoclinic'
loop_
_space_group_symop_operation_xyz
x,y,z
-x,1/2+y,-z
-x,-y,-z
x,1/2-y,z
loop_
_atom_site_type_symbol
_atom_site_label
_atom_site_fract_x
_atom_site_fract_y
_atom_site_fract_z
Si Si1 0.620325 0.075234 0.501758
Si Si2 0.266341 0.082419 0.158851
Si Si3 0.719463 0.924315 0.157982
Si Si4 0.769700 0.077094 0.333744
Si Si5 0.511952 0.082185 0.088148
Si Si6 0.758707 0.578155 0.651323
Si Si7 0.120838 0.426264 0.000594
Si Si8 0.996551 0.083105 0.412424
O O1 0.606124 0.250000 0.514044
O O2 0.684840 0.038474 0.412233
O O3 0.500000 0.000000 0.500000
O O4 0.689842 0.013221 0.581765
O O5 0.225010 0.250000 0.169326
O O6 0.394944 0.073711 0.135994
O O7 0.257905 0.007145 0.253200
O O8 0.188943 0.012539 0.083916
O O9 0.702605 0.750000 0.153141
O O10 0.810850 0.974439 0.085802
O O11 0.750935 0.973150 0.252837
O O12 0.601915 0.001137 0.144753
O O13 0.760321 0.250000 0.308576
O O14 0.893984 0.027491 0.356744
O O15 0.549490 0.250000 0.071531
O O16 0.500000 0.000000 0.000000
O O17 0.720805 0.750000 0.645574
O O18 0.889830 0.560009 0.638972
O O19 0.107826 0.250000 0.003935
O O20 0.000000 0.500000 0.000000
O O21 0.972961 0.250000 0.438443
O O22 0.000000 0.000000 0.500000
#
# Coordination Sequence:
#
# PCOD8075242 Si02
#       8
#     4   4   4   4   4   4   4   4
#     4  11  24  42  61  85 122 160 198 248 300 357
#     4   9  20  39  61  85 118 155 193 241 296 351
#     4  11  24  41  61  90 123 157 202 254 302 351
#     4  10  23  41  61  88 120 159 201 245 302 363
#     4  11  21  39  64  88 120 158 200 250 301 356
#     4  10  21  38  63  90 116 155 199 244 299 357
#     4  10  22  41  61  86 122 160 197 243 295 353
#     4  10  20  37  62  88 116 151 197 245 298 355
#
# _framework density 19.05968
#
# number of rings (size 3 to 8) (size 9 to 14) (size 15 to 20)
#    0.000    1.750    2.500    1.125    3.500    2.500 
#    0.000    1.250    0.000    0.000    0.000    0.000 
#    0.000    0.000    0.000    0.000    0.000    0.000 
#
# Total GULP energy -396722.298993 kJ/mol
# GULP energy per Si atom -12397.571844 kJ/mol
# Density = 1.901630 g / cm^3
# Si number density = 19.059680 Si / 1000 Ang^3
#
#
#
# Elastic Constant Matrix: (Units=GPa)
#
#
# Indices 1 2 3 4 5 6 
#
# 1 127.4085 52.5086 60.9964 0.0000 22.8100 0.0000
# 2 52.5086 75.1103 58.4517 0.0000 7.9438 0.0000
# 3 60.9964 58.4517 161.0445 0.0000 9.8312 0.0000
# 4 0.0000 0.0000 0.0000 28.7945 0.0000 3.6392
# 5 22.8100 7.9438 9.8312 0.0000 30.3980 0.0000
# 6 0.0000 0.0000 0.0000 3.6392 0.0000 33.7364
#
#
#
# Elastic Compliance Matrix: (Units=1/GPa)
#
#
# Indices 1 2 3 4 5 6 
#
# 1 0.012852 -0.006653 -0.002010 0.000000 -0.007255 0.000000
# 2 -0.006653 0.022222 -0.005607 0.000000 0.000998 0.000000
# 3 -0.002010 -0.005607 0.009002 0.000000 0.000062 0.000000
# 4 0.000000 0.000000 0.000000 0.035209 0.000000 -0.003798
# 5 -0.007255 0.000998 0.000062 0.000000 0.038060 0.000000
# 6 0.000000 0.000000 0.000000 -0.003798 0.000000 0.030051
#
#
# Mechanical properties :
#
#
# Convention : Reuss Voigt Hill
#
# Bulk Modulus (GPa) = 64.36424 78.60853 71.48638
# Shear Modulus (GPa) = 27.60676 31.35956 29.48316
#
# Velocity S-wave (km/s) = 3.80996 4.06067 3.93731
# Velocity P-wave (km/s) = 7.29367 7.95728 7.63269
#
# Compressibility (1/GPa) = 0.01553658
#
# Stress axis : x y z
#
# Youngs Moduli (GPa) = 77.80987 44.99947 111.08630
#
# Poissons Ratio (x) = 0.29938 0.22329
# Poissons Ratio (y) = 0.51767 0.62284
# Poissons Ratio (z) = 0.15640 0.25230
#
# Static dielectric constant tensor:
#      x y z
#    x 3.706400 0.000000 0.079780 
#    y 0.000000 3.444730 0.000000 
#    z 0.079780 0.000000 3.598990 
# 
# 
# High freq. dielectric constant tensor:
#      x y z
#    x 1.757450 0.000000 0.002420 
#    y 0.000000 1.727910 0.000000 
#    z 0.002420 0.000000 1.756070 
# 
# From -- ./inp_files/38259.got.cif
#   From: 2010.06.25/outbox.cif.g09.slc.cpg/sg11_20_cif.got.tgz:38259.got - 2010.06.27 23:14:04.
