data_PCOD8075451
_publ_section_title
;
Structure prediction by ZEFSAII (Michael W. Deem and Ramdas Pophale) SiO2 
 PCOD8075451
Probable space group: P 21/M
;
_chemical_formula_sum "Si O2"
_cell_formula_units_Z 28
_cell_length_a 9.011098
_cell_length_b 14.413207
_cell_length_c 18.816123
_cell_angle_alpha 90.000000
_cell_angle_beta 36.430710
_cell_angle_gamma 90.000000
_cell_volume 1451.260582
_symmetry_space_group_name_H-M "P 21/M"
_symmetry_group_IT_number 11
_symmetry_cell_setting 'monoclinic'
loop_
_space_group_symop_operation_xyz
x,y,z
-x,1/2+y,-z
-x,-y,-z
x,1/2-y,z
loop_
_atom_site_type_symbol
_atom_site_label
_atom_site_fract_x
_atom_site_fract_y
_atom_site_fract_z
Si Si1 0.485594 0.644361 0.084592
Si Si2 0.485587 0.144363 0.084598
Si Si3 0.918578 0.358042 0.344190
Si Si4 0.815439 0.999998 0.503686
Si Si5 0.859118 0.500000 0.982190
Si Si6 0.081417 0.358043 0.655815
Si Si7 0.252286 0.500001 0.703736
O O1 0.572089 0.750000 0.051493
O O2 0.212562 0.629959 0.220779
O O3 0.500022 0.602760 0.999990
O O4 0.686429 0.590330 0.053230
O O5 0.572100 0.250000 0.051485
O O6 0.212565 0.129969 0.220790
O O7 0.686428 0.090330 0.053230
O O8 0.838577 0.250000 0.376661
O O9 0.859518 0.406608 0.441572
O O10 0.772264 0.408512 0.336376
O O11 0.859535 0.906605 0.441565
O O12 0.522377 0.999995 0.638267
O O13 0.000000 0.000000 0.500000
O O14 0.041521 0.499998 0.844600
O O15 0.000000 0.500000 0.000000
O O16 0.161401 0.250000 0.623351
O O17 0.227756 0.408515 0.663615
#
# Coordination Sequence:
#
# PCOD8075451 Si02
#       7
#     4   4   4   4   4   4   4
#     4  10  20  38  63  90 117 151 197 242 288 352
#     4  10  20  38  63  90 117 151 197 242 288 352
#     4  10  21  41  67  87 113 156 202 246 289 341
#     4  11  26  41  59  87 125 152 196 245 297 354
#     4  12  24  35  60  90 128 160 184 236 307 350
#     4  10  21  41  67  87 113 156 202 246 289 341
#     4  11  23  39  60  90 116 156 203 245 281 351
#
# _framework density 19.293571
#
# number of rings (size 3 to 8) (size 9 to 14) (size 15 to 20)
#    0.000    1.429    2.857    3.857    4.000    3.429 
#    0.000    0.000    0.000    0.000    0.000    0.000 
#    0.000    0.000    0.000    0.000    0.000    0.000 
#
# Total GULP energy -347212.652455 kJ/mol
# GULP energy per Si atom -12400.451873 kJ/mol
# Density = 1.924966 g / cm^3
# Si number density = 19.293571 Si / 1000 Ang^3
#
#
#
# Elastic Constant Matrix: (Units=GPa)
#
#
# Indices 1 2 3 4 5 6 
#
# 1 150.3350 58.7761 28.6224 0.0000 -13.8643 0.0000
# 2 58.7761 139.6685 34.5974 0.0000 -7.9403 0.0000
# 3 28.6224 34.5974 69.1488 0.0000 -14.0263 0.0000
# 4 0.0000 0.0000 0.0000 65.7372 0.0000 -39.0880
# 5 -13.8643 -7.9403 -14.0263 0.0000 32.1620 0.0000
# 6 0.0000 0.0000 0.0000 -39.0880 0.0000 43.0237
#
#
#
# Elastic Compliance Matrix: (Units=1/GPa)
#
#
# Indices 1 2 3 4 5 6 
#
# 1 0.008312 -0.003004 -0.001494 0.000000 0.002190 0.000000
# 2 -0.003004 0.009260 -0.003498 0.000000 -0.000534 0.000000
# 3 -0.001494 -0.003498 0.018128 0.000000 0.006398 0.000000
# 4 0.000000 0.000000 0.000000 0.033085 0.000000 0.030059
# 5 0.002190 -0.000534 0.006398 0.000000 0.034695 0.000000
# 6 0.000000 0.000000 0.000000 0.030059 0.000000 0.050552
#
#
# Mechanical properties :
#
#
# Convention : Reuss Voigt Hill
#
# Bulk Modulus (GPa) = 50.73678 67.01601 58.87640
# Shear Modulus (GPa) = 28.31355 43.99501 36.15428
#
# Velocity S-wave (km/s) = 3.83497 4.78042 4.33356
# Velocity P-wave (km/s) = 6.77965 8.07962 7.45801
#
# Compressibility (1/GPa) = 0.01970957
#
# Stress axis : x y z
#
# Youngs Moduli (GPa) = 120.30076 107.99186 55.16357
#
# Poissons Ratio (x) = 0.32436 0.08239
# Poissons Ratio (y) = 0.36134 0.19297
# Poissons Ratio (z) = 0.17969 0.37777
#
# Static dielectric constant tensor:
#      x y z
#    x 3.340790 0.000000 -0.272740 
#    y 0.000000 4.402640 0.000000 
#    z -0.272740 0.000000 3.301160 
# 
# 
# High freq. dielectric constant tensor:
#      x y z
#    x 1.737540 0.000000 -0.015950 
#    y 0.000000 1.762120 0.000000 
#    z -0.015950 0.000000 1.762800 
# 
# From -- ./inp_files/58117.got.cif
#   From: 2010.06.25/outbox.cif.g09.slc.cpg/sg11_30_cif.got.tgz:58117.got - 2010.06.27 23:14:04.
