data_PCOD8075952
_publ_section_title
;
Structure prediction by ZEFSAII (Michael W. Deem and Ramdas Pophale) SiO2 
 PCOD8075952
Probable space group: P 21/M
;
_chemical_formula_sum "Si O2"
_cell_formula_units_Z 32
_cell_length_a 14.031575
_cell_length_b 9.310689
_cell_length_c 20.215880
_cell_angle_alpha 90.000000
_cell_angle_beta 136.085215
_cell_angle_gamma 90.000000
_cell_volume 1831.817914
_symmetry_space_group_name_H-M "P 21/M"
_symmetry_group_IT_number 11
_symmetry_cell_setting 'monoclinic'
loop_
_space_group_symop_operation_xyz
x,y,z
-x,1/2+y,-z
-x,-y,-z
x,1/2-y,z
loop_
_atom_site_type_symbol
_atom_site_label
_atom_site_fract_x
_atom_site_fract_y
_atom_site_fract_z
Si Si1 0.073187 0.085089 0.711444
Si Si2 0.629976 0.583843 0.945942
Si Si3 0.370682 0.415224 0.664682
Si Si4 0.929969 0.580704 0.525785
Si Si5 0.629976 0.583843 0.184033
Si Si6 0.926813 0.914911 0.138257
Si Si7 0.629317 0.584776 0.793999
Si Si8 0.929969 0.919296 0.904184
O O1 0.054419 0.250000 0.677830
O O2 0.233490 0.042659 0.787772
O O3 0.022773 0.066281 0.761386
O O4 0.984679 0.979251 0.622279
O O5 0.595094 0.750000 0.935397
O O6 0.500000 0.500000 0.911245
O O7 0.655236 0.538049 0.882659
O O8 0.766511 0.542658 0.054283
O O9 0.410192 0.250000 0.679861
O O10 0.232861 0.449904 0.555392
O O11 0.344764 0.461951 0.727423
O O12 0.500000 0.500000 0.698524
O O13 0.960923 0.750000 0.534840
O O14 0.000000 0.500000 0.500000
O O15 0.595094 0.750000 0.159697
O O16 0.945581 0.750000 0.123410
O O17 0.015321 0.020749 0.137600
O O18 0.589808 0.750000 0.769669
O O19 0.767139 0.550096 0.822531
O O20 0.960923 0.750000 0.926083
O O21 0.000000 0.000000 0.000000
#
# Coordination Sequence:
#
# PCOD8075952 Si02
#       8
#     4   4   4   4   4   4   4   4
#     4  10  21  37  54  75 108 146 180 218 266 316
#     4   9  17  31  48  72 105 140 177 214 256 308
#     4   9  18  32  51  77 106 134 169 216 265 311
#     4  11  21  35  56  81 108 138 178 222 265 313
#     4   9  17  31  48  72 105 140 177 214 256 308
#     4  10  21  37  54  75 108 146 180 218 266 316
#     4   9  18  32  51  77 106 134 169 216 265 311
#     4  11  21  35  56  81 108 138 178 222 265 313
#
# _framework density 17.468986000000001
#
# number of rings (size 3 to 8) (size 9 to 14) (size 15 to 20)
#    0.000    2.250    2.500    0.750    0.000    4.000 
#    0.000    0.000    0.000    0.750    0.000    0.000 
#    0.000    0.000    0.000    0.000    0.000    0.000 
#
# Total GULP energy -396827.500704 kJ/mol
# GULP energy per Si atom -12400.859397 kJ/mol
# Density = 1.742923 g / cm^3
# Si number density = 17.468986 Si / 1000 Ang^3
#
#
#
# Elastic Constant Matrix: (Units=GPa)
#
#
# Indices 1 2 3 4 5 6 
#
# 1 90.5758 56.2791 47.6214 0.0000 9.3794 0.0000
# 2 56.2791 88.4336 58.0920 0.0000 12.1753 0.0000
# 3 47.6214 58.0920 93.3965 0.0000 9.5679 0.0000
# 4 0.0000 0.0000 0.0000 30.7805 0.0000 6.9204
# 5 9.3794 12.1753 9.5679 0.0000 23.4421 0.0000
# 6 0.0000 0.0000 0.0000 6.9204 0.0000 29.7502
#
#
#
# Elastic Compliance Matrix: (Units=1/GPa)
#
#
# Indices 1 2 3 4 5 6 
#
# 1 0.019003 -0.009548 -0.003631 0.000000 -0.001162 0.000000
# 2 -0.009548 0.024569 -0.009912 0.000000 -0.004895 0.000000
# 3 -0.003631 -0.009912 0.018835 0.000000 -0.001086 0.000000
# 4 0.000000 0.000000 0.000000 0.034281 0.000000 -0.007974
# 5 -0.001162 -0.004895 -0.001086 0.000000 0.046109 0.000000
# 6 0.000000 0.000000 0.000000 -0.007974 0.000000 0.035468
#
#
# Mechanical properties :
#
#
# Convention : Reuss Voigt Hill
#
# Bulk Modulus (GPa) = 61.63575 66.26566 63.95071
# Shear Modulus (GPa) = 21.75270 24.15546 22.95408
#
# Velocity S-wave (km/s) = 3.53259 3.72259 3.62883
# Velocity P-wave (km/s) = 7.21100 7.51615 7.36516
#
# Compressibility (1/GPa) = 0.01622435
#
# Stress axis : x y z
#
# Youngs Moduli (GPa) = 52.62452 40.70102 53.09176
#
# Poissons Ratio (x) = 0.38860 0.19280
# Poissons Ratio (y) = 0.50245 0.52626
# Poissons Ratio (z) = 0.19110 0.40344
#
# Static dielectric constant tensor:
#      x y z
#    x 3.184710 0.000000 0.163260 
#    y 0.000000 3.327600 0.000000 
#    z 0.163260 0.000000 3.209000 
# 
# 
# High freq. dielectric constant tensor:
#      x y z
#    x 1.661310 0.000000 0.014630 
#    y 0.000000 1.676450 0.000000 
#    z 0.014630 0.000000 1.663490 
# 
# From -- ./inp_files/65254.got.cif
#   From: 2010.06.25/outbox.cif.g09.slc.cpg/sg11_33_cif.got.tgz:65254.got - 2010.06.27 23:14:04.
