data_PCOD8075160
_publ_section_title
;
Structure prediction by ZEFSAII (Michael W. Deem and Ramdas Pophale) SiO2 
 PCOD8075160
Probable space group: P 21/M
;
_chemical_formula_sum "Si O2"
_cell_formula_units_Z 32
_cell_length_a 24.799625
_cell_length_b 8.839952
_cell_length_c 15.193215
_cell_angle_alpha 90.000000
_cell_angle_beta 27.496555
_cell_angle_gamma 90.000000
_cell_volume 1537.800998
_symmetry_space_group_name_H-M "P 21/M"
_symmetry_group_IT_number 11
_symmetry_cell_setting 'monoclinic'
loop_
_space_group_symop_operation_xyz
x,y,z
-x,1/2+y,-z
-x,-y,-z
x,1/2-y,z
loop_
_atom_site_type_symbol
_atom_site_label
_atom_site_fract_x
_atom_site_fract_y
_atom_site_fract_z
Si Si1 0.908550 0.070748 0.701004
Si Si2 0.676815 0.926305 0.970430
Si Si3 0.987844 0.570760 0.112416
Si Si4 0.867904 0.928060 0.942038
Si Si5 0.384651 0.425962 0.628386
Si Si6 0.388206 0.079493 0.124596
Si Si7 0.419230 0.924039 0.400149
Si Si8 0.271604 0.420920 0.470451
O O1 0.925698 0.250000 0.676569
O O2 0.777030 0.027868 0.866626
O O3 0.928784 0.007765 0.770218
O O4 0.000000 0.000000 0.500000
O O5 0.715317 0.750000 0.915491
O O6 0.658359 0.991187 0.898619
O O7 0.558501 0.949837 0.197014
O O8 0.008551 0.750000 0.080740
O O9 0.079104 0.494558 0.045704
O O10 0.859005 0.523962 0.327972
O O11 0.000000 0.500000 0.000000
O O12 0.892571 0.750000 0.900912
O O13 0.728360 0.960474 0.147366
O O14 0.500000 0.500000 0.500000
O O15 0.408745 0.250000 0.588815
O O16 0.361085 0.484586 0.563913
O O17 0.425555 0.250000 0.048764
O O18 0.287813 0.067723 0.342378
O O19 0.500000 0.000000 0.000000
O O20 0.389166 0.750000 0.458454
O O21 0.363319 0.974768 0.388936
O O22 0.290734 0.250000 0.476600
#
# Coordination Sequence:
#
# PCOD8075160 Si02
#       8
#     4   4   4   4   4   4   4   4
#     4  12  27  46  69  96 126 168 217 267 322 385
#     4  10  22  40  62  91 129 167 209 264 320 374
#     4  11  24  42  65  95 129 172 219 268 324 384
#     4  11  25  46  68  95 130 169 215 271 324 382
#     4  11  24  41  64  92 125 161 204 257 315 377
#     4  10  20  37  60  89 126 165 205 258 314 372
#     4  11  22  37  61  93 127 164 205 255 312 375
#     4  10  22  38  59  88 123 163 207 253 311 377
#
# _framework density 20.808935000000002
#
# number of rings (size 3 to 8) (size 9 to 14) (size 15 to 20)
#    0.000    1.250    1.250    4.125    1.750   10.500 
#    0.000    0.000    0.000    0.000    0.000    0.000 
#    0.000    0.000    0.000    0.000    0.000    0.000 
#
# Total GULP energy -396910.665150 kJ/mol
# GULP energy per Si atom -12403.458286 kJ/mol
# Density = 2.076157 g / cm^3
# Si number density = 20.808935 Si / 1000 Ang^3
#
#
#
# Elastic Constant Matrix: (Units=GPa)
#
#
# Indices 1 2 3 4 5 6 
#
# 1 110.2391 48.5572 29.4418 0.0000 8.1049 0.0000
# 2 48.5572 118.4355 59.2508 0.0000 0.7400 0.0000
# 3 29.4418 59.2508 106.2122 0.0000 6.5845 0.0000
# 4 0.0000 0.0000 0.0000 33.2717 0.0000 0.6209
# 5 8.1049 0.7400 6.5845 0.0000 40.3056 0.0000
# 6 0.0000 0.0000 0.0000 0.6209 0.0000 37.7602
#
#
#
# Elastic Compliance Matrix: (Units=1/GPa)
#
#
# Indices 1 2 3 4 5 6 
#
# 1 0.011285 -0.004319 -0.000589 0.000000 -0.002094 0.000000
# 2 -0.004319 0.013395 -0.006378 0.000000 0.001665 0.000000
# 3 -0.000589 -0.006378 0.013256 0.000000 -0.001930 0.000000
# 4 0.000000 0.000000 0.000000 0.030065 0.000000 -0.000494
# 5 -0.002094 0.001665 -0.001930 0.000000 0.025516 0.000000
# 6 0.000000 0.000000 0.000000 -0.000494 0.000000 0.026491
#
#
# Mechanical properties :
#
#
# Convention : Reuss Voigt Hill
#
# Bulk Modulus (GPa) = 65.09027 67.70961 66.39994
# Shear Modulus (GPa) = 33.85221 35.44330 34.64776
#
# Velocity S-wave (km/s) = 4.03775 4.13155 4.08492
# Velocity P-wave (km/s) = 7.28600 7.44103 7.36392
#
# Compressibility (1/GPa) = 0.01536328
#
# Stress axis : x y z
#
# Youngs Moduli (GPa) = 88.61498 74.65696 75.43667
#
# Poissons Ratio (x) = 0.32243 0.04443
# Poissons Ratio (y) = 0.38272 0.48115
# Poissons Ratio (z) = 0.05220 0.47618
#
# Static dielectric constant tensor:
#      x y z
#    x 3.946000 0.000000 0.318640 
#    y 0.000000 3.750490 0.000000 
#    z 0.318640 0.000000 4.258060 
# 
# 
# High freq. dielectric constant tensor:
#      x y z
#    x 1.825940 0.000000 0.008710 
#    y 0.000000 1.815250 0.000000 
#    z 0.008710 0.000000 1.826590 
# 
# From -- ./inp_files/55635.got.cif
#   From: 2010.06.25/outbox.cif.g09.slc.cpg/sg11_28_cif.got.tgz:55635.got - 2010.06.27 23:14:04.
