data_PCOD8075235
_publ_section_title
;
Structure prediction by ZEFSAII (Michael W. Deem and Ramdas Pophale) SiO2 
 PCOD8075235
Probable space group: P 21/M
;
_chemical_formula_sum "Si O2"
_cell_formula_units_Z 28
_cell_length_a 19.579485
_cell_length_b 14.150713
_cell_length_c 5.657921
_cell_angle_alpha 90.000000
_cell_angle_beta 53.964489
_cell_angle_gamma 90.000000
_cell_volume 1267.647257
_symmetry_space_group_name_H-M "P 21/M"
_symmetry_group_IT_number 11
_symmetry_cell_setting 'monoclinic'
loop_
_space_group_symop_operation_xyz
x,y,z
-x,1/2+y,-z
-x,-y,-z
x,1/2-y,z
loop_
_atom_site_type_symbol
_atom_site_label
_atom_site_fract_x
_atom_site_fract_y
_atom_site_fract_z
Si Si1 0.909634 0.025050 0.423913
Si Si2 0.430485 0.861274 0.693965
Si Si3 0.502916 0.642126 0.045273
Si Si4 0.818851 0.567300 0.230318
Si Si5 0.269909 0.526700 0.971089
Si Si6 0.045297 0.356782 0.356944
Si Si7 0.684417 0.644756 0.831829
O O1 0.968753 0.116620 0.333737
O O2 0.893289 0.999352 0.184402
O O3 0.956360 0.931480 0.428101
O O4 0.818099 0.046996 0.720347
O O5 0.445678 0.750000 0.671579
O O6 0.472677 0.902023 0.363075
O O7 0.330875 0.884048 0.880294
O O8 0.466374 0.904408 0.873815
O O9 0.472380 0.750000 0.109851
O O10 0.604078 0.632071 0.823398
O O11 0.750643 0.494664 0.260036
O O12 0.772394 0.632992 0.513737
O O13 0.862646 0.636040 0.952088
O O14 0.319082 0.433012 0.957673
O O15 0.032417 0.250000 0.474874
O O16 0.682974 0.750000 0.947734
#
# Coordination Sequence:
#
# PCOD8075235 Si02
#       7
#     4   4   4   4   4   4   4
#     4   9  21  39  55  84 122 146 186 250 292 352
#     4  10  22  41  62  87 123 165 208 258 308 360
#     4   9  21  39  61  87 122 163 209 259 308 356
#     4  10  21  37  56  85 118 154 190 244 298 357
#     4  10  23  37  59  86 118 157 200 244 302 364
#     4  10  20  37  62  85 110 152 193 234 296 365
#     4  10  22  38  57  85 120 157 198 251 304 359
#
# _framework density 22.088162000000001
#
# number of rings (size 3 to 8) (size 9 to 14) (size 15 to 20)
#    0.000    2.286    0.000    0.857    6.000    8.000 
#    0.000    0.714    0.000    0.000    0.000    0.000 
#    0.000    0.000    0.000    0.000    0.000    0.000 
#
# Total GULP energy -346945.785333 kJ/mol
# GULP energy per Si atom -12390.920905 kJ/mol
# Density = 2.203789 g / cm^3
# Si number density = 22.088162 Si / 1000 Ang^3
#
#
#
# Elastic Constant Matrix: (Units=GPa)
#
#
# Indices 1 2 3 4 5 6 
#
# 1 129.0476 22.6683 23.0430 0.0000 12.5741 0.0000
# 2 22.6683 27.0852 19.5972 0.0000 4.3111 0.0000
# 3 23.0430 19.5972 68.1278 0.0000 10.6786 0.0000
# 4 0.0000 0.0000 0.0000 18.2845 0.0000 -8.8353
# 5 12.5741 4.3111 10.6786 0.0000 39.9822 0.0000
# 6 0.0000 0.0000 0.0000 -8.8353 0.0000 29.4059
#
#
#
# Elastic Compliance Matrix: (Units=1/GPa)
#
#
# Indices 1 2 3 4 5 6 
#
# 1 0.009296 -0.006839 -0.000871 0.000000 -0.001954 0.000000
# 2 -0.006839 0.051743 -0.012559 0.000000 -0.000074 0.000000
# 3 -0.000871 -0.012559 0.019131 0.000000 -0.003482 0.000000
# 4 0.000000 0.000000 0.000000 0.063980 0.000000 0.019223
# 5 -0.001954 -0.000074 -0.003482 0.000000 0.026563 0.000000
# 6 0.000000 0.000000 0.000000 0.019223 0.000000 0.039783
#
#
# Mechanical properties :
#
#
# Convention : Reuss Voigt Hill
#
# Bulk Modulus (GPa) = 25.23198 39.43083 32.33140
# Shear Modulus (GPa) = 18.92172 28.13134 23.52653
#
# Velocity S-wave (km/s) = 2.93003 3.57262 3.26716
# Velocity P-wave (km/s) = 4.78485 5.90834 5.37602
#
# Compressibility (1/GPa) = 0.03963225
#
# Stress axis : x y z
#
# Youngs Moduli (GPa) = 107.56965 19.32611 52.27049
#
# Poissons Ratio (x) = 0.13218 0.04551
# Poissons Ratio (y) = 0.73571 0.65648
# Poissons Ratio (z) = 0.09366 0.24272
#
# Static dielectric constant tensor:
#      x y z
#    x 4.336810 0.000000 0.173280 
#    y 0.000000 3.632040 0.000000 
#    z 0.173280 0.000000 3.920740 
# 
# 
# High freq. dielectric constant tensor:
#      x y z
#    x 1.887380 0.000000 -0.001760 
#    y 0.000000 1.839050 0.000000 
#    z -0.001760 0.000000 1.859410 
# 
# From -- ./inp_files/8001.got.cif
#   From: 2010.06.25/outbox.cif.g09.slc.cpg/sg11_5_cif.got.tgz:8001.got - 2010.06.27 23:14:04.
