data_PCOD8075712
_publ_section_title
;
Structure prediction by ZEFSAII (Michael W. Deem and Ramdas Pophale) SiO2 
 PCOD8075712
Probable space group: P 21/M
;
_chemical_formula_sum "Si O2"
_cell_formula_units_Z 28
_cell_length_a 16.270478
_cell_length_b 8.690494
_cell_length_c 12.303079
_cell_angle_alpha 90.000000
_cell_angle_beta 124.017201
_cell_angle_gamma 90.000000
_cell_volume 1441.932168
_symmetry_space_group_name_H-M "P 21/M"
_symmetry_group_IT_number 11
_symmetry_cell_setting 'monoclinic'
loop_
_space_group_symop_operation_xyz
x,y,z
-x,1/2+y,-z
-x,-y,-z
x,1/2-y,z
loop_
_atom_site_type_symbol
_atom_site_label
_atom_site_fract_x
_atom_site_fract_y
_atom_site_fract_z
Si Si1 0.932603 0.926296 0.540794
Si Si2 0.408278 0.071225 0.801644
Si Si3 0.011375 0.574404 0.837960
Si Si4 0.366085 0.928438 0.993695
Si Si5 0.734500 0.430275 0.465084
Si Si6 0.216058 0.070739 0.048436
Si Si7 0.189067 0.569553 0.246830
O O1 0.907502 0.750000 0.493925
O O2 0.991659 0.939963 0.696097
O O3 0.831207 0.021561 0.469110
O O4 0.000000 0.000000 0.500000
O O5 0.389500 0.250000 0.809385
O O6 0.357571 0.976976 0.861755
O O7 0.360479 0.019003 0.652531
O O8 0.524638 0.034382 0.880498
O O9 0.033615 0.750000 0.888620
O O10 0.916638 0.515658 0.834719
O O11 0.104429 0.469373 0.933615
O O12 0.338773 0.750000 0.983588
O O13 0.288795 0.025278 0.005614
O O14 0.716951 0.250000 0.439701
O O15 0.747244 0.479699 0.600494
O O16 0.225427 0.250000 0.078095
O O17 0.247797 0.981030 0.182144
O O18 0.169057 0.750000 0.234315
#
# Coordination Sequence:
#
# PCOD8075712 Si02
#       7
#     4   4   4   4   4   4   4
#     4  10  21  35  53  79 114 150 190 235 279 335
#     4  10  21  39  63  88 115 148 186 233 288 343
#     4  10  21  37  56  80 113 154 193 233 284 335
#     4  10  22  40  61  86 116 148 188 236 284 339
#     4  10  21  37  60  84 112 151 189 230 285 342
#     4  12  24  37  58  85 115 151 193 239 286 335
#     4  10  21  39  59  83 115 152 194 236 281 337
#
# _framework density 19.418389000000001
#
# number of rings (size 3 to 8) (size 9 to 14) (size 15 to 20)
#    0.000    1.714    0.000    4.286    2.000    5.143 
#    0.000    0.714    0.000    0.000    0.000    0.000 
#    0.000    0.000    0.000    0.000    0.000    0.000 
#
# Total GULP energy -347355.751840 kJ/mol
# GULP energy per Si atom -12405.562566 kJ/mol
# Density = 1.937419 g / cm^3
# Si number density = 19.418389 Si / 1000 Ang^3
#
#
#
# Elastic Constant Matrix: (Units=GPa)
#
#
# Indices 1 2 3 4 5 6 
#
# 1 58.0827 17.8497 32.9782 0.0000 -9.1027 0.0000
# 2 17.8497 66.8355 27.7450 0.0000 0.3094 0.0000
# 3 32.9782 27.7450 95.6117 0.0000 11.4465 0.0000
# 4 0.0000 0.0000 0.0000 33.3892 0.0000 -1.9797
# 5 -9.1027 0.3094 11.4465 0.0000 19.4048 0.0000
# 6 0.0000 0.0000 0.0000 -1.9797 0.0000 31.5083
#
#
#
# Elastic Compliance Matrix: (Units=1/GPa)
#
#
# Indices 1 2 3 4 5 6 
#
# 1 0.027304 -0.002858 -0.010897 0.000000 0.019281 0.000000
# 2 -0.002858 0.017457 -0.004182 0.000000 0.000848 0.000000
# 3 -0.010897 -0.004182 0.017253 0.000000 -0.015222 0.000000
# 4 0.000000 0.000000 0.000000 0.030062 0.000000 0.001889
# 5 0.019281 0.000848 -0.015222 0.000000 0.069544 0.000000
# 6 0.000000 0.000000 0.000000 0.001889 0.000000 0.031856
#
#
# Mechanical properties :
#
#
# Convention : Reuss Voigt Hill
#
# Bulk Modulus (GPa) = 38.25228 41.96394 40.10811
# Shear Modulus (GPa) = 21.00290 26.32425 23.66358
#
# Velocity S-wave (km/s) = 3.29233 3.68589 3.49466
# Velocity P-wave (km/s) = 5.84760 6.30648 6.08137
#
# Compressibility (1/GPa) = 0.02614223
#
# Stress axis : x y z
#
# Youngs Moduli (GPa) = 36.62514 57.28266 57.96027
#
# Poissons Ratio (x) = 0.16370 0.63157
# Poissons Ratio (y) = 0.10467 0.24237
# Poissons Ratio (z) = 0.39909 0.23953
#
# Static dielectric constant tensor:
#      x y z
#    x 3.412300 0.000000 -0.078910 
#    y 0.000000 3.656030 0.000000 
#    z -0.078910 0.000000 3.696980 
# 
# 
# High freq. dielectric constant tensor:
#      x y z
#    x 1.742470 0.000000 -0.007990 
#    y 0.000000 1.772020 0.000000 
#    z -0.007990 0.000000 1.763790 
# 
# From -- ./inp_files/38465.got.cif
#   From: 2010.06.25/outbox.cif.g09.slc.cpg/sg11_20_cif.got.tgz:38465.got - 2010.06.27 23:14:04.
