data_PCOD8075903
_publ_section_title
;
Structure prediction by ZEFSAII (Michael W. Deem and Ramdas Pophale) SiO2 
 PCOD8075903
Probable space group: P 21/M
;
_chemical_formula_sum "Si O2"
_cell_formula_units_Z 32
_cell_length_a 18.352160
_cell_length_b 14.308613
_cell_length_c 5.321517
_cell_angle_alpha 90.000000
_cell_angle_beta 83.215768
_cell_angle_gamma 90.000000
_cell_volume 1387.613692
_symmetry_space_group_name_H-M "P 21/M"
_symmetry_group_IT_number 11
_symmetry_cell_setting 'monoclinic'
loop_
_space_group_symop_operation_xyz
x,y,z
-x,1/2+y,-z
-x,-y,-z
x,1/2-y,z
loop_
_atom_site_type_symbol
_atom_site_label
_atom_site_fract_x
_atom_site_fract_y
_atom_site_fract_z
Si Si1 0.801411 0.639295 0.951904
Si Si2 0.394594 0.848966 0.817306
Si Si3 0.730713 0.352672 0.486879
Si Si4 0.472122 0.049111 0.262469
Si Si5 0.886231 0.860137 0.409601
Si Si6 0.873791 0.142377 0.164369
Si Si7 0.320314 0.007168 0.161415
Si Si8 0.051374 0.638000 0.364594
O O1 0.786632 0.750000 0.975383
O O2 0.847011 0.612925 0.685002
O O3 0.723459 0.586684 0.970798
O O4 0.842891 0.600472 0.183398
O O5 0.376390 0.750000 0.963230
O O6 0.353671 0.847986 0.565226
O O7 0.482988 0.852812 0.747311
O O8 0.365120 0.939516 0.964820
O O9 0.752627 0.250000 0.598126
O O10 0.785842 0.370989 0.228860
O O11 0.737597 0.441020 0.668249
O O12 0.500000 0.000000 0.500000
O O13 0.383252 0.059189 0.304266
O O14 0.500000 0.000000 0.000000
O O15 0.890220 0.750000 0.375629
O O16 0.968535 0.900552 0.379757
O O17 0.897178 0.250000 0.146386
O O18 0.912180 0.096833 0.395659
O O19 0.902505 0.097408 0.892345
O O20 0.053603 0.750000 0.369801
#
# Coordination Sequence:
#
# PCOD8075903 Si02
#       8
#     4   4   4   4   4   4   4   4
#     4  10  22  37  60  90 119 156 208 260 311 368
#     4  10  22  40  64  94 125 166 208 249 302 367
#     4  10  21  36  58  89 126 163 205 249 299 366
#     4  10  21  40  61  87 118 156 199 244 289 349
#     4   9  18  35  58  85 115 155 208 261 309 365
#     4   9  18  29  49  82 115 152 198 248 299 358
#     4  11  23  38  65  87 130 163 206 247 314 360
#     4   9  16  30  53  80 113 153 201 251 303 359
#
# _framework density 23.061171000000002
#
# number of rings (size 3 to 8) (size 9 to 14) (size 15 to 20)
#    0.000    2.250    1.250    1.125    3.500    3.500 
#    0.000    0.000    0.000    5.250    0.000    0.000 
#    0.000    0.000    0.000    0.000    0.000    0.000 
#
# Total GULP energy -396447.827744 kJ/mol
# GULP energy per Si atom -12388.994617 kJ/mol
# Density = 2.300868 g / cm^3
# Si number density = 23.061171 Si / 1000 Ang^3
#
#
#
# Elastic Constant Matrix: (Units=GPa)
#
#
# Indices 1 2 3 4 5 6 
#
# 1 135.4664 36.8796 35.7677 0.0000 14.7373 0.0000
# 2 36.8796 52.4888 18.7699 0.0000 -1.2391 0.0000
# 3 35.7677 18.7699 132.6753 0.0000 9.2570 0.0000
# 4 0.0000 0.0000 0.0000 17.5555 0.0000 1.8051
# 5 14.7373 -1.2391 9.2570 0.0000 37.6966 0.0000
# 6 0.0000 0.0000 0.0000 1.8051 0.0000 -19.4099
#
#
#
# Elastic Compliance Matrix: (Units=1/GPa)
#
#
# Indices 1 2 3 4 5 6 
#
# 1 0.009970 -0.006558 -0.001499 0.000000 -0.003745 0.000000
# 2 -0.006558 0.024451 -0.001960 0.000000 0.003849 0.000000
# 3 -0.001499 -0.001960 0.008325 0.000000 -0.001523 0.000000
# 4 0.000000 0.000000 0.000000 0.056423 0.000000 0.005247
# 5 -0.003745 0.003849 -0.001523 0.000000 0.028492 0.000000
# 6 0.000000 0.000000 0.000000 0.005247 0.000000 -0.051032
#
#
# Mechanical properties :
#
#
# Convention : Reuss Voigt Hill
#
# Bulk Modulus (GPa) = 44.02703 55.94054 49.98378
# Shear Modulus (GPa) = 47.96944 22.44932 35.20938
#
# Velocity S-wave (km/s) = 4.56575 3.12343 3.91164
# Velocity P-wave (km/s) = 6.85038 6.10884 6.49021
#
# Compressibility (1/GPa) = 0.02271332
#
# Stress axis : x y z
#
# Youngs Moduli (GPa) = 100.29669 40.89814 120.12354
#
# Poissons Ratio (x) = 0.26820 0.18004
# Poissons Ratio (y) = 0.65773 0.23541
# Poissons Ratio (z) = 0.15033 0.08015
#
# Static dielectric constant tensor:
#      x y z
#    x 4.641730 0.000000 0.160180 
#    y 0.000000 4.072550 0.000000 
#    z 0.160180 0.000000 4.177180 
# 
# 
# High freq. dielectric constant tensor:
#      x y z
#    x 1.918930 0.000000 0.007670 
#    y 0.000000 1.889230 0.000000 
#    z 0.007670 0.000000 1.906110 
# 
# From -- ./inp_files/8103.got.cif
#   From: 2010.06.25/outbox.cif.g09.slc.cpg/sg11_5_cif.got.tgz:8103.got - 2010.06.27 23:14:04.
