data_PCOD8075237
_publ_section_title
;
Structure prediction by ZEFSAII (Michael W. Deem and Ramdas Pophale) SiO2 
 PCOD8075237
Probable space group: P 21/M
;
_chemical_formula_sum "Si O2"
_cell_formula_units_Z 32
_cell_length_a 12.903050
_cell_length_b 8.676593
_cell_length_c 30.258883
_cell_angle_alpha 90.000000
_cell_angle_beta 152.201206
_cell_angle_gamma 90.000000
_cell_volume 1579.876945
_symmetry_space_group_name_H-M "P 21/M"
_symmetry_group_IT_number 11
_symmetry_cell_setting 'monoclinic'
loop_
_space_group_symop_operation_xyz
x,y,z
-x,1/2+y,-z
-x,-y,-z
x,1/2-y,z
loop_
_atom_site_type_symbol
_atom_site_label
_atom_site_fract_x
_atom_site_fract_y
_atom_site_fract_z
Si Si1 0.207267 0.066940 0.552317
Si Si2 0.913658 0.932965 0.106450
Si Si3 0.056150 0.926728 0.408063
Si Si4 0.478127 0.930770 0.891358
Si Si5 0.259885 0.431441 0.401317
Si Si6 0.545187 0.926323 0.210528
Si Si7 0.065038 0.068079 0.785440
Si Si8 0.636063 0.066938 0.766008
O O1 0.193388 0.250000 0.547827
O O2 0.433478 0.004682 0.659786
O O3 0.205778 0.006622 0.501714
O O4 0.000000 0.000000 0.500000
O O5 0.924705 0.750000 0.109543
O O6 0.898202 0.992422 0.150924
O O7 0.133377 0.001720 0.165743
O O8 0.697877 0.991556 0.998981
O O9 0.131450 0.750000 0.431236
O O10 0.797743 0.939711 0.322901
O O11 0.091458 0.015259 0.375727
O O12 0.439319 0.750000 0.884083
O O13 0.505182 0.964511 0.849754
O O14 0.271832 0.022710 0.833139
O O15 0.500000 0.500000 0.500000
O O16 0.276956 0.250000 0.406714
O O17 0.160949 0.491352 0.317707
O O18 0.492646 0.750000 0.177369
O O19 0.392851 0.983857 0.193804
O O20 0.033970 0.250000 0.772108
O O21 0.635439 0.250000 0.763273
#
# Coordination Sequence:
#
# PCOD8075237 Si02
#       8
#     4   4   4   4   4   4   4   4
#     4  11  21  35  59  87 119 162 207 251 303 364
#     4   9  21  39  61  88 120 158 203 256 313 369
#     4  11  22  39  60  89 124 160 204 251 303 368
#     4  11  22  38  62  91 119 155 206 259 309 367
#     4  12  26  43  63  92 126 163 201 248 306 365
#     4  10  20  37  62  87 120 162 202 248 306 369
#     4  11  22  40  65  91 122 162 205 252 307 368
#     4   9  19  38  59  85 120 161 202 246 306 370
#
# _framework density 20.254740999999999
#
# number of rings (size 3 to 8) (size 9 to 14) (size 15 to 20)
#    0.000    1.500    2.500    3.000    1.750    1.000 
#    0.000    1.875    0.000    5.250    0.000    0.000 
#    0.000    0.000    0.000    0.000    0.000    0.000 
#
# Total GULP energy -396931.936735 kJ/mol
# GULP energy per Si atom -12404.123023 kJ/mol
# Density = 2.020864 g / cm^3
# Si number density = 20.254741 Si / 1000 Ang^3
#
#
#
# Elastic Constant Matrix: (Units=GPa)
#
#
# Indices 1 2 3 4 5 6 
#
# 1 112.2800 24.1698 51.1597 0.0000 -11.9211 0.0000
# 2 24.1698 85.6494 36.2071 0.0000 -3.9733 0.0000
# 3 51.1597 36.2071 143.7583 0.0000 -7.4569 0.0000
# 4 0.0000 0.0000 0.0000 28.1159 0.0000 -4.7384
# 5 -11.9211 -3.9733 -7.4569 0.0000 33.5470 0.0000
# 6 0.0000 0.0000 0.0000 -4.7384 0.0000 26.2019
#
#
#
# Elastic Compliance Matrix: (Units=1/GPa)
#
#
# Indices 1 2 3 4 5 6 
#
# 1 0.011113 -0.001556 -0.003407 0.000000 0.003007 0.000000
# 2 -0.001556 0.013307 -0.002777 0.000000 0.000406 0.000000
# 3 -0.003407 -0.002777 0.008891 0.000000 0.000437 0.000000
# 4 0.000000 0.000000 0.000000 0.036685 0.000000 0.006634
# 5 0.003007 0.000406 0.000437 0.000000 0.031023 0.000000
# 6 0.000000 0.000000 0.000000 0.006634 0.000000 0.039365
#
#
# Mechanical properties :
#
#
# Convention : Reuss Voigt Hill
#
# Bulk Modulus (GPa) = 56.08173 62.75121 59.41647
# Shear Modulus (GPa) = 30.90102 32.91636 31.90869
#
# Velocity S-wave (km/s) = 3.91015 4.03565 3.97340
# Velocity P-wave (km/s) = 6.93787 7.26385 7.10273
#
# Compressibility (1/GPa) = 0.01783112
#
# Stress axis : x y z
#
# Youngs Moduli (GPa) = 89.98524 75.14659 112.47949
#
# Poissons Ratio (x) = 0.11695 0.38320
# Poissons Ratio (y) = 0.14004 0.31232
# Poissons Ratio (z) = 0.30656 0.20866
#
# Static dielectric constant tensor:
#      x y z
#    x 3.854440 0.000000 -0.059240 
#    y 0.000000 3.497270 0.000000 
#    z -0.059240 0.000000 3.882480 
# 
# 
# High freq. dielectric constant tensor:
#      x y z
#    x 1.800910 0.000000 -0.006970 
#    y 0.000000 1.771840 0.000000 
#    z -0.006970 0.000000 1.799460 
# 
# From -- ./inp_files/73186.got.cif
#   From: 2010.06.25/outbox.cif.g09.slc.cpg/sg11_37_cif.got.tgz:73186.got - 2010.06.27 23:14:04.
