data_PCOD8075011
_publ_section_title
;
Structure prediction by ZEFSAII (Michael W. Deem and Ramdas Pophale) SiO2 
 PCOD8075011
Probable space group: P 21/M
;
_chemical_formula_sum "Si O2"
_cell_formula_units_Z 32
_cell_length_a 12.406993
_cell_length_b 19.045039
_cell_length_c 9.524972
_cell_angle_alpha 90.000000
_cell_angle_beta 45.046807
_cell_angle_gamma 90.000000
_cell_volume 1592.764673
_symmetry_space_group_name_H-M "P 21/M"
_symmetry_group_IT_number 11
_symmetry_cell_setting 'monoclinic'
loop_
_space_group_symop_operation_xyz
x,y,z
-x,1/2+y,-z
-x,-y,-z
x,1/2-y,z
loop_
_atom_site_type_symbol
_atom_site_label
_atom_site_fract_x
_atom_site_fract_y
_atom_site_fract_z
Si Si1 0.672816 0.579635 0.055999
Si Si2 0.952116 0.828254 0.295668
Si Si3 0.857686 0.668424 0.689402
Si Si4 0.540114 0.399534 0.360321
Si Si5 0.228678 0.575279 0.075949
Si Si6 0.892612 0.440259 0.527643
Si Si7 0.287547 0.326223 0.723422
Si Si8 0.638503 0.034484 0.544534
O O1 0.733351 0.614969 0.141209
O O2 0.491561 0.567262 0.233440
O O3 0.708352 0.630047 0.890770
O O4 0.766963 0.507387 0.961964
O O5 0.026894 0.750000 0.236228
O O6 0.850174 0.840310 0.528655
O O7 0.849545 0.834652 0.255750
O O8 0.074692 0.889211 0.163879
O O9 0.865061 0.750000 0.728995
O O10 0.007222 0.627264 0.609502
O O11 0.448775 0.330814 0.492168
O O12 0.407222 0.456080 0.454373
O O13 0.651867 0.423015 0.385300
O O14 0.633116 0.385820 0.131528
O O15 0.233204 0.584114 0.240660
O O16 0.800427 0.466674 0.476019
O O17 0.000000 0.500000 0.500000
O O18 0.283835 0.250000 0.799448
#
# Coordination Sequence:
#
# PCOD8075011 Si02
#       8
#     4   4   4   4   4   4   4   4
#     4  10  20  37  57  85 110 147 192 239 283 334
#     4   9  21  37  54  80 116 151 187 236 284 341
#     4  10  21  38  57  82 117 153 191 231 284 343
#     4   9  20  37  56  81 112 149 186 236 285 337
#     4  10  21  36  55  89 110 148 190 233 289 332
#     4  11  22  38  58  88 118 151 191 235 286 338
#     4  10  21  36  56  81 112 152 193 233 285 341
#     4   9  21  38  57  83 118 144 186 240 286 333
#
# _framework density 20.090852000000002
#
# number of rings (size 3 to 8) (size 9 to 14) (size 15 to 20)
#    0.000    2.250    1.250    1.125    3.500    5.000 
#    0.000    3.125    0.000    0.000    0.000    0.000 
#    0.000    0.000    0.000    0.000    0.000    0.000 
#
# Total GULP energy -396594.117753 kJ/mol
# GULP energy per Si atom -12393.566180 kJ/mol
# Density = 2.004512 g / cm^3
# Si number density = 20.090852 Si / 1000 Ang^3
#
#
#
# Elastic Constant Matrix: (Units=GPa)
#
#
# Indices 1 2 3 4 5 6 
#
# 1 70.4815 21.3990 -22.4245 0.0000 -1.5784 0.0000
# 2 21.3990 86.7304 11.3768 0.0000 -6.7982 0.0000
# 3 -22.4245 11.3768 59.0465 0.0000 -4.1653 0.0000
# 4 0.0000 0.0000 0.0000 27.8907 0.0000 1.3220
# 5 -1.5784 -6.7982 -4.1653 0.0000 11.9938 0.0000
# 6 0.0000 0.0000 0.0000 1.3220 0.0000 19.1600
#
#
#
# Elastic Compliance Matrix: (Units=1/GPa)
#
#
# Indices 1 2 3 4 5 6 
#
# 1 0.018525 -0.005480 0.008246 0.000000 0.002195 0.000000
# 2 -0.005480 0.013896 -0.004361 0.000000 0.005641 0.000000
# 3 0.008246 -0.004361 0.021332 0.000000 0.006022 0.000000
# 4 0.000000 0.000000 0.000000 0.035972 0.000000 -0.002482
# 5 0.002195 0.005641 0.006022 0.000000 0.088954 0.000000
# 6 0.000000 0.000000 0.000000 -0.002482 0.000000 0.052363
#
#
# Mechanical properties :
#
#
# Convention : Reuss Voigt Hill
#
# Bulk Modulus (GPa) = 19.77710 26.32901 23.05305
# Shear Modulus (GPa) = 19.91342 25.53603 22.72473
#
# Velocity S-wave (km/s) = 3.15170 3.56902 3.36683
# Velocity P-wave (km/s) = 4.80723 5.48792 5.15881
#
# Compressibility (1/GPa) = 0.05056353
#
# Stress axis : x y z
#
# Youngs Moduli (GPa) = 53.98199 71.96169 46.87688
#
# Poissons Ratio (x) = 0.39436 -0.38655
# Poissons Ratio (y) = 0.29583 0.20442
# Poissons Ratio (z) = -0.44514 0.31381
#
# Static dielectric constant tensor:
#      x y z
#    x 3.281910 0.000000 0.127480 
#    y 0.000000 3.846030 0.000000 
#    z 0.127480 0.000000 3.962700 
# 
# 
# High freq. dielectric constant tensor:
#      x y z
#    x 1.756290 0.000000 0.011700 
#    y 0.000000 1.784230 0.000000 
#    z 0.011700 0.000000 1.794690 
# 
# From -- ./inp_files/19371.got.cif
#   From: 2010.06.25/outbox.cif.g09.slc.cpg/sg11_10_cif.got.tgz:19371.got - 2010.06.27 23:14:04.
