data_PCOD8075155
_publ_section_title
;
Structure prediction by ZEFSAII (Michael W. Deem and Ramdas Pophale) SiO2 
 PCOD8075155
Probable space group: P 21/M
;
_chemical_formula_sum "Si O2"
_cell_formula_units_Z 28
_cell_length_a 21.890545
_cell_length_b 8.759532
_cell_length_c 15.776314
_cell_angle_alpha 90.000000
_cell_angle_beta 25.980521
_cell_angle_gamma 90.000000
_cell_volume 1325.202133
_symmetry_space_group_name_H-M "P 21/M"
_symmetry_group_IT_number 11
_symmetry_cell_setting 'monoclinic'
loop_
_space_group_symop_operation_xyz
x,y,z
-x,1/2+y,-z
-x,-y,-z
x,1/2-y,z
loop_
_atom_site_type_symbol
_atom_site_label
_atom_site_fract_x
_atom_site_fract_y
_atom_site_fract_z
Si Si1 0.036905 0.431673 0.861866
Si Si2 0.474354 0.580918 0.144968
Si Si3 0.843515 0.069561 0.944208
Si Si4 0.467411 0.570468 0.629061
Si Si5 0.670163 0.075758 0.503418
Si Si6 0.722098 0.921332 0.730628
Si Si7 0.002576 0.927047 0.589923
O O1 0.041580 0.250000 0.863977
O O2 0.186610 0.496277 0.646578
O O3 0.928283 0.482453 0.923375
O O4 0.000000 0.500000 0.000000
O O5 0.431994 0.750000 0.163522
O O6 0.444809 0.569122 0.280183
O O7 0.390254 0.448456 0.202714
O O8 0.640546 0.557561 0.921957
O O9 0.855439 0.250000 0.920069
O O10 0.683841 0.012876 0.150722
O O11 0.897957 0.997487 0.788922
O O12 0.500000 0.500000 0.500000
O O13 0.465260 0.750000 0.625498
O O14 0.599456 0.518737 0.518107
O O15 0.701041 0.250000 0.436702
O O16 0.783578 0.750000 0.645262
O O17 0.842336 0.044950 0.568840
O O18 0.968742 0.750000 0.623493
O O19 0.000000 0.000000 0.500000
#
# Coordination Sequence:
#
# PCOD8075155 Si02
#       7
#     4   4   4   4   4   4   4
#     4  11  23  41  67  97 130 168 213 269 332 392
#     4   9  20  37  59  88 121 160 202 250 307 366
#     4  10  24  45  67  96 132 171 217 272 327 389
#     4  11  24  43  67  96 130 168 212 263 327 390
#     4  11  23  39  61  91 127 164 212 261 310 378
#     4  10  20  37  60  88 123 160 204 255 307 363
#     4  12  26  42  63  90 125 170 217 265 320 382
#
# _framework density 21.128851999999998
#
# number of rings (size 3 to 8) (size 9 to 14) (size 15 to 20)
#    0.000    1.429    0.000    4.714    2.000    7.429 
#    0.000    0.000    0.000    0.000    0.000    0.000 
#    0.000    0.000    0.000    0.000    0.000    0.000 
#
# Total GULP energy -347134.388750 kJ/mol
# GULP energy per Si atom -12397.656741 kJ/mol
# Density = 2.108076 g / cm^3
# Si number density = 21.128852 Si / 1000 Ang^3
#
#
#
# Elastic Constant Matrix: (Units=GPa)
#
#
# Indices 1 2 3 4 5 6 
#
# 1 75.9005 34.2165 21.7086 0.0000 7.2065 0.0000
# 2 34.2165 86.0095 44.2482 0.0000 5.4585 0.0000
# 3 21.7086 44.2482 103.0212 0.0000 9.6701 0.0000
# 4 0.0000 0.0000 0.0000 35.6825 0.0000 1.6820
# 5 7.2065 5.4585 9.6701 0.0000 41.3556 0.0000
# 6 0.0000 0.0000 0.0000 1.6820 0.0000 32.6328
#
#
#
# Elastic Compliance Matrix: (Units=1/GPa)
#
#
# Indices 1 2 3 4 5 6 
#
# 1 0.016251 -0.006001 -0.000670 0.000000 -0.001883 0.000000
# 2 -0.006001 0.017149 -0.006121 0.000000 0.000213 0.000000
# 3 -0.000670 -0.006121 0.012668 0.000000 -0.002037 0.000000
# 4 0.000000 0.000000 0.000000 0.028093 0.000000 -0.001448
# 5 -0.001883 0.000213 -0.002037 0.000000 0.024957 0.000000
# 6 0.000000 0.000000 0.000000 -0.001448 0.000000 0.030719
#
#
# Mechanical properties :
#
#
# Convention : Reuss Voigt Hill
#
# Bulk Modulus (GPa) = 48.81844 51.69752 50.25798
# Shear Modulus (GPa) = 30.81667 32.91803 31.86735
#
# Velocity S-wave (km/s) = 3.82319 3.95139 3.88782
# Velocity P-wave (km/s) = 6.53026 6.73341 6.63261
#
# Compressibility (1/GPa) = 0.02048406
#
# Stress axis : x y z
#
# Youngs Moduli (GPa) = 61.53568 58.31102 78.93653
#
# Poissons Ratio (x) = 0.34990 0.05291
# Poissons Ratio (y) = 0.36925 0.48320
# Poissons Ratio (z) = 0.04125 0.35694
#
# Static dielectric constant tensor:
#      x y z
#    x 3.657170 0.000000 -0.031530 
#    y 0.000000 3.639850 0.000000 
#    z -0.031530 0.000000 4.173560 
# 
# 
# High freq. dielectric constant tensor:
#      x y z
#    x 1.824590 0.000000 0.004110 
#    y 0.000000 1.831500 0.000000 
#    z 0.004110 0.000000 1.847860 
# 
# From -- ./inp_files/54496.got.cif
#   From: 2010.06.25/outbox.cif.g09.slc.cpg/sg11_28_cif.got.tgz:54496.got - 2010.06.27 23:14:04.
