data_PCOD8075656
_publ_section_title
;
Structure prediction by ZEFSAII (Michael W. Deem and Ramdas Pophale) SiO2 
 PCOD8075656
Probable space group: P 21/M
;
_chemical_formula_sum "Si O2"
_cell_formula_units_Z 32
_cell_length_a 13.692040
_cell_length_b 19.591135
_cell_length_c 9.541986
_cell_angle_alpha 90.000000
_cell_angle_beta 44.154600
_cell_angle_gamma 90.000000
_cell_volume 1782.986350
_symmetry_space_group_name_H-M "P 21/M"
_symmetry_group_IT_number 11
_symmetry_cell_setting 'monoclinic'
loop_
_space_group_symop_operation_xyz
x,y,z
-x,1/2+y,-z
-x,-y,-z
x,1/2-y,z
loop_
_atom_site_type_symbol
_atom_site_label
_atom_site_fract_x
_atom_site_fract_y
_atom_site_fract_z
Si Si1 0.798003 0.464539 0.609028
Si Si2 0.345820 0.826966 0.236496
Si Si3 0.196969 0.176304 0.238170
Si Si4 0.667125 0.959531 0.229511
Si Si5 0.435139 0.176304 0.761830
Si Si6 0.592968 0.535461 0.609028
Si Si7 0.103364 0.040469 0.229511
Si Si8 0.582315 0.826966 0.763504
O O1 0.776514 0.383127 0.644367
O O2 0.668435 0.500000 0.663130
O O3 0.808400 0.493065 0.755992
O O4 0.942305 0.482753 0.377912
O O5 0.284879 0.750000 0.280627
O O6 0.414529 0.834115 0.319726
O O7 0.458193 0.842731 0.000000
O O8 0.119013 0.250000 0.312291
O O9 0.090795 0.116066 0.310062
O O10 0.265744 0.165885 0.319727
O O11 0.323035 0.175190 0.000000
O O12 0.599144 0.883934 0.310062
O O13 0.679783 0.982753 0.377912
O O14 0.564392 0.006935 0.244008
O O15 0.819986 0.960331 1.000000
O O16 0.431304 0.250000 0.687709
O O17 0.579118 0.616873 0.644367
O O18 0.565505 0.750000 0.719373
#
# Coordination Sequence:
#
# PCOD8075656 Si02
#       8
#     4   4   4   4   4   4   4   4
#     4  11  21  33  52  76 102 132 170 209 249 299
#     4   9  17  30  51  77 101 127 162 206 253 296
#     4   8  14  27  48  72  96 123 159 204 248 289
#     4  10  21  34  50  75 103 134 170 207 251 299
#     4   8  14  27  48  72  96 123 159 204 248 289
#     4  11  21  33  52  76 102 132 170 209 249 299
#     4  10  21  34  50  75 103 134 170 207 251 299
#     4   9  17  30  51  77 101 127 162 206 253 296
#
# _framework density 17.947417999999999
#
# number of rings (size 3 to 8) (size 9 to 14) (size 15 to 20)
#    0.000    2.500    2.500    2.250    0.000    2.500 
#    0.000    0.000    0.000    0.000    0.000    0.000 
#    0.000    0.000    0.000    0.000    0.000    0.000 
#
# Total GULP energy -396595.032215 kJ/mol
# GULP energy per Si atom -12393.594757 kJ/mol
# Density = 1.790657 g / cm^3
# Si number density = 17.947418 Si / 1000 Ang^3
#
#
#
# Elastic Constant Matrix: (Units=GPa)
#
#
# Indices 1 2 3 4 5 6 
#
# 1 38.7767 11.5904 10.7171 0.0000 0.0889 0.0000
# 2 11.5904 90.8815 11.7135 0.0000 -0.0021 0.0000
# 3 10.7171 11.7135 60.7242 0.0000 -0.4599 0.0000
# 4 0.0000 0.0000 0.0000 20.9933 0.0000 -0.0828
# 5 0.0889 -0.0021 -0.4599 0.0000 11.4084 0.0000
# 6 0.0000 0.0000 0.0000 -0.0828 0.0000 16.0929
#
#
#
# Elastic Compliance Matrix: (Units=1/GPa)
#
#
# Indices 1 2 3 4 5 6 
#
# 1 0.027886 -0.002996 -0.004347 0.000000 -0.000393 0.000000
# 2 -0.002996 0.011606 -0.001710 0.000000 -0.000043 0.000000
# 3 -0.004347 -0.001710 0.017571 0.000000 0.000742 0.000000
# 4 0.000000 0.000000 0.000000 0.047635 0.000000 0.000245
# 5 -0.000393 -0.000043 0.000742 0.000000 0.087688 0.000000
# 6 0.000000 0.000000 0.000000 0.000245 0.000000 0.062140
#
#
# Mechanical properties :
#
#
# Convention : Reuss Voigt Hill
#
# Bulk Modulus (GPa) = 25.66959 28.71384 27.19172
# Shear Modulus (GPa) = 17.50587 20.12300 18.81443
#
# Velocity S-wave (km/s) = 3.12652 3.35209 3.24127
# Velocity P-wave (km/s) = 5.23137 5.56917 5.40291
#
# Compressibility (1/GPa) = 0.03895660
#
# Stress axis : x y z
#
# Youngs Moduli (GPa) = 35.85968 86.16318 56.91337
#
# Poissons Ratio (x) = 0.25816 0.24738
# Poissons Ratio (y) = 0.10744 0.09734
# Poissons Ratio (z) = 0.15587 0.14736
#
# Static dielectric constant tensor:
#      x y z
#    x 3.040990 0.000000 0.002040 
#    y 0.000000 4.167530 0.000000 
#    z 0.002040 0.000000 2.920260 
# 
# 
# High freq. dielectric constant tensor:
#      x y z
#    x 1.666640 0.000000 0.000050 
#    y 0.000000 1.712630 0.000000 
#    z 0.000050 0.000000 1.663700 
# 
# From -- ./inp_files/19372.got.cif
#   From: 2010.06.25/outbox.cif.g09.slc.cpg/sg11_10_cif.got.tgz:19372.got - 2010.06.27 23:14:04.
