data_PCOD8075426
_publ_section_title
;
Structure prediction by ZEFSAII (Michael W. Deem and Ramdas Pophale) SiO2 
 PCOD8075426
Probable space group: P 21/M
;
_chemical_formula_sum "Si O2"
_cell_formula_units_Z 28
_cell_length_a 8.601490
_cell_length_b 21.836059
_cell_length_c 13.777639
_cell_angle_alpha 90.000000
_cell_angle_beta 150.681030
_cell_angle_gamma 90.000000
_cell_volume 1267.147798
_symmetry_space_group_name_H-M "P 21/M"
_symmetry_group_IT_number 11
_symmetry_cell_setting 'monoclinic'
loop_
_space_group_symop_operation_xyz
x,y,z
-x,1/2+y,-z
-x,-y,-z
x,1/2-y,z
loop_
_atom_site_type_symbol
_atom_site_label
_atom_site_fract_x
_atom_site_fract_y
_atom_site_fract_z
Si Si1 0.309413 0.097245 0.101815
Si Si2 0.176377 0.182824 0.673259
Si Si3 0.163214 0.000233 0.867646
Si Si4 0.152001 0.819414 0.037399
Si Si5 0.745032 0.411157 0.527850
Si Si6 0.851803 0.627397 0.699416
Si Si7 0.787449 0.182504 0.273767
O O1 0.542754 0.078991 0.318542
O O2 0.486911 0.137361 0.115484
O O3 0.181398 0.036787 0.979095
O O4 0.003732 0.135606 0.969051
O O5 0.242424 0.250000 0.756400
O O6 0.495798 0.157104 0.797937
O O7 0.040364 0.135792 0.678221
O O8 0.905782 0.190356 0.446631
O O9 0.899246 0.025723 0.648426
O O10 0.058194 0.932272 0.838369
O O11 0.500000 0.000000 0.000000
O O12 0.159545 0.750000 0.082483
O O13 0.942667 0.820196 0.825872
O O14 0.521634 0.386166 0.492916
O O15 0.931756 0.652398 0.636594
O O16 0.692339 0.250000 0.181347
#
# Coordination Sequence:
#
# PCOD8075426 Si02
#       7
#     4   4   4   4   4   4   4
#     4  10  23  42  65  93 124 169 205 259 317 368
#     4   9  20  39  61  90 124 161 207 259 316 375
#     4  12  24  43  64  93 129 163 217 261 307 374
#     4  10  21  40  65  93 125 162 208 260 316 374
#     4  10  24  42  62  91 125 169 208 257 313 375
#     4  11  23  40  61  93 124 165 208 258 318 369
#     4  10  20  38  62  90 123 161 204 257 315 374
#
# _framework density 22.096868000000001
#
# number of rings (size 3 to 8) (size 9 to 14) (size 15 to 20)
#    0.000    1.714    1.429    2.143    2.000    6.857 
#    2.571    0.714    0.000    0.000    0.000    0.000 
#    0.000    0.000    0.000    0.000    0.000    0.000 
#
# Total GULP energy -347162.044364 kJ/mol
# GULP energy per Si atom -12398.644442 kJ/mol
# Density = 2.204657 g / cm^3
# Si number density = 22.096868 Si / 1000 Ang^3
#
#
#
# Elastic Constant Matrix: (Units=GPa)
#
#
# Indices 1 2 3 4 5 6 
#
# 1 108.0520 26.6547 19.0012 0.0000 24.5703 0.0000
# 2 26.6547 76.2705 19.7170 0.0000 -0.7047 0.0000
# 3 19.0012 19.7170 66.5015 0.0000 10.3403 0.0000
# 4 0.0000 0.0000 0.0000 30.3856 0.0000 0.8298
# 5 24.5703 -0.7047 10.3403 0.0000 39.6230 0.0000
# 6 0.0000 0.0000 0.0000 0.8298 0.0000 33.8844
#
#
#
# Elastic Compliance Matrix: (Units=1/GPa)
#
#
# Indices 1 2 3 4 5 6 
#
# 1 0.012096 -0.004000 -0.001139 0.000000 -0.007275 0.000000
# 2 -0.004000 0.015598 -0.004076 0.000000 0.003822 0.000000
# 3 -0.001139 -0.004076 0.017169 0.000000 -0.003847 0.000000
# 4 0.000000 0.000000 0.000000 0.032932 0.000000 -0.000806
# 5 -0.007275 0.003822 -0.003847 0.000000 0.030821 0.000000
# 6 0.000000 0.000000 0.000000 -0.000806 0.000000 0.029532
#
#
# Mechanical properties :
#
#
# Convention : Reuss Voigt Hill
#
# Bulk Modulus (GPa) = 37.83090 42.39665 40.11378
# Shear Modulus (GPa) = 30.23160 33.14200 31.68680
#
# Velocity S-wave (km/s) = 3.70285 3.87699 3.79092
# Velocity P-wave (km/s) = 5.95308 6.26656 6.11183
#
# Compressibility (1/GPa) = 0.02643342
#
# Stress axis : x y z
#
# Youngs Moduli (GPa) = 82.67149 64.11014 58.24334
#
# Poissons Ratio (x) = 0.25644 0.06634
# Poissons Ratio (y) = 0.33069 0.23740
# Poissons Ratio (z) = 0.09417 0.26131
#
# Static dielectric constant tensor:
#      x y z
#    x 4.010690 0.000000 0.246110 
#    y 0.000000 4.135470 0.000000 
#    z 0.246110 0.000000 3.801510 
# 
# 
# High freq. dielectric constant tensor:
#      x y z
#    x 1.874680 0.000000 0.016840 
#    y 0.000000 1.871030 0.000000 
#    z 0.016840 0.000000 1.860170 
# 
# From -- ./inp_files/23189.got.cif
#   From: 2010.06.25/outbox.cif.g09.slc.cpg/sg11_12_cif.got.tgz:23189.got - 2010.06.27 23:14:04.
