data_PCOD8075417
_publ_section_title
;
Structure prediction by ZEFSAII (Michael W. Deem and Ramdas Pophale) SiO2 
 PCOD8075417
Probable space group: P 21/M
;
_chemical_formula_sum "Si O2"
_cell_formula_units_Z 20
_cell_length_a 9.861648
_cell_length_b 9.172104
_cell_length_c 11.352400
_cell_angle_alpha 90.000000
_cell_angle_beta 89.699872
_cell_angle_gamma 90.000000
_cell_volume 1026.833890
_symmetry_space_group_name_H-M "P 21/M"
_symmetry_group_IT_number 11
_symmetry_cell_setting 'monoclinic'
loop_
_space_group_symop_operation_xyz
x,y,z
-x,1/2+y,-z
-x,-y,-z
x,1/2-y,z
loop_
_atom_site_type_symbol
_atom_site_label
_atom_site_fract_x
_atom_site_fract_y
_atom_site_fract_z
Si Si1 0.515690 0.077464 0.874948
Si Si2 0.285976 0.916364 0.742475
Si Si3 0.859391 0.082766 0.489654
Si Si4 0.206836 0.916232 0.251488
Si Si5 0.014108 0.584861 0.880183
O O1 0.499922 0.250000 0.891991
O O2 0.660639 0.034809 0.820053
O O3 0.405356 0.021540 0.782930
O O4 0.500000 0.000000 0.000000
O O5 0.339161 0.750000 0.730461
O O6 0.231044 0.977162 0.617797
O O7 0.168983 0.924039 0.840208
O O8 0.896495 0.250000 0.462412
O O9 0.770403 0.066100 0.608598
O O10 0.000000 0.000000 0.500000
O O11 0.169795 0.750000 0.219738
O O12 0.080697 0.016530 0.218834
O O13 0.967821 0.750000 0.900912
O O14 0.000000 0.500000 0.000000
#
# Coordination Sequence:
#
# PCOD8075417 Si02
#       5
#     4   4   4   4   4
#     4  11  24  41  60  86 119 158 199 242 293 350
#     4  10  22  39  59  86 119 154 193 241 294 349
#     4  10  20  38  62  88 120 153 191 244 296 347
#     4  10  22  39  60  86 118 153 194 244 295 346
#     4  11  22  36  57  86 116 151 198 244 292 349
#
# _framework density 19.477346000000001
#
# number of rings (size 3 to 8) (size 9 to 14) (size 15 to 20)
#    0.000    1.600    2.000    2.400    0.000    9.600 
#    0.000    0.000    0.000    0.000    0.000    0.000 
#    0.000    0.000    0.000    0.000    0.000    0.000 
#
# Total GULP energy -248078.205892 kJ/mol
# GULP energy per Si atom -12403.910295 kJ/mol
# Density = 1.943301 g / cm^3
# Si number density = 19.477346 Si / 1000 Ang^3
#
#
#
# Elastic Constant Matrix: (Units=GPa)
#
#
# Indices 1 2 3 4 5 6 
#
# 1 72.2888 35.7005 14.5748 0.0000 5.4409 0.0000
# 2 35.7005 82.4998 28.5839 0.0000 4.7356 0.0000
# 3 14.5748 28.5839 102.9751 0.0000 4.8273 0.0000
# 4 0.0000 0.0000 0.0000 33.5574 0.0000 6.5318
# 5 5.4409 4.7356 4.8273 0.0000 38.9600 0.0000
# 6 0.0000 0.0000 0.0000 6.5318 0.0000 34.4868
#
#
#
# Elastic Compliance Matrix: (Units=1/GPa)
#
#
# Indices 1 2 3 4 5 6 
#
# 1 0.017698 -0.007444 -0.000367 0.000000 -0.001521 0.000000
# 2 -0.007444 0.016596 -0.003528 0.000000 -0.000541 0.000000
# 3 -0.000367 -0.003528 0.010782 0.000000 -0.000856 0.000000
# 4 0.000000 0.000000 0.000000 0.030940 0.000000 -0.005860
# 5 -0.001521 -0.000541 -0.000856 0.000000 0.026052 0.000000
# 6 0.000000 0.000000 0.000000 -0.005860 0.000000 0.030107
#
#
# Mechanical properties :
#
#
# Convention : Reuss Voigt Hill
#
# Bulk Modulus (GPa) = 44.64622 46.16468 45.40545
# Shear Modulus (GPa) = 30.80347 33.32780 32.06563
#
# Velocity S-wave (km/s) = 3.98113 4.14104 4.06187
# Velocity P-wave (km/s) = 6.64111 6.82770 6.73505
#
# Compressibility (1/GPa) = 0.02239831
#
# Stress axis : x y z
#
# Youngs Moduli (GPa) = 56.50259 60.25608 92.74350
#
# Poissons Ratio (x) = 0.44855 0.03407
# Poissons Ratio (y) = 0.42061 0.32717
# Poissons Ratio (z) = 0.02075 0.21257
#
# Static dielectric constant tensor:
#      x y z
#    x 3.508650 0.000000 0.034130 
#    y 0.000000 3.661640 0.000000 
#    z 0.034130 0.000000 3.820130 
# 
# 
# High freq. dielectric constant tensor:
#      x y z
#    x 1.751090 0.000000 -0.000140 
#    y 0.000000 1.760540 0.000000 
#    z -0.000140 0.000000 1.779120 
# 
# From -- ./inp_files/15870.got.cif
#   From: 2010.06.25/outbox.cif.g09.slc.cpg/sg11_8_cif.got.tgz:15870.got - 2010.06.27 23:14:04.
