data_PCOD8075765
_publ_section_title
;
Structure prediction by ZEFSAII (Michael W. Deem and Ramdas Pophale) SiO2 
 PCOD8075765
Probable space group: P 21/M
;
_chemical_formula_sum "Si O2"
_cell_formula_units_Z 32
_cell_length_a 13.826913
_cell_length_b 9.058396
_cell_length_c 20.720231
_cell_angle_alpha 90.000000
_cell_angle_beta 138.349909
_cell_angle_gamma 90.000000
_cell_volume 1724.718462
_symmetry_space_group_name_H-M "P 21/M"
_symmetry_group_IT_number 11
_symmetry_cell_setting 'monoclinic'
loop_
_space_group_symop_operation_xyz
x,y,z
-x,1/2+y,-z
-x,-y,-z
x,1/2-y,z
loop_
_atom_site_type_symbol
_atom_site_label
_atom_site_fract_x
_atom_site_fract_y
_atom_site_fract_z
Si Si1 0.843433 0.425292 0.421263
Si Si2 0.671900 0.580396 0.224280
Si Si3 0.333471 0.577676 0.043957
Si Si4 0.153611 0.575854 0.077275
Si Si5 0.669860 0.919587 0.445652
Si Si6 0.652819 0.920839 0.579439
Si Si7 0.652785 0.579134 0.072514
Si Si8 0.668433 0.422334 0.710486
O O1 0.861605 0.250000 0.430380
O O2 0.758423 0.473328 0.314659
O O3 0.755432 0.473260 0.440801
O O4 0.000000 0.500000 0.500000
O O5 0.692970 0.750000 0.257204
O O6 0.501745 0.538025 0.140940
O O7 0.733716 0.558259 0.181920
O O8 0.315670 0.750000 0.021921
O O9 0.243301 0.522519 0.060108
O O10 0.264928 0.493788 0.947398
O O11 0.133429 0.750000 0.067101
O O12 0.240211 0.522483 0.183197
O O13 0.000000 0.500000 0.000000
O O14 0.690673 0.750000 0.433519
O O15 0.732760 0.941644 0.550022
O O16 0.499688 0.961911 0.359788
O O17 0.626869 0.750000 0.580802
O O18 0.500000 0.000000 0.500000
O O19 0.736034 0.993792 0.681619
O O20 0.626694 0.750000 0.045307
O O21 0.500000 0.500000 0.000000
O O22 0.685981 0.250000 0.706060
#
# Coordination Sequence:
#
# PCOD8075765 Si02
#       8
#     4   4   4   4   4   4   4   4
#     4  12  25  38  54  76 104 138 175 216 260 310
#     4   9  18  35  57  79 105 136 170 211 260 312
#     4   9  18  34  56  79 106 140 175 214 260 309
#     4  10  21  36  52  74 106 144 181 216 260 308
#     4   9  18  35  57  79 105 136 170 211 260 312
#     4   9  17  30  52  81 109 135 167 211 260 308
#     4   9  17  30  52  81 109 135 167 211 260 308
#     4   9  18  34  56  79 106 140 175 214 260 309
#
# _framework density 18.553754000000001
#
# number of rings (size 3 to 8) (size 9 to 14) (size 15 to 20)
#    0.000    2.500    0.000    4.125    0.000    8.000 
#    0.000    2.500    0.000    3.000    0.000    0.000 
#    0.000    0.000    0.000    0.000    0.000    0.000 
#
# Total GULP energy -396654.840276 kJ/mol
# GULP energy per Si atom -12395.463759 kJ/mol
# Density = 1.851153 g / cm^3
# Si number density = 18.553754 Si / 1000 Ang^3
#
#
#
# Elastic Constant Matrix: (Units=GPa)
#
#
# Indices 1 2 3 4 5 6 
#
# 1 97.3171 60.4777 98.2812 0.0000 -29.1344 0.0000
# 2 60.4777 102.6660 60.4434 0.0000 -17.8740 0.0000
# 3 98.2812 60.4434 98.8614 0.0000 -25.7471 0.0000
# 4 0.0000 0.0000 0.0000 33.8143 0.0000 -6.3458
# 5 -29.1344 -17.8740 -25.7471 0.0000 32.5936 0.0000
# 6 0.0000 0.0000 0.0000 -6.3458 0.0000 34.4959
#
#
#
# Elastic Compliance Matrix: (Units=1/GPa)
#
#
# Indices 1 2 3 4 5 6 
#
# 1 -1.148086 0.001710 1.099471 0.000000 -0.156781 0.000000
# 2 0.001710 0.015256 -0.010639 0.000000 0.001490 0.000000
# 3 1.099471 -0.010639 -1.034868 0.000000 0.159460 0.000000
# 4 0.000000 0.000000 0.000000 0.030631 0.000000 0.005635
# 5 -0.156781 0.001490 0.159460 0.000000 0.017322 0.000000
# 6 0.000000 0.000000 0.000000 0.005635 0.000000 0.030026
#
#
# Mechanical properties :
#
#
# Convention : Reuss Voigt Hill
#
# Bulk Modulus (GPa) = 74.71293 81.91657 78.31475
# Shear Modulus (GPa) = -1.17196 25.49026 12.15915
#
# Velocity S-wave (km/s) = -0.79563 3.71058 2.56275
# Velocity P-wave (km/s) = 6.28584 7.91231 7.14550
#
# Compressibility (1/GPa) = 0.01338456
#
# Stress axis : x y z
#
# Youngs Moduli (GPa) = -0.87102 65.54656 -0.96631
#
# Poissons Ratio (x) = -0.11206 1.06243
# Poissons Ratio (y) = 0.00149 -0.01028
# Poissons Ratio (z) = 0.95766 0.69736
#
# Static dielectric constant tensor:
#      x y z
#    x 3.592360 0.000000 -0.405710 
#    y 0.000000 3.924650 0.000000 
#    z -0.405710 0.000000 3.543930 
# 
# 
# High freq. dielectric constant tensor:
#      x y z
#    x 1.714160 0.000000 -0.033890 
#    y 0.000000 1.719550 0.000000 
#    z -0.033890 0.000000 1.710250 
# 
# From -- ./inp_files/65256.got.cif
#   From: 2010.06.25/outbox.cif.g09.slc.cpg/sg11_33_cif.got.tgz:65256.got - 2010.06.27 23:14:04.
