data_PCOD8075009
_publ_section_title
;
Structure prediction by ZEFSAII (Michael W. Deem and Ramdas Pophale) SiO2 
 PCOD8075009
Probable space group: P 21/M
;
_chemical_formula_sum "Si O2"
_cell_formula_units_Z 32
_cell_length_a 28.757432
_cell_length_b 10.212977
_cell_length_c 11.536156
_cell_angle_alpha 90.000000
_cell_angle_beta 28.956529
_cell_angle_gamma 90.000000
_cell_volume 1640.362493
_symmetry_space_group_name_H-M "P 21/M"
_symmetry_group_IT_number 11
_symmetry_cell_setting 'monoclinic'
loop_
_space_group_symop_operation_xyz
x,y,z
-x,1/2+y,-z
-x,-y,-z
x,1/2-y,z
loop_
_atom_site_type_symbol
_atom_site_label
_atom_site_fract_x
_atom_site_fract_y
_atom_site_fract_z
Si Si1 0.771555 0.901873 0.772180
Si Si2 0.043493 0.393581 0.320342
Si Si3 0.397416 0.401701 0.021832
Si Si4 0.254713 0.402512 0.910295
Si Si5 0.956420 0.468562 0.277620
Si Si6 0.338472 0.597716 0.334546
Si Si7 0.610839 0.103495 0.510043
Si Si8 0.875157 0.106548 0.220331
O O1 0.754743 0.750000 0.815423
O O2 0.876086 0.927448 0.490596
O O3 0.686585 0.959042 0.877589
O O4 0.763551 0.956657 0.919908
O O5 0.033660 0.250000 0.401079
O O6 0.000000 0.500000 0.500000
O O7 0.987507 0.385216 0.320935
O O8 0.156026 0.423158 0.054037
O O9 0.379066 0.250000 0.101301
O O10 0.497293 0.410347 0.734363
O O11 0.404136 0.499427 0.116612
O O12 0.287190 0.250000 0.836204
O O13 0.336482 0.492413 0.677711
O O14 0.912345 0.381375 0.271375
O O15 0.052222 0.533866 0.021405
O O16 0.348562 0.750000 0.271406
O O17 0.370390 0.582045 0.396049
O O18 0.229942 0.542280 0.555794
O O19 0.645376 0.250000 0.397916
O O20 0.865131 0.250000 0.189032
#
# Coordination Sequence:
#
# PCOD8075009 Si02
#       8
#     4   4   4   4   4   4   4   4
#     4  10  20  37  59  82 114 153 194 237 286 340
#     4  11  23  38  59  87 117 153 193 236 279 336
#     4  10  21  38  60  87 114 149 195 240 287 347
#     4  10  22  40  59  84 116 151 195 238 284 341
#     4  11  20  36  57  81 117 152 193 233 283 339
#     4  10  20  37  57  84 118 150 188 236 290 346
#     4  10  22  39  59  85 118 150 191 242 292 341
#     4  10  21  34  54  83 115 150 189 235 286 342
#
# _framework density 19.507883
#
# number of rings (size 3 to 8) (size 9 to 14) (size 15 to 20)
#    0.000    1.750    2.500    1.875    0.000    2.500 
#    0.000    1.250    0.000    0.000    0.000    0.000 
#    0.000    0.000    0.000    0.000    0.000    0.000 
#
# Total GULP energy -396701.957577 kJ/mol
# GULP energy per Si atom -12396.936174 kJ/mol
# Density = 1.946348 g / cm^3
# Si number density = 19.507883 Si / 1000 Ang^3
#
#
#
# Elastic Constant Matrix: (Units=GPa)
#
#
# Indices 1 2 3 4 5 6 
#
# 1 75.2341 17.7975 23.5931 0.0000 -2.2293 0.0000
# 2 17.7975 84.0507 48.5767 0.0000 9.3561 0.0000
# 3 23.5931 48.5767 94.3747 0.0000 -1.7015 0.0000
# 4 0.0000 0.0000 0.0000 17.3095 0.0000 -9.6059
# 5 -2.2293 9.3561 -1.7015 0.0000 27.1504 0.0000
# 6 0.0000 0.0000 0.0000 -9.6059 0.0000 17.2939
#
#
#
# Elastic Compliance Matrix: (Units=1/GPa)
#
#
# Indices 1 2 3 4 5 6 
#
# 1 0.014601 -0.001676 -0.002759 0.000000 0.001603 0.000000
# 2 -0.001676 0.018313 -0.009134 0.000000 -0.007021 0.000000
# 3 -0.002759 -0.009134 0.016058 0.000000 0.003927 0.000000
# 4 0.000000 0.000000 0.000000 0.083515 0.000000 0.046389
# 5 0.001603 -0.007021 0.003927 0.000000 0.039629 0.000000
# 6 0.000000 0.000000 0.000000 0.046389 0.000000 0.083591
#
#
# Mechanical properties :
#
#
# Convention : Reuss Voigt Hill
#
# Bulk Modulus (GPa) = 45.79754 48.17711 46.98733
# Shear Modulus (GPa) = 17.23421 23.26357 20.24889
#
# Velocity S-wave (km/s) = 2.97551 3.45704 3.22527
# Velocity P-wave (km/s) = 5.94410 6.37845 6.16510
#
# Compressibility (1/GPa) = 0.02183523
#
# Stress axis : x y z
#
# Youngs Moduli (GPa) = 68.48893 54.60721 62.27531
#
# Poissons Ratio (x) = 0.09151 0.17179
# Poissons Ratio (y) = 0.11478 0.56879
# Poissons Ratio (z) = 0.18894 0.49876
#
# Static dielectric constant tensor:
#      x y z
#    x 3.856230 0.000000 -0.147050 
#    y 0.000000 3.428530 0.000000 
#    z -0.147050 0.000000 3.484030 
# 
# 
# High freq. dielectric constant tensor:
#      x y z
#    x 1.769810 0.000000 -0.014090 
#    y 0.000000 1.750770 0.000000 
#    z -0.014090 0.000000 1.755950 
# 
# From -- ./inp_files/45109.got.cif
#   From: 2010.06.25/outbox.cif.g09.slc.cpg/sg11_23_cif.got.tgz:45109.got - 2010.06.27 23:14:04.
