data_PCOD8075445
_publ_section_title
;
Structure prediction by ZEFSAII (Michael W. Deem and Ramdas Pophale) SiO2 
 PCOD8075445
Probable space group: P 21/M
;
_chemical_formula_sum "Si O2"
_cell_formula_units_Z 28
_cell_length_a 10.084246
_cell_length_b 8.741664
_cell_length_c 20.145926
_cell_angle_alpha 90.000000
_cell_angle_beta 128.682517
_cell_angle_gamma 90.000000
_cell_volume 1386.325118
_symmetry_space_group_name_H-M "P 21/M"
_symmetry_group_IT_number 11
_symmetry_cell_setting 'monoclinic'
loop_
_space_group_symop_operation_xyz
x,y,z
-x,1/2+y,-z
-x,-y,-z
x,1/2-y,z
loop_
_atom_site_type_symbol
_atom_site_label
_atom_site_fract_x
_atom_site_fract_y
_atom_site_fract_z
Si Si1 0.996848 0.430148 0.320240
Si Si2 0.970475 0.068545 0.062338
Si Si3 0.863661 0.429202 0.507144
Si Si4 0.410151 0.929613 0.034405
Si Si5 0.363939 0.072764 0.773147
Si Si6 0.456273 0.424648 0.653262
Si Si7 0.842884 0.070956 0.758444
O O1 0.020941 0.250000 0.329972
O O2 0.116420 0.504879 0.413052
O O3 0.049208 0.490602 0.264829
O O4 0.802732 0.470288 0.274124
O O5 0.989430 0.250000 0.065786
O O6 0.783803 0.016249 0.026849
O O7 0.106556 0.998877 0.155170
O O8 0.000000 0.000000 0.000000
O O9 0.896232 0.250000 0.519246
O O10 0.673353 0.463463 0.424095
O O11 0.000000 0.500000 0.500000
O O12 0.422700 0.750000 0.032621
O O13 0.502335 0.984918 0.130329
O O14 0.500000 0.000000 0.000000
O O15 0.312999 0.250000 0.767153
O O16 0.453212 0.045265 0.730787
O O17 0.403715 0.250000 0.621443
O O18 0.643642 0.460426 0.684636
O O19 0.883599 0.250000 0.771270
#
# Coordination Sequence:
#
# PCOD8075445 Si02
#       7
#     4   4   4   4   4   4   4
#     4  12  25  41  63  93 128 168 209 257 311 374
#     4  11  23  41  64  92 126 167 212 260 313 377
#     4  12  24  41  66  96 127 162 205 255 311 372
#     4  10  22  38  58  87 121 160 205 256 311 366
#     4  10  20  38  63  88 118 159 207 260 313 368
#     4  10  22  41  66  92 122 161 208 259 310 369
#     4  11  24  43  65  93 128 168 209 259 318 373
#
# _framework density 20.197281
#
# number of rings (size 3 to 8) (size 9 to 14) (size 15 to 20)
#    0.000    1.143    1.429    5.143    0.000    8.000 
#    0.000    1.429    0.000    0.000    0.000    0.000 
#    0.000    0.000    0.000    0.000    0.000    0.000 
#
# Total GULP energy -347384.583342 kJ/mol
# GULP energy per Si atom -12406.592262 kJ/mol
# Density = 2.015131 g / cm^3
# Si number density = 20.197281 Si / 1000 Ang^3
#
#
#
# Elastic Constant Matrix: (Units=GPa)
#
#
# Indices 1 2 3 4 5 6 
#
# 1 78.9421 36.9097 8.2266 0.0000 0.4278 0.0000
# 2 36.9097 112.7761 42.7629 0.0000 -1.8646 0.0000
# 3 8.2266 42.7629 104.2461 0.0000 -3.3178 0.0000
# 4 0.0000 0.0000 0.0000 35.5316 0.0000 -1.7216
# 5 0.4278 -1.8646 -3.3178 0.0000 36.0088 0.0000
# 6 0.0000 0.0000 0.0000 -1.7216 0.0000 32.1427
#
#
#
# Elastic Compliance Matrix: (Units=1/GPa)
#
#
# Indices 1 2 3 4 5 6 
#
# 1 0.015046 -0.005300 0.000975 0.000000 -0.000363 0.000000
# 2 -0.005300 0.012368 -0.004647 0.000000 0.000275 0.000000
# 3 0.000975 -0.004647 0.011447 0.000000 0.000803 0.000000
# 4 0.000000 0.000000 0.000000 0.028217 0.000000 0.001511
# 5 -0.000363 0.000275 0.000803 0.000000 0.027864 0.000000
# 6 0.000000 0.000000 0.000000 0.001511 0.000000 0.031192
#
#
# Mechanical properties :
#
#
# Convention : Reuss Voigt Hill
#
# Bulk Modulus (GPa) = 47.80420 52.41808 50.11114
# Shear Modulus (GPa) = 33.10162 34.60763 33.85463
#
# Velocity S-wave (km/s) = 4.05274 4.14391 4.09858
# Velocity P-wave (km/s) = 6.75423 6.99324 6.87477
#
# Compressibility (1/GPa) = 0.02091866
#
# Stress axis : x y z
#
# Youngs Moduli (GPa) = 66.46314 80.85248 87.35662
#
# Poissons Ratio (x) = 0.42852 -0.08519
# Poissons Ratio (y) = 0.35226 0.40591
# Poissons Ratio (z) = -0.06482 0.37568
#
# Static dielectric constant tensor:
#      x y z
#    x 3.515510 0.000000 -0.761320 
#    y 0.000000 3.706650 0.000000 
#    z -0.761320 0.000000 0.267470 
# 
# 
# High freq. dielectric constant tensor:
#      x y z
#    x 1.796620 0.000000 -0.001240 
#    y 0.000000 1.791200 0.000000 
#    z -0.001240 0.000000 1.804610 
# 
# From -- ./inp_files/63422.got.cif
#   From: 2010.06.25/outbox.cif.g09.slc.cpg/sg11_32_cif.got.tgz:63422.got - 2010.06.27 23:14:04.
