data_PCOD8075049
_publ_section_title
;
Structure prediction by ZEFSAII (Michael W. Deem and Ramdas Pophale) SiO2 
 PCOD8075049
Probable space group: P 21/M
;
_chemical_formula_sum "Si O2"
_cell_formula_units_Z 28
_cell_length_a 26.766938
_cell_length_b 9.304672
_cell_length_c 9.305305
_cell_angle_alpha 90.000000
_cell_angle_beta 139.263441
_cell_angle_gamma 90.000000
_cell_volume 1512.395847
_symmetry_space_group_name_H-M "P 21/M"
_symmetry_group_IT_number 11
_symmetry_cell_setting 'monoclinic'
loop_
_space_group_symop_operation_xyz
x,y,z
-x,1/2+y,-z
-x,-y,-z
x,1/2-y,z
loop_
_atom_site_type_symbol
_atom_site_label
_atom_site_fract_x
_atom_site_fract_y
_atom_site_fract_z
Si Si1 0.744852 0.579823 0.982710
Si Si2 0.431750 0.419414 0.431784
Si Si3 0.167881 0.408262 0.115101
Si Si4 0.440347 0.082467 0.777172
Si Si5 0.791601 0.416048 0.354472
Si Si6 0.294164 0.093065 0.623112
Si Si7 0.923883 0.417497 0.874312
O O1 0.750838 0.750000 0.016500
O O2 0.782683 0.534842 0.912519
O O3 0.796644 0.500703 0.215049
O O4 0.655221 0.532190 0.798473
O O5 0.500000 0.500000 0.500000
O O6 0.440602 0.250000 0.425540
O O7 0.445358 0.464616 0.624634
O O8 0.132065 0.250000 0.001163
O O9 0.219539 0.388925 0.366362
O O10 0.104443 0.522026 0.031730
O O11 0.454469 0.250000 0.825558
O O12 0.358626 0.034572 0.658290
O O13 0.500000 0.000000 0.000000
O O14 0.777288 0.250000 0.290467
O O15 0.717473 0.478971 0.275184
O O16 0.866112 0.440959 0.614874
O O17 0.315168 0.250000 0.735928
O O18 0.940793 0.250000 0.933695
O O19 0.000000 0.500000 0.000000
#
# Coordination Sequence:
#
# PCOD8075049 Si02
#       7
#     4   4   4   4   4   4   4
#     4  10  20  37  59  81 110 149 191 229 273 335
#     4  10  22  39  55  77 110 148 190 235 282 330
#     4   9  17  34  60  83 105 141 184 226 272 321
#     4  10  21  36  53  75 105 139 183 233 279 329
#     4  10  22  36  54  84 116 142 177 227 274 320
#     4   9  17  34  56  75 100 140 184 227 273 326
#     4  10  21  38  60  87 117 146 179 221 269 326
#
# _framework density 18.513672
#
# number of rings (size 3 to 8) (size 9 to 14) (size 15 to 20)
#    0.000    2.286    1.429    0.857    2.000    4.000 
#    0.000    0.714    0.000    0.000    0.000    0.000 
#    0.000    0.000    0.000    0.000    0.000    0.000 
#
# Total GULP energy -346994.672006 kJ/mol
# GULP energy per Si atom -12392.666857 kJ/mol
# Density = 1.847153 g / cm^3
# Si number density = 18.513672 Si / 1000 Ang^3
#
#
#
# Elastic Constant Matrix: (Units=GPa)
#
#
# Indices 1 2 3 4 5 6 
#
# 1 145.2751 72.8257 45.6349 0.0000 5.4478 0.0000
# 2 72.8257 87.3262 47.6889 0.0000 1.9405 0.0000
# 3 45.6349 47.6889 62.4592 0.0000 -6.7224 0.0000
# 4 0.0000 0.0000 0.0000 31.2515 0.0000 -1.6330
# 5 5.4478 1.9405 -6.7224 0.0000 29.5317 0.0000
# 6 0.0000 0.0000 0.0000 -1.6330 0.0000 35.1552
#
#
#
# Elastic Compliance Matrix: (Units=1/GPa)
#
#
# Indices 1 2 3 4 5 6 
#
# 1 0.012096 -0.008717 -0.002420 0.000000 -0.002210 0.000000
# 2 -0.008717 0.026616 -0.014319 0.000000 -0.003400 0.000000
# 3 -0.002420 -0.014319 0.029586 0.000000 0.008122 0.000000
# 4 0.000000 0.000000 0.000000 0.032076 0.000000 0.001490
# 5 -0.002210 -0.003400 0.008122 0.000000 0.036342 0.000000
# 6 0.000000 0.000000 0.000000 0.001490 0.000000 0.028515
#
#
# Mechanical properties :
#
#
# Convention : Reuss Voigt Hill
#
# Bulk Modulus (GPa) = 57.51816 69.70661 63.61239
# Shear Modulus (GPa) = 22.52879 27.78174 25.15526
#
# Velocity S-wave (km/s) = 3.49216 3.87797 3.69011
# Velocity P-wave (km/s) = 6.88444 7.60162 7.25191
#
# Compressibility (1/GPa) = 0.01738581
#
# Stress axis : x y z
#
# Youngs Moduli (GPa) = 82.66912 37.57151 33.80009
#
# Poissons Ratio (x) = 0.32751 0.08181
# Poissons Ratio (y) = 0.72062 0.48398
# Poissons Ratio (z) = 0.20008 0.53798
#
# Static dielectric constant tensor:
#      x y z
#    x 3.515940 0.000000 -0.075300 
#    y 0.000000 3.681570 0.000000 
#    z -0.075300 0.000000 3.250910 
# 
# 
# High freq. dielectric constant tensor:
#      x y z
#    x 1.727350 0.000000 -0.006010 
#    y 0.000000 1.715320 0.000000 
#    z -0.006010 0.000000 1.701380 
# 
# From -- ./inp_files/28242.got.cif
#   From: 2010.06.25/outbox.cif.g09.slc.cpg/sg11_15_cif.got.tgz:28242.got - 2010.06.27 23:14:04.
