data_PCOD8075618
_publ_section_title
;
Structure prediction by ZEFSAII (Michael W. Deem and Ramdas Pophale) SiO2 
 PCOD8075618
Probable space group: P 21/M
;
_chemical_formula_sum "Si O2"
_cell_formula_units_Z 28
_cell_length_a 9.963996
_cell_length_b 12.645922
_cell_length_c 18.327310
_cell_angle_alpha 90.000000
_cell_angle_beta 33.316980
_cell_angle_gamma 90.000000
_cell_volume 1268.437395
_symmetry_space_group_name_H-M "P 21/M"
_symmetry_group_IT_number 11
_symmetry_cell_setting 'monoclinic'
loop_
_space_group_symop_operation_xyz
x,y,z
-x,1/2+y,-z
-x,-y,-z
x,1/2-y,z
loop_
_atom_site_type_symbol
_atom_site_label
_atom_site_fract_x
_atom_site_fract_y
_atom_site_fract_z
Si Si1 0.046185 0.443863 0.865509
Si Si2 0.177493 0.133093 0.418683
Si Si3 0.528586 0.526228 0.592215
Si Si4 0.806805 0.374667 0.370893
Si Si5 0.737455 0.437177 0.708462
Si Si6 0.224773 0.975545 0.145455
Si Si7 0.812118 0.868701 0.050538
O O1 0.883362 0.401761 0.871075
O O2 0.323411 0.446816 0.713694
O O3 0.035789 0.371076 0.942149
O O4 0.950380 0.561612 0.928066
O O5 0.231760 0.250000 0.365450
O O6 0.910954 0.132018 0.577716
O O7 0.379599 0.100492 0.385322
O O8 0.202211 0.059937 0.336094
O O9 0.750245 0.449369 0.466519
O O10 0.422975 0.604568 0.578369
O O11 0.825128 0.250000 0.381774
O O12 0.062437 0.416638 0.221209
O O13 0.785562 0.414661 0.772365
O O14 0.460572 0.411307 0.813043
O O15 0.500000 0.000000 0.000000
O O16 0.807823 0.750000 0.022357
#
# Coordination Sequence:
#
# PCOD8075618 Si02
#       7
#     4   4   4   4   4   4   4
#     4  10  23  42  65  94 130 169 218 273 327 396
#     4  11  23  41  67  94 129 174 221 277 334 387
#     4  10  20  41  62  92 132 163 220 281 320 394
#     4  10  22  39  66  95 128 176 219 268 335 397
#     4  11  23  44  64  98 133 171 223 274 327 396
#     4  11  22  43  68  93 142 170 209 280 330 391
#     4  11  23  43  67  92 129 176 221 269 328 398
#
# _framework density 22.074404000000001
#
# number of rings (size 3 to 8) (size 9 to 14) (size 15 to 20)
#    0.000    1.429    4.286    0.857    0.000    4.000 
#    0.000    2.143    0.000    0.000    0.000    0.000 
#    0.000    0.000    0.000    0.000    0.000    0.000 
#
# Total GULP energy -347116.714910 kJ/mol
# GULP energy per Si atom -12397.025532 kJ/mol
# Density = 2.202416 g / cm^3
# Si number density = 22.074404 Si / 1000 Ang^3
#
#
#
# Elastic Constant Matrix: (Units=GPa)
#
#
# Indices 1 2 3 4 5 6 
#
# 1 122.6675 12.2296 24.2954 0.0000 7.7318 0.0000
# 2 12.2296 91.3517 11.3298 0.0000 -3.8502 0.0000
# 3 24.2954 11.3298 98.4474 0.0000 -12.6484 0.0000
# 4 0.0000 0.0000 0.0000 13.0830 0.0000 -1.6067
# 5 7.7318 -3.8502 -12.6484 0.0000 39.8460 0.0000
# 6 0.0000 0.0000 0.0000 -1.6067 0.0000 15.6880
#
#
#
# Elastic Compliance Matrix: (Units=1/GPa)
#
#
# Indices 1 2 3 4 5 6 
#
# 1 0.008893 -0.001000 -0.002412 0.000000 -0.002588 0.000000
# 2 -0.001000 0.011236 -0.000919 0.000000 0.000988 0.000000
# 3 -0.002412 -0.000919 0.011371 0.000000 0.003989 0.000000
# 4 0.000000 0.000000 0.000000 0.077409 0.000000 0.007928
# 5 -0.002588 0.000988 0.003989 0.000000 0.026960 0.000000
# 6 0.000000 0.000000 0.000000 0.007928 0.000000 0.064555
#
#
# Mechanical properties :
#
#
# Convention : Reuss Voigt Hill
#
# Bulk Modulus (GPa) = 43.78886 45.35292 44.57089
# Shear Modulus (GPa) = 23.07338 31.36418 27.21878
#
# Velocity S-wave (km/s) = 3.23655 3.77349 3.51529
# Velocity P-wave (km/s) = 5.81782 6.29092 6.05899
#
# Compressibility (1/GPa) = 0.02283686
#
# Stress axis : x y z
#
# Youngs Moduli (GPa) = 112.45210 88.99734 87.94139
#
# Poissons Ratio (x) = 0.08904 0.21211
# Poissons Ratio (y) = 0.11250 0.08084
# Poissons Ratio (z) = 0.27123 0.08181
#
# Static dielectric constant tensor:
#      x y z
#    x 4.318200 0.000000 -0.001310 
#    y 0.000000 3.529420 0.000000 
#    z -0.001310 0.000000 4.052360 
# 
# 
# High freq. dielectric constant tensor:
#      x y z
#    x 1.890000 0.000000 -0.001730 
#    y 0.000000 1.824610 0.000000 
#    z -0.001730 0.000000 1.878010 
# 
# From -- ./inp_files/64658.got.cif
#   From: 2010.06.25/outbox.cif.g09.slc.cpg/sg11_33_cif.got.tgz:64658.got - 2010.06.27 23:14:04.
