data_PCOD8075440
_publ_section_title
;
Structure prediction by ZEFSAII (Michael W. Deem and Ramdas Pophale) SiO2 
 PCOD8075440
Probable space group: P 21/M
;
_chemical_formula_sum "Si O2"
_cell_formula_units_Z 28
_cell_length_a 9.492392
_cell_length_b 8.905299
_cell_length_c 24.841091
_cell_angle_alpha 90.000000
_cell_angle_beta 135.376156
_cell_angle_gamma 90.000000
_cell_volume 1475.060468
_symmetry_space_group_name_H-M "P 21/M"
_symmetry_group_IT_number 11
_symmetry_cell_setting 'monoclinic'
loop_
_space_group_symop_operation_xyz
x,y,z
-x,1/2+y,-z
-x,-y,-z
x,1/2-y,z
loop_
_atom_site_type_symbol
_atom_site_label
_atom_site_fract_x
_atom_site_fract_y
_atom_site_fract_z
Si Si1 0.573857 0.084837 0.174265
Si Si2 0.383141 0.589107 0.689513
Si Si3 0.181369 0.422514 0.196829
Si Si4 0.823658 0.427202 0.918564
Si Si5 0.715505 0.429645 0.571174
Si Si6 0.014251 0.427933 0.264332
Si Si7 0.012712 0.077816 0.559879
O O1 0.547852 0.250000 0.139671
O O2 0.562915 0.107365 0.234298
O O3 0.789466 0.014136 0.216933
O O4 0.385678 0.977746 0.109828
O O5 0.292248 0.750000 0.644066
O O6 0.594000 0.556899 0.717664
O O7 0.235394 0.450675 0.642022
O O8 0.142669 0.250000 0.169029
O O9 0.147289 0.527011 0.135935
O O10 0.041378 0.469044 0.208847
O O11 0.836416 0.250000 0.925983
O O12 0.000000 0.500000 0.000000
O O13 0.500000 0.500000 0.500000
O O14 0.699296 0.250000 0.570468
O O15 0.817736 0.490161 0.653610
O O16 0.852856 0.485136 0.558882
O O17 0.034055 0.250000 0.280459
O O18 0.973984 0.250000 0.540457
O O19 0.000000 0.000000 0.500000
#
# Coordination Sequence:
#
# PCOD8075440 Si02
#       7
#     4   4   4   4   4   4   4
#     4   9  18  35  60  87 114 149 188 227 281 341
#     4   9  17  33  55  79 110 144 184 232 279 334
#     4   9  20  37  59  88 118 149 188 230 282 342
#     4  11  22  38  62  89 120 154 191 235 281 334
#     4  11  25  41  57  81 114 153 197 246 296 347
#     4  10  20  38  63  87 117 154 190 236 290 347
#     4  11  24  38  54  77 108 144 190 242 291 342
#
# _framework density 18.982271999999998
#
# number of rings (size 3 to 8) (size 9 to 14) (size 15 to 20)
#    0.000    2.000    1.429    3.000    2.000    5.143 
#    0.000    0.714    0.000    0.000    0.000    0.000 
#    0.000    0.000    0.000    0.000    0.000    0.000 
#
# Total GULP energy -347019.066346 kJ/mol
# GULP energy per Si atom -12393.538084 kJ/mol
# Density = 1.893907 g / cm^3
# Si number density = 18.982272 Si / 1000 Ang^3
#
#
#
# Elastic Constant Matrix: (Units=GPa)
#
#
# Indices 1 2 3 4 5 6 
#
# 1 101.5379 36.2202 48.7310 0.0000 11.2202 0.0000
# 2 36.2202 88.9843 53.2016 0.0000 3.9614 0.0000
# 3 48.7310 53.2016 116.5488 0.0000 16.9148 0.0000
# 4 0.0000 0.0000 0.0000 34.7278 0.0000 1.3483
# 5 11.2202 3.9614 16.9148 0.0000 26.6223 0.0000
# 6 0.0000 0.0000 0.0000 1.3483 0.0000 26.8325
#
#
#
# Elastic Compliance Matrix: (Units=1/GPa)
#
#
# Indices 1 2 3 4 5 6 
#
# 1 0.012967 -0.002957 -0.003682 0.000000 -0.002686 0.000000
# 2 -0.002957 0.016272 -0.006632 0.000000 0.003039 0.000000
# 3 -0.003682 -0.006632 0.014077 0.000000 -0.006405 0.000000
# 4 0.000000 0.000000 0.000000 0.028852 0.000000 -0.001450
# 5 -0.002686 0.003039 -0.006405 0.000000 0.042312 0.000000
# 6 0.000000 0.000000 0.000000 -0.001450 0.000000 0.037341
#
#
# Mechanical properties :
#
#
# Convention : Reuss Voigt Hill
#
# Bulk Modulus (GPa) = 59.62142 64.81960 62.22051
# Shear Modulus (GPa) = 27.18072 28.89775 28.03924
#
# Velocity S-wave (km/s) = 3.78815 3.90597 3.84751
# Velocity P-wave (km/s) = 7.11412 7.38672 7.25170
#
# Compressibility (1/GPa) = 0.01677249
#
# Stress axis : x y z
#
# Youngs Moduli (GPa) = 77.11654 61.45701 71.03952
#
# Poissons Ratio (x) = 0.18174 0.26158
# Poissons Ratio (y) = 0.22805 0.47114
# Poissons Ratio (z) = 0.28396 0.40759
#
# Static dielectric constant tensor:
#      x y z
#    x 3.841480 0.000000 0.125840 
#    y 0.000000 3.593260 0.000000 
#    z 0.125840 0.000000 3.233440 
# 
# 
# High freq. dielectric constant tensor:
#      x y z
#    x 1.744350 0.000000 0.012770 
#    y 0.000000 1.732940 0.000000 
#    z 0.012770 0.000000 1.726370 
# 
# From -- ./inp_files/70910.got.cif
#   From: 2010.06.25/outbox.cif.g09.slc.cpg/sg11_36_cif.got.tgz:70910.got - 2010.06.27 23:14:04.
