data_PCOD8075787
_publ_section_title
;
Structure prediction by ZEFSAII (Michael W. Deem and Ramdas Pophale) SiO2 
 PCOD8075787
Probable space group: P 21/M
;
_chemical_formula_sum "Si O2"
_cell_formula_units_Z 28
_cell_length_a 16.100605
_cell_length_b 8.858493
_cell_length_c 12.399069
_cell_angle_alpha 90.000000
_cell_angle_beta 124.632899
_cell_angle_gamma 90.000000
_cell_volume 1455.093077
_symmetry_space_group_name_H-M "P 21/M"
_symmetry_group_IT_number 11
_symmetry_cell_setting 'monoclinic'
loop_
_space_group_symop_operation_xyz
x,y,z
-x,1/2+y,-z
-x,-y,-z
x,1/2-y,z
loop_
_atom_site_type_symbol
_atom_site_label
_atom_site_fract_x
_atom_site_fract_y
_atom_site_fract_z
Si Si1 0.903573 0.573604 0.293662
Si Si2 0.763174 0.428208 0.024643
Si Si3 0.868605 0.425745 0.486375
Si Si4 0.719565 0.576553 0.539122
Si Si5 0.704884 0.575678 0.770696
Si Si6 0.482746 0.579363 0.659549
Si Si7 0.439356 0.078249 0.049034
O O1 0.883054 0.750000 0.266856
O O2 0.861979 0.488651 0.158228
O O3 0.848234 0.515656 0.360991
O O4 0.021759 0.534002 0.385977
O O5 0.760977 0.250000 0.028574
O O6 0.768476 0.479475 0.903700
O O7 0.665288 0.492742 0.011452
O O8 0.858234 0.250000 0.452311
O O9 0.786345 0.470218 0.513853
O O10 0.735195 0.750000 0.517073
O O11 0.752237 0.551228 0.687609
O O12 0.602427 0.535521 0.441594
O O13 0.708815 0.750000 0.810713
O O14 0.587689 0.524635 0.683626
O O15 0.455694 0.750000 0.603322
O O16 0.491142 0.570779 0.794482
O O17 0.414334 0.250000 0.998829
O O18 0.500000 0.000000 0.000000
#
# Coordination Sequence:
#
# PCOD8075787 Si02
#       7
#     4   4   4   4   4   4   4
#     4  10  21  40  63  84 111 147 185 231 285 340
#     4  11  22  36  59  85 111 147 186 230 286 341
#     4  10  22  39  60  86 114 144 185 234 282 337
#     4  11  22  35  57  85 115 150 189 233 283 333
#     4   9  20  39  57  80 114 152 193 234 274 330
#     4   9  19  35  54  77 111 151 190 232 276 324
#     4  10  21  36  53  78 114 151 189 233 275 330
#
# _framework density 19.242754999999999
#
# number of rings (size 3 to 8) (size 9 to 14) (size 15 to 20)
#    0.000    2.000    0.000    4.286    2.000    5.714 
#    0.000    0.714    0.000    0.000    0.000    0.000 
#    0.000    0.000    0.000    0.000    0.000    0.000 
#
# Total GULP energy -347323.033664 kJ/mol
# GULP energy per Si atom -12404.394059 kJ/mol
# Density = 1.919896 g / cm^3
# Si number density = 19.242755 Si / 1000 Ang^3
#
#
#
# Elastic Constant Matrix: (Units=GPa)
#
#
# Indices 1 2 3 4 5 6 
#
# 1 53.4367 17.8764 26.2673 0.0000 -9.8694 0.0000
# 2 17.8764 105.6229 46.9087 0.0000 4.0170 0.0000
# 3 26.2673 46.9087 93.6442 0.0000 4.3881 0.0000
# 4 0.0000 0.0000 0.0000 34.4111 0.0000 0.6883
# 5 -9.8694 4.0170 4.3881 0.0000 21.4833 0.0000
# 6 0.0000 0.0000 0.0000 0.6883 0.0000 28.8876
#
#
#
# Elastic Compliance Matrix: (Units=1/GPa)
#
#
# Indices 1 2 3 4 5 6 
#
# 1 0.025071 -0.001733 -0.006784 0.000000 0.013228 0.000000
# 2 -0.001733 0.012319 -0.005593 0.000000 -0.001957 0.000000
# 3 -0.006784 -0.005593 0.015630 0.000000 -0.005263 0.000000
# 4 0.000000 0.000000 0.000000 0.029074 0.000000 -0.000693
# 5 0.013228 -0.001957 -0.005263 0.000000 0.054066 0.000000
# 6 0.000000 0.000000 0.000000 -0.000693 0.000000 0.034633
#
#
# Mechanical properties :
#
#
# Convention : Reuss Voigt Hill
#
# Bulk Modulus (GPa) = 40.32321 48.31206 44.31763
# Shear Modulus (GPa) = 24.12171 27.73316 25.92743
#
# Velocity S-wave (km/s) = 3.54439 3.80047 3.67466
# Velocity P-wave (km/s) = 6.14416 6.66477 6.40976
#
# Compressibility (1/GPa) = 0.02479961
#
# Stress axis : x y z
#
# Youngs Moduli (GPa) = 39.88599 81.17220 63.97932
#
# Poissons Ratio (x) = 0.14071 0.43404
# Poissons Ratio (y) = 0.06914 0.35785
# Poissons Ratio (z) = 0.27059 0.45401
#
# Static dielectric constant tensor:
#      x y z
#    x 3.344880 0.000000 -0.075940 
#    y 0.000000 3.542350 0.000000 
#    z -0.075940 0.000000 3.571390 
# 
# 
# High freq. dielectric constant tensor:
#      x y z
#    x 1.734620 0.000000 -0.009030 
#    y 0.000000 1.758320 0.000000 
#    z -0.009030 0.000000 1.752240 
# 
# From -- ./inp_files/38433.got.cif
#   From: 2010.06.25/outbox.cif.g09.slc.cpg/sg11_20_cif.got.tgz:38433.got - 2010.06.27 23:14:04.
