data_PCOD8075255
_publ_section_title
;
Structure prediction by ZEFSAII (Michael W. Deem and Ramdas Pophale) SiO2 
 PCOD8075255
Probable space group: P 21/M
;
_chemical_formula_sum "Si O2"
_cell_formula_units_Z 32
_cell_length_a 12.008904
_cell_length_b 8.682226
_cell_length_c 31.102640
_cell_angle_alpha 90.000000
_cell_angle_beta 30.199289
_cell_angle_gamma 90.000000
_cell_volume 1631.201680
_symmetry_space_group_name_H-M "P 21/M"
_symmetry_group_IT_number 11
_symmetry_cell_setting 'monoclinic'
loop_
_space_group_symop_operation_xyz
x,y,z
-x,1/2+y,-z
-x,-y,-z
x,1/2-y,z
loop_
_atom_site_type_symbol
_atom_site_label
_atom_site_fract_x
_atom_site_fract_y
_atom_site_fract_z
Si Si1 0.844642 0.432369 0.281228
Si Si2 0.671141 0.569465 0.257275
Si Si3 0.464701 0.568082 0.465142
Si Si4 0.035748 0.430900 0.372222
Si Si5 0.796230 0.567405 0.593952
Si Si6 0.862003 0.427564 0.109526
Si Si7 0.211206 0.067075 0.224373
Si Si8 0.707413 0.070745 0.066400
O O1 0.846242 0.250000 0.276958
O O2 0.849001 0.504746 0.232195
O O3 0.624332 0.485592 0.378633
O O4 0.060287 0.492486 0.235342
O O5 0.650974 0.750000 0.269552
O O6 0.433424 0.496435 0.347555
O O7 0.750395 0.529811 0.183190
O O8 0.500000 0.500000 0.500000
O O9 0.508237 0.750000 0.450769
O O10 0.217001 0.525279 0.533475
O O11 0.058903 0.250000 0.359016
O O12 0.183571 0.486479 0.363004
O O13 0.121006 0.506637 0.299184
O O14 0.800113 0.750000 0.588413
O O15 0.000000 0.500000 0.500000
O O16 0.842137 0.250000 0.129578
O O17 0.731561 0.461894 0.109070
O O18 0.119166 0.471253 0.018612
O O19 0.196822 0.250000 0.232115
O O20 0.464561 0.016149 0.132489
O O21 0.750505 0.250000 0.042343
#
# Coordination Sequence:
#
# PCOD8075255 Si02
#       8
#     4   4   4   4   4   4   4   4
#     4  11  22  38  59  82 112 151 199 246 292 348
#     4  12  25  41  59  82 117 157 199 240 288 349
#     4  11  20  34  55  81 115 154 195 237 286 338
#     4   9  18  33  55  81 110 147 189 235 286 339
#     4  11  22  38  60  85 117 154 194 240 291 343
#     4  10  20  37  62  90 118 150 189 231 285 349
#     4   9  17  33  57  84 111 144 185 233 291 346
#     4   9  18  35  62  91 119 147 181 232 293 349
#
# _framework density 19.617439000000001
#
# number of rings (size 3 to 8) (size 9 to 14) (size 15 to 20)
#    0.000    1.750    1.250    4.125    0.000    3.500 
#    0.000    3.750    0.000    0.000    0.000    0.000 
#    0.000    0.000    0.000    0.000    0.000    0.000 
#
# Total GULP energy -396861.863844 kJ/mol
# GULP energy per Si atom -12401.933245 kJ/mol
# Density = 1.957279 g / cm^3
# Si number density = 19.617439 Si / 1000 Ang^3
#
#
#
# Elastic Constant Matrix: (Units=GPa)
#
#
# Indices 1 2 3 4 5 6 
#
# 1 114.4605 42.5868 53.7517 0.0000 -20.6319 0.0000
# 2 42.5868 75.5592 26.2782 0.0000 2.4440 0.0000
# 3 53.7517 26.2782 91.0014 0.0000 -7.4416 0.0000
# 4 0.0000 0.0000 0.0000 33.2556 0.0000 3.1018
# 5 -20.6319 2.4440 -7.4416 0.0000 26.3930 0.0000
# 6 0.0000 0.0000 0.0000 3.1018 0.0000 24.3977
#
#
#
# Elastic Compliance Matrix: (Units=1/GPa)
#
#
# Indices 1 2 3 4 5 6 
#
# 1 0.016914 -0.007545 -0.006831 0.000000 0.011995 0.000000
# 2 -0.007545 0.018257 -0.001470 0.000000 -0.008003 0.000000
# 3 -0.006831 -0.001470 0.015377 0.000000 -0.000868 0.000000
# 4 0.000000 0.000000 0.000000 0.030431 0.000000 -0.003869
# 5 0.011995 -0.008003 -0.000868 0.000000 0.047762 0.000000
# 6 0.000000 0.000000 0.000000 -0.003869 0.000000 0.041479
#
#
# Mechanical properties :
#
#
# Convention : Reuss Voigt Hill
#
# Bulk Modulus (GPa) = 53.03236 58.47271 55.75254
# Shear Modulus (GPa) = 24.01561 27.36954 25.69258
#
# Velocity S-wave (km/s) = 3.50265 3.73924 3.62288
# Velocity P-wave (km/s) = 6.59166 6.96518 6.78100
#
# Compressibility (1/GPa) = 0.01885641
#
# Stress axis : x y z
#
# Youngs Moduli (GPa) = 59.12296 54.77221 65.03214
#
# Poissons Ratio (x) = 0.41328 0.44422
# Poissons Ratio (y) = 0.44611 0.09558
# Poissons Ratio (z) = 0.40386 0.08050
#
# Static dielectric constant tensor:
#      x y z
#    x 3.787330 0.000000 -0.224350 
#    y 0.000000 3.404670 0.000000 
#    z -0.224350 0.000000 3.310120 
# 
# 
# High freq. dielectric constant tensor:
#      x y z
#    x 1.773350 0.000000 -0.003830 
#    y 0.000000 1.747210 0.000000 
#    z -0.003830 0.000000 1.761940 
# 
# From -- ./inp_files/73055.got.cif
#   From: 2010.06.25/outbox.cif.g09.slc.cpg/sg11_37_cif.got.tgz:73055.got - 2010.06.27 23:14:04.
