data_PCOD8075159
_publ_section_title
;
Structure prediction by ZEFSAII (Michael W. Deem and Ramdas Pophale) SiO2 
 PCOD8075159
Probable space group: P 21/M
;
_chemical_formula_sum "Si O2"
_cell_formula_units_Z 32
_cell_length_a 15.370462
_cell_length_b 14.399004
_cell_length_c 21.651016
_cell_angle_alpha 90.000000
_cell_angle_beta 19.209329
_cell_angle_gamma 90.000000
_cell_volume 1576.596255
_symmetry_space_group_name_H-M "P 21/M"
_symmetry_group_IT_number 11
_symmetry_cell_setting 'monoclinic'
loop_
_space_group_symop_operation_xyz
x,y,z
-x,1/2+y,-z
-x,-y,-z
x,1/2-y,z
loop_
_atom_site_type_symbol
_atom_site_label
_atom_site_fract_x
_atom_site_fract_y
_atom_site_fract_z
Si Si1 0.557590 0.354863 0.824389
Si Si2 0.223120 0.540742 0.205982
Si Si3 0.826946 0.484591 0.557944
Si Si4 0.996914 0.144849 0.159813
Si Si5 0.512918 0.143231 0.263052
Si Si6 0.594632 0.857527 0.413459
Si Si7 0.188233 0.356604 0.598804
Si Si8 0.985439 0.973785 0.079928
O O1 0.646702 0.250000 0.755871
O O2 0.712934 0.390219 0.780268
O O3 0.624592 0.403565 0.713014
O O4 0.238793 0.364579 0.046637
O O5 0.018022 0.462653 0.370673
O O6 0.075764 0.589998 0.247256
O O7 0.500000 0.500000 0.000000
O O8 0.693544 0.584059 0.637207
O O9 0.000000 0.500000 0.500000
O O10 0.994549 0.250000 0.132898
O O11 0.719483 0.126379 0.379618
O O12 0.041213 0.069636 0.077166
O O13 0.493451 0.250000 0.255618
O O14 0.440305 0.130253 0.384326
O O15 0.798255 0.105418 0.053249
O O16 0.663963 0.750000 0.354031
O O17 0.716358 0.890419 0.397805
O O18 0.710263 0.925628 0.283743
O O19 0.103048 0.250000 0.658653
O O20 0.000000 0.000000 0.000000
#
# Coordination Sequence:
#
# PCOD8075159 Si02
#       8
#     4   4   4   4   4   4   4   4
#     4  10  20  39  62  86 123 169 207 243 299 373
#     4  10  21  35  59  91 123 157 201 260 306 358
#     4   9  19  36  59  88 121 158 203 247 299 361
#     4  10  22  40  61  85 123 166 204 244 299 369
#     4  10  20  37  60  89 121 157 203 255 308 360
#     4  10  22  40  62  92 121 156 202 250 305 368
#     4   9  19  37  61  85 118 157 197 247 304 362
#     4  12  24  38  60  91 122 156 200 254 311 364
#
# _framework density 20.296890000000001
#
# number of rings (size 3 to 8) (size 9 to 14) (size 15 to 20)
#    0.000    2.000    1.250    1.875    1.750    5.000 
#    2.250    1.250    0.000    0.750    0.000    0.000 
#    0.000    0.000    0.000    0.000    0.000    0.000 
#
# Total GULP energy -396535.577846 kJ/mol
# GULP energy per Si atom -12391.736808 kJ/mol
# Density = 2.025069 g / cm^3
# Si number density = 20.296890 Si / 1000 Ang^3
#
#
#
# Elastic Constant Matrix: (Units=GPa)
#
#
# Indices 1 2 3 4 5 6 
#
# 1 68.6773 28.3768 34.4998 0.0000 2.0262 0.0000
# 2 28.3768 105.9695 52.9964 0.0000 11.8101 0.0000
# 3 34.4998 52.9964 135.9550 0.0000 -3.3872 0.0000
# 4 0.0000 0.0000 0.0000 37.5783 0.0000 -0.1238
# 5 2.0262 11.8101 -3.3872 0.0000 27.2020 0.0000
# 6 0.0000 0.0000 0.0000 -0.1238 0.0000 25.1908
#
#
#
# Elastic Compliance Matrix: (Units=1/GPa)
#
#
# Indices 1 2 3 4 5 6 
#
# 1 0.017453 -0.002991 -0.003273 0.000000 -0.000409 0.000000
# 2 -0.002991 0.013178 -0.004529 0.000000 -0.006063 0.000000
# 3 -0.003273 -0.004529 0.010038 0.000000 0.003460 0.000000
# 4 0.000000 0.000000 0.000000 0.026612 0.000000 0.000131
# 5 -0.000409 -0.006063 0.003460 0.000000 0.039855 0.000000
# 6 0.000000 0.000000 0.000000 0.000131 0.000000 0.039698
#
#
# Mechanical properties :
#
#
# Convention : Reuss Voigt Hill
#
# Bulk Modulus (GPa) = 52.40415 60.26087 56.33251
# Shear Modulus (GPa) = 28.60721 30.97613 29.79167
#
# Velocity S-wave (km/s) = 3.75832 3.91084 3.83534
# Velocity P-wave (km/s) = 6.68642 7.08146 6.88677
#
# Compressibility (1/GPa) = 0.01908246
#
# Stress axis : x y z
#
# Youngs Moduli (GPa) = 57.29660 75.88206 99.62520
#
# Poissons Ratio (x) = 0.22697 0.32608
# Poissons Ratio (y) = 0.17138 0.45121
# Poissons Ratio (z) = 0.18754 0.34367
#
# Static dielectric constant tensor:
#      x y z
#    x 3.403450 0.000000 -0.077050 
#    y 0.000000 4.210900 0.000000 
#    z -0.077050 0.000000 4.266600 
# 
# 
# High freq. dielectric constant tensor:
#      x y z
#    x 1.777380 0.000000 -0.013290 
#    y 0.000000 1.793230 0.000000 
#    z -0.013290 0.000000 1.807040 
# 
# From -- ./inp_files/55006.got.cif
#   From: 2010.06.25/outbox.cif.g09.slc.cpg/sg11_28_cif.got.tgz:55006.got - 2010.06.27 23:14:04.
