data_PCOD8075835
_publ_section_title
;
Structure prediction by ZEFSAII (Michael W. Deem and Ramdas Pophale) SiO2 
 PCOD8075835
Probable space group: P 21/M
;
_chemical_formula_sum "Si O2"
_cell_formula_units_Z 28
_cell_length_a 15.539375
_cell_length_b 9.265650
_cell_length_c 20.505013
_cell_angle_alpha 90.000000
_cell_angle_beta 28.903151
_cell_angle_gamma 90.000000
_cell_volume 1426.966295
_symmetry_space_group_name_H-M "P 21/M"
_symmetry_group_IT_number 11
_symmetry_cell_setting 'monoclinic'
loop_
_space_group_symop_operation_xyz
x,y,z
-x,1/2+y,-z
-x,-y,-z
x,1/2-y,z
loop_
_atom_site_type_symbol
_atom_site_label
_atom_site_fract_x
_atom_site_fract_y
_atom_site_fract_z
Si Si1 0.836488 0.918288 0.576975
Si Si2 0.437665 0.417362 0.134878
Si Si3 0.668766 0.917422 0.554439
Si Si4 0.258635 0.415738 0.121463
Si Si5 0.740519 0.084780 0.166069
Si Si6 0.948413 0.917873 0.135096
Si Si7 0.114632 0.918524 0.689221
O O1 0.878836 0.750000 0.555307
O O2 0.658564 0.958235 0.734482
O O3 0.798765 0.963432 0.527538
O O4 0.000000 0.000000 0.500000
O O5 0.481729 0.250000 0.100981
O O6 0.309498 0.467111 0.160437
O O7 0.625702 0.498264 0.008305
O O8 0.696127 0.750000 0.518897
O O9 0.466136 0.947259 0.710595
O O10 0.715812 0.010782 0.459280
O O11 0.305373 0.250000 0.079691
O O12 0.051744 0.446344 0.247917
O O13 0.769268 0.250000 0.170622
O O14 0.852323 0.058301 0.025473
O O15 0.804925 0.975788 0.178812
O O16 0.910025 0.750000 0.174134
O O17 0.925070 0.006788 0.216243
O O18 0.152259 0.750000 0.676128
#
# Coordination Sequence:
#
# PCOD8075835 Si02
#       7
#     4   4   4   4   4   4   4
#     4  10  21  36  56  81 113 153 194 237 286 339
#     4   9  18  33  54  77 105 145 189 235 285 335
#     4  10  22  39  59  85 116 154 198 239 286 344
#     4   9  19  34  51  77 111 145 186 233 282 336
#     4   9  20  40  63  88 118 149 189 239 288 344
#     4  10  21  38  64  91 116 150 189 234 292 349
#     4  11  23  38  57  84 118 154 191 238 290 341
#
# _framework density 19.622046000000001
#
# number of rings (size 3 to 8) (size 9 to 14) (size 15 to 20)
#    0.000    2.286    0.000    1.714    2.000    5.143 
#    0.000    2.857    0.000    0.000    0.000    0.000 
#    0.000    0.000    0.000    0.000    0.000    0.000 
#
# Total GULP energy -347234.286377 kJ/mol
# GULP energy per Si atom -12401.224513 kJ/mol
# Density = 1.957739 g / cm^3
# Si number density = 19.622046 Si / 1000 Ang^3
#
#
#
# Elastic Constant Matrix: (Units=GPa)
#
#
# Indices 1 2 3 4 5 6 
#
# 1 73.7857 52.3191 50.0269 0.0000 12.5330 0.0000
# 2 52.3191 90.1225 61.5186 0.0000 9.1190 0.0000
# 3 50.0269 61.5186 113.3198 0.0000 9.0921 0.0000
# 4 0.0000 0.0000 0.0000 33.8054 0.0000 0.1878
# 5 12.5330 9.1190 9.0921 0.0000 32.6994 0.0000
# 6 0.0000 0.0000 0.0000 0.1878 0.0000 32.1263
#
#
#
# Elastic Compliance Matrix: (Units=1/GPa)
#
#
# Indices 1 2 3 4 5 6 
#
# 1 0.025551 -0.010936 -0.004911 0.000000 -0.005378 0.000000
# 2 -0.010936 0.022482 -0.007374 0.000000 -0.000027 0.000000
# 3 -0.004911 -0.007374 0.015015 0.000000 -0.000236 0.000000
# 4 0.000000 0.000000 0.000000 0.029582 0.000000 -0.000173
# 5 -0.005378 -0.000027 -0.000236 0.000000 0.032716 0.000000
# 6 0.000000 0.000000 0.000000 -0.000173 0.000000 0.031128
#
#
# Mechanical properties :
#
#
# Convention : Reuss Voigt Hill
#
# Bulk Modulus (GPa) = 60.22940 67.21747 63.72343
# Shear Modulus (GPa) = 23.98632 27.28378 25.63505
#
# Velocity S-wave (km/s) = 3.50010 3.73294 3.61839
# Velocity P-wave (km/s) = 6.86263 7.27394 7.07128
#
# Compressibility (1/GPa) = 0.01660319
#
# Stress axis : x y z
#
# Youngs Moduli (GPa) = 39.13795 44.48069 66.59982
#
# Poissons Ratio (x) = 0.48646 0.32708
# Poissons Ratio (y) = 0.42803 0.49114
# Poissons Ratio (z) = 0.19221 0.32802
#
# Static dielectric constant tensor:
#      x y z
#    x 3.597590 0.000000 0.024160 
#    y 0.000000 3.588950 0.000000 
#    z 0.024160 0.000000 3.715890 
# 
# 
# High freq. dielectric constant tensor:
#      x y z
#    x 1.758370 0.000000 0.004830 
#    y 0.000000 1.762310 0.000000 
#    z 0.004830 0.000000 1.770210 
# 
# From -- ./inp_files/65382.got.cif
#   From: 2010.06.25/outbox.cif.g09.slc.cpg/sg11_33_cif.got.tgz:65382.got - 2010.06.27 23:14:04.
