data_PCOD8075285
_publ_section_title
;
Structure prediction by ZEFSAII (Michael W. Deem and Ramdas Pophale) SiO2 
 PCOD8075285
Probable space group: P 21/M
;
_chemical_formula_sum "Si O2"
_cell_formula_units_Z 24
_cell_length_a 10.491906
_cell_length_b 12.441910
_cell_length_c 11.742859
_cell_angle_alpha 90.000000
_cell_angle_beta 41.315874
_cell_angle_gamma 90.000000
_cell_volume 1012.038998
_symmetry_space_group_name_H-M "P 21/M"
_symmetry_group_IT_number 11
_symmetry_cell_setting 'monoclinic'
loop_
_space_group_symop_operation_xyz
x,y,z
-x,1/2+y,-z
-x,-y,-z
x,1/2-y,z
loop_
_atom_site_type_symbol
_atom_site_label
_atom_site_fract_x
_atom_site_fract_y
_atom_site_fract_z
Si Si1 0.388842 0.376953 0.091027
Si Si2 0.523079 0.038768 0.358187
Si Si3 0.817167 0.874676 0.548010
Si Si4 0.278110 0.376112 0.915630
Si Si5 0.176665 0.621294 0.170760
Si Si6 0.910229 0.374015 0.024258
O O1 0.419183 0.250000 0.087027
O O2 0.270177 0.401917 0.055505
O O3 0.609046 0.426638 0.942797
O O4 0.261179 0.424339 0.280762
O O5 0.337064 0.106928 0.448406
O O6 0.710102 0.114758 0.225807
O O7 0.500000 0.000000 0.500000
O O8 0.539630 0.935306 0.263562
O O9 0.848541 0.750000 0.545863
O O10 0.023010 0.922456 0.367529
O O11 0.303124 0.250000 0.879090
O O12 0.089647 0.426330 0.975981
O O13 0.183351 0.750000 0.165659
O O14 0.115646 0.579147 0.086219
O O15 0.966332 0.250000 0.979490
#
# Coordination Sequence:
#
# PCOD8075285 Si02
#       6
#     4   4   4   4   4   4
#     4   9  18  38  62  88 123 163 201 248 308 364
#     4  12  24  38  60  91 125 160 209 255 304 360
#     4  10  20  37  63  93 121 158 210 254 298 365
#     4  10  23  41  61  87 125 164 199 251 315 363
#     4   9  17  34  64  91 118 157 203 250 297 356
#     4  10  20  40  66  89 117 160 203 251 307 359
#
# _framework density 23.714500999999998
#
# number of rings (size 3 to 8) (size 9 to 14) (size 15 to 20)
#    0.000    2.000    1.667    2.000    0.000    3.333 
#    3.000    0.833    0.000    0.000    0.000    0.000 
#    0.000    0.000    0.000    0.000    0.000    0.000 
#
# Total GULP energy -297653.533735 kJ/mol
# GULP energy per Si atom -12402.230572 kJ/mol
# Density = 2.366053 g / cm^3
# Si number density = 23.714501 Si / 1000 Ang^3
#
#
#
# Elastic Constant Matrix: (Units=GPa)
#
#
# Indices 1 2 3 4 5 6 
#
# 1 143.4531 30.7256 88.5389 0.0000 -3.4293 0.0000
# 2 30.7256 27.0290 17.3828 0.0000 -3.9309 0.0000
# 3 88.5389 17.3828 214.0147 0.0000 9.6326 0.0000
# 4 0.0000 0.0000 0.0000 32.1626 0.0000 -1.4785
# 5 -3.4293 -3.9309 9.6326 0.0000 47.5883 0.0000
# 6 0.0000 0.0000 0.0000 -1.4785 0.0000 46.6336
#
#
#
# Elastic Compliance Matrix: (Units=1/GPa)
#
#
# Indices 1 2 3 4 5 6 
#
# 1 0.011765 -0.010664 -0.004036 0.000000 0.000784 0.000000
# 2 -0.010664 0.049434 0.000250 0.000000 0.003264 0.000000
# 3 -0.004036 0.000250 0.006393 0.000000 -0.001564 0.000000
# 4 0.000000 0.000000 0.000000 0.031137 0.000000 0.000987
# 5 0.000784 0.003264 -0.001564 0.000000 0.021656 0.000000
# 6 0.000000 0.000000 0.000000 0.000987 0.000000 0.021475
#
#
# Mechanical properties :
#
#
# Convention : Reuss Voigt Hill
#
# Bulk Modulus (GPa) = 25.84641 73.08793 49.46717
# Shear Modulus (GPa) = 27.22440 41.80020 34.51230
#
# Velocity S-wave (km/s) = 3.39190 4.20294 3.81901
# Velocity P-wave (km/s) = 5.12471 7.37833 6.35226
#
# Compressibility (1/GPa) = 0.03869009
#
# Stress axis : x y z
#
# Youngs Moduli (GPa) = 84.99781 20.22893 156.43206
#
# Poissons Ratio (x) = 0.21573 0.63141
# Poissons Ratio (y) = 0.90644 -0.03907
# Poissons Ratio (z) = 0.34308 -0.00505
#
# Static dielectric constant tensor:
#      x y z
#    x 4.409470 0.000000 -0.055790 
#    y 0.000000 4.483220 0.000000 
#    z -0.055790 0.000000 4.497650 
# 
# 
# High freq. dielectric constant tensor:
#      x y z
#    x 1.947810 0.000000 0.003260 
#    y 0.000000 1.975950 0.000000 
#    z 0.003260 0.000000 1.932020 
# 
# From -- ./inp_files/35388.got.cif
#   From: 2010.06.25/outbox.cif.g09.slc.cpg/sg11_18_cif.got.tgz:35388.got - 2010.06.27 23:14:04.
