data_PCOD8075217
_publ_section_title
;
Structure prediction by ZEFSAII (Michael W. Deem and Ramdas Pophale) SiO2 
 PCOD8075217
Probable space group: P 21/M
;
_chemical_formula_sum "Si O2"
_cell_formula_units_Z 28
_cell_length_a 14.056441
_cell_length_b 8.563898
_cell_length_c 20.753459
_cell_angle_alpha 90.000000
_cell_angle_beta 146.715201
_cell_angle_gamma 90.000000
_cell_volume 1371.046824
_symmetry_space_group_name_H-M "P 21/M"
_symmetry_group_IT_number 11
_symmetry_cell_setting 'monoclinic'
loop_
_space_group_symop_operation_xyz
x,y,z
-x,1/2+y,-z
-x,-y,-z
x,1/2-y,z
loop_
_atom_site_type_symbol
_atom_site_label
_atom_site_fract_x
_atom_site_fract_y
_atom_site_fract_z
Si Si1 0.809462 0.431631 0.884768
Si Si2 0.534083 0.565012 0.828051
Si Si3 0.836294 0.935594 0.369022
Si Si4 0.661214 0.570928 0.677077
Si Si5 0.366805 0.434316 0.975218
Si Si6 0.071502 0.066041 0.718376
Si Si7 0.719420 0.068651 0.575426
O O1 0.812366 0.250000 0.903004
O O2 0.673642 0.516389 0.854210
O O3 0.752218 0.457185 0.778939
O O4 0.000000 0.500000 0.000000
O O5 0.519106 0.750000 0.819653
O O6 0.344981 0.495905 0.704053
O O7 0.599610 0.498526 0.934305
O O8 0.838976 0.750000 0.373657
O O9 0.852072 0.002825 0.304854
O O10 0.000000 0.000000 0.500000
O O11 0.702549 0.750000 0.718057
O O12 0.455948 0.537490 0.562983
O O13 0.732157 0.534826 0.646465
O O14 0.384054 0.250000 0.987068
O O15 0.500000 0.500000 0.000000
O O16 0.179082 0.488527 0.842319
O O17 0.083180 0.250000 0.718504
O O18 0.873351 0.013165 0.615654
O O19 0.735956 0.250000 0.604763
#
# Coordination Sequence:
#
# PCOD8075217 Si02
#       7
#     4   4   4   4   4   4   4
#     4  12  27  46  67  92 124 165 212 264 319 383
#     4  11  24  42  65  94 127 167 210 260 317 379
#     4  11  23  40  63  92 129 171 215 263 313 376
#     4  10  21  39  62  92 125 160 206 260 316 375
#     4  10  20  37  61  88 121 158 202 250 302 363
#     4   9  19  36  60  89 119 161 206 253 311 365
#     4   9  19  37  63  90 122 164 207 258 314 368
#
# _framework density 20.422350999999999
#
# number of rings (size 3 to 8) (size 9 to 14) (size 15 to 20)
#    0.000    1.714    1.429    2.571    4.000    1.143 
#    0.000    2.143    0.000    0.000    0.000    0.000 
#    0.000    0.000    0.000    0.000    0.000    0.000 
#
# Total GULP energy -347216.505792 kJ/mol
# GULP energy per Si atom -12400.589493 kJ/mol
# Density = 2.037587 g / cm^3
# Si number density = 20.422351 Si / 1000 Ang^3
#
#
#
# Elastic Constant Matrix: (Units=GPa)
#
#
# Indices 1 2 3 4 5 6 
#
# 1 98.5074 24.0942 55.7845 0.0000 24.3393 0.0000
# 2 24.0942 62.5235 38.2112 0.0000 0.0988 0.0000
# 3 55.7845 38.2112 141.3264 0.0000 9.9191 0.0000
# 4 0.0000 0.0000 0.0000 30.6174 0.0000 0.6086
# 5 24.3393 0.0988 9.9191 0.0000 36.2774 0.0000
# 6 0.0000 0.0000 0.0000 0.6086 0.0000 31.5255
#
#
#
# Elastic Compliance Matrix: (Units=1/GPa)
#
#
# Indices 1 2 3 4 5 6 
#
# 1 0.015962 -0.003221 -0.004770 0.000000 -0.009397 0.000000
# 2 -0.003221 0.019879 -0.004334 0.000000 0.003292 0.000000
# 3 -0.004770 -0.004334 0.010099 0.000000 0.000451 0.000000
# 4 0.000000 0.000000 0.000000 0.032674 0.000000 -0.000631
# 5 -0.009397 0.003292 0.000451 0.000000 0.033737 0.000000
# 6 0.000000 0.000000 0.000000 -0.000631 0.000000 0.031732
#
#
# Mechanical properties :
#
#
# Convention : Reuss Voigt Hill
#
# Bulk Modulus (GPa) = 46.97295 59.83747 53.40521
# Shear Modulus (GPa) = 28.43621 31.96858 30.20239
#
# Velocity S-wave (km/s) = 3.73554 3.96077 3.84980
# Velocity P-wave (km/s) = 6.45418 7.09088 6.78001
#
# Compressibility (1/GPa) = 0.02128885
#
# Stress axis : x y z
#
# Youngs Moduli (GPa) = 62.64684 50.30421 99.01942
#
# Poissons Ratio (x) = 0.16204 0.47235
# Poissons Ratio (y) = 0.20179 0.42919
# Poissons Ratio (z) = 0.29885 0.21804
#
# Static dielectric constant tensor:
#      x y z
#    x 3.790340 0.000000 -0.010560 
#    y 0.000000 3.559280 0.000000 
#    z -0.010560 0.000000 4.099070 
# 
# 
# High freq. dielectric constant tensor:
#      x y z
#    x 1.802480 0.000000 0.003860 
#    y 0.000000 1.785760 0.000000 
#    z 0.003860 0.000000 1.812520 
# 
# From -- ./inp_files/38499.got.cif
#   From: 2010.06.25/outbox.cif.g09.slc.cpg/sg11_20_cif.got.tgz:38499.got - 2010.06.27 23:14:04.
