data_PCOD8075315
_publ_section_title
;
Structure prediction by ZEFSAII (Michael W. Deem and Ramdas Pophale) SiO2 
 PCOD8075315
Probable space group: P 21/M
;
_chemical_formula_sum "Si O2"
_cell_formula_units_Z 24
_cell_length_a 7.842149
_cell_length_b 25.136853
_cell_length_c 6.516757
_cell_angle_alpha 90.000000
_cell_angle_beta 65.341876
_cell_angle_gamma 90.000000
_cell_volume 1167.487439
_symmetry_space_group_name_H-M "P 21/M"
_symmetry_group_IT_number 11
_symmetry_cell_setting 'monoclinic'
loop_
_space_group_symop_operation_xyz
x,y,z
-x,1/2+y,-z
-x,-y,-z
x,1/2-y,z
loop_
_atom_site_type_symbol
_atom_site_label
_atom_site_fract_x
_atom_site_fract_y
_atom_site_fract_z
Si Si1 0.107914 0.611977 0.684147
Si Si2 0.872419 0.864897 0.182648
Si Si3 0.169039 0.688283 0.310360
Si Si4 0.225023 0.428705 0.390011
Si Si5 0.454844 0.375420 0.940583
Si Si6 0.392778 0.965554 0.392540
O O1 0.132542 0.669913 0.563758
O O2 0.300137 0.579812 0.581376
O O3 0.977284 0.576614 0.606391
O O4 0.036034 0.614249 0.951210
O O5 0.787544 0.912285 0.363852
O O6 0.698550 0.843977 0.127521
O O7 0.979234 0.821585 0.271382
O O8 0.216359 0.750000 0.284592
O O9 0.352268 0.657377 0.130820
O O10 0.266187 0.491146 0.338325
O O11 0.367904 0.386972 0.208148
O O12 0.485167 0.434681 0.836690
O O13 0.500000 0.000000 0.500000
#
# Coordination Sequence:
#
# PCOD8075315 Si02
#       6
#     4   4   4   4   4   4
#     4   9  22  39  58  84 119 153 197 245 286 353
#     4  10  21  40  60  84 119 153 192 245 289 349
#     4  10  23  41  63  85 109 149 198 249 305 349
#     4  10  20  38  57  85 122 159 195 231 290 349
#     4  10  22  39  59  88 123 154 197 248 286 355
#     4  11  20  34  58  87 122 164 195 231 294 347
#
# _framework density 20.556968000000001
#
# number of rings (size 3 to 8) (size 9 to 14) (size 15 to 20)
#    0.000    2.000    1.667    1.000    2.333    2.000 
#    3.000    6.667    0.000    0.000    0.000    0.000 
#    0.000    0.000    0.000    0.000    0.000    0.000 
#
# Total GULP energy -297376.125751 kJ/mol
# GULP energy per Si atom -12390.671906 kJ/mol
# Density = 2.051018 g / cm^3
# Si number density = 20.556968 Si / 1000 Ang^3
#
#
#
# Elastic Constant Matrix: (Units=GPa)
#
#
# Indices 1 2 3 4 5 6 
#
# 1 63.3892 29.7239 15.7482 0.0000 -4.2953 0.0000
# 2 29.7239 106.9791 30.4757 0.0000 4.0655 0.0000
# 3 15.7482 30.4757 130.9514 0.0000 -10.1863 0.0000
# 4 0.0000 0.0000 0.0000 12.4048 0.0000 -0.3905
# 5 -4.2953 4.0655 -10.1863 0.0000 26.5243 0.0000
# 6 0.0000 0.0000 0.0000 -0.3905 0.0000 22.8653
#
#
#
# Elastic Compliance Matrix: (Units=1/GPa)
#
#
# Indices 1 2 3 4 5 6 
#
# 1 0.018585 -0.005073 -0.000783 0.000000 0.003486 0.000000
# 2 -0.005073 0.011560 -0.002352 0.000000 -0.003497 0.000000
# 3 -0.000783 -0.002352 0.008552 0.000000 0.003518 0.000000
# 4 0.000000 0.000000 0.000000 0.080658 0.000000 0.001378
# 5 0.003486 -0.003497 0.003518 0.000000 0.040153 0.000000
# 6 0.000000 0.000000 0.000000 0.001378 0.000000 0.043758
#
#
# Mechanical properties :
#
#
# Convention : Reuss Voigt Hill
#
# Bulk Modulus (GPa) = 44.88376 50.35726 47.62051
# Shear Modulus (GPa) = 22.01582 27.38367 24.69974
#
# Velocity S-wave (km/s) = 3.27611 3.65374 3.47006
# Velocity P-wave (km/s) = 6.01596 6.50764 6.26662
#
# Compressibility (1/GPa) = 0.02227977
#
# Stress axis : x y z
#
# Youngs Moduli (GPa) = 53.80604 86.50372 116.93609
#
# Poissons Ratio (x) = 0.43886 0.09158
# Poissons Ratio (y) = 0.27297 0.27506
# Poissons Ratio (z) = 0.04214 0.20348
#
# Static dielectric constant tensor:
#      x y z
#    x 4.035520 0.000000 -0.070870 
#    y 0.000000 4.288410 0.000000 
#    z -0.070870 0.000000 3.806730 
# 
# 
# High freq. dielectric constant tensor:
#      x y z
#    x 1.817490 0.000000 -0.006280 
#    y 0.000000 1.770810 0.000000 
#    z -0.006280 0.000000 1.809530 
# 
# From -- ./inp_files/2662.got.cif
#   From: 2010.06.25/outbox.cif.g09.slc.cpg/sg11_2_cif.got.tgz:2662.got - 2010.06.27 23:14:04.
