data_PCOD8075699
_publ_section_title
;
Structure prediction by ZEFSAII (Michael W. Deem and Ramdas Pophale) SiO2 
 PCOD8075699
Probable space group: P 21/M
;
_chemical_formula_sum "Si O2"
_cell_formula_units_Z 28
_cell_length_a 23.114201
_cell_length_b 8.878406
_cell_length_c 20.323226
_cell_angle_alpha 90.000000
_cell_angle_beta 19.304157
_cell_angle_gamma 90.000000
_cell_volume 1378.754287
_symmetry_space_group_name_H-M "P 21/M"
_symmetry_group_IT_number 11
_symmetry_cell_setting 'monoclinic'
loop_
_space_group_symop_operation_xyz
x,y,z
-x,1/2+y,-z
-x,-y,-z
x,1/2-y,z
loop_
_atom_site_type_symbol
_atom_site_label
_atom_site_fract_x
_atom_site_fract_y
_atom_site_fract_z
Si Si1 0.463576 0.570141 0.109303
Si Si2 0.483198 0.914840 0.450489
Si Si3 0.122537 0.426725 0.535743
Si Si4 0.654576 0.582538 0.137606
Si Si5 0.280803 0.926722 0.060914
Si Si6 0.083120 0.585159 0.850566
Si Si7 0.053272 0.582542 0.738906
O O1 0.465031 0.750000 0.104925
O O2 0.269976 0.515823 0.337577
O O3 0.500000 0.500000 0.000000
O O4 0.622490 0.515808 0.985061
O O5 0.569296 0.750000 0.367533
O O6 0.578478 0.994401 0.286024
O O7 0.284371 0.899163 0.646893
O O8 0.500000 0.000000 0.500000
O O9 0.158551 0.250000 0.491422
O O10 0.147911 0.474930 0.584820
O O11 0.927504 0.466320 0.717504
O O12 0.570029 0.750000 0.217690
O O13 0.619368 0.474949 0.113364
O O14 0.858442 0.602224 0.924697
O O15 0.308507 0.750000 0.041522
O O16 0.993880 0.750000 0.942948
O O17 0.057039 0.505602 0.807460
O O18 0.000000 0.500000 0.000000
O O19 0.142286 0.750000 0.645428
#
# Coordination Sequence:
#
# PCOD8075699 Si02
#       7
#     4   4   4   4   4   4   4
#     4  12  26  44  68  96 130 168 210 258 308 370
#     4  10  21  35  52  77 110 149 196 246 299 357
#     4  10  22  41  65  95 130 165 206 256 311 371
#     4   9  18  34  56  82 113 151 196 247 304 364
#     4  10  22  41  65  95 130 165 206 256 311 371
#     4  10  21  35  52  77 110 149 196 246 299 357
#     4   9  18  34  56  82 113 151 196 247 304 364
#
# _framework density 20.308187
#
# number of rings (size 3 to 8) (size 9 to 14) (size 15 to 20)
#    0.000    2.000    0.000    3.000    2.000    5.143 
#    0.000    2.857    0.000    0.000    0.000    0.000 
#    0.000    0.000    0.000    0.000    0.000    0.000 
#
# Total GULP energy -347014.266850 kJ/mol
# GULP energy per Si atom -12393.366673 kJ/mol
# Density = 2.026196 g / cm^3
# Si number density = 20.308187 Si / 1000 Ang^3
#
#
#
# Elastic Constant Matrix: (Units=GPa)
#
#
# Indices 1 2 3 4 5 6 
#
# 1 163.7926 72.2789 61.7262 0.0000 28.8920 0.0000
# 2 72.2789 120.6211 58.0519 0.0000 13.4790 0.0000
# 3 61.7262 58.0519 104.7253 0.0000 27.0093 0.0000
# 4 0.0000 0.0000 0.0000 27.7604 0.0000 -0.1852
# 5 28.8920 13.4790 27.0093 0.0000 37.5437 0.0000
# 6 0.0000 0.0000 0.0000 -0.1852 0.0000 27.5666
#
#
#
# Elastic Compliance Matrix: (Units=1/GPa)
#
#
# Indices 1 2 3 4 5 6 
#
# 1 0.009527 -0.004172 -0.002208 0.000000 -0.004246 0.000000
# 2 -0.004172 0.013143 -0.005449 0.000000 0.002412 0.000000
# 3 -0.002208 -0.005449 0.015873 0.000000 -0.007764 0.000000
# 4 0.000000 0.000000 0.000000 0.036024 0.000000 0.000242
# 5 -0.004246 0.002412 -0.007764 0.000000 0.034622 0.000000
# 6 0.000000 0.000000 0.000000 0.000242 0.000000 0.036277
#
#
# Mechanical properties :
#
#
# Convention : Reuss Voigt Hill
#
# Bulk Modulus (GPa) = 67.17565 85.91700 76.54633
# Shear Modulus (GPa) = 28.72146 31.71292 30.21719
#
# Velocity S-wave (km/s) = 3.76477 3.95597 3.86156
# Velocity P-wave (km/s) = 7.21442 7.95391 7.59318
#
# Compressibility (1/GPa) = 0.01488635
#
# Stress axis : x y z
#
# Youngs Moduli (GPa) = 104.96247 76.08567 63.00107
#
# Poissons Ratio (x) = 0.31742 0.13910
# Poissons Ratio (y) = 0.43789 0.34326
# Poissons Ratio (z) = 0.23175 0.41456
#
# Static dielectric constant tensor:
#      x y z
#    x 3.801910 0.000000 0.043210 
#    y 0.000000 3.425520 0.000000 
#    z 0.043210 0.000000 3.756020 
# 
# 
# High freq. dielectric constant tensor:
#      x y z
#    x 1.802470 0.000000 0.003310 
#    y 0.000000 1.782820 0.000000 
#    z 0.003310 0.000000 1.798950 
# 
# From -- ./inp_files/66659.got.cif
#   From: 2010.06.25/outbox.cif.g09.slc.cpg/sg11_34_cif.got.tgz:66659.got - 2010.06.27 23:14:04.
