data_PCOD8075379
_publ_section_title
;
Structure prediction by ZEFSAII (Michael W. Deem and Ramdas Pophale) SiO2 
 PCOD8075379
Probable space group: P 21/M
;
_chemical_formula_sum "Si O2"
_cell_formula_units_Z 24
_cell_length_a 8.938458
_cell_length_b 16.839424
_cell_length_c 15.784546
_cell_angle_alpha 90.000000
_cell_angle_beta 146.339560
_cell_angle_gamma 90.000000
_cell_volume 1316.870906
_symmetry_space_group_name_H-M "P 21/M"
_symmetry_group_IT_number 11
_symmetry_cell_setting 'monoclinic'
loop_
_space_group_symop_operation_xyz
x,y,z
-x,1/2+y,-z
-x,-y,-z
x,1/2-y,z
loop_
_atom_site_type_symbol
_atom_site_label
_atom_site_fract_x
_atom_site_fract_y
_atom_site_fract_z
Si Si1 0.296934 0.570920 0.814221
Si Si2 0.460615 0.900981 0.073249
Si Si3 0.593610 0.343021 0.305162
Si Si4 0.022887 0.839538 0.360691
Si Si5 0.188940 0.986505 0.339605
Si Si6 0.930047 0.941294 0.892863
O O1 0.475137 0.493476 0.879866
O O2 0.305526 0.629538 0.739024
O O3 0.985860 0.545765 0.683813
O O4 0.419703 0.615801 0.953879
O O5 0.700263 0.846430 0.222429
O O6 0.183995 0.882988 0.993398
O O7 0.533554 0.250000 0.273959
O O8 0.828748 0.364358 0.482660
O O9 0.323433 0.386771 0.206322
O O10 0.099427 0.750000 0.371328
O O11 0.114558 0.895794 0.326948
O O12 0.120378 0.001329 0.210265
O O13 0.500000 0.000000 0.500000
O O14 0.000000 0.000000 0.000000
#
# Coordination Sequence:
#
# PCOD8075379 Si02
#       6
#     4   4   4   4   4   4
#     4   9  19  36  57  85 113 147 193 235 283 352
#     4   9  19  36  60  82 110 149 193 234 284 345
#     4  11  23  38  57  87 122 154 191 244 297 340
#     4  10  22  38  58  85 119 153 195 244 292 343
#     4  10  20  38  61  87 114 156 197 234 291 347
#     4  11  21  37  60  90 118 148 199 245 282 348
#
# _framework density 18.225021000000002
#
# number of rings (size 3 to 8) (size 9 to 14) (size 15 to 20)
#    0.000    2.000    3.333    1.000    0.000    5.333 
#    0.000    3.333    0.000    0.000    0.000    0.000 
#    0.000    0.000    0.000    0.000    0.000    0.000 
#
# Total GULP energy -297597.441272 kJ/mol
# GULP energy per Si atom -12399.893386 kJ/mol
# Density = 1.818354 g / cm^3
# Si number density = 18.225021 Si / 1000 Ang^3
#
#
#
# Elastic Constant Matrix: (Units=GPa)
#
#
# Indices 1 2 3 4 5 6 
#
# 1 126.3868 55.2005 81.8772 0.0000 1.8208 0.0000
# 2 55.2005 90.5698 57.9716 0.0000 -9.3238 0.0000
# 3 81.8772 57.9716 141.8047 0.0000 13.4017 0.0000
# 4 0.0000 0.0000 0.0000 24.9423 0.0000 -4.2765
# 5 1.8208 -9.3238 13.4017 0.0000 37.2680 0.0000
# 6 0.0000 0.0000 0.0000 -4.2765 0.0000 21.3227
#
#
#
# Elastic Compliance Matrix: (Units=1/GPa)
#
#
# Indices 1 2 3 4 5 6 
#
# 1 0.013886 -0.004408 -0.006260 0.000000 0.000470 0.000000
# 2 -0.004408 0.017851 -0.005378 0.000000 0.006615 0.000000
# 3 -0.006260 -0.005378 0.013419 0.000000 -0.005865 0.000000
# 4 0.000000 0.000000 0.000000 0.041520 0.000000 0.008327
# 5 0.000470 0.006615 -0.005865 0.000000 0.030574 0.000000
# 6 0.000000 0.000000 0.000000 0.008327 0.000000 0.048568
#
#
# Mechanical properties :
#
#
# Convention : Reuss Voigt Hill
#
# Bulk Modulus (GPa) = 76.54227 83.20665 79.87446
# Shear Modulus (GPa) = 24.71994 27.62075 26.17035
#
# Velocity S-wave (km/s) = 3.68689 3.89722 3.79351
# Velocity P-wave (km/s) = 7.75976 8.12437 7.94416
#
# Compressibility (1/GPa) = 0.01306468
#
# Stress axis : x y z
#
# Youngs Moduli (GPa) = 72.01392 56.01938 74.51926
#
# Poissons Ratio (x) = 0.24693 0.46650
# Poissons Ratio (y) = 0.31744 0.40075
# Poissons Ratio (z) = 0.45082 0.30126
#
# Static dielectric constant tensor:
#      x y z
#    x 3.403940 0.000000 -0.236220 
#    y 0.000000 3.178320 0.000000 
#    z -0.236220 0.000000 1.971320 
# 
# 
# High freq. dielectric constant tensor:
#      x y z
#    x 1.708490 0.000000 0.008210 
#    y 0.000000 1.683780 0.000000 
#    z 0.008210 0.000000 1.724910 
# 
# From -- ./inp_files/47711.got.cif
#   From: 2010.06.25/outbox.cif.g09.slc.cpg/sg11_24_cif.got.tgz:47711.got - 2010.06.27 23:14:04.
