data_PCOD8075396
_publ_section_title
;
Structure prediction by ZEFSAII (Michael W. Deem and Ramdas Pophale) SiO2 
 PCOD8075396
Probable space group: P 21/M
;
_chemical_formula_sum "Si O2"
_cell_formula_units_Z 32
_cell_length_a 25.887942
_cell_length_b 8.570991
_cell_length_c 20.796864
_cell_angle_alpha 90.000000
_cell_angle_beta 159.117996
_cell_angle_gamma 90.000000
_cell_volume 1644.820107
_symmetry_space_group_name_H-M "P 21/M"
_symmetry_group_IT_number 11
_symmetry_cell_setting 'monoclinic'
loop_
_space_group_symop_operation_xyz
x,y,z
-x,1/2+y,-z
-x,-y,-z
x,1/2-y,z
loop_
_atom_site_type_symbol
_atom_site_label
_atom_site_fract_x
_atom_site_fract_y
_atom_site_fract_z
Si Si1 0.924530 0.069461 0.973815
Si Si2 0.348610 0.067762 0.027194
Si Si3 0.247353 0.565551 0.043279
Si Si4 0.638155 0.566848 0.696325
Si Si5 0.643163 0.428550 0.195272
Si Si6 0.843982 0.428456 0.308376
Si Si7 0.945030 0.570469 0.740465
Si Si8 0.346438 0.433566 0.658078
O O1 0.885945 0.250000 0.918852
O O2 0.777665 0.978021 0.816841
O O3 0.037171 0.046272 0.162938
O O4 0.000000 0.000000 0.000000
O O5 0.335933 0.250000 0.025831
O O6 0.301880 0.977376 0.036547
O O7 0.512420 0.024824 0.200748
O O8 0.244118 0.023805 0.847141
O O9 0.246517 0.750000 0.051679
O O10 0.353619 0.498061 0.221439
O O11 0.084177 0.497903 0.864911
O O12 0.500000 0.500000 0.500000
O O13 0.623855 0.750000 0.683668
O O14 0.615194 0.250000 0.183676
O O15 0.769124 0.440699 0.290058
O O16 0.688155 0.532472 0.308070
O O17 0.500000 0.500000 0.000000
O O18 0.854404 0.250000 0.297139
O O19 0.000000 0.500000 0.500000
O O20 0.936408 0.750000 0.710681
O O21 0.791502 0.496667 0.541190
O O22 0.372624 0.250000 0.677688
#
# Coordination Sequence:
#
# PCOD8075396 Si02
#       8
#     4   4   4   4   4   4   4   4
#     4  10  20  38  61  89 124 161 203 252 303 358
#     4  12  25  41  60  88 123 160 202 250 300 358
#     4  10  21  41  64  89 121 159 200 251 306 360
#     4  11  22  39  62  91 123 162 206 252 305 362
#     4  11  23  40  62  88 118 155 197 246 303 359
#     4  11  25  43  63  89 120 156 200 249 304 362
#     4   8  19  38  61  87 116 153 196 240 296 357
#     4  11  22  39  62  88 117 157 202 248 301 359
#
# _framework density 19.455013999999998
#
# number of rings (size 3 to 8) (size 9 to 14) (size 15 to 20)
#    0.000    1.500    1.250    4.875    1.750    2.500 
#    0.000   10.625    0.000    0.000    0.000    0.000 
#    0.000    0.000    0.000    0.000    0.000    0.000 
#
# Total GULP energy -396872.557608 kJ/mol
# GULP energy per Si atom -12402.267425 kJ/mol
# Density = 1.941073 g / cm^3
# Si number density = 19.455014 Si / 1000 Ang^3
#
#
#
# Elastic Constant Matrix: (Units=GPa)
#
#
# Indices 1 2 3 4 5 6 
#
# 1 104.6056 19.8887 40.9391 0.0000 -3.2673 0.0000
# 2 19.8887 91.2037 34.6554 0.0000 2.7716 0.0000
# 3 40.9391 34.6554 159.2817 0.0000 -1.7811 0.0000
# 4 0.0000 0.0000 0.0000 28.2442 0.0000 -1.0017
# 5 -3.2673 2.7716 -1.7811 0.0000 23.9517 0.0000
# 6 0.0000 0.0000 0.0000 -1.0017 0.0000 37.5045
#
#
#
# Elastic Compliance Matrix: (Units=1/GPa)
#
#
# Indices 1 2 3 4 5 6 
#
# 1 0.010845 -0.001479 -0.002449 0.000000 0.001468 0.000000
# 2 -0.001479 0.012214 -0.002297 0.000000 -0.001786 0.000000
# 3 -0.002449 -0.002297 0.007413 0.000000 0.000483 0.000000
# 4 0.000000 0.000000 0.000000 0.035439 0.000000 0.000946
# 5 0.001468 -0.001786 0.000483 0.000000 0.042194 0.000000
# 6 0.000000 0.000000 0.000000 0.000946 0.000000 0.026689
#
#
# Mechanical properties :
#
#
# Convention : Reuss Voigt Hill
#
# Bulk Modulus (GPa) = 55.48988 60.67303 58.08146
# Shear Modulus (GPa) = 32.62597 35.24727 33.93662
#
# Velocity S-wave (km/s) = 4.09956 4.26106 4.18109
# Velocity P-wave (km/s) = 7.14091 7.44734 7.29573
#
# Compressibility (1/GPa) = 0.01802130
#
# Stress axis : x y z
#
# Youngs Moduli (GPa) = 92.20536 81.87199 134.89908
#
# Poissons Ratio (x) = 0.12109 0.33041
# Poissons Ratio (y) = 0.13637 0.30991
# Poissons Ratio (z) = 0.22584 0.18809
#
# Static dielectric constant tensor:
#      x y z
#    x 3.583060 0.000000 0.044800 
#    y 0.000000 3.660480 0.000000 
#    z 0.044800 0.000000 3.747180 
# 
# 
# High freq. dielectric constant tensor:
#      x y z
#    x 1.764870 0.000000 -0.000890 
#    y 0.000000 1.762210 0.000000 
#    z -0.000890 0.000000 1.768480 
# 
# From -- ./inp_files/67217.got.cif
#   From: 2010.06.25/outbox.cif.g09.slc.cpg/sg11_34_cif.got.tgz:67217.got - 2010.06.27 23:14:04.
