data_PCOD8075573
_publ_section_title
;
Structure prediction by ZEFSAII (Michael W. Deem and Ramdas Pophale) SiO2 
 PCOD8075573
Probable space group: P 21/M
;
_chemical_formula_sum "Si O2"
_cell_formula_units_Z 24
_cell_length_a 18.265896
_cell_length_b 13.992855
_cell_length_c 10.560613
_cell_angle_alpha 90.000000
_cell_angle_beta 154.262814
_cell_angle_gamma 90.000000
_cell_volume 1172.114605
_symmetry_space_group_name_H-M "P 21/M"
_symmetry_group_IT_number 11
_symmetry_cell_setting 'monoclinic'
loop_
_space_group_symop_operation_xyz
x,y,z
-x,1/2+y,-z
-x,-y,-z
x,1/2-y,z
loop_
_atom_site_type_symbol
_atom_site_label
_atom_site_fract_x
_atom_site_fract_y
_atom_site_fract_z
Si Si1 0.020002 0.051984 0.663816
Si Si2 0.514727 0.750000 0.204587
Si Si3 0.813141 0.250000 0.989867
Si Si4 0.282904 0.050391 0.733188
Si Si5 0.566266 0.544448 0.309823
Si Si6 0.322950 0.960651 0.273546
Si Si7 0.803577 0.750000 0.441401
Si Si8 0.866393 0.250000 0.372142
O O1 0.985109 0.163464 0.597725
O O2 0.000000 0.000000 0.500000
O O3 0.882715 0.011323 0.547260
O O4 0.197604 0.027918 0.001462
O O5 0.535691 0.651964 0.317875
O O6 0.667435 0.750000 0.342356
O O7 0.319370 0.750000 0.847612
O O8 0.834917 0.250000 0.173691
O O9 0.997410 0.250000 0.207468
O O10 0.710697 0.346749 0.793087
O O11 0.368927 0.052039 0.731470
O O12 0.231575 0.156884 0.697785
O O13 0.387751 0.008897 0.015012
O O14 0.686503 0.485118 0.590758
O O15 0.500000 0.000000 0.500000
#
# Coordination Sequence:
#
# PCOD8075573 Si02
#       8
#     4   2   2   4   4   4   2   2
#     4  12  23  41  66  95 126 172 222 265 326 389
#     4  10  20  39  67  95 132 172 215 265 334 379
#     4  12  24  44  68  94 132 174 217 274 339 387
#     4  10  20  40  66  95 128 174 219 259 325 391
#     4  10  22  39  66  96 134 172 212 270 324 393
#     4  12  26  43  66  97 133 170 221 278 329 387
#     4  10  20  39  67  97 128 176 219 261 322 397
#     4  12  22  40  72  98 126 174 225 272 319 403
#
# _framework density 20.475812000000001
#
# number of rings (size 3 to 8) (size 9 to 14) (size 15 to 20)
#    0.000    1.000    5.000    2.000    0.000    2.667 
#    0.000    1.667    0.000    0.000    0.000    0.000 
#    0.000    0.000    0.000    0.000    0.000    0.000 
#
# Total GULP energy -297322.293294 kJ/mol
# GULP energy per Si atom -12388.428887 kJ/mol
# Density = 2.042921 g / cm^3
# Si number density = 20.475812 Si / 1000 Ang^3
#
#
#
# Elastic Constant Matrix: (Units=GPa)
#
#
# Indices 1 2 3 4 5 6 
#
# 1 40.1231 37.5580 46.5547 0.0000 -3.2033 0.0000
# 2 37.5580 230.3095 86.2747 0.0000 -4.9068 0.0000
# 3 46.5547 86.2747 159.2401 0.0000 3.6062 0.0000
# 4 0.0000 0.0000 0.0000 44.2771 0.0000 -2.1903
# 5 -3.2033 -4.9068 3.6062 0.0000 36.6241 0.0000
# 6 0.0000 0.0000 0.0000 -2.1903 0.0000 21.2138
#
#
#
# Elastic Compliance Matrix: (Units=1/GPa)
#
#
# Indices 1 2 3 4 5 6 
#
# 1 0.039547 -0.002503 -0.010299 0.000000 0.004138 0.000000
# 2 -0.002503 0.005644 -0.002344 0.000000 0.000768 0.000000
# 3 -0.010299 -0.002344 0.010612 0.000000 -0.002260 0.000000
# 4 0.000000 0.000000 0.000000 0.022701 0.000000 0.002344
# 5 0.004138 0.000768 -0.002260 0.000000 0.027992 0.000000
# 6 0.000000 0.000000 0.000000 0.002344 0.000000 0.047381
#
#
# Mechanical properties :
#
#
# Convention : Reuss Voigt Hill
#
# Bulk Modulus (GPa) = 39.19848 85.60527 62.40187
# Shear Modulus (GPa) = 25.95070 37.70868 31.82969
#
# Velocity S-wave (km/s) = 3.56389 4.29607 3.94699
# Velocity P-wave (km/s) = 6.01003 8.15518 7.16336
#
# Compressibility (1/GPa) = 0.02551119
#
# Stress axis : x y z
#
# Youngs Moduli (GPa) = 25.28645 177.16363 94.23330
#
# Poissons Ratio (x) = 0.44340 0.97055
# Poissons Ratio (y) = 0.06329 0.22087
# Poissons Ratio (z) = 0.26044 0.41524
#
# Static dielectric constant tensor:
#      x y z
#    x 3.726150 0.000000 0.260190 
#    y 0.000000 4.396620 0.000000 
#    z 0.260190 0.000000 4.223830 
# 
# 
# High freq. dielectric constant tensor:
#      x y z
#    x 1.791360 0.000000 0.028130 
#    y 0.000000 1.827370 0.000000 
#    z 0.028130 0.000000 1.793560 
# 
# From -- ./inp_files/43457.got.cif
#   From: 2010.06.25/outbox.cif.g09.slc.cpg/sg11_22_cif.got.tgz:43457.got - 2010.06.27 23:14:04.
