data_PCOD8075523
_publ_section_title
;
Structure prediction by ZEFSAII (Michael W. Deem and Ramdas Pophale) SiO2 
 PCOD8075523
Probable space group: P 21/M
;
_chemical_formula_sum "Si O2"
_cell_formula_units_Z 32
_cell_length_a 12.968498
_cell_length_b 8.622456
_cell_length_c 14.184236
_cell_angle_alpha 90.000000
_cell_angle_beta 93.506505
_cell_angle_gamma 90.000000
_cell_volume 1583.116200
_symmetry_space_group_name_H-M "P 21/M"
_symmetry_group_IT_number 11
_symmetry_cell_setting 'monoclinic'
loop_
_space_group_symop_operation_xyz
x,y,z
-x,1/2+y,-z
-x,-y,-z
x,1/2-y,z
loop_
_atom_site_type_symbol
_atom_site_label
_atom_site_fract_x
_atom_site_fract_y
_atom_site_fract_z
Si Si1 0.593517 0.428623 0.062996
Si Si2 0.000939 0.067166 0.710991
Si Si3 0.614191 0.067501 0.716206
Si Si4 0.044938 0.429662 0.096796
Si Si5 0.261299 0.573629 0.097785
Si Si6 0.804865 0.432393 0.383572
Si Si7 0.612761 0.566883 0.266198
Si Si8 0.204799 0.565390 0.403045
O O1 0.569419 0.250000 0.087539
O O2 0.616008 0.529632 0.155957
O O3 0.500000 0.500000 0.000000
O O4 0.696242 0.439867 0.005321
O O5 0.996453 0.250000 0.717092
O O6 0.897118 0.001670 0.655609
O O7 0.012535 0.001385 0.816488
O O8 0.099189 0.018986 0.656320
O O9 0.613200 0.250000 0.704670
O O10 0.650306 0.022562 0.823545
O O11 0.496844 0.008171 0.696580
O O12 0.693035 0.996728 0.643185
O O13 0.020690 0.250000 0.095557
O O14 0.166585 0.459378 0.107969
O O15 0.000000 0.500000 0.000000
O O16 0.224849 0.750000 0.117423
O O17 0.825136 0.250000 0.380437
O O18 0.700338 0.471663 0.323663
O O19 0.794723 0.493501 0.489850
O O20 0.629613 0.750000 0.280824
O O21 0.205650 0.750000 0.399075
#
# Coordination Sequence:
#
# PCOD8075523 Si02
#       8
#     4   4   4   4   4   4   4   4
#     4  11  22  37  60  89 122 161 204 250 299 361
#     4  11  22  42  69  93 121 163 209 255 309 377
#     4   9  17  36  64  91 120 159 205 253 306 365
#     4  12  26  42  62  93 128 163 202 252 307 369
#     4  10  20  39  63  87 120 162 205 251 307 369
#     4  11  24  41  61  91 127 163 204 260 321 373
#     4  11  23  40  61  89 125 168 212 256 309 372
#     4   9  19  38  67  93 118 157 206 260 320 376
#
# _framework density 20.213297000000001
#
# number of rings (size 3 to 8) (size 9 to 14) (size 15 to 20)
#    0.000    1.500    2.500    3.000    1.750    1.500 
#    0.000    1.875    0.000    0.000    0.000    0.000 
#    0.000    0.000    0.000    0.000    0.000    0.000 
#
# Total GULP energy -396878.837728 kJ/mol
# GULP energy per Si atom -12402.463679 kJ/mol
# Density = 2.016729 g / cm^3
# Si number density = 20.213297 Si / 1000 Ang^3
#
#
#
# Elastic Constant Matrix: (Units=GPa)
#
#
# Indices 1 2 3 4 5 6 
#
# 1 107.1675 13.8576 46.9208 0.0000 -14.4640 0.0000
# 2 13.8576 61.0149 20.1760 0.0000 -2.6795 0.0000
# 3 46.9208 20.1760 142.3226 0.0000 -8.0749 0.0000
# 4 0.0000 0.0000 0.0000 25.5351 0.0000 -0.3453
# 5 -14.4640 -2.6795 -8.0749 0.0000 35.9149 0.0000
# 6 0.0000 0.0000 0.0000 -0.3453 0.0000 28.5570
#
#
#
# Elastic Compliance Matrix: (Units=1/GPa)
#
#
# Indices 1 2 3 4 5 6 
#
# 1 0.011494 -0.001325 -0.003388 0.000000 0.003769 0.000000
# 2 -0.001325 0.017368 -0.002008 0.000000 0.000311 0.000000
# 3 -0.003388 -0.002008 0.008450 0.000000 0.000386 0.000000
# 4 0.000000 0.000000 0.000000 0.039168 0.000000 0.000474
# 5 0.003769 0.000311 0.000386 0.000000 0.029471 0.000000
# 6 0.000000 0.000000 0.000000 0.000474 0.000000 0.035023
#
#
# Mechanical properties :
#
#
# Convention : Reuss Voigt Hill
#
# Bulk Modulus (GPa) = 41.89145 52.49043 47.19094
# Shear Modulus (GPa) = 30.79337 33.30477 32.04907
#
# Velocity S-wave (km/s) = 3.90734 4.06355 3.98621
# Velocity P-wave (km/s) = 6.41296 6.93118 6.67710
#
# Compressibility (1/GPa) = 0.02387122
#
# Stress axis : x y z
#
# Youngs Moduli (GPa) = 86.99873 57.57753 118.34760
#
# Poissons Ratio (x) = 0.07628 0.40094
# Poissons Ratio (y) = 0.11526 0.23761
# Poissons Ratio (z) = 0.29474 0.11560
#
# Static dielectric constant tensor:
#      x y z
#    x 3.921410 0.000000 -0.124140 
#    y 0.000000 3.496930 0.000000 
#    z -0.124140 0.000000 3.959340 
# 
# 
# High freq. dielectric constant tensor:
#      x y z
#    x 1.800470 0.000000 -0.006930 
#    y 0.000000 1.770390 0.000000 
#    z -0.006930 0.000000 1.798940 
# 
# From -- ./inp_files/49342.got.cif
#   From: 2010.06.25/outbox.cif.g09.slc.cpg/sg11_25_cif.got.tgz:49342.got - 2010.06.27 23:14:04.
