data_PCOD8075803
_publ_section_title
;
Structure prediction by ZEFSAII (Michael W. Deem and Ramdas Pophale) SiO2 
 PCOD8075803
Probable space group: P 21/M
;
_chemical_formula_sum "Si O2"
_cell_formula_units_Z 32
_cell_length_a 24.721725
_cell_length_b 9.004155
_cell_length_c 24.679282
_cell_angle_alpha 90.000000
_cell_angle_beta 17.678462
_cell_angle_gamma 90.000000
_cell_volume 1668.257890
_symmetry_space_group_name_H-M "P 21/M"
_symmetry_group_IT_number 11
_symmetry_cell_setting 'monoclinic'
loop_
_space_group_symop_operation_xyz
x,y,z
-x,1/2+y,-z
-x,-y,-z
x,1/2-y,z
loop_
_atom_site_type_symbol
_atom_site_label
_atom_site_fract_x
_atom_site_fract_y
_atom_site_fract_z
Si Si1 0.150529 0.076069 0.108920
Si Si2 0.068737 0.086306 0.486152
Si Si3 0.516583 0.072007 0.155077
Si Si4 0.478968 0.090128 0.074144
Si Si5 0.327415 0.075307 0.728609
Si Si6 0.273394 0.575074 0.669977
Si Si7 0.065083 0.425951 0.071089
Si Si8 0.860408 0.424236 0.475956
O O1 0.199275 0.250000 0.062026
O O2 0.096702 0.013910 0.101284
O O3 0.982842 0.044136 0.307309
O O4 0.325389 0.985627 0.958466
O O5 0.977742 0.250000 0.577271
O O6 0.275759 0.109545 0.282675
O O7 0.032761 0.991875 0.574679
O O8 0.000000 0.000000 0.500000
O O9 0.499358 0.250000 0.174524
O O10 0.564738 0.020629 0.046966
O O11 0.330223 0.000930 0.352349
O O12 0.566472 0.250000 0.978769
O O13 0.500000 0.000000 0.000000
O O14 0.304569 0.250000 0.742580
O O15 0.534272 0.030128 0.537627
O O16 0.240565 0.998875 0.759361
O O17 0.224549 0.018435 0.880048
O O18 0.257046 0.750000 0.694094
O O19 0.124104 0.515188 0.770936
O O20 0.061132 0.250000 0.076791
O O21 0.830263 0.250000 0.514789
#
# Coordination Sequence:
#
# PCOD8075803 Si02
#       8
#     4   4   4   4   4   4   4   4
#     4  10  22  38  59  84 109 146 194 238 279 329
#     4  10  21  36  54  80 110 141 177 219 273 334
#     4  10  22  40  58  80 111 147 184 226 281 338
#     4   9  20  35  52  77 104 133 170 213 265 325
#     4   9  17  30  51  77 106 141 177 218 270 322
#     4   9  17  30  50  76 107 141 176 219 268 320
#     4   9  18  33  52  77 105 137 182 227 268 318
#     4  10  21  38  59  83 110 144 186 231 279 332
#
# _framework density 19.181687
#
# number of rings (size 3 to 8) (size 9 to 14) (size 15 to 20)
#    0.000    2.500    0.000    2.250    1.750    5.000 
#    0.000    5.000    0.000    3.000    0.000    0.000 
#    0.000    0.000    0.000    0.000    0.000    0.000 
#
# Total GULP energy -396677.042202 kJ/mol
# GULP energy per Si atom -12396.157569 kJ/mol
# Density = 1.913803 g / cm^3
# Si number density = 19.181687 Si / 1000 Ang^3
#
#
#
# Elastic Constant Matrix: (Units=GPa)
#
#
# Indices 1 2 3 4 5 6 
#
# 1 192.3880 55.2184 84.9098 0.0000 2.4655 0.0000
# 2 55.2184 76.3984 41.8315 0.0000 2.0245 0.0000
# 3 84.9098 41.8315 103.5638 0.0000 3.6822 0.0000
# 4 0.0000 0.0000 0.0000 21.3994 0.0000 -1.5462
# 5 2.4655 2.0245 3.6822 0.0000 31.1514 0.0000
# 6 0.0000 0.0000 0.0000 -1.5462 0.0000 29.7575
#
#
#
# Elastic Compliance Matrix: (Units=1/GPa)
#
#
# Indices 1 2 3 4 5 6 
#
# 1 0.008666 -0.003049 -0.005881 0.000000 0.000207 0.000000
# 2 -0.003049 0.017881 -0.004710 0.000000 -0.000364 0.000000
# 3 -0.005881 -0.004710 0.016421 0.000000 -0.001170 0.000000
# 4 0.000000 0.000000 0.000000 0.046906 0.000000 0.002437
# 5 0.000207 -0.000364 -0.001170 0.000000 0.032247 0.000000
# 6 0.000000 0.000000 0.000000 0.002437 0.000000 0.033732
#
#
# Mechanical properties :
#
#
# Convention : Reuss Voigt Hill
#
# Bulk Modulus (GPa) = 63.73739 81.80773 72.77256
# Shear Modulus (GPa) = 26.54457 29.15435 27.84946
#
# Velocity S-wave (km/s) = 3.72405 3.90283 3.81449
# Velocity P-wave (km/s) = 7.19665 7.94046 7.57769
#
# Compressibility (1/GPa) = 0.01568938
#
# Stress axis : x y z
#
# Youngs Moduli (GPa) = 115.39818 55.92375 60.89610
#
# Poissons Ratio (x) = 0.17050 0.35811
# Poissons Ratio (y) = 0.35183 0.28683
# Poissons Ratio (z) = 0.67862 0.26341
#
# Static dielectric constant tensor:
#      x y z
#    x 3.500160 0.000000 -0.003470 
#    y 0.000000 3.475310 0.000000 
#    z -0.003470 0.000000 3.515430 
# 
# 
# High freq. dielectric constant tensor:
#      x y z
#    x 1.749030 0.000000 -0.002740 
#    y 0.000000 1.733140 0.000000 
#    z -0.002740 0.000000 1.750320 
# 
# From -- ./inp_files/69966.got.cif
#   From: 2010.06.25/outbox.cif.g09.slc.cpg/sg11_35_cif.got.tgz:69966.got - 2010.06.27 23:14:04.
