data_PCOD8075462
_publ_section_title
;
Structure prediction by ZEFSAII (Michael W. Deem and Ramdas Pophale) SiO2 
 PCOD8075462
Probable space group: P 21/M
;
_chemical_formula_sum "Si O2"
_cell_formula_units_Z 20
_cell_length_a 6.907392
_cell_length_b 25.536835
_cell_length_c 7.621096
_cell_angle_alpha 90.000000
_cell_angle_beta 141.208865
_cell_angle_gamma 90.000000
_cell_volume 842.186064
_symmetry_space_group_name_H-M "P 21/M"
_symmetry_group_IT_number 11
_symmetry_cell_setting 'monoclinic'
loop_
_space_group_symop_operation_xyz
x,y,z
-x,1/2+y,-z
-x,-y,-z
x,1/2-y,z
loop_
_atom_site_type_symbol
_atom_site_label
_atom_site_fract_x
_atom_site_fract_y
_atom_site_fract_z
Si Si1 0.579555 0.810021 0.537161
Si Si2 0.205009 0.947138 0.721248
Si Si3 0.059995 0.350161 0.882749
Si Si4 0.138699 0.467533 0.940440
Si Si5 0.365414 0.377172 0.772486
O O1 0.649480 0.750000 0.541851
O O2 0.591287 0.843167 0.367881
O O3 0.829633 0.830388 0.850438
O O4 0.242354 0.817217 0.382781
O O5 0.935199 0.998528 0.295897
O O6 0.941502 0.912678 0.447260
O O7 0.488099 0.958839 0.785372
O O8 0.341679 0.914697 0.985826
O O9 0.972352 0.411567 0.830876
O O10 0.315085 0.340414 0.909778
O O11 0.000000 0.500000 0.000000
#
# Coordination Sequence:
#
# PCOD8075462 Si02
#       5
#     4   4   4   4   4
#     4  12  26  44  67  93 122 165 219 271 326 383
#     4  10  23  38  63  96 128 170 216 247 304 390
#     4  11  25  43  66  97 130 165 212 264 318 383
#     4  10  20  38  63  95 133 171 205 253 311 374
#     4  11  23  45  65  91 132 169 210 269 317 368
#
# _framework density 23.747720000000001
#
# number of rings (size 3 to 8) (size 9 to 14) (size 15 to 20)
#    0.000    1.200    0.000    6.600    0.000   10.400 
#    0.000   12.000    0.000    0.000    0.000    0.000 
#    0.000    0.000    0.000    0.000    0.000    0.000 
#
# Total GULP energy -248002.450030 kJ/mol
# GULP energy per Si atom -12400.122501 kJ/mol
# Density = 2.369367 g / cm^3
# Si number density = 23.747720 Si / 1000 Ang^3
#
#
#
# Elastic Constant Matrix: (Units=GPa)
#
#
# Indices 1 2 3 4 5 6 
#
# 1 80.8805 37.3232 -0.3396 0.0000 -11.7147 0.0000
# 2 37.3232 131.5145 35.1593 0.0000 -5.0866 0.0000
# 3 -0.3396 35.1593 81.7039 0.0000 0.2703 0.0000
# 4 0.0000 0.0000 0.0000 21.8709 0.0000 3.5747
# 5 -11.7147 -5.0866 0.2703 0.0000 25.7276 0.0000
# 6 0.0000 0.0000 0.0000 3.5747 0.0000 30.1025
#
#
#
# Elastic Compliance Matrix: (Units=1/GPa)
#
#
# Indices 1 2 3 4 5 6 
#
# 1 0.015417 -0.004692 0.002063 0.000000 0.006071 0.000000
# 2 -0.004692 0.010099 -0.004365 0.000000 -0.000094 0.000000
# 3 0.002063 -0.004365 0.014126 0.000000 -0.000072 0.000000
# 4 0.000000 0.000000 0.000000 0.046628 0.000000 -0.005537
# 5 0.006071 -0.000094 -0.000072 0.000000 0.041615 0.000000
# 6 0.000000 0.000000 0.000000 -0.005537 0.000000 0.033877
#
#
# Mechanical properties :
#
#
# Convention : Reuss Voigt Hill
#
# Bulk Modulus (GPa) = 38.97958 48.70940 43.84449
# Shear Modulus (GPa) = 27.12946 30.33726 28.73336
#
# Velocity S-wave (km/s) = 3.38361 3.57806 3.48220
# Velocity P-wave (km/s) = 5.63159 6.13399 5.88815
#
# Compressibility (1/GPa) = 0.02565445
#
# Stress axis : x y z
#
# Youngs Moduli (GPa) = 64.86326 99.02389 70.78926
#
# Poissons Ratio (x) = 0.46462 -0.14605
# Poissons Ratio (y) = 0.30434 0.30899
# Poissons Ratio (z) = -0.13382 0.43223
#
# Static dielectric constant tensor:
#      x y z
#    x 4.353830 0.000000 -0.100930 
#    y 0.000000 4.311390 0.000000 
#    z -0.100930 0.000000 4.409080 
# 
# 
# High freq. dielectric constant tensor:
#      x y z
#    x 1.943270 0.000000 -0.009190 
#    y 0.000000 1.936100 0.000000 
#    z -0.009190 0.000000 1.954490 
# 
# From -- ./inp_files/15343.got.cif
#   From: 2010.06.25/outbox.cif.g09.slc.cpg/sg11_8_cif.got.tgz:15343.got - 2010.06.27 23:14:04.
