data_PCOD8075623
_publ_section_title
;
Structure prediction by ZEFSAII (Michael W. Deem and Ramdas Pophale) SiO2 
 PCOD8075623
Probable space group: P 21/M
;
_chemical_formula_sum "Si O2"
_cell_formula_units_Z 32
_cell_length_a 23.301655
_cell_length_b 8.936460
_cell_length_c 14.689597
_cell_angle_alpha 90.000000
_cell_angle_beta 30.408436
_cell_angle_gamma 90.000000
_cell_volume 1548.284020
_symmetry_space_group_name_H-M "P 21/M"
_symmetry_group_IT_number 11
_symmetry_cell_setting 'monoclinic'
loop_
_space_group_symop_operation_xyz
x,y,z
-x,1/2+y,-z
-x,-y,-z
x,1/2-y,z
loop_
_atom_site_type_symbol
_atom_site_label
_atom_site_fract_x
_atom_site_fract_y
_atom_site_fract_z
Si Si1 0.774376 0.425657 0.441227
Si Si2 0.976083 0.425474 0.292345
Si Si3 0.093732 0.074224 0.431014
Si Si4 0.431076 0.071649 0.776658
Si Si5 0.692600 0.083414 0.906017
Si Si6 0.390439 0.913046 0.177888
Si Si7 0.668879 0.572379 0.413934
Si Si8 0.231605 0.426410 0.914188
O O1 0.755129 0.250000 0.448879
O O2 0.903157 0.453713 0.299865
O O3 0.685025 0.486436 0.639238
O O4 0.751109 0.519346 0.382409
O O5 0.976528 0.250000 0.315906
O O6 0.910615 0.512028 0.461086
O O7 0.104532 0.489019 0.106568
O O8 0.080690 0.250000 0.451368
O O9 0.204366 0.030340 0.221775
O O10 0.000000 0.000000 0.500000
O O11 0.438555 0.250000 0.774356
O O12 0.324821 0.017335 0.859814
O O13 0.548216 0.010003 0.577129
O O14 0.414772 0.995048 0.897995
O O15 0.713038 0.250000 0.919347
O O16 0.683251 0.099712 0.811283
O O17 0.429171 0.750000 0.158683
O O18 0.500000 0.000000 0.000000
O O19 0.650007 0.750000 0.445563
O O20 0.730532 0.521711 0.237374
O O21 0.225900 0.250000 0.926225
#
# Coordination Sequence:
#
# PCOD8075623 Si02
#       8
#     4   4   4   4   4   4   4   4
#     4  10  21  39  61  87 121 162 204 252 309 371
#     4  10  20  41  66  88 121 163 205 256 313 370
#     4  12  24  38  59  89 124 163 204 249 298 360
#     4  11  22  39  62  92 124 160 205 257 314 377
#     4  11  22  39  60  88 121 159 199 244 300 361
#     4  10  21  36  55  82 116 156 196 238 292 354
#     4  11  23  40  61  89 121 161 208 259 312 370
#     4   9  21  40  64  89 118 157 205 258 319 373
#
# _framework density 20.668042
#
# number of rings (size 3 to 8) (size 9 to 14) (size 15 to 20)
#    0.000    1.500    1.250    4.125    0.000    5.500 
#    0.000    3.750    0.000    0.000    0.000    0.000 
#    0.000    0.000    0.000    0.000    0.000    0.000 
#
# Total GULP energy -396701.535816 kJ/mol
# GULP energy per Si atom -12396.922994 kJ/mol
# Density = 2.062100 g / cm^3
# Si number density = 20.668042 Si / 1000 Ang^3
#
#
#
# Elastic Constant Matrix: (Units=GPa)
#
#
# Indices 1 2 3 4 5 6 
#
# 1 75.7246 32.3684 17.6518 0.0000 -2.8541 0.0000
# 2 32.3684 103.3875 38.3769 0.0000 -1.3748 0.0000
# 3 17.6518 38.3769 101.9916 0.0000 -5.6601 0.0000
# 4 0.0000 0.0000 0.0000 29.3599 0.0000 -0.5214
# 5 -2.8541 -1.3748 -5.6601 0.0000 40.8899 0.0000
# 6 0.0000 0.0000 0.0000 -0.5214 0.0000 30.5678
#
#
#
# Elastic Compliance Matrix: (Units=1/GPa)
#
#
# Indices 1 2 3 4 5 6 
#
# 1 0.015356 -0.004448 -0.000940 0.000000 0.000792 0.000000
# 2 -0.004448 0.012533 -0.003970 0.000000 -0.000439 0.000000
# 3 -0.000940 -0.003970 0.011539 0.000000 0.001398 0.000000
# 4 0.000000 0.000000 0.000000 0.034070 0.000000 0.000581
# 5 0.000792 -0.000439 0.001398 0.000000 0.024690 0.000000
# 6 0.000000 0.000000 0.000000 0.000581 0.000000 0.032724
#
#
# Mechanical properties :
#
#
# Convention : Reuss Voigt Hill
#
# Bulk Modulus (GPa) = 48.28366 50.87753 49.58059
# Shear Modulus (GPa) = 31.94214 33.01064 32.47639
#
# Velocity S-wave (km/s) = 3.93553 4.00081 3.96831
# Velocity P-wave (km/s) = 6.63803 6.78321 6.71101
#
# Compressibility (1/GPa) = 0.02071094
#
# Stress axis : x y z
#
# Youngs Moduli (GPa) = 65.12068 79.78990 86.66310
#
# Poissons Ratio (x) = 0.35492 0.08146
# Poissons Ratio (y) = 0.28967 0.34408
# Poissons Ratio (z) = 0.06121 0.31679
#
# Static dielectric constant tensor:
#      x y z
#    x 4.141080 0.000000 -0.009290 
#    y 0.000000 3.605670 0.000000 
#    z -0.009290 0.000000 3.688430 
# 
# 
# High freq. dielectric constant tensor:
#      x y z
#    x 1.814370 0.000000 -0.003780 
#    y 0.000000 1.795910 0.000000 
#    z -0.003780 0.000000 1.817490 
# 
# From -- ./inp_files/55647.got.cif
#   From: 2010.06.25/outbox.cif.g09.slc.cpg/sg11_28_cif.got.tgz:55647.got - 2010.06.27 23:14:04.
