data_PCOD8075463
_publ_section_title
;
Structure prediction by ZEFSAII (Michael W. Deem and Ramdas Pophale) SiO2 
 PCOD8075463
Probable space group: P 21/M
;
_chemical_formula_sum "Si O2"
_cell_formula_units_Z 28
_cell_length_a 5.016131
_cell_length_b 18.798230
_cell_length_c 13.642389
_cell_angle_alpha 90.000000
_cell_angle_beta 68.429201
_cell_angle_gamma 90.000000
_cell_volume 1196.306289
_symmetry_space_group_name_H-M "P 21/M"
_symmetry_group_IT_number 11
_symmetry_cell_setting 'monoclinic'
loop_
_space_group_symop_operation_xyz
x,y,z
-x,1/2+y,-z
-x,-y,-z
x,1/2-y,z
loop_
_atom_site_type_symbol
_atom_site_label
_atom_site_fract_x
_atom_site_fract_y
_atom_site_fract_z
Si Si1 0.529594 0.669303 0.876210
Si Si2 0.719833 0.623100 0.234313
Si Si3 0.116478 0.250000 0.477766
Si Si4 0.478354 0.250000 0.615795
Si Si5 0.641817 0.164513 0.889924
Si Si6 0.974786 0.895218 0.582756
Si Si7 0.182496 0.667973 0.743165
Si Si8 0.394803 0.523364 0.407345
O O1 0.420411 0.750000 0.886511
O O2 0.869345 0.663493 0.834007
O O3 0.400605 0.634543 0.794179
O O4 0.399128 0.636506 0.993486
O O5 0.538193 0.682258 0.314021
O O6 0.055701 0.638013 0.192219
O O7 0.650557 0.550089 0.302092
O O8 0.605083 0.624741 0.138630
O O9 0.217428 0.250000 0.574949
O O10 0.214227 0.322483 0.408737
O O11 0.772948 0.250000 0.516821
O O12 0.611974 0.250000 0.886387
O O13 0.185432 0.883076 0.647267
O O14 0.164132 0.913406 0.460577
O O15 0.756505 0.959515 0.631090
O O16 0.254647 0.750000 0.702747
O O17 0.500000 0.500000 0.500000
#
# Coordination Sequence:
#
# PCOD8075463 Si02
#       8
#     4   4   2   2   4   4   4   4
#     4   9  20  36  61  94 133 155 203 267 327 374
#     4  12  23  38  63  90 132 167 215 251 314 386
#     4  12  24  40  64  93 126 165 206 280 308 359
#     4  12  22  36  58  93 128 165 212 264 308 365
#     4  11  21  38  63  99 128 166 207 269 326 374
#     4  11  25  42  65  92 129 168 217 260 318 377
#     4  10  20  38  63  96 122 164 208 264 322 371
#     4  11  27  44  61  91 131 181 209 256 317 385
#
# _framework density 23.405379
#
# number of rings (size 3 to 8) (size 9 to 14) (size 15 to 20)
#    0.000    1.143    3.571    2.571    6.000    2.286 
#    0.000    0.000    0.000    5.143    0.000    0.000 
#    0.000    0.000    0.000    0.000    0.000    0.000 
#
# Total GULP energy -347236.610968 kJ/mol
# GULP energy per Si atom -12401.307535 kJ/mol
# Density = 2.335211 g / cm^3
# Si number density = 23.405379 Si / 1000 Ang^3
#
#
#
# Elastic Constant Matrix: (Units=GPa)
#
#
# Indices 1 2 3 4 5 6 
#
# 1 60.5193 5.4668 -1.0192 0.0000 29.2523 0.0000
# 2 5.4668 80.1722 29.5430 0.0000 10.1926 0.0000
# 3 -1.0192 29.5430 89.7542 0.0000 27.1648 0.0000
# 4 0.0000 0.0000 0.0000 26.7088 0.0000 3.7976
# 5 29.2523 10.1926 27.1648 0.0000 42.8804 0.0000
# 6 0.0000 0.0000 0.0000 3.7976 0.0000 23.7753
#
#
#
# Elastic Compliance Matrix: (Units=1/GPa)
#
#
# Indices 1 2 3 4 5 6 
#
# 1 0.028591 -0.001923 0.008317 0.000000 -0.024316 0.000000
# 2 -0.001923 0.014333 -0.005079 0.000000 0.001123 0.000000
# 3 0.008317 -0.005079 0.017642 0.000000 -0.015643 0.000000
# 4 0.000000 0.000000 0.000000 0.038311 0.000000 -0.006119
# 5 -0.024316 0.001123 -0.015643 0.000000 0.049551 0.000000
# 6 0.000000 0.000000 0.000000 -0.006119 0.000000 0.043038
#
#
# Mechanical properties :
#
#
# Convention : Reuss Voigt Hill
#
# Bulk Modulus (GPa) = 15.82399 33.15853 24.49126
# Shear Modulus (GPa) = 23.82061 31.76991 27.79526
#
# Velocity S-wave (km/s) = 3.19367 3.68826 3.44984
# Velocity P-wave (km/s) = 4.51385 5.68643 5.13373
#
# Compressibility (1/GPa) = 0.06319519
#
# Stress axis : x y z
#
# Youngs Moduli (GPa) = 34.97662 69.76755 56.68188
#
# Poissons Ratio (x) = 0.13416 -0.47142
# Poissons Ratio (y) = 0.06726 0.28792
# Poissons Ratio (z) = -0.29090 0.35438
#
# Static dielectric constant tensor:
#      x y z
#    x 4.227530 0.000000 0.082650 
#    y 0.000000 4.216710 0.000000 
#    z 0.082650 0.000000 4.265490 
# 
# 
# High freq. dielectric constant tensor:
#      x y z
#    x 1.938420 0.000000 0.003030 
#    y 0.000000 1.896810 0.000000 
#    z 0.003030 0.000000 1.927780 
# 
# From -- ./inp_files/5052.got.cif
#   From: 2010.06.25/outbox.cif.g09.slc.cpg/sg11_3_cif.got.tgz:5052.got - 2010.06.27 23:14:04.
