data_PCOD8075529
_publ_section_title
;
Structure prediction by ZEFSAII (Michael W. Deem and Ramdas Pophale) SiO2 
 PCOD8075529
Probable space group: P 21/M
;
_chemical_formula_sum "Si O2"
_cell_formula_units_Z 28
_cell_length_a 11.179952
_cell_length_b 14.667195
_cell_length_c 8.635542
_cell_angle_alpha 90.000000
_cell_angle_beta 72.125006
_cell_angle_gamma 90.000000
_cell_volume 1347.688926
_symmetry_space_group_name_H-M "P 21/M"
_symmetry_group_IT_number 11
_symmetry_cell_setting 'monoclinic'
loop_
_space_group_symop_operation_xyz
x,y,z
-x,1/2+y,-z
-x,-y,-z
x,1/2-y,z
loop_
_atom_site_type_symbol
_atom_site_label
_atom_site_fract_x
_atom_site_fract_y
_atom_site_fract_z
Si Si1 0.165278 0.850457 0.779028
Si Si2 0.440731 0.852406 0.155222
Si Si3 0.037153 0.401880 0.927642
Si Si4 0.329259 0.465489 0.304364
Si Si5 0.096224 0.014811 0.598663
Si Si6 0.281700 0.354412 0.019834
Si Si7 0.430027 0.645939 0.796779
O O1 0.178209 0.750000 0.699714
O O2 0.301443 0.889577 0.771625
O O3 0.103902 0.917560 0.680271
O O4 0.076504 0.838537 0.967391
O O5 0.404483 0.750000 0.225866
O O6 0.356648 0.926467 0.277049
O O7 0.588680 0.871947 0.124636
O O8 0.414045 0.864385 0.985377
O O9 0.049451 0.406057 0.735790
O O10 0.169130 0.370612 0.946540
O O11 0.000000 0.500000 0.000000
O O12 0.229411 0.453009 0.479893
O O13 0.273168 0.422454 0.169068
O O14 0.455493 0.415062 0.309331
O O15 0.000000 0.000000 0.500000
O O16 0.280006 0.250000 0.082791
O O17 0.457640 0.750000 0.739395
#
# Coordination Sequence:
#
# PCOD8075529 Si02
#       7
#     4   4   4   4   4   4   4
#     4  10  22  42  65  86 119 162 210 262 306 362
#     4   9  20  34  59  95 125 158 209 253 302 371
#     4  10  22  38  63  83 117 156 213 249 300 365
#     4  11  21  36  66  90 130 167 192 255 326 365
#     4  11  26  41  58  91 126 161 208 254 314 382
#     4  10  20  39  63  91 121 162 213 258 302 366
#     4   9  19  36  61  94 119 157 214 255 300 371
#
# _framework density 20.776306999999999
#
# number of rings (size 3 to 8) (size 9 to 14) (size 15 to 20)
#    0.000    2.000    0.000    5.143   10.000    1.143 
#    0.000    5.000    0.000    0.000    0.000    0.000 
#    0.000    0.000    0.000    0.000    0.000    0.000 
#
# Total GULP energy -347131.735225 kJ/mol
# GULP energy per Si atom -12397.561972 kJ/mol
# Density = 2.072902 g / cm^3
# Si number density = 20.776307 Si / 1000 Ang^3
#
#
#
# Elastic Constant Matrix: (Units=GPa)
#
#
# Indices 1 2 3 4 5 6 
#
# 1 141.9523 38.6022 56.7912 0.0000 7.9854 0.0000
# 2 38.6022 89.8550 33.4648 0.0000 -3.3869 0.0000
# 3 56.7912 33.4648 106.4655 0.0000 -10.5769 0.0000
# 4 0.0000 0.0000 0.0000 15.5400 0.0000 4.1742
# 5 7.9854 -3.3869 -10.5769 0.0000 25.2939 0.0000
# 6 0.0000 0.0000 0.0000 4.1742 0.0000 33.3927
#
#
#
# Elastic Compliance Matrix: (Units=1/GPa)
#
#
# Indices 1 2 3 4 5 6 
#
# 1 0.010147 -0.002659 -0.005144 0.000000 -0.005711 0.000000
# 2 -0.002659 0.013301 -0.002611 0.000000 0.001529 0.000000
# 3 -0.005144 -0.002611 0.013651 0.000000 0.006983 0.000000
# 4 0.000000 0.000000 0.000000 0.066586 0.000000 -0.008323
# 5 -0.005711 0.001529 0.006983 0.000000 0.044463 0.000000
# 6 0.000000 0.000000 0.000000 -0.008323 0.000000 0.030987
#
#
# Mechanical properties :
#
#
# Convention : Reuss Voigt Hill
#
# Bulk Modulus (GPa) = 61.45593 66.22103 63.83848
# Shear Modulus (GPa) = 24.34437 28.80629 26.57533
#
# Velocity S-wave (km/s) = 3.42678 3.72761 3.58035
# Velocity P-wave (km/s) = 6.73061 7.10417 6.91991
#
# Compressibility (1/GPa) = 0.01627182
#
# Stress axis : x y z
#
# Youngs Moduli (GPa) = 98.55228 75.18144 73.25375
#
# Poissons Ratio (x) = 0.19987 0.37684
# Poissons Ratio (y) = 0.26200 0.19126
# Poissons Ratio (z) = 0.50698 0.19629
#
# Static dielectric constant tensor:
#      x y z
#    x 3.578940 0.000000 0.030670 
#    y 0.000000 3.942930 0.000000 
#    z 0.030670 0.000000 3.582220 
# 
# 
# High freq. dielectric constant tensor:
#      x y z
#    x 1.825610 0.000000 -0.010400 
#    y 0.000000 1.818440 0.000000 
#    z -0.010400 0.000000 1.784710 
# 
# From -- ./inp_files/17674.got.cif
#   From: 2010.06.25/outbox.cif.g09.slc.cpg/sg11_9_cif.got.tgz:17674.got - 2010.06.27 23:14:04.
