data_PCOD8075062
_publ_section_title
;
Structure prediction by ZEFSAII (Michael W. Deem and Ramdas Pophale) SiO2 
 PCOD8075062
Probable space group: P 21/M
;
_chemical_formula_sum "Si O2"
_cell_formula_units_Z 28
_cell_length_a 13.687137
_cell_length_b 8.913462
_cell_length_c 13.593161
_cell_angle_alpha 90.000000
_cell_angle_beta 120.204323
_cell_angle_gamma 90.000000
_cell_volume 1433.218056
_symmetry_space_group_name_H-M "P 21/M"
_symmetry_group_IT_number 11
_symmetry_cell_setting 'monoclinic'
loop_
_space_group_symop_operation_xyz
x,y,z
-x,1/2+y,-z
-x,-y,-z
x,1/2-y,z
loop_
_atom_site_type_symbol
_atom_site_label
_atom_site_fract_x
_atom_site_fract_y
_atom_site_fract_z
Si Si1 0.091588 0.427347 0.616089
Si Si2 0.807338 0.073293 0.764237
Si Si3 0.948851 0.927815 0.185397
Si Si4 0.388653 0.925212 0.485199
Si Si5 0.247069 0.428270 0.057797
Si Si6 0.665895 0.578078 0.341166
Si Si7 0.530553 0.423626 0.913944
O O1 0.075286 0.250000 0.606319
O O2 0.075078 0.491461 0.717862
O O3 0.214703 0.475331 0.641365
O O4 0.000000 0.500000 0.500000
O O5 0.806099 0.250000 0.787383
O O6 0.718462 0.030451 0.635021
O O7 0.929267 0.016520 0.789568
O O8 0.775667 0.981501 0.844101
O O9 0.945605 0.750000 0.186681
O O10 0.853500 0.988482 0.062881
O O11 0.409962 0.750000 0.494652
O O12 0.500000 0.000000 0.500000
O O13 0.366288 0.974956 0.584380
O O14 0.255772 0.250000 0.059267
O O15 0.363366 0.496267 0.080260
O O16 0.670249 0.750000 0.379028
O O17 0.575243 0.555504 0.210462
O O18 0.558839 0.250000 0.945844
O O19 0.500000 0.500000 0.000000
#
# Coordination Sequence:
#
# PCOD8075062 Si02
#       7
#     4   4   4   4   4   4   4
#     4  10  20  37  59  83 112 147 186 230 278 332
#     4  10  21  38  58  82 113 151 191 233 280 333
#     4   9  19  37  59  81 112 151 188 227 278 335
#     4  11  23  38  59  84 113 149 190 234 283 336
#     4  11  22  37  59  86 114 148 188 233 284 336
#     4  10  22  39  59  83 115 152 189 230 280 334
#     4  11  23  40  61  85 114 150 189 231 279 334
#
# _framework density 19.536453999999999
#
# number of rings (size 3 to 8) (size 9 to 14) (size 15 to 20)
#    0.000    1.714    0.000    4.286    0.000    9.714 
#    0.000    4.286    0.000    0.000    0.000    0.000 
#    0.000    0.000    0.000    0.000    0.000    0.000 
#
# Total GULP energy -347329.885800 kJ/mol
# GULP energy per Si atom -12404.638779 kJ/mol
# Density = 1.949199 g / cm^3
# Si number density = 19.536454 Si / 1000 Ang^3
#
#
#
# Elastic Constant Matrix: (Units=GPa)
#
#
# Indices 1 2 3 4 5 6 
#
# 1 170.2155 47.2361 49.6280 0.0000 -4.2722 0.0000
# 2 47.2361 60.0486 44.4367 0.0000 -2.7880 0.0000
# 3 49.6280 44.4367 99.1076 0.0000 -10.8953 0.0000
# 4 0.0000 0.0000 0.0000 36.0262 0.0000 -4.5575
# 5 -4.2722 -2.7880 -10.8953 0.0000 44.8798 0.0000
# 6 0.0000 0.0000 0.0000 -4.5575 0.0000 28.2518
#
#
#
# Elastic Compliance Matrix: (Units=1/GPa)
#
#
# Indices 1 2 3 4 5 6 
#
# 1 0.007704 -0.004798 -0.001704 0.000000 0.000022 0.000000
# 2 -0.004798 0.027973 -0.010273 0.000000 -0.001213 0.000000
# 3 -0.001704 -0.010273 0.015885 0.000000 0.003056 0.000000
# 4 0.000000 0.000000 0.000000 0.028336 0.000000 0.004571
# 5 0.000022 -0.001213 0.003056 0.000000 0.022950 0.000000
# 6 0.000000 0.000000 0.000000 0.004571 0.000000 0.036133
#
#
# Mechanical properties :
#
#
# Convention : Reuss Voigt Hill
#
# Bulk Modulus (GPa) = 55.51770 67.99705 61.75737
# Shear Modulus (GPa) = 28.00549 34.36963 31.18756
#
# Velocity S-wave (km/s) = 3.79027 4.19890 3.99980
# Velocity P-wave (km/s) = 6.90174 7.64123 7.28088
#
# Compressibility (1/GPa) = 0.01801227
#
# Stress axis : x y z
#
# Youngs Moduli (GPa) = 129.80694 35.74828 62.95084
#
# Poissons Ratio (x) = 0.17152 0.10727
# Poissons Ratio (y) = 0.62282 0.64670
# Poissons Ratio (z) = 0.22119 0.36725
#
# Static dielectric constant tensor:
#      x y z
#    x 3.215130 0.000000 0.588830 
#    y 0.000000 3.476870 0.000000 
#    z 0.588830 0.000000 3.365280 
# 
# 
# High freq. dielectric constant tensor:
#      x y z
#    x 1.783740 0.000000 0.000990 
#    y 0.000000 1.748480 0.000000 
#    z 0.000990 0.000000 1.779480 
# 
# From -- ./inp_files/38477.got.cif
#   From: 2010.06.25/outbox.cif.g09.slc.cpg/sg11_20_cif.got.tgz:38477.got - 2010.06.27 23:14:04.
