data_PCOD8075224
_publ_section_title
;
Structure prediction by ZEFSAII (Michael W. Deem and Ramdas Pophale) SiO2 
 PCOD8075224
Probable space group: P 21/M
;
_chemical_formula_sum "Si O2"
_cell_formula_units_Z 28
_cell_length_a 11.013071
_cell_length_b 8.933678
_cell_length_c 14.672216
_cell_angle_alpha 90.000000
_cell_angle_beta 111.575964
_cell_angle_gamma 90.000000
_cell_volume 1342.409740
_symmetry_space_group_name_H-M "P 21/M"
_symmetry_group_IT_number 11
_symmetry_cell_setting 'monoclinic'
loop_
_space_group_symop_operation_xyz
x,y,z
-x,1/2+y,-z
-x,-y,-z
x,1/2-y,z
loop_
_atom_site_type_symbol
_atom_site_label
_atom_site_fract_x
_atom_site_fract_y
_atom_site_fract_z
Si Si1 0.396424 0.571273 0.542074
Si Si2 0.894668 0.571413 0.541084
Si Si3 0.887929 0.423908 0.911827
Si Si4 0.266309 0.415905 0.843935
Si Si5 0.413558 0.580858 0.748262
Si Si6 0.030719 0.581171 0.259034
Si Si7 0.656847 0.923386 0.941290
O O1 0.500000 0.500000 0.500000
O O2 0.388944 0.750000 0.522481
O O3 0.250281 0.501947 0.500654
O O4 0.453908 0.528650 0.658045
O O5 0.884806 0.750000 0.521181
O O6 0.949418 0.539593 0.656662
O O7 0.000000 0.500000 0.500000
O O8 0.911038 0.250000 0.930010
O O9 0.882884 0.467161 0.803513
O O10 0.749236 0.471538 0.909602
O O11 0.000000 0.500000 0.000000
O O12 0.318350 0.250000 0.841787
O O13 0.287424 0.498866 0.753726
O O14 0.113960 0.422805 0.822193
O O15 0.342688 0.480903 0.953743
O O16 0.370461 0.750000 0.727329
O O17 0.519390 0.553106 0.855404
O O18 0.064259 0.750000 0.303237
O O19 0.702499 0.750000 0.950234
#
# Coordination Sequence:
#
# PCOD8075224 Si02
#       7
#     4   4   4   4   4   4   4
#     4  11  25  46  68  97 132 171 220 276 333 392
#     4  12  26  45  70  99 129 171 220 277 338 394
#     4  11  22  38  60  89 124 164 206 252 309 372
#     4  10  20  37  61  89 126 164 200 246 306 368
#     4  10  23  40  62  89 122 160 205 255 307 368
#     4  10  22  40  62  92 127 164 207 260 316 376
#     4  10  21  39  59  87 126 163 202 252 303 364
#
# _framework density 20.858013
#
# number of rings (size 3 to 8) (size 9 to 14) (size 15 to 20)
#    0.000    1.429    1.429    3.429    2.000    6.286 
#    0.000    0.000    0.000    0.000    0.000    0.000 
#    0.000    0.000    0.000    0.000    0.000    0.000 
#
# Total GULP energy -347016.088789 kJ/mol
# GULP energy per Si atom -12393.431742 kJ/mol
# Density = 2.081054 g / cm^3
# Si number density = 20.858013 Si / 1000 Ang^3
#
#
#
# Elastic Constant Matrix: (Units=GPa)
#
#
# Indices 1 2 3 4 5 6 
#
# 1 122.6960 57.2722 49.2450 0.0000 -29.7146 0.0000
# 2 57.2722 86.5153 54.3024 0.0000 -17.4340 0.0000
# 3 49.2450 54.3024 121.9886 0.0000 -23.6728 0.0000
# 4 0.0000 0.0000 0.0000 34.2053 0.0000 -3.9461
# 5 -29.7146 -17.4340 -23.6728 0.0000 38.4406 0.0000
# 6 0.0000 0.0000 0.0000 -3.9461 0.0000 38.3869
#
#
#
# Elastic Compliance Matrix: (Units=1/GPa)
#
#
# Indices 1 2 3 4 5 6 
#
# 1 0.013371 -0.006855 -0.001072 0.000000 0.006566 0.000000
# 2 -0.006855 0.019925 -0.006107 0.000000 -0.000023 0.000000
# 3 -0.001072 -0.006107 0.012096 0.000000 0.003851 0.000000
# 4 0.000000 0.000000 0.000000 0.029586 0.000000 0.003041
# 5 0.006566 -0.000023 0.003851 0.000000 0.033451 0.000000
# 6 0.000000 0.000000 0.000000 0.003041 0.000000 0.026363
#
#
# Mechanical properties :
#
#
# Convention : Reuss Voigt Hill
#
# Bulk Modulus (GPa) = 57.72285 72.53769 65.13027
# Shear Modulus (GPa) = 29.65015 33.56526 31.60770
#
# Velocity S-wave (km/s) = 3.77440 4.01587 3.89700
# Velocity P-wave (km/s) = 6.83586 7.50702 7.17929
#
# Compressibility (1/GPa) = 0.01732416
#
# Stress axis : x y z
#
# Youngs Moduli (GPa) = 74.79150 50.18821 82.67392
#
# Poissons Ratio (x) = 0.34406 0.08860
# Poissons Ratio (y) = 0.51272 0.50486
# Poissons Ratio (z) = 0.08015 0.30648
#
# Static dielectric constant tensor:
#      x y z
#    x 3.835000 0.000000 -0.155800 
#    y 0.000000 3.771870 0.000000 
#    z -0.155800 0.000000 3.943500 
# 
# 
# High freq. dielectric constant tensor:
#      x y z
#    x 1.822380 0.000000 -0.010130 
#    y 0.000000 1.812960 0.000000 
#    z -0.010130 0.000000 1.831300 
# 
# From -- ./inp_files/49477.got.cif
#   From: 2010.06.25/outbox.cif.g09.slc.cpg/sg11_25_cif.got.tgz:49477.got - 2010.06.27 23:14:04.
