data_PCOD8075503
_publ_section_title
;
Structure prediction by ZEFSAII (Michael W. Deem and Ramdas Pophale) SiO2 
 PCOD8075503
Probable space group: P 21/M
;
_chemical_formula_sum "Si O2"
_cell_formula_units_Z 24
_cell_length_a 12.824210
_cell_length_b 14.055099
_cell_length_c 11.170058
_cell_angle_alpha 90.000000
_cell_angle_beta 142.375083
_cell_angle_gamma 90.000000
_cell_volume 1229.131279
_symmetry_space_group_name_H-M "P 21/M"
_symmetry_group_IT_number 11
_symmetry_cell_setting 'monoclinic'
loop_
_space_group_symop_operation_xyz
x,y,z
-x,1/2+y,-z
-x,-y,-z
x,1/2-y,z
loop_
_atom_site_type_symbol
_atom_site_label
_atom_site_fract_x
_atom_site_fract_y
_atom_site_fract_z
Si Si1 0.159187 0.855978 0.959138
Si Si2 0.670803 0.452917 0.406541
Si Si3 0.542760 0.645165 0.222343
Si Si4 0.039569 0.453751 0.756402
Si Si5 0.618254 0.860903 0.018682
Si Si6 0.158575 0.638299 0.234081
O O1 0.077182 0.750000 0.872848
O O2 0.052478 0.932653 0.787578
O O3 0.346719 0.854238 0.077138
O O4 0.164646 0.889671 0.101479
O O5 0.638252 0.565979 0.387391
O O6 0.679786 0.410531 0.549803
O O7 0.861114 0.437014 0.520455
O O8 0.523312 0.401863 0.198865
O O9 0.622862 0.750000 0.319697
O O10 0.556748 0.617552 0.095979
O O11 0.200943 0.412740 0.833720
O O12 0.017649 0.400561 0.865512
O O13 0.641300 0.750000 0.013586
O O14 0.172315 0.750000 0.265605
#
# Coordination Sequence:
#
# PCOD8075503 Si02
#       6
#     4   4   4   4   4   4
#     4  10  20  39  61  84 121 159 193 240 293 347
#     4  10  22  37  63  87 117 148 199 244 287 344
#     4  10  22  40  59  86 120 159 196 238 292 351
#     4  10  22  37  63  89 115 152 200 239 291 345
#     4  11  22  40  62  85 121 156 194 242 294 346
#     4   9  20  38  59  88 120 150 195 244 288 347
#
# _framework density 19.525986
#
# number of rings (size 3 to 8) (size 9 to 14) (size 15 to 20)
#    1.000    1.000    1.667    2.000    0.000    2.000 
#    0.000    0.000    0.000    0.000    0.000    0.000 
#    0.000    0.000    0.000    0.000    0.000    0.000 
#
# Total GULP energy -297375.149433 kJ/mol
# GULP energy per Si atom -12390.631226 kJ/mol
# Density = 1.948154 g / cm^3
# Si number density = 19.525986 Si / 1000 Ang^3
#
#
#
# Elastic Constant Matrix: (Units=GPa)
#
#
# Indices 1 2 3 4 5 6 
#
# 1 79.4907 0.3026 -8.9925 0.0000 4.6440 0.0000
# 2 0.3026 106.4879 12.8184 0.0000 -3.1188 0.0000
# 3 -8.9925 12.8184 34.8686 0.0000 22.8166 0.0000
# 4 0.0000 0.0000 0.0000 31.8703 0.0000 4.2654
# 5 4.6440 -3.1188 22.8166 0.0000 21.3939 0.0000
# 6 0.0000 0.0000 0.0000 4.2654 0.0000 25.6351
#
#
#
# Elastic Compliance Matrix: (Units=1/GPa)
#
#
# Indices 1 2 3 4 5 6 
#
# 1 0.018561 -0.005103 0.032391 0.000000 -0.039318 0.000000
# 2 -0.005103 0.013705 -0.027758 0.000000 0.032710 0.000000
# 3 0.032391 -0.027758 0.180344 0.000000 -0.203415 0.000000
# 4 0.000000 0.000000 0.000000 0.032092 0.000000 -0.005340
# 5 -0.039318 0.032710 -0.203415 0.000000 0.276988 0.000000
# 6 0.000000 0.000000 0.000000 -0.005340 0.000000 0.039897
#
#
# Mechanical properties :
#
#
# Convention : Reuss Voigt Hill
#
# Bulk Modulus (GPa) = 4.72436 25.45603 15.09019
# Shear Modulus (GPa) = 7.89784 30.22778 19.06281
#
# Velocity S-wave (km/s) = 2.01335 3.93883 3.12794
# Velocity P-wave (km/s) = 2.79813 5.80958 4.55964
#
# Compressibility (1/GPa) = 0.21166870
#
# Stress axis : x y z
#
# Youngs Moduli (GPa) = 53.87677 72.96786 5.54495
#
# Poissons Ratio (x) = 0.37238 -0.17961
# Poissons Ratio (y) = 0.27495 0.15392
# Poissons Ratio (z) = -1.74514 2.02548
#
# Static dielectric constant tensor:
#      x y z
#    x 3.539300 0.000000 0.033590 
#    y 0.000000 4.039270 0.000000 
#    z 0.033590 0.000000 3.244980 
# 
# 
# High freq. dielectric constant tensor:
#      x y z
#    x 1.756650 0.000000 0.006450 
#    y 0.000000 1.784760 0.000000 
#    z 0.006450 0.000000 1.734960 
# 
# From -- ./inp_files/39702.got.cif
#   From: 2010.06.25/outbox.cif.g09.slc.cpg/sg11_20_cif.got.tgz:39702.got - 2010.06.27 23:14:04.
