data_PCOD8075829
_publ_section_title
;
Structure prediction by ZEFSAII (Michael W. Deem and Ramdas Pophale) SiO2 
 PCOD8075829
Probable space group: P 21/M
;
_chemical_formula_sum "Si O2"
_cell_formula_units_Z 32
_cell_length_a 25.037994
_cell_length_b 8.770395
_cell_length_c 15.443278
_cell_angle_alpha 90.000000
_cell_angle_beta 149.681908
_cell_angle_gamma 90.000000
_cell_volume 1711.897339
_symmetry_space_group_name_H-M "P 21/M"
_symmetry_group_IT_number 11
_symmetry_cell_setting 'monoclinic'
loop_
_space_group_symop_operation_xyz
x,y,z
-x,1/2+y,-z
-x,-y,-z
x,1/2-y,z
loop_
_atom_site_type_symbol
_atom_site_label
_atom_site_fract_x
_atom_site_fract_y
_atom_site_fract_z
Si Si1 0.324485 0.575757 0.479793
Si Si2 0.179859 0.429035 0.035115
Si Si3 0.437805 0.073686 0.794348
Si Si4 0.351812 0.426981 0.860365
Si Si5 0.901510 0.071569 0.909512
Si Si6 0.070291 0.574210 0.722165
Si Si7 0.861348 0.426232 0.375113
Si Si8 0.605586 0.072727 0.612811
O O1 0.337557 0.750000 0.528805
O O2 0.366562 0.463903 0.612065
O O3 0.202111 0.536021 0.292197
O O4 0.389506 0.545705 0.483115
O O5 0.184942 0.250000 0.055200
O O6 0.106844 0.499413 0.007509
O O7 0.297538 0.494870 0.202608
O O8 0.129958 0.468533 0.873421
O O9 0.470626 0.250000 0.838864
O O10 0.369813 0.035790 0.784562
O O11 0.544187 0.973924 0.940227
O O12 0.328419 0.250000 0.844202
O O13 0.254363 0.525767 0.756765
O O14 0.917823 0.250000 0.944720
O O15 0.000000 0.000000 0.000000
O O16 0.076670 0.750000 0.759529
O O17 0.128220 0.544882 0.712398
O O18 0.947612 0.526268 0.546524
O O19 0.880643 0.250000 0.424896
O O20 0.609612 0.250000 0.641157
O O21 0.500000 0.000000 0.500000
#
# Coordination Sequence:
#
# PCOD8075829 Si02
#       8
#     4   4   4   4   4   4   4   4
#     4   9  20  37  56  79 109 143 178 221 271 323
#     4  11  22  37  58  83 111 146 186 228 276 326
#     4  10  21  36  56  81 107 140 182 225 269 319
#     4  10  21  37  56  79 110 145 180 222 271 322
#     4  10  21  38  58  82 113 147 185 228 275 329
#     4  10  21  38  58  81 111 145 182 226 274 325
#     4  10  21  37  58  83 110 142 182 226 272 325
#     4  10  21  38  58  82 111 144 183 226 275 329
#
# _framework density 18.692709000000001
#
# number of rings (size 3 to 8) (size 9 to 14) (size 15 to 20)
#    0.000    2.000    0.000    4.125    0.000    8.000 
#    0.000    2.500    0.000    0.000    0.000    0.000 
#    0.000    0.000    0.000    0.000    0.000    0.000 
#
# Total GULP energy -396970.632986 kJ/mol
# GULP energy per Si atom -12405.332281 kJ/mol
# Density = 1.865016 g / cm^3
# Si number density = 18.692709 Si / 1000 Ang^3
#
#
#
# Elastic Constant Matrix: (Units=GPa)
#
#
# Indices 1 2 3 4 5 6 
#
# 1 101.0270 52.0653 67.7039 0.0000 19.4641 0.0000
# 2 52.0653 105.1100 48.2578 0.0000 2.0438 0.0000
# 3 67.7039 48.2578 98.0046 0.0000 0.0674 0.0000
# 4 0.0000 0.0000 0.0000 38.9103 0.0000 1.7345
# 5 19.4641 2.0438 0.0674 0.0000 34.9187 0.0000
# 6 0.0000 0.0000 0.0000 1.7345 0.0000 33.8730
#
#
#
# Elastic Compliance Matrix: (Units=1/GPa)
#
#
# Indices 1 2 3 4 5 6 
#
# 1 0.025227 -0.005469 -0.014725 0.000000 -0.013713 0.000000
# 2 -0.005469 0.013496 -0.002869 0.000000 0.002264 0.000000
# 3 -0.014725 -0.002869 0.021783 0.000000 0.008334 0.000000
# 4 0.000000 0.000000 0.000000 0.025759 0.000000 -0.001319
# 5 -0.013713 0.002264 0.008334 0.000000 0.036133 0.000000
# 6 0.000000 0.000000 0.000000 -0.001319 0.000000 0.029590
#
#
# Mechanical properties :
#
#
# Convention : Reuss Voigt Hill
#
# Bulk Modulus (GPa) = 69.54052 71.13284 70.33668
# Shear Modulus (GPa) = 24.64189 30.61473 27.62831
#
# Velocity S-wave (km/s) = 3.63473 4.05135 3.84868
# Velocity P-wave (km/s) = 7.40930 7.74732 7.58019
#
# Compressibility (1/GPa) = 0.01438010
#
# Stress axis : x y z
#
# Youngs Moduli (GPa) = 39.64039 74.09638 45.90735
#
# Poissons Ratio (x) = 0.40521 0.67599
# Poissons Ratio (y) = 0.21678 0.13171
# Poissons Ratio (z) = 0.58371 0.21259
#
# Static dielectric constant tensor:
#      x y z
#    x 3.476090 0.000000 0.108640 
#    y 0.000000 3.528910 0.000000 
#    z 0.108640 0.000000 3.488500 
# 
# 
# High freq. dielectric constant tensor:
#      x y z
#    x 1.726060 0.000000 0.002730 
#    y 0.000000 1.741810 0.000000 
#    z 0.002730 0.000000 1.728280 
# 
# From -- ./inp_files/55711.got.cif
#   From: 2010.06.25/outbox.cif.g09.slc.cpg/sg11_28_cif.got.tgz:55711.got - 2010.06.27 23:14:04.
