data_PCOD8075431
_publ_section_title
;
Structure prediction by ZEFSAII (Michael W. Deem and Ramdas Pophale) SiO2 
 PCOD8075431
Probable space group: P 21/M
;
_chemical_formula_sum "Si O2"
_cell_formula_units_Z 32
_cell_length_a 11.783704
_cell_length_b 21.554708
_cell_length_c 6.742786
_cell_angle_alpha 90.000000
_cell_angle_beta 116.129596
_cell_angle_gamma 90.000000
_cell_volume 1537.598852
_symmetry_space_group_name_H-M "P 21/M"
_symmetry_group_IT_number 11
_symmetry_cell_setting 'monoclinic'
loop_
_space_group_symop_operation_xyz
x,y,z
-x,1/2+y,-z
-x,-y,-z
x,1/2-y,z
loop_
_atom_site_type_symbol
_atom_site_label
_atom_site_fract_x
_atom_site_fract_y
_atom_site_fract_z
Si Si1 0.267281 0.412474 0.918595
Si Si2 0.700285 0.384935 0.509693
Si Si3 0.939752 0.932089 0.923655
Si Si4 0.135420 0.820971 0.063956
Si Si5 0.355764 0.680979 0.924330
Si Si6 0.748042 0.982266 0.479498
Si Si7 0.628790 0.820720 0.305636
Si Si8 0.570016 0.589370 0.578876
O O1 0.262915 0.470682 0.764174
O O2 0.283250 0.350818 0.797189
O O3 0.137030 0.412339 0.939334
O O4 0.384880 0.418412 0.159518
O O5 0.789100 0.332539 0.673141
O O6 0.647102 0.365755 0.258115
O O7 0.785213 0.446544 0.547447
O O8 0.579356 0.399896 0.553071
O O9 0.850417 0.937375 0.662036
O O10 0.032733 0.874732 0.951838
O O11 0.000000 0.000000 0.000000
O O12 0.080527 0.750000 0.026911
O O13 0.232947 0.829194 0.961725
O O14 0.358027 0.750000 0.837486
O O15 0.482055 0.669200 0.144057
O O16 0.610477 0.970360 0.477379
O O17 0.670732 0.750000 0.355981
O O18 0.645309 0.852851 0.533071
#
# Coordination Sequence:
#
# PCOD8075431 Si02
#       8
#     4   4   4   4   4   4   4   4
#     4  10  23  42  62  96 129 163 220 266 324 392
#     4  12  21  37  66  94 129 170 207 265 330 394
#     4  11  24  45  68  93 128 176 227 274 321 389
#     4  11  25  44  65  94 131 168 216 273 327 387
#     4  10  22  37  59  94 128 163 208 259 328 396
#     4  10  24  40  63  95 127 170 220 268 323 389
#     4  10  20  38  62  91 129 168 210 265 327 393
#     4  10  21  38  59  96 134 166 209 265 326 396
#
# _framework density 20.811668999999998
#
# number of rings (size 3 to 8) (size 9 to 14) (size 15 to 20)
#    0.000    1.500    3.750    0.750    1.750    3.500 
#    0.000    5.000    0.000    0.000    0.000    0.000 
#    0.000    0.000    0.000    0.000    0.000    0.000 
#
# Total GULP energy -396675.217895 kJ/mol
# GULP energy per Si atom -12396.100559 kJ/mol
# Density = 2.076430 g / cm^3
# Si number density = 20.811669 Si / 1000 Ang^3
#
#
#
# Elastic Constant Matrix: (Units=GPa)
#
#
# Indices 1 2 3 4 5 6 
#
# 1 91.9631 46.7359 28.2754 0.0000 -1.9967 0.0000
# 2 46.7359 134.5302 28.3763 0.0000 -3.2315 0.0000
# 3 28.2754 28.3763 95.7398 0.0000 -10.2311 0.0000
# 4 0.0000 0.0000 0.0000 26.5052 0.0000 6.7697
# 5 -1.9967 -3.2315 -10.2311 0.0000 27.4023 0.0000
# 6 0.0000 0.0000 0.0000 6.7697 0.0000 28.4897
#
#
#
# Elastic Compliance Matrix: (Units=1/GPa)
#
#
# Indices 1 2 3 4 5 6 
#
# 1 0.013908 -0.004230 -0.002915 0.000000 -0.000574 0.000000
# 2 -0.004230 0.009216 -0.001457 0.000000 0.000235 0.000000
# 3 -0.002915 -0.001457 0.012183 0.000000 0.004164 0.000000
# 4 0.000000 0.000000 0.000000 0.040166 0.000000 -0.009544
# 5 -0.000574 0.000235 0.004164 0.000000 0.038034 0.000000
# 6 0.000000 0.000000 0.000000 -0.009544 0.000000 0.037368
#
#
# Mechanical properties :
#
#
# Convention : Reuss Voigt Hill
#
# Bulk Modulus (GPa) = 55.24402 58.77869 57.01136
# Shear Modulus (GPa) = 28.71693 31.06913 29.89303
#
# Velocity S-wave (km/s) = 3.71866 3.86796 3.79404
# Velocity P-wave (km/s) = 6.71120 6.94641 6.82982
#
# Compressibility (1/GPa) = 0.01810151
#
# Stress axis : x y z
#
# Youngs Moduli (GPa) = 71.90294 108.50800 82.08349
#
# Poissons Ratio (x) = 0.45904 0.23926
# Poissons Ratio (y) = 0.30418 0.11960
# Poissons Ratio (z) = 0.20959 0.15810
#
# Static dielectric constant tensor:
#      x y z
#    x 3.719160 0.000000 -0.064000 
#    y 0.000000 3.887080 0.000000 
#    z -0.064000 0.000000 3.644430 
# 
# 
# High freq. dielectric constant tensor:
#      x y z
#    x 1.808850 0.000000 -0.007810 
#    y 0.000000 1.818970 0.000000 
#    z -0.007810 0.000000 1.814860 
# 
# From -- ./inp_files/5500.got.cif
#   From: 2010.06.25/outbox.cif.g09.slc.cpg/sg11_3_cif.got.tgz:5500.got - 2010.06.27 23:14:04.
