data_PCOD8075413
_publ_section_title
;
Structure prediction by ZEFSAII (Michael W. Deem and Ramdas Pophale) SiO2 
 PCOD8075413
Probable space group: P 21/M
;
_chemical_formula_sum "Si O2"
_cell_formula_units_Z 32
_cell_length_a 15.288007
_cell_length_b 9.301592
_cell_length_c 11.908857
_cell_angle_alpha 90.000000
_cell_angle_beta 91.124193
_cell_angle_gamma 90.000000
_cell_volume 1693.146888
_symmetry_space_group_name_H-M "P 21/M"
_symmetry_group_IT_number 11
_symmetry_cell_setting 'monoclinic'
loop_
_space_group_symop_operation_xyz
x,y,z
-x,1/2+y,-z
-x,-y,-z
x,1/2-y,z
loop_
_atom_site_type_symbol
_atom_site_label
_atom_site_fract_x
_atom_site_fract_y
_atom_site_fract_z
Si Si1 0.495193 0.079859 0.618397
Si Si2 0.087780 0.584844 0.501333
Si Si3 0.151098 0.585884 0.259986
Si Si4 0.333048 0.090401 0.765890
Si Si5 0.414066 0.089738 0.011047
Si Si6 0.649450 0.415254 0.790241
Si Si7 0.007249 0.421963 0.118984
Si Si8 0.839979 0.082242 0.262992
O O1 0.495342 0.250000 0.597019
O O2 0.407278 0.030887 0.682335
O O3 0.579475 0.034817 0.694709
O O4 0.500000 0.000000 0.500000
O O5 0.062287 0.750000 0.513671
O O6 0.138752 0.550194 0.389792
O O7 0.145813 0.536222 0.608011
O O8 0.000000 0.500000 0.500000
O O9 0.123900 0.750000 0.229780
O O10 0.253381 0.561375 0.250472
O O11 0.094569 0.478247 0.182602
O O12 0.305336 0.250000 0.725865
O O13 0.249040 0.991463 0.774782
O O14 0.368774 0.096601 0.891114
O O15 0.436104 0.250000 0.054178
O O16 0.353303 0.012443 0.099774
O O17 0.500000 0.000000 0.000000
O O18 0.630310 0.250000 0.822466
O O19 0.014082 0.250000 0.104134
O O20 0.922416 0.467053 0.189578
O O21 0.000000 0.500000 0.000000
O O22 0.825572 0.250000 0.247333
#
# Coordination Sequence:
#
# PCOD8075413 Si02
#       8
#     4   4   4   4   4   4   4   4
#     4  10  22  41  61  86 122 159 195 241 293 351
#     4  10  20  38  62  88 117 152 197 246 296 351
#     4  10  22  39  63  90 118 158 199 241 302 357
#     4  10  23  41  60  87 121 156 196 245 297 347
#     4  11  22  40  64  89 118 155 200 248 299 353
#     4  10  22  41  62  87 122 158 197 247 297 352
#     4  11  24  42  61  86 122 159 198 247 297 355
#     4  10  23  40  61  89 118 154 200 245 294 352
#
# _framework density 18.899719999999999
#
# number of rings (size 3 to 8) (size 9 to 14) (size 15 to 20)
#    0.000    1.750    2.500    0.750    3.500    4.000 
#    0.000    0.000    0.000    0.000    0.000    0.000 
#    0.000    0.000    0.000    0.000    0.000    0.000 
#
# Total GULP energy -396793.780437 kJ/mol
# GULP energy per Si atom -12399.805639 kJ/mol
# Density = 1.885670 g / cm^3
# Si number density = 18.899720 Si / 1000 Ang^3
#
#
#
# Elastic Constant Matrix: (Units=GPa)
#
#
# Indices 1 2 3 4 5 6 
#
# 1 108.8113 45.2566 38.1124 0.0000 -6.5811 0.0000
# 2 45.2566 73.3816 50.4365 0.0000 -5.8255 0.0000
# 3 38.1124 50.4365 123.0370 0.0000 -14.5725 0.0000
# 4 0.0000 0.0000 0.0000 34.9789 0.0000 2.5644
# 5 -6.5811 -5.8255 -14.5725 0.0000 29.7378 0.0000
# 6 0.0000 0.0000 0.0000 2.5644 0.0000 29.6322
#
#
#
# Elastic Compliance Matrix: (Units=1/GPa)
#
#
# Indices 1 2 3 4 5 6 
#
# 1 0.012472 -0.007015 -0.000874 0.000000 0.000957 0.000000
# 2 -0.007015 0.022919 -0.007298 0.000000 -0.000639 0.000000
# 3 -0.000874 -0.007298 0.011888 0.000000 0.004202 0.000000
# 4 0.000000 0.000000 0.000000 0.028771 0.000000 -0.002490
# 5 0.000957 -0.000639 0.004202 0.000000 0.035773 0.000000
# 6 0.000000 0.000000 0.000000 -0.002490 0.000000 0.033963
#
#
# Mechanical properties :
#
#
# Convention : Reuss Voigt Hill
#
# Bulk Modulus (GPa) = 59.15576 63.64898 61.40237
# Shear Modulus (GPa) = 27.50355 30.29808 28.90081
#
# Velocity S-wave (km/s) = 3.81889 4.00821 3.91470
# Velocity P-wave (km/s) = 7.12833 7.42774 7.27957
#
# Compressibility (1/GPa) = 0.01690452
#
# Stress axis : x y z
#
# Youngs Moduli (GPa) = 80.17955 43.63212 84.11981
#
# Poissons Ratio (x) = 0.30607 0.07355
# Poissons Ratio (y) = 0.56245 0.61389
# Poissons Ratio (z) = 0.07011 0.31842
#
# Static dielectric constant tensor:
#      x y z
#    x 3.925510 0.000000 -0.802790 
#    y 0.000000 3.522650 0.000000 
#    z -0.802790 0.000000 4.568940 
# 
# 
# High freq. dielectric constant tensor:
#      x y z
#    x 1.741930 0.000000 -0.004870 
#    y 0.000000 1.734340 0.000000 
#    z -0.004870 0.000000 1.747720 
# 
# From -- ./inp_files/38260.got.cif
#   From: 2010.06.25/outbox.cif.g09.slc.cpg/sg11_20_cif.got.tgz:38260.got - 2010.06.27 23:14:04.
