data_PCOD8075143
_publ_section_title
;
Structure prediction by ZEFSAII (Michael W. Deem and Ramdas Pophale) SiO2 
 PCOD8075143
Probable space group: P 21/M
;
_chemical_formula_sum "Si O2"
_cell_formula_units_Z 32
_cell_length_a 15.322201
_cell_length_b 8.990456
_cell_length_c 11.874662
_cell_angle_alpha 90.000000
_cell_angle_beta 88.939396
_cell_angle_gamma 90.000000
_cell_volume 1635.496881
_symmetry_space_group_name_H-M "P 21/M"
_symmetry_group_IT_number 11
_symmetry_cell_setting 'monoclinic'
loop_
_space_group_symop_operation_xyz
x,y,z
-x,1/2+y,-z
-x,-y,-z
x,1/2-y,z
loop_
_atom_site_type_symbol
_atom_site_label
_atom_site_fract_x
_atom_site_fract_y
_atom_site_fract_z
Si Si1 0.752590 0.923128 0.630819
Si Si2 0.841976 0.074117 0.993260
Si Si3 0.086622 0.075884 0.221672
Si Si4 0.892402 0.424807 0.236548
Si Si5 0.407705 0.075813 0.748650
Si Si6 0.418556 0.419304 0.223481
Si Si7 0.262688 0.926628 0.605805
Si Si8 0.337577 0.078836 0.994033
O O1 0.756741 0.750000 0.597447
O O2 0.841304 0.975302 0.690131
O O3 0.672734 0.957504 0.715421
O O4 0.742251 0.022222 0.521678
O O5 0.848670 0.250000 0.987132
O O6 0.903890 0.007252 0.896569
O O7 0.873424 0.009971 0.112928
O O8 0.743115 0.025511 0.974654
O O9 0.095991 0.250000 0.196284
O O10 0.990792 0.035199 0.272803
O O11 0.878739 0.250000 0.231391
O O12 0.822637 0.490358 0.326900
O O13 0.399825 0.250000 0.726790
O O14 0.378665 0.030186 0.874715
O O15 0.507526 0.026638 0.728730
O O16 0.349310 0.991648 0.659523
O O17 0.446183 0.250000 0.248105
O O18 0.409114 0.445149 0.089796
O O19 0.267646 0.750000 0.610508
O O20 0.305940 0.250000 0.992882
#
# Coordination Sequence:
#
# PCOD8075143 Si02
#       8
#     4   4   4   4   4   4   4   4
#     4  10  22  40  61  84 112 153 199 242 287 342
#     4  11  20  33  57  90 123 152 190 236 285 345
#     4  10  20  39  62  84 118 157 193 236 290 348
#     4   9  20  37  59  87 118 155 192 235 292 344
#     4  11  23  38  61  91 118 149 194 239 287 347
#     4  10  21  39  61  86 118 154 191 233 292 349
#     4  11  23  41  61  83 116 155 195 243 293 341
#     4  10  20  37  60  87 118 156 191 229 288 352
#
# _framework density 19.565919999999998
#
# number of rings (size 3 to 8) (size 9 to 14) (size 15 to 20)
#    0.000    1.750    2.500    1.875    0.000    3.000 
#    0.000    1.875    0.000    0.000    0.000    0.000 
#    0.000    0.000    0.000    0.000    0.000    0.000 
#
# Total GULP energy -396908.180818 kJ/mol
# GULP energy per Si atom -12403.380651 kJ/mol
# Density = 1.952139 g / cm^3
# Si number density = 19.565920 Si / 1000 Ang^3
#
#
#
# Elastic Constant Matrix: (Units=GPa)
#
#
# Indices 1 2 3 4 5 6 
#
# 1 113.7106 30.3323 34.8197 0.0000 16.2955 0.0000
# 2 30.3323 55.3686 35.1710 0.0000 4.9053 0.0000
# 3 34.8197 35.1710 104.9989 0.0000 17.0653 0.0000
# 4 0.0000 0.0000 0.0000 30.8326 0.0000 -0.7478
# 5 16.2955 4.9053 17.0653 0.0000 19.1536 0.0000
# 6 0.0000 0.0000 0.0000 -0.7478 0.0000 23.0753
#
#
#
# Elastic Compliance Matrix: (Units=1/GPa)
#
#
# Indices 1 2 3 4 5 6 
#
# 1 0.011521 -0.005079 -0.000863 0.000000 -0.007733 0.000000
# 2 -0.005079 0.025202 -0.007496 0.000000 0.004545 0.000000
# 3 -0.000863 -0.007496 0.013903 0.000000 -0.009733 0.000000
# 4 0.000000 0.000000 0.000000 0.032459 0.000000 0.001052
# 5 -0.007733 0.004545 -0.009733 0.000000 0.066297 0.000000
# 6 0.000000 0.000000 0.000000 0.001052 0.000000 0.043370
#
#
# Mechanical properties :
#
#
# Convention : Reuss Voigt Hill
#
# Bulk Modulus (GPa) = 42.10367 52.74713 47.42540
# Shear Modulus (GPa) = 21.97372 26.19597 24.08485
#
# Velocity S-wave (km/s) = 3.35485 3.66301 3.51231
# Velocity P-wave (km/s) = 6.04750 6.70130 6.38277
#
# Compressibility (1/GPa) = 0.02375090
#
# Stress axis : x y z
#
# Youngs Moduli (GPa) = 86.79563 39.67927 71.92692
#
# Poissons Ratio (x) = 0.20151 0.06206
# Poissons Ratio (y) = 0.44080 0.53920
# Poissons Ratio (z) = 0.07488 0.29745
#
# Static dielectric constant tensor:
#      x y z
#    x 3.685400 0.000000 -0.034640 
#    y 0.000000 3.406400 0.000000 
#    z -0.034640 0.000000 3.593270 
# 
# 
# High freq. dielectric constant tensor:
#      x y z
#    x 1.772780 0.000000 0.002190 
#    y 0.000000 1.747860 0.000000 
#    z 0.002190 0.000000 1.761540 
# 
# From -- ./inp_files/38178.got.cif
#   From: 2010.06.25/outbox.cif.g09.slc.cpg/sg11_20_cif.got.tgz:38178.got - 2010.06.27 23:14:04.
