data_PCOD8075685
_publ_section_title
;
Structure prediction by ZEFSAII (Michael W. Deem and Ramdas Pophale) SiO2 
 PCOD8075685
Probable space group: P 21/M
;
_chemical_formula_sum "Si O2"
_cell_formula_units_Z 32
_cell_length_a 28.851327
_cell_length_b 9.354879
_cell_length_c 12.259908
_cell_angle_alpha 90.000000
_cell_angle_beta 30.950591
_cell_angle_gamma 90.000000
_cell_volume 1701.792518
_symmetry_space_group_name_H-M "P 21/M"
_symmetry_group_IT_number 11
_symmetry_cell_setting 'monoclinic'
loop_
_space_group_symop_operation_xyz
x,y,z
-x,1/2+y,-z
-x,-y,-z
x,1/2-y,z
loop_
_atom_site_type_symbol
_atom_site_label
_atom_site_fract_x
_atom_site_fract_y
_atom_site_fract_z
Si Si1 0.620065 0.082643 0.963487
Si Si2 0.110304 0.582826 0.004635
Si Si3 0.410874 0.088326 0.416466
Si Si4 0.757685 0.080467 0.867597
Si Si5 0.728251 0.080142 0.170347
Si Si6 0.911334 0.411811 0.186413
Si Si7 0.407638 0.415767 0.181547
Si Si8 0.075703 0.583296 0.602869
O O1 0.635503 0.250000 0.907301
O O2 0.516384 0.049158 0.200288
O O3 0.678819 0.027182 0.946531
O O4 0.651863 0.993314 0.791850
O O5 0.093396 0.750000 0.059391
O O6 0.016866 0.503237 0.218536
O O7 0.186864 0.524617 0.930853
O O8 0.146217 0.553000 0.807124
O O9 0.398614 0.250000 0.483075
O O10 0.365257 0.071937 0.388314
O O11 0.363605 0.983069 0.596444
O O12 0.757306 0.250000 0.870119
O O13 0.855437 0.027271 0.628268
O O14 0.740603 0.020644 0.022974
O O15 0.720154 0.250000 0.190448
O O16 0.943216 0.250000 0.114340
O O17 0.870266 0.440586 0.389870
O O18 0.000000 0.500000 0.000000
O O19 0.423934 0.250000 0.118054
O O20 0.500000 0.500000 0.000000
O O21 0.052412 0.750000 0.634147
#
# Coordination Sequence:
#
# PCOD8075685 Si02
#       8
#     4   4   4   4   4   4   4   4
#     4   9  18  34  55  76 103 137 168 206 256 304
#     4   9  18  32  49  72 101 127 159 207 255 299
#     4   9  19  34  51  74 103 132 163 206 256 299
#     4   9  19  35  52  73 101 133 174 216 250 295
#     4  10  21  35  51  72  99 135 177 214 249 297
#     4   8  14  26  45  69  94 120 153 194 242 295
#     4   9  17  31  52  79 108 133 163 205 254 308
#     4   9  17  31  52  73  95 128 166 203 251 308
#
# _framework density 18.803702000000001
#
# number of rings (size 3 to 8) (size 9 to 14) (size 15 to 20)
#    0.000    3.000    0.000    1.125    0.000    5.000 
#    0.000    4.375    0.000    6.000    0.000    0.000 
#    0.000    0.000    0.000    0.000    0.000    0.000 
#
# Total GULP energy -396455.407789 kJ/mol
# GULP energy per Si atom -12389.231493 kJ/mol
# Density = 1.876090 g / cm^3
# Si number density = 18.803702 Si / 1000 Ang^3
#
#
#
# Elastic Constant Matrix: (Units=GPa)
#
#
# Indices 1 2 3 4 5 6 
#
# 1 89.6902 15.1502 11.9803 0.0000 8.9235 0.0000
# 2 15.1502 38.9025 14.8706 0.0000 4.8547 0.0000
# 3 11.9803 14.8706 61.9629 0.0000 12.9243 0.0000
# 4 0.0000 0.0000 0.0000 27.9115 0.0000 2.4959
# 5 8.9235 4.8547 12.9243 0.0000 28.1700 0.0000
# 6 0.0000 0.0000 0.0000 2.4959 0.0000 20.2116
#
#
#
# Elastic Compliance Matrix: (Units=1/GPa)
#
#
# Indices 1 2 3 4 5 6 
#
# 1 0.012228 -0.004109 -0.000794 0.000000 -0.002801 0.000000
# 2 -0.004109 0.029779 -0.006141 0.000000 -0.001013 0.000000
# 3 -0.000794 -0.006141 0.019344 0.000000 -0.007565 0.000000
# 4 0.000000 0.000000 0.000000 0.036228 0.000000 -0.004474
# 5 -0.002801 -0.001013 -0.007565 0.000000 0.040032 0.000000
# 6 0.000000 0.000000 0.000000 -0.004474 0.000000 0.050029
#
#
# Mechanical properties :
#
#
# Convention : Reuss Voigt Hill
#
# Bulk Modulus (GPa) = 25.46894 30.50642 27.98768
# Shear Modulus (GPa) = 22.44006 25.16225 23.80115
#
# Velocity S-wave (km/s) = 3.45829 3.66205 3.56163
# Velocity P-wave (km/s) = 5.43327 5.84291 5.64181
#
# Compressibility (1/GPa) = 0.03926351
#
# Stress axis : x y z
#
# Youngs Moduli (GPa) = 81.77720 33.58027 51.69580
#
# Poissons Ratio (x) = 0.13799 0.04104
# Poissons Ratio (y) = 0.33604 0.31747
# Poissons Ratio (z) = 0.06492 0.20622
#
# Static dielectric constant tensor:
#      x y z
#    x 4.004220 0.000000 0.529870 
#    y 0.000000 3.305300 0.000000 
#    z 0.529870 0.000000 3.439350 
# 
# 
# High freq. dielectric constant tensor:
#      x y z
#    x 1.735300 0.000000 0.014280 
#    y 0.000000 1.712150 0.000000 
#    z 0.014280 0.000000 1.714360 
# 
# From -- ./inp_files/45195.got.cif
#   From: 2010.06.25/outbox.cif.g09.slc.cpg/sg11_23_cif.got.tgz:45195.got - 2010.06.27 23:14:04.
