data_PCOD8075724
_publ_section_title
;
Structure prediction by ZEFSAII (Michael W. Deem and Ramdas Pophale) SiO2 
 PCOD8075724
Probable space group: P 21/M
;
_chemical_formula_sum "Si O2"
_cell_formula_units_Z 32
_cell_length_a 19.947012
_cell_length_b 14.689320
_cell_length_c 14.350309
_cell_angle_alpha 90.000000
_cell_angle_beta 22.765902
_cell_angle_gamma 90.000000
_cell_volume 1627.101359
_symmetry_space_group_name_H-M "P 21/M"
_symmetry_group_IT_number 11
_symmetry_cell_setting 'monoclinic'
loop_
_space_group_symop_operation_xyz
x,y,z
-x,1/2+y,-z
-x,-y,-z
x,1/2-y,z
loop_
_atom_site_type_symbol
_atom_site_label
_atom_site_fract_x
_atom_site_fract_y
_atom_site_fract_z
Si Si1 0.968951 0.502206 0.148673
Si Si2 0.569604 0.645276 0.951693
Si Si3 0.672495 0.558628 0.280019
Si Si4 0.195763 0.477280 0.228769
Si Si5 0.646150 0.645695 0.122357
Si Si6 0.692847 0.145865 0.552972
Si Si7 0.425360 0.851572 0.938778
Si Si8 0.275432 0.351430 0.586893
O O1 0.861495 0.415281 0.322495
O O2 0.859818 0.593931 0.305452
O O3 0.000000 0.500000 0.000000
O O4 0.156659 0.503736 0.958259
O O5 0.628980 0.750000 0.889326
O O6 0.721420 0.579097 0.792121
O O7 0.537213 0.621287 0.885992
O O8 0.392641 0.627724 0.236458
O O9 0.500000 0.500000 0.500000
O O10 0.660125 0.633223 0.214710
O O11 0.696601 0.608413 0.346787
O O12 0.000000 0.500000 0.500000
O O13 0.217938 0.418899 0.105692
O O14 0.276765 0.576424 0.112382
O O15 0.687414 0.750000 0.043119
O O16 0.451057 0.620371 0.340259
O O17 0.754074 0.250000 0.464384
O O18 0.346492 0.750000 0.054167
O O19 0.541541 0.853266 0.698266
O O20 0.201169 0.250000 0.691410
#
# Coordination Sequence:
#
# PCOD8075724 Si02
#       8
#     4   4   4   4   4   4   4   4
#     4  10  21  35  55  80 109 143 182 232 274 321
#     4   9  19  37  59  82 109 146 190 238 287 339
#     4  11  22  38  58  84 117 151 184 228 285 344
#     4  11  22  35  55  84 118 153 185 232 289 346
#     4  10  21  38  59  84 116 154 192 235 287 344
#     4   9  18  35  59  83 109 142 186 237 286 332
#     4  10  21  37  58  81 109 147 192 237 282 335
#     4  10  21  39  59  80 109 148 190 231 274 327
#
# _framework density 19.666875999999998
#
# number of rings (size 3 to 8) (size 9 to 14) (size 15 to 20)
#    0.000    2.000    0.000    5.625    0.000    5.500 
#    0.000    2.500    0.000    3.750    0.000    0.000 
#    0.000    0.000    0.000    0.000    0.000    0.000 
#
# Total GULP energy -396746.648053 kJ/mol
# GULP energy per Si atom -12398.332752 kJ/mol
# Density = 1.962211 g / cm^3
# Si number density = 19.666876 Si / 1000 Ang^3
#
#
#
# Elastic Constant Matrix: (Units=GPa)
#
#
# Indices 1 2 3 4 5 6 
#
# 1 89.9187 39.1944 39.8478 0.0000 9.0423 0.0000
# 2 39.1944 134.3532 72.2429 0.0000 -12.7788 0.0000
# 3 39.8478 72.2429 123.7058 0.0000 -17.5066 0.0000
# 4 0.0000 0.0000 0.0000 23.7337 0.0000 8.3822
# 5 9.0423 -12.7788 -17.5066 0.0000 29.6551 0.0000
# 6 0.0000 0.0000 0.0000 8.3822 0.0000 27.3323
#
#
#
# Elastic Compliance Matrix: (Units=1/GPa)
#
#
# Indices 1 2 3 4 5 6 
#
# 1 0.015176 -0.002857 -0.004418 0.000000 -0.008467 0.000000
# 2 -0.002857 0.011416 -0.005377 0.000000 0.002617 0.000000
# 3 -0.004418 -0.005377 0.013650 0.000000 0.007088 0.000000
# 4 0.000000 0.000000 0.000000 0.047252 0.000000 -0.014491
# 5 -0.008467 0.002617 0.007088 0.000000 0.041615 0.000000
# 6 0.000000 0.000000 0.000000 -0.014491 0.000000 0.041031
#
#
# Mechanical properties :
#
#
# Convention : Reuss Voigt Hill
#
# Bulk Modulus (GPa) = 66.93921 72.28310 69.61115
# Shear Modulus (GPa) = 24.94734 29.25707 27.10220
#
# Velocity S-wave (km/s) = 3.56546 3.86117 3.71626
# Velocity P-wave (km/s) = 7.14566 7.53071 7.34071
#
# Compressibility (1/GPa) = 0.01493893
#
# Stress axis : x y z
#
# Youngs Moduli (GPa) = 65.89467 87.59393 73.26088
#
# Poissons Ratio (x) = 0.25023 0.32368
# Poissons Ratio (y) = 0.18824 0.39389
# Poissons Ratio (z) = 0.29114 0.47095
#
# Static dielectric constant tensor:
#      x y z
#    x 3.635060 0.000000 0.041850 
#    y 0.000000 4.106970 0.000000 
#    z 0.041850 0.000000 3.606320 
# 
# 
# High freq. dielectric constant tensor:
#      x y z
#    x 1.761100 0.000000 0.012290 
#    y 0.000000 1.778110 0.000000 
#    z 0.012290 0.000000 1.759050 
# 
# From -- ./inp_files/54981.got.cif
#   From: 2010.06.25/outbox.cif.g09.slc.cpg/sg11_28_cif.got.tgz:54981.got - 2010.06.27 23:14:04.
