data_PCOD8075975
_publ_section_title
;
Structure prediction by ZEFSAII (Michael W. Deem and Ramdas Pophale) SiO2 
 PCOD8075975
Probable space group: P 21/M
;
_chemical_formula_sum "Si O2"
_cell_formula_units_Z 32
_cell_length_a 11.487441
_cell_length_b 8.770482
_cell_length_c 21.597597
_cell_angle_alpha 90.000000
_cell_angle_beta 55.356937
_cell_angle_gamma 90.000000
_cell_volume 1790.187917
_symmetry_space_group_name_H-M "P 21/M"
_symmetry_group_IT_number 11
_symmetry_cell_setting 'monoclinic'
loop_
_space_group_symop_operation_xyz
x,y,z
-x,1/2+y,-z
-x,-y,-z
x,1/2-y,z
loop_
_atom_site_type_symbol
_atom_site_label
_atom_site_fract_x
_atom_site_fract_y
_atom_site_fract_z
Si Si1 0.570516 0.069551 0.151070
Si Si2 0.167549 0.930498 0.741702
Si Si3 0.441249 0.429174 0.717129
Si Si4 0.584188 0.429543 0.917617
Si Si5 0.141551 0.074487 0.122421
Si Si6 0.287798 0.581846 0.580324
Si Si7 0.145650 0.426944 0.976343
Si Si8 0.419781 0.418471 0.435456
O O1 0.563708 0.250000 0.146786
O O2 0.511987 0.016240 0.234994
O O3 0.472809 0.994529 0.129037
O O4 0.731745 0.014531 0.096725
O O5 0.196325 0.750000 0.741119
O O6 0.176985 0.976711 0.665960
O O7 0.015654 0.980413 0.813058
O O8 0.284015 0.019775 0.745717
O O9 0.442903 0.250000 0.728219
O O10 0.556811 0.470883 0.629906
O O11 0.561201 0.250000 0.925647
O O12 0.749388 0.470794 0.872676
O O13 0.500000 0.500000 0.000000
O O14 0.163144 0.250000 0.135148
O O15 0.169413 0.050798 0.041795
O O16 0.244509 0.750000 0.570747
O O17 0.291657 0.476270 0.518196
O O18 0.439526 0.586718 0.566766
O O19 0.147779 0.250000 0.957125
O O20 0.000000 0.500000 0.000000
O O21 0.380697 0.250000 0.423165
#
# Coordination Sequence:
#
# PCOD8075975 Si02
#       8
#     4   4   4   4   4   4   4   4
#     4  12  24  39  57  76 103 137 176 220 267 313
#     4   9  18  33  52  77 110 144 177 214 261 314
#     4  11  21  33  51  77 109 140 176 218 265 318
#     4  12  24  40  60  80 101 131 175 223 269 314
#     4  10  21  37  56  77 104 138 175 217 263 310
#     4   8  14  25  43  69 102 139 176 212 251 301
#     4  11  22  35  54  79 109 140 175 212 258 315
#     4   9  16  27  44  68 101 140 178 212 255 308
#
# _framework density 17.875218
#
# number of rings (size 3 to 8) (size 9 to 14) (size 15 to 20)
#    0.000    1.750    1.250    5.625    0.000    5.000 
#    0.000    0.000    0.000    0.000    0.000    0.875 
#    0.000    0.000    0.000    0.000    0.000    0.000 
#
# Total GULP energy -396831.444158 kJ/mol
# GULP energy per Si atom -12400.982630 kJ/mol
# Density = 1.783453 g / cm^3
# Si number density = 17.875218 Si / 1000 Ang^3
#
#
#
# Elastic Constant Matrix: (Units=GPa)
#
#
# Indices 1 2 3 4 5 6 
#
# 1 59.2421 36.6286 14.3354 0.0000 18.5114 0.0000
# 2 36.6286 125.1267 36.1376 0.0000 11.1498 0.0000
# 3 14.3354 36.1376 93.5686 0.0000 15.5763 0.0000
# 4 0.0000 0.0000 0.0000 30.6016 0.0000 2.3160
# 5 18.5114 11.1498 15.5763 0.0000 14.8295 0.0000
# 6 0.0000 0.0000 0.0000 2.3160 0.0000 26.6601
#
#
#
# Elastic Compliance Matrix: (Units=1/GPa)
#
#
# Indices 1 2 3 4 5 6 
#
# 1 0.032929 -0.007348 0.004503 0.000000 -0.040310 0.000000
# 2 -0.007348 0.010813 -0.003907 0.000000 0.005146 0.000000
# 3 0.004503 -0.003907 0.014486 0.000000 -0.017900 0.000000
# 4 0.000000 0.000000 0.000000 0.032894 0.000000 -0.002858
# 5 -0.040310 0.005146 -0.017900 0.000000 0.132684 0.000000
# 6 0.000000 0.000000 0.000000 -0.002858 0.000000 0.037758
#
#
# Mechanical properties :
#
#
# Convention : Reuss Voigt Hill
#
# Bulk Modulus (GPa) = 22.35906 50.23784 36.29845
# Shear Modulus (GPa) = 17.24287 27.14062 22.19174
#
# Velocity S-wave (km/s) = 3.10921 3.90081 3.52729
# Velocity P-wave (km/s) = 5.04234 6.96091 6.07780
#
# Compressibility (1/GPa) = 0.04472460
#
# Stress axis : x y z
#
# Youngs Moduli (GPa) = 30.36822 92.48397 69.03195
#
# Poissons Ratio (x) = 0.67958 -0.31088
# Poissons Ratio (y) = 0.22315 0.26971
# Poissons Ratio (z) = -0.13676 0.36133
#
# Static dielectric constant tensor:
#      x y z
#    x 3.056450 0.000000 0.051560 
#    y 0.000000 3.502450 0.000000 
#    z 0.051560 0.000000 3.622940 
# 
# 
# High freq. dielectric constant tensor:
#      x y z
#    x 1.648280 0.000000 0.006610 
#    y 0.000000 1.701550 0.000000 
#    z 0.006610 0.000000 1.703150 
# 
# From -- ./inp_files/64192.got.cif
#   From: 2010.06.25/outbox.cif.g09.slc.cpg/sg11_33_cif.got.tgz:64192.got - 2010.06.27 23:14:04.
