data_PCOD8075663
_publ_section_title
;
Structure prediction by ZEFSAII (Michael W. Deem and Ramdas Pophale) SiO2 
 PCOD8075663
Probable space group: P 21/M
;
_chemical_formula_sum "Si O2"
_cell_formula_units_Z 20
_cell_length_a 5.167739
_cell_length_b 21.630976
_cell_length_c 10.043845
_cell_angle_alpha 90.000000
_cell_angle_beta 72.403025
_cell_angle_gamma 90.000000
_cell_volume 1070.197034
_symmetry_space_group_name_H-M "P 21/M"
_symmetry_group_IT_number 11
_symmetry_cell_setting 'monoclinic'
loop_
_space_group_symop_operation_xyz
x,y,z
-x,1/2+y,-z
-x,-y,-z
x,1/2-y,z
loop_
_atom_site_type_symbol
_atom_site_label
_atom_site_fract_x
_atom_site_fract_y
_atom_site_fract_z
Si Si1 0.110678 0.086777 0.726043
Si Si2 0.801950 0.883187 0.003088
Si Si3 0.758383 0.178389 0.915367
Si Si4 0.934218 0.949058 0.718136
Si Si5 0.515938 0.931949 0.554680
O O1 0.336888 0.108741 0.583023
O O2 0.878534 0.139726 0.770665
O O3 0.249474 0.079040 0.850700
O O4 0.976393 0.022600 0.700152
O O5 0.855659 0.933059 0.880931
O O6 0.547313 0.840920 0.005579
O O7 0.060215 0.837478 0.982353
O O8 0.772745 0.250000 0.876876
O O9 0.689289 0.928532 0.662366
O O10 0.207051 0.911281 0.633726
O O11 0.500000 0.000000 0.500000
#
# Coordination Sequence:
#
# PCOD8075663 Si02
#       5
#     4   4   4   4   4
#     4   9  22  34  60  83 115 144 188 223 282 332
#     4  10  22  35  59  83 109 144 186 237 272 331
#     4  10  22  37  58  80 107 147 196 236 272 320
#     4  11  21  35  56  89 119 145 175 229 291 342
#     4  10  21  34  54  83 123 148 170 213 283 347
#
# _framework density 18.688148000000002
#
# number of rings (size 3 to 8) (size 9 to 14) (size 15 to 20)
#    1.200    0.800    0.000    4.800    8.400    0.800 
#    0.000    0.000    0.000    7.200    0.000    0.000 
#    0.000    0.000    0.000    0.000    0.000    0.000 
#
# Total GULP energy -247838.065361 kJ/mol
# GULP energy per Si atom -12391.903268 kJ/mol
# Density = 1.864561 g / cm^3
# Si number density = 18.688148 Si / 1000 Ang^3
#
#
#
# Elastic Constant Matrix: (Units=GPa)
#
#
# Indices 1 2 3 4 5 6 
#
# 1 125.7742 14.5381 19.9959 0.0000 2.1631 0.0000
# 2 14.5381 57.8060 14.1370 0.0000 -11.3586 0.0000
# 3 19.9959 14.1370 93.2412 0.0000 6.1825 0.0000
# 4 0.0000 0.0000 0.0000 7.9941 0.0000 -2.5785
# 5 2.1631 -11.3586 6.1825 0.0000 20.0473 0.0000
# 6 0.0000 0.0000 0.0000 -2.5785 0.0000 18.2715
#
#
#
# Elastic Compliance Matrix: (Units=1/GPa)
#
#
# Indices 1 2 3 4 5 6 
#
# 1 0.008444 -0.002118 -0.001378 0.000000 -0.001686 0.000000
# 2 -0.002118 0.021380 -0.003681 0.000000 0.013478 0.000000
# 3 -0.001378 -0.003681 0.011951 0.000000 -0.005623 0.000000
# 4 0.000000 0.000000 0.000000 0.131058 0.000000 0.018495
# 5 -0.001686 0.013478 -0.005623 0.000000 0.059434 0.000000
# 6 0.000000 0.000000 0.000000 0.018495 0.000000 0.057340
#
#
# Mechanical properties :
#
#
# Convention : Reuss Voigt Hill
#
# Bulk Modulus (GPa) = 36.46758 41.57371 39.02065
# Shear Modulus (GPa) = 15.96924 24.47262 20.22093
#
# Velocity S-wave (km/s) = 2.92637 3.62266 3.29297
# Velocity P-wave (km/s) = 5.56546 6.30814 5.94840
#
# Compressibility (1/GPa) = 0.02742162
#
# Stress axis : x y z
#
# Youngs Moduli (GPa) = 118.43264 46.77175 83.67286
#
# Poissons Ratio (x) = 0.09906 0.11529
# Poissons Ratio (y) = 0.25083 0.30801
# Poissons Ratio (z) = 0.16318 0.17217
#
# Static dielectric constant tensor:
#      x y z
#    x 3.784110 0.000000 -0.330950 
#    y 0.000000 2.946530 0.000000 
#    z -0.330950 0.000000 3.737030 
# 
# 
# High freq. dielectric constant tensor:
#      x y z
#    x 1.743440 0.000000 -0.005960 
#    y 0.000000 1.672120 0.000000 
#    z -0.005960 0.000000 1.725000 
# 
# From -- ./inp_files/10380.got.cif
#   From: 2010.06.25/outbox.cif.g09.slc.cpg/sg11_6_cif.got.tgz:10380.got - 2010.06.27 23:14:04.
