data_PCOD8075849
_publ_section_title
;
Structure prediction by ZEFSAII (Michael W. Deem and Ramdas Pophale) SiO2 
 PCOD8075849
Probable space group: P 21/M
;
_chemical_formula_sum "Si O2"
_cell_formula_units_Z 28
_cell_length_a 20.852334
_cell_length_b 9.096236
_cell_length_c 15.819884
_cell_angle_alpha 90.000000
_cell_angle_beta 28.048706
_cell_angle_gamma 90.000000
_cell_volume 1410.985669
_symmetry_space_group_name_H-M "P 21/M"
_symmetry_group_IT_number 11
_symmetry_cell_setting 'monoclinic'
loop_
_space_group_symop_operation_xyz
x,y,z
-x,1/2+y,-z
-x,-y,-z
x,1/2-y,z
loop_
_atom_site_type_symbol
_atom_site_label
_atom_site_fract_x
_atom_site_fract_y
_atom_site_fract_z
Si Si1 0.292620 0.580962 0.920322
Si Si2 0.831536 0.080329 0.618088
Si Si3 0.852458 0.919498 0.763182
Si Si4 0.157530 0.577413 0.729209
Si Si5 0.886744 0.420018 0.028569
Si Si6 0.584634 0.917376 0.641578
Si Si7 0.593526 0.920665 0.822926
O O1 0.262740 0.750000 0.981137
O O2 0.454398 0.549700 0.733723
O O3 0.218042 0.471101 0.069808
O O4 0.236520 0.546274 0.892191
O O5 0.787884 0.250000 0.668869
O O6 0.987026 0.056730 0.411773
O O7 0.797577 0.016595 0.749964
O O8 0.744184 0.991078 0.651219
O O9 0.817418 0.750000 0.785805
O O10 0.148750 0.750000 0.726565
O O11 0.292751 0.522659 0.526052
O O12 0.022361 0.508458 0.844169
O O13 0.164920 0.530878 0.818973
O O14 0.927715 0.250000 0.980288
O O15 0.634729 0.750000 0.572303
O O16 0.538398 0.946010 0.792229
O O17 0.600650 0.750000 0.837879
O O18 0.500000 0.000000 0.000000
#
# Coordination Sequence:
#
# PCOD8075849 Si02
#       7
#     4   4   4   4   4   4   4
#     4  10  21  38  60  84 116 156 194 240 295 353
#     4  10  21  37  56  80 112 152 195 242 294 349
#     4  10  21  36  56  84 116 148 192 244 292 346
#     4  10  21  38  61  89 119 152 196 244 291 350
#     4   9  20  39  62  88 118 155 194 240 298 352
#     4  10  23  40  58  85 119 156 196 240 295 354
#     4  11  23  38  58  83 115 155 199 245 296 351
#
# _framework density 19.844283999999998
#
# number of rings (size 3 to 8) (size 9 to 14) (size 15 to 20)
#    0.000    2.000    0.000    2.571    2.000    6.286 
#    0.000    0.000    0.000    0.000    0.000    0.000 
#    0.000    0.000    0.000    0.000    0.000    0.000 
#
# Total GULP energy -347316.791581 kJ/mol
# GULP energy per Si atom -12404.171128 kJ/mol
# Density = 1.979912 g / cm^3
# Si number density = 19.844284 Si / 1000 Ang^3
#
#
#
# Elastic Constant Matrix: (Units=GPa)
#
#
# Indices 1 2 3 4 5 6 
#
# 1 116.6313 43.3814 35.6077 0.0000 -19.5248 0.0000
# 2 43.3814 94.5947 46.7140 0.0000 -9.3205 0.0000
# 3 35.6077 46.7140 93.3664 0.0000 -5.1389 0.0000
# 4 0.0000 0.0000 0.0000 35.2564 0.0000 0.7742
# 5 -19.5248 -9.3205 -5.1389 0.0000 22.9347 0.0000
# 6 0.0000 0.0000 0.0000 0.7742 0.0000 28.2566
#
#
#
# Elastic Compliance Matrix: (Units=1/GPa)
#
#
# Indices 1 2 3 4 5 6 
#
# 1 0.011982 -0.003520 -0.002355 0.000000 0.008242 0.000000
# 2 -0.003520 0.015483 -0.006300 0.000000 0.001884 0.000000
# 3 -0.002355 -0.006300 0.014691 0.000000 -0.001273 0.000000
# 4 0.000000 0.000000 0.000000 0.028381 0.000000 -0.000778
# 5 0.008242 0.001884 -0.001273 0.000000 0.051099 0.000000
# 6 0.000000 0.000000 0.000000 -0.000778 0.000000 0.035411
#
#
# Mechanical properties :
#
#
# Convention : Reuss Voigt Hill
#
# Bulk Modulus (GPa) = 56.16359 61.77763 58.97061
# Shear Modulus (GPa) = 26.69060 29.21550 27.95305
#
# Velocity S-wave (km/s) = 3.67141 3.84114 3.75723
# Velocity P-wave (km/s) = 6.80705 7.13241 6.97163
#
# Compressibility (1/GPa) = 0.01780513
#
# Stress axis : x y z
#
# Youngs Moduli (GPa) = 83.45790 64.58875 68.07023
#
# Poissons Ratio (x) = 0.22735 0.16030
# Poissons Ratio (y) = 0.29377 0.42886
# Poissons Ratio (z) = 0.19653 0.40693
#
# Static dielectric constant tensor:
#      x y z
#    x 3.847710 0.000000 -0.132420 
#    y 0.000000 3.653680 0.000000 
#    z -0.132420 0.000000 3.430280 
# 
# 
# High freq. dielectric constant tensor:
#      x y z
#    x 1.781020 0.000000 -0.008460 
#    y 0.000000 1.779630 0.000000 
#    z -0.008460 0.000000 1.766200 
# 
# From -- ./inp_files/54524.got.cif
#   From: 2010.06.25/outbox.cif.g09.slc.cpg/sg11_28_cif.got.tgz:54524.got - 2010.06.27 23:14:04.
