data_PCOD8075102
_publ_section_title
;
Structure prediction by ZEFSAII (Michael W. Deem and Ramdas Pophale) SiO2 
 PCOD8075102
Probable space group: P 21/M
;
_chemical_formula_sum "Si O2"
_cell_formula_units_Z 28
_cell_length_a 17.185786
_cell_length_b 8.855257
_cell_length_c 12.679539
_cell_angle_alpha 90.000000
_cell_angle_beta 133.511246
_cell_angle_gamma 90.000000
_cell_volume 1399.443379
_symmetry_space_group_name_H-M "P 21/M"
_symmetry_group_IT_number 11
_symmetry_cell_setting 'monoclinic'
loop_
_space_group_symop_operation_xyz
x,y,z
-x,1/2+y,-z
-x,-y,-z
x,1/2-y,z
loop_
_atom_site_type_symbol
_atom_site_label
_atom_site_fract_x
_atom_site_fract_y
_atom_site_fract_z
Si Si1 0.653309 0.570604 0.353123
Si Si2 0.064032 0.071641 0.654556
Si Si3 0.586890 0.072926 0.874293
Si Si4 0.016651 0.925860 0.820884
Si Si5 0.760221 0.428506 0.872173
Si Si6 0.216078 0.075125 0.321294
Si Si7 0.282344 0.927414 0.805136
O O1 0.656602 0.750000 0.341386
O O2 0.532299 0.509393 0.257663
O O3 0.724998 0.516575 0.518232
O O4 0.701465 0.497691 0.293703
O O5 0.069110 0.250000 0.645520
O O6 0.003424 0.026997 0.704821
O O7 0.181867 0.001961 0.769133
O O8 0.000000 0.000000 0.500000
O O9 0.587424 0.250000 0.855849
O O10 0.672014 0.002373 0.870712
O O11 0.618048 0.036355 0.024470
O O12 0.025729 0.750000 0.796947
O O13 0.911094 0.955730 0.791821
O O14 0.120874 0.980922 0.982368
O O15 0.753805 0.250000 0.864111
O O16 0.734592 0.488797 0.732054
O O17 0.241517 0.250000 0.329460
O O18 0.262098 0.750000 0.774633
#
# Coordination Sequence:
#
# PCOD8075102 Si02
#       7
#     4   4   4   4   4   4   4
#     4  10  21  38  58  84 119 156 197 244 299 351
#     4  12  24  37  58  88 121 156 193 237 289 350
#     4   9  19  37  60  84 115 156 195 242 299 350
#     4  10  20  38  59  82 117 155 192 239 297 350
#     4  10  20  37  60  82 112 156 200 242 292 352
#     4  10  22  37  56  84 117 151 191 245 296 347
#     4  11  21  38  61  86 118 153 196 243 293 353
#
# _framework density 20.007954000000002
#
# number of rings (size 3 to 8) (size 9 to 14) (size 15 to 20)
#    0.000    1.714    1.429    3.429    0.000    3.429 
#    0.000    1.429    0.000    0.000    0.000    0.000 
#    0.000    0.000    0.000    0.000    0.000    0.000 
#
# Total GULP energy -347270.690630 kJ/mol
# GULP energy per Si atom -12402.524665 kJ/mol
# Density = 1.996242 g / cm^3
# Si number density = 20.007954 Si / 1000 Ang^3
#
#
#
# Elastic Constant Matrix: (Units=GPa)
#
#
# Indices 1 2 3 4 5 6 
#
# 1 74.2142 17.4703 29.7336 0.0000 -12.2535 0.0000
# 2 17.4703 50.4470 26.9088 0.0000 -6.8894 0.0000
# 3 29.7336 26.9088 88.8624 0.0000 -13.3143 0.0000
# 4 0.0000 0.0000 0.0000 25.0380 0.0000 -8.7515
# 5 -12.2535 -6.8894 -13.3143 0.0000 42.0183 0.0000
# 6 0.0000 0.0000 0.0000 -8.7515 0.0000 27.4655
#
#
#
# Elastic Compliance Matrix: (Units=1/GPa)
#
#
# Indices 1 2 3 4 5 6 
#
# 1 0.016324 -0.003067 -0.004089 0.000000 0.002962 0.000000
# 2 -0.003067 0.024332 -0.006171 0.000000 0.001140 0.000000
# 3 -0.004089 -0.006171 0.014866 0.000000 0.002506 0.000000
# 4 0.000000 0.000000 0.000000 0.044945 0.000000 0.014321
# 5 0.002962 0.001140 0.002506 0.000000 0.025644 0.000000
# 6 0.000000 0.000000 0.000000 0.014321 0.000000 0.040972
#
#
# Mechanical properties :
#
#
# Convention : Reuss Voigt Hill
#
# Bulk Modulus (GPa) = 34.64229 40.19434 37.41831
# Shear Modulus (GPa) = 24.58675 28.19841 26.39258
#
# Velocity S-wave (km/s) = 3.50930 3.75822 3.63589
# Velocity P-wave (km/s) = 5.81137 6.24220 6.03064
#
# Compressibility (1/GPa) = 0.02886645
#
# Stress axis : x y z
#
# Youngs Moduli (GPa) = 61.25945 41.09755 67.26808
#
# Poissons Ratio (x) = 0.12606 0.27509
# Poissons Ratio (y) = 0.18790 0.41512
# Poissons Ratio (z) = 0.25052 0.25362
#
# Static dielectric constant tensor:
#      x y z
#    x 3.787130 0.000000 0.111700 
#    y 0.000000 3.381860 0.000000 
#    z 0.111700 0.000000 3.772510 
# 
# 
# High freq. dielectric constant tensor:
#      x y z
#    x 1.789260 0.000000 -0.000180 
#    y 0.000000 1.757490 0.000000 
#    z -0.000180 0.000000 1.790840 
# 
# From -- ./inp_files/38466.got.cif
#   From: 2010.06.25/outbox.cif.g09.slc.cpg/sg11_20_cif.got.tgz:38466.got - 2010.06.27 23:14:04.
