data_PCOD8075467
_publ_section_title
;
Structure prediction by ZEFSAII (Michael W. Deem and Ramdas Pophale) SiO2 
 PCOD8075467
Probable space group: P 21/M
;
_chemical_formula_sum "Si O2"
_cell_formula_units_Z 32
_cell_length_a 14.106470
_cell_length_b 17.368353
_cell_length_c 11.602123
_cell_angle_alpha 90.000000
_cell_angle_beta 32.590445
_cell_angle_gamma 90.000000
_cell_volume 1531.105867
_symmetry_space_group_name_H-M "P 21/M"
_symmetry_group_IT_number 11
_symmetry_cell_setting 'monoclinic'
loop_
_space_group_symop_operation_xyz
x,y,z
-x,1/2+y,-z
-x,-y,-z
x,1/2-y,z
loop_
_atom_site_type_symbol
_atom_site_label
_atom_site_fract_x
_atom_site_fract_y
_atom_site_fract_z
Si Si1 0.791780 0.041970 0.557834
Si Si2 0.606120 0.939359 0.065772
Si Si3 0.903470 0.624941 0.399564
Si Si4 0.757660 0.406762 0.843418
Si Si5 0.594332 0.666118 0.863763
Si Si6 0.824001 0.418096 0.276466
Si Si7 0.832060 0.903775 0.216167
Si Si8 0.541242 0.840883 0.355325
O O1 0.585419 0.023483 0.754622
O O2 0.824483 0.087495 0.642439
O O3 0.854369 0.091385 0.383073
O O4 0.891406 0.961915 0.458675
O O5 0.618797 0.890183 0.169384
O O6 0.651387 0.885718 0.911985
O O7 0.743989 0.009893 0.921585
O O8 0.759479 0.676726 0.609719
O O9 0.878017 0.634659 0.290301
O O10 0.103650 0.646981 0.229902
O O11 0.568398 0.367062 0.041749
O O12 0.542027 0.750000 0.965079
O O13 0.786483 0.506278 0.278400
O O14 0.657400 0.366482 0.409955
O O15 0.000298 0.388145 0.036330
O O16 0.663166 0.859817 0.339460
O O17 0.544623 0.750000 0.323506
#
# Coordination Sequence:
#
# PCOD8075467 Si02
#       8
#     4   4   4   4   4   4   4   4
#     4   9  17  36  59  92 118 148 194 253 300 347
#     4  10  20  38  64  91 118 154 205 249 301 367
#     4  11  22  36  60  90 117 154 207 246 296 354
#     4  11  21  36  65  91 118 158 204 249 297 365
#     4  11  23  40  58  87 128 159 192 250 312 364
#     4   9  21  39  63  89 120 156 208 256 300 349
#     4  10  23  40  61  89 119 160 211 257 291 354
#     4  11  24  40  62  91 124 159 196 251 317 368
#
# _framework density 20.899926000000001
#
# number of rings (size 3 to 8) (size 9 to 14) (size 15 to 20)
#    0.000    1.750    2.500    1.875    5.250    2.500 
#    0.000    0.000    0.000    3.000    0.000    0.000 
#    0.000    0.000    0.000    0.000    0.000    0.000 
#
# Total GULP energy -396807.479208 kJ/mol
# GULP energy per Si atom -12400.233725 kJ/mol
# Density = 2.085236 g / cm^3
# Si number density = 20.899926 Si / 1000 Ang^3
#
#
#
# Elastic Constant Matrix: (Units=GPa)
#
#
# Indices 1 2 3 4 5 6 
#
# 1 118.2545 22.4510 43.0653 0.0000 -7.7407 0.0000
# 2 22.4510 68.9472 35.2077 0.0000 -12.3918 0.0000
# 3 43.0653 35.2077 103.9005 0.0000 9.2745 0.0000
# 4 0.0000 0.0000 0.0000 11.1346 0.0000 -0.3001
# 5 -7.7407 -12.3918 9.2745 0.0000 26.3505 0.0000
# 6 0.0000 0.0000 0.0000 -0.3001 0.0000 7.5785
#
#
#
# Elastic Compliance Matrix: (Units=1/GPa)
#
#
# Indices 1 2 3 4 5 6 
#
# 1 0.010512 -0.000178 -0.004713 0.000000 0.004663 0.000000
# 2 -0.000178 0.021028 -0.008187 0.000000 0.012718 0.000000
# 3 -0.004713 -0.008187 0.015300 0.000000 -0.010620 0.000000
# 4 0.000000 0.000000 0.000000 0.089906 0.000000 0.003560
# 5 0.004663 0.012718 -0.010620 0.000000 0.049038 0.000000
# 6 0.000000 0.000000 0.000000 0.003560 0.000000 0.132093
#
#
# Mechanical properties :
#
#
# Convention : Reuss Voigt Hill
#
# Bulk Modulus (GPa) = 48.34633 54.72781 51.53707
# Shear Modulus (GPa) = 14.24789 21.70460 17.97625
#
# Velocity S-wave (km/s) = 2.61381 3.22607 2.93595
# Velocity P-wave (km/s) = 5.68259 6.33397 6.01710
#
# Compressibility (1/GPa) = 0.02068409
#
# Stress axis : x y z
#
# Youngs Moduli (GPa) = 95.13240 47.55464 65.35877
#
# Poissons Ratio (x) = 0.00848 0.30802
# Poissons Ratio (y) = 0.01696 0.53510
# Poissons Ratio (z) = 0.44833 0.38933
#
# Static dielectric constant tensor:
#      x y z
#    x 3.743490 0.000000 0.080920 
#    y 0.000000 3.558400 0.000000 
#    z 0.080920 0.000000 3.904440 
# 
# 
# High freq. dielectric constant tensor:
#      x y z
#    x 1.818900 0.000000 -0.001180 
#    y 0.000000 1.792210 0.000000 
#    z -0.001180 0.000000 1.828480 
# 
# From -- ./inp_files/39955.got.cif
#   From: 2010.06.25/outbox.cif.g09.slc.cpg/sg11_20_cif.got.tgz:39955.got - 2010.06.27 23:14:04.
