data_PCOD8075962
_publ_section_title
;
Structure prediction by ZEFSAII (Michael W. Deem and Ramdas Pophale) SiO2 
 PCOD8075962
Probable space group: P 21/M
;
_chemical_formula_sum "Si O2"
_cell_formula_units_Z 32
_cell_length_a 22.910995
_cell_length_b 8.775022
_cell_length_c 14.289009
_cell_angle_alpha 90.000000
_cell_angle_beta 144.028557
_cell_angle_gamma 90.000000
_cell_volume 1687.387681
_symmetry_space_group_name_H-M "P 21/M"
_symmetry_group_IT_number 11
_symmetry_cell_setting 'monoclinic'
loop_
_space_group_symop_operation_xyz
x,y,z
-x,1/2+y,-z
-x,-y,-z
x,1/2-y,z
loop_
_atom_site_type_symbol
_atom_site_label
_atom_site_fract_x
_atom_site_fract_y
_atom_site_fract_z
Si Si1 0.008331 0.072951 0.410735
Si Si2 0.699489 0.928581 0.398884
Si Si3 0.814740 0.073856 0.040421
Si Si4 0.125170 0.928037 0.253988
Si Si5 0.678286 0.076565 0.028584
Si Si6 0.100881 0.427767 0.026413
Si Si7 0.497022 0.571031 0.892529
Si Si8 0.204869 0.923042 0.639496
O O1 0.033521 0.250000 0.453184
O O2 0.910176 0.041430 0.226282
O O3 0.097411 0.987995 0.473368
O O4 0.000000 0.000000 0.500000
O O5 0.688257 0.750000 0.396999
O O6 0.792294 0.985394 0.579415
O O7 0.594904 0.007382 0.288821
O O8 0.715189 0.973801 0.310775
O O9 0.808936 0.250000 0.002944
O O10 0.717821 0.028553 0.976610
O O11 0.824565 0.970942 0.961036
O O12 0.145621 0.750000 0.289019
O O13 0.137101 0.977482 0.162327
O O14 0.014024 0.970205 0.146174
O O15 0.637927 0.250000 0.974548
O O16 0.772954 0.067557 0.221227
O O17 0.593233 0.965479 0.954727
O O18 0.110786 0.250000 0.062126
O O19 0.486745 0.750000 0.892168
O O20 0.500000 0.500000 0.000000
O O21 0.211511 0.750000 0.611187
#
# Coordination Sequence:
#
# PCOD8075962 Si02
#       8
#     4   4   4   4   4   4   4   4
#     4  11  21  33  49  74 110 151 193 233 278 335
#     4  12  24  38  59  86 115 150 191 240 294 349
#     4  10  21  37  55  78 112 156 194 233 286 342
#     4  10  21  39  62  88 119 154 191 239 291 342
#     4  10  21  38  56  77 111 153 195 238 283 339
#     4  10  21  37  60  90 120 152 192 238 286 344
#     4  12  24  39  59  84 114 151 196 244 294 348
#     4  11  21  35  53  77 112 151 191 236 283 339
#
# _framework density 18.964226
#
# number of rings (size 3 to 8) (size 9 to 14) (size 15 to 20)
#    0.000    1.250    2.500    4.500    0.000    5.500 
#    0.000    0.000    0.000    0.750    0.000    0.000 
#    0.000    0.000    0.000    0.000    0.000    0.000 
#
# Total GULP energy -396807.992036 kJ/mol
# GULP energy per Si atom -12400.249751 kJ/mol
# Density = 1.892106 g / cm^3
# Si number density = 18.964226 Si / 1000 Ang^3
#
#
#
# Elastic Constant Matrix: (Units=GPa)
#
#
# Indices 1 2 3 4 5 6 
#
# 1 109.2063 35.2295 27.2451 0.0000 4.6063 0.0000
# 2 35.2295 99.0340 30.2408 0.0000 3.0133 0.0000
# 3 27.2451 30.2408 59.5879 0.0000 6.5841 0.0000
# 4 0.0000 0.0000 0.0000 30.3853 0.0000 1.1889
# 5 4.6063 3.0133 6.5841 0.0000 25.3426 0.0000
# 6 0.0000 0.0000 0.0000 1.1889 0.0000 35.1637
#
#
#
# Elastic Compliance Matrix: (Units=1/GPa)
#
#
# Indices 1 2 3 4 5 6 
#
# 1 0.010970 -0.002808 -0.003508 0.000000 -0.000749 0.000000
# 2 -0.002808 0.012669 -0.005184 0.000000 0.000351 0.000000
# 3 -0.003508 -0.005184 0.021495 0.000000 -0.004331 0.000000
# 4 0.000000 0.000000 0.000000 0.032954 0.000000 -0.001114
# 5 -0.000749 0.000351 -0.004331 0.000000 0.040679 0.000000
# 6 0.000000 0.000000 0.000000 -0.001114 0.000000 0.028476
#
#
# Mechanical properties :
#
#
# Convention : Reuss Voigt Hill
#
# Bulk Modulus (GPa) = 45.18068 50.36211 47.77140
# Shear Modulus (GPa) = 28.14984 29.85251 29.00117
#
# Velocity S-wave (km/s) = 3.85693 3.97186 3.91481
# Velocity P-wave (km/s) = 6.61138 6.90277 6.75865
#
# Compressibility (1/GPa) = 0.02213335
#
# Stress axis : x y z
#
# Youngs Moduli (GPa) = 91.16083 78.93329 46.52209
#
# Poissons Ratio (x) = 0.22168 0.16318
# Poissons Ratio (y) = 0.25602 0.24118
# Poissons Ratio (z) = 0.31976 0.40920
#
# Static dielectric constant tensor:
#      x y z
#    x 3.437780 0.000000 -0.009620 
#    y 0.000000 3.490110 0.000000 
#    z -0.009620 0.000000 3.258090 
# 
# 
# High freq. dielectric constant tensor:
#      x y z
#    x 1.735480 0.000000 0.008210 
#    y 0.000000 1.745930 0.000000 
#    z 0.008210 0.000000 1.717150 
# 
# From -- ./inp_files/55713.got.cif
#   From: 2010.06.25/outbox.cif.g09.slc.cpg/sg11_28_cif.got.tgz:55713.got - 2010.06.27 23:14:04.
