data_PCOD8075813
_publ_section_title
;
Structure prediction by ZEFSAII (Michael W. Deem and Ramdas Pophale) SiO2 
 PCOD8075813
Probable space group: P 21/M
;
_chemical_formula_sum "Si O2"
_cell_formula_units_Z 32
_cell_length_a 15.618757
_cell_length_b 9.062942
_cell_length_c 25.247946
_cell_angle_alpha 90.000000
_cell_angle_beta 29.741637
_cell_angle_gamma 90.000000
_cell_volume 1772.972489
_symmetry_space_group_name_H-M "P 21/M"
_symmetry_group_IT_number 11
_symmetry_cell_setting 'monoclinic'
loop_
_space_group_symop_operation_xyz
x,y,z
-x,1/2+y,-z
-x,-y,-z
x,1/2-y,z
loop_
_atom_site_type_symbol
_atom_site_label
_atom_site_fract_x
_atom_site_fract_y
_atom_site_fract_z
Si Si1 0.599747 0.579230 0.900478
Si Si2 0.856062 0.922502 0.148292
Si Si3 0.201291 0.421870 0.942637
Si Si4 0.730640 0.578025 0.413298
Si Si5 0.657021 0.077373 0.347404
Si Si6 0.514933 0.922158 0.828160
Si Si7 0.014720 0.078087 0.328307
Si Si8 0.099820 0.079571 0.400567
O O1 0.596502 0.750000 0.914913
O O2 0.504111 0.547001 0.896586
O O3 0.797995 0.526701 0.792812
O O4 0.500000 0.500000 0.000000
O O5 0.864660 0.750000 0.156754
O O6 0.790872 0.953895 0.124053
O O7 0.721775 0.000258 0.259380
O O8 0.045939 0.990338 0.053963
O O9 0.174419 0.250000 0.968882
O O10 0.378855 0.476288 0.871798
O O11 0.754969 0.750000 0.388205
O O12 0.546077 0.545209 0.538811
O O13 0.754391 0.490777 0.345669
O O14 0.873410 0.523840 0.377320
O O15 0.698798 0.250000 0.322440
O O16 0.480839 0.750000 0.834208
O O17 0.702294 0.973392 0.707251
O O18 0.980599 0.250000 0.333931
O O19 0.004520 0.048577 0.396413
O O20 0.097213 0.250000 0.415225
O O21 0.000000 0.000000 0.500000
#
# Coordination Sequence:
#
# PCOD8075813 Si02
#       8
#     4   4   4   4   4   4   4   4
#     4   9  19  35  54  76 102 135 173 211 254 304
#     4  10  21  37  56  78 106 139 175 216 261 311
#     4  10  21  36  55  80 107 137 175 217 262 311
#     4  10  21  36  55  80 107 137 175 217 262 311
#     4  10  21  37  56  78 106 139 175 216 261 311
#     4   9  19  36  54  74 105 141 173 210 260 313
#     4   9  19  36  54  74 105 141 173 210 260 313
#     4   9  19  35  54  76 104 139 177 217 261 310
#
# _framework density 18.048784999999999
#
# number of rings (size 3 to 8) (size 9 to 14) (size 15 to 20)
#    0.000    2.500    0.000    3.000    0.000    7.000 
#    0.000   10.000    0.000    0.000    0.000    0.000 
#    0.000    0.000    0.000    0.000    0.000    0.000 
#
# Total GULP energy -396861.785464 kJ/mol
# GULP energy per Si atom -12401.930796 kJ/mol
# Density = 1.800771 g / cm^3
# Si number density = 18.048785 Si / 1000 Ang^3
#
#
#
# Elastic Constant Matrix: (Units=GPa)
#
#
# Indices 1 2 3 4 5 6 
#
# 1 92.8474 52.2034 50.1314 0.0000 -10.2192 0.0000
# 2 52.2034 90.5894 54.7042 0.0000 3.1167 0.0000
# 3 50.1314 54.7042 99.9885 0.0000 16.4083 0.0000
# 4 0.0000 0.0000 0.0000 39.4126 0.0000 1.3650
# 5 -10.2192 3.1167 16.4083 0.0000 30.7874 0.0000
# 6 0.0000 0.0000 0.0000 1.3650 0.0000 37.8133
#
#
#
# Elastic Compliance Matrix: (Units=1/GPa)
#
#
# Indices 1 2 3 4 5 6 
#
# 1 0.020733 -0.007300 -0.008385 0.000000 0.012089 0.000000
# 2 -0.007300 0.019395 -0.006828 0.000000 -0.000747 0.000000
# 3 -0.008385 -0.006828 0.020036 0.000000 -0.012770 0.000000
# 4 0.000000 0.000000 0.000000 0.025404 0.000000 -0.000917
# 5 0.012089 -0.000747 -0.012770 0.000000 0.043375 0.000000
# 6 0.000000 0.000000 0.000000 -0.000917 0.000000 0.026479
#
#
# Mechanical properties :
#
#
# Convention : Reuss Voigt Hill
#
# Bulk Modulus (GPa) = 66.06058 66.38924 66.22491
# Shear Modulus (GPa) = 24.33156 30.02841 27.17999
#
# Velocity S-wave (km/s) = 3.67563 4.08332 3.88483
# Velocity P-wave (km/s) = 7.39556 7.68729 7.54283
#
# Compressibility (1/GPa) = 0.01513762
#
# Stress axis : x y z
#
# Youngs Moduli (GPa) = 48.23297 51.56047 49.90921
#
# Poissons Ratio (x) = 0.37640 0.41848
# Poissons Ratio (y) = 0.35211 0.34079
# Poissons Ratio (z) = 0.40442 0.35206
#
# Static dielectric constant tensor:
#      x y z
#    x 3.292000 0.000000 0.007430 
#    y 0.000000 3.329320 0.000000 
#    z 0.007430 0.000000 3.261580 
# 
# 
# High freq. dielectric constant tensor:
#      x y z
#    x 1.701270 0.000000 0.000900 
#    y 0.000000 1.704050 0.000000 
#    z 0.000900 0.000000 1.702360 
# 
# From -- ./inp_files/69034.got.cif
#   From: 2010.06.25/outbox.cif.g09.slc.cpg/sg11_35_cif.got.tgz:69034.got - 2010.06.27 23:14:04.
