data_PCOD8075528
_publ_section_title
;
Structure prediction by ZEFSAII (Michael W. Deem and Ramdas Pophale) SiO2 
 PCOD8075528
Probable space group: P 21/M
;
_chemical_formula_sum "Si O2"
_cell_formula_units_Z 28
_cell_length_a 14.120012
_cell_length_b 17.989039
_cell_length_c 8.034154
_cell_angle_alpha 90.000000
_cell_angle_beta 41.762082
_cell_angle_gamma 90.000000
_cell_volume 1359.198303
_symmetry_space_group_name_H-M "P 21/M"
_symmetry_group_IT_number 11
_symmetry_cell_setting 'monoclinic'
loop_
_space_group_symop_operation_xyz
x,y,z
-x,1/2+y,-z
-x,-y,-z
x,1/2-y,z
loop_
_atom_site_type_symbol
_atom_site_label
_atom_site_fract_x
_atom_site_fract_y
_atom_site_fract_z
Si Si1 0.152001 0.538946 0.298206
Si Si2 0.018316 0.663306 0.646222
Si Si3 0.982668 0.087544 0.015960
Si Si4 0.740573 0.884604 0.837788
Si Si5 0.706969 0.436969 0.225045
Si Si6 0.607940 0.896172 0.360392
Si Si7 0.770018 0.666612 0.452576
O O1 0.152657 0.610276 0.421113
O O2 0.262989 0.473376 0.196727
O O3 0.000000 0.500000 0.500000
O O4 0.194505 0.570477 0.064833
O O5 0.062273 0.750000 0.598612
O O6 0.960311 0.632234 0.897785
O O7 0.895568 0.650409 0.671412
O O8 0.812798 0.101573 0.220338
O O9 0.087356 0.115927 0.732856
O O10 0.000000 0.000000 0.000000
O O11 0.685601 0.847686 0.737988
O O12 0.643771 0.867452 0.126712
O O13 0.562049 0.391606 0.401192
O O14 0.672141 0.522482 0.311705
O O15 0.667435 0.845147 0.429136
O O16 0.824386 0.750000 0.374462
#
# Coordination Sequence:
#
# PCOD8075528 Si02
#       7
#     4   4   4   4   4   4   4
#     4   9  18  36  60  91 119 160 209 259 316 365
#     4  11  21  35  59  91 129 162 204 268 323 375
#     4  12  20  37  65  95 124 162 214 269 314 380
#     4  10  20  39  63  89 123 166 214 261 311 383
#     4  10  21  40  66  93 123 165 212 268 321 372
#     4  10  22  43  63  92 129 161 214 266 317 385
#     4  12  24  39  66  95 125 171 217 263 328 385
#
# _framework density 20.600380000000001
#
# number of rings (size 3 to 8) (size 9 to 14) (size 15 to 20)
#    0.000    1.429    2.857    5.143    0.000    0.571 
#    2.571    5.000    0.000    0.000    0.000    0.000 
#    0.000    0.000    0.000    0.000    0.000    0.000 
#
# Total GULP energy -346986.479576 kJ/mol
# GULP energy per Si atom -12392.374271 kJ/mol
# Density = 2.055349 g / cm^3
# Si number density = 20.600380 Si / 1000 Ang^3
#
#
#
# Elastic Constant Matrix: (Units=GPa)
#
#
# Indices 1 2 3 4 5 6 
#
# 1 89.2616 40.3854 61.1350 0.0000 7.5370 0.0000
# 2 40.3854 128.0593 35.3311 0.0000 10.3975 0.0000
# 3 61.1350 35.3311 122.5455 0.0000 8.6619 0.0000
# 4 0.0000 0.0000 0.0000 16.2876 0.0000 6.4591
# 5 7.5370 10.3975 8.6619 0.0000 37.3172 0.0000
# 6 0.0000 0.0000 0.0000 6.4591 0.0000 25.0272
#
#
#
# Elastic Compliance Matrix: (Units=1/GPa)
#
#
# Indices 1 2 3 4 5 6 
#
# 1 0.018420 -0.003499 -0.008120 0.000000 -0.000861 0.000000
# 2 -0.003499 0.009273 -0.000808 0.000000 -0.001689 0.000000
# 3 -0.008120 -0.000808 0.012518 0.000000 -0.001040 0.000000
# 4 0.000000 0.000000 0.000000 0.068397 0.000000 -0.017652
# 5 -0.000861 -0.001689 -0.001040 0.000000 0.027683 0.000000
# 6 0.000000 0.000000 0.000000 -0.017652 0.000000 0.044512
#
#
# Mechanical properties :
#
#
# Convention : Reuss Voigt Hill
#
# Bulk Modulus (GPa) = 65.12126 68.17437 66.64782
# Shear Modulus (GPa) = 23.72204 29.26074 26.49139
#
# Velocity S-wave (km/s) = 3.39711 3.77291 3.58993
# Velocity P-wave (km/s) = 6.86057 7.22117 7.04318
#
# Compressibility (1/GPa) = 0.01535597
#
# Stress axis : x y z
#
# Youngs Moduli (GPa) = 54.28928 107.84562 79.88798
#
# Poissons Ratio (x) = 0.37734 0.64866
# Poissons Ratio (y) = 0.18995 0.06458
# Poissons Ratio (z) = 0.44081 0.08719
#
# Static dielectric constant tensor:
#      x y z
#    x 3.754050 0.000000 0.173490 
#    y 0.000000 3.716960 0.000000 
#    z 0.173490 0.000000 3.823210 
# 
# 
# High freq. dielectric constant tensor:
#      x y z
#    x 1.785080 0.000000 0.023500 
#    y 0.000000 1.792450 0.000000 
#    z 0.023500 0.000000 1.803460 
# 
# From -- ./inp_files/22705.got.cif
#   From: 2010.06.25/outbox.cif.g09.slc.cpg/sg11_12_cif.got.tgz:22705.got - 2010.06.27 23:14:04.
