data_PCOD8075363
_publ_section_title
;
Structure prediction by ZEFSAII (Michael W. Deem and Ramdas Pophale) SiO2 
 PCOD8075363
Probable space group: P 21/M
;
_chemical_formula_sum "Si O2"
_cell_formula_units_Z 32
_cell_length_a 23.742177
_cell_length_b 8.944441
_cell_length_c 14.181227
_cell_angle_alpha 90.000000
_cell_angle_beta 146.604989
_cell_angle_gamma 90.000000
_cell_volume 1657.571700
_symmetry_space_group_name_H-M "P 21/M"
_symmetry_group_IT_number 11
_symmetry_cell_setting 'monoclinic'
loop_
_space_group_symop_operation_xyz
x,y,z
-x,1/2+y,-z
-x,-y,-z
x,1/2-y,z
loop_
_atom_site_type_symbol
_atom_site_label
_atom_site_fract_x
_atom_site_fract_y
_atom_site_fract_z
Si Si1 0.516182 0.075494 0.814145
Si Si2 0.910642 0.922399 0.000628
Si Si3 0.700871 0.576063 0.172200
Si Si4 0.882612 0.577030 0.744440
Si Si5 0.895233 0.574945 0.322761
Si Si6 0.206611 0.927195 0.999068
Si Si7 0.682553 0.927866 0.358431
Si Si8 0.560462 0.423392 0.667934
O O1 0.526585 0.250000 0.848569
O O2 0.420147 0.007109 0.736906
O O3 0.500605 0.043690 0.681508
O O4 0.621106 0.002579 0.992862
O O5 0.904754 0.750000 0.024026
O O6 0.869994 0.944608 0.838158
O O7 0.839524 0.024139 0.965837
O O8 0.026932 0.977469 0.171372
O O9 0.675148 0.750000 0.135767
O O10 0.814357 0.544012 0.293026
O O11 0.690846 0.510676 0.263717
O O12 0.904329 0.750000 0.749485
O O13 0.779675 0.515378 0.552963
O O14 0.912765 0.750000 0.331328
O O15 0.856730 0.504816 0.171968
O O16 0.000000 0.500000 0.500000
O O17 0.198552 0.750000 0.974843
O O18 0.323736 0.983705 0.160778
O O19 0.680212 0.750000 0.357489
O O20 0.500000 0.500000 0.500000
O O21 0.563638 0.250000 0.648413
#
# Coordination Sequence:
#
# PCOD8075363 Si02
#       8
#     4   4   4   4   4   4   4   4
#     4  10  20  38  61  84 114 151 193 237 287 348
#     4  10  21  36  58  87 117 152 196 242 292 348
#     4  10  21  38  59  85 116 150 190 236 293 349
#     4   9  19  37  59  83 116 156 192 237 292 351
#     4  11  24  40  61  90 122 158 200 249 301 359
#     4  11  23  41  62  87 120 161 201 245 301 359
#     4   9  19  35  59  86 111 148 193 234 286 348
#     4  10  23  39  60  88 118 156 199 246 299 353
#
# _framework density 19.305349
#
# number of rings (size 3 to 8) (size 9 to 14) (size 15 to 20)
#    0.000    2.000    1.250    1.500    3.500    2.500 
#    0.000    1.250    0.000    0.000    0.000    0.000 
#    0.000    0.000    0.000    0.000    0.000    0.000 
#
# Total GULP energy -396904.897161 kJ/mol
# GULP energy per Si atom -12403.278036 kJ/mol
# Density = 1.926141 g / cm^3
# Si number density = 19.305349 Si / 1000 Ang^3
#
#
#
# Elastic Constant Matrix: (Units=GPa)
#
#
# Indices 1 2 3 4 5 6 
#
# 1 116.1514 38.7793 46.5724 0.0000 3.1434 0.0000
# 2 38.7793 56.7267 46.3454 0.0000 0.7612 0.0000
# 3 46.5724 46.3454 139.8595 0.0000 -3.8108 0.0000
# 4 0.0000 0.0000 0.0000 32.2714 0.0000 -3.2136
# 5 3.1434 0.7612 -3.8108 0.0000 25.3413 0.0000
# 6 0.0000 0.0000 0.0000 -3.2136 0.0000 23.5772
#
#
#
# Elastic Compliance Matrix: (Units=1/GPa)
#
#
# Indices 1 2 3 4 5 6 
#
# 1 0.011489 -0.006410 -0.001742 0.000000 -0.001494 0.000000
# 2 -0.006410 0.027845 -0.007123 0.000000 -0.001112 0.000000
# 3 -0.001742 -0.007123 0.010144 0.000000 0.001955 0.000000
# 4 0.000000 0.000000 0.000000 0.031414 0.000000 0.004282
# 5 -0.001494 -0.001112 0.001955 0.000000 0.039974 0.000000
# 6 0.000000 0.000000 0.000000 0.004282 0.000000 0.042998
#
#
# Mechanical properties :
#
#
# Convention : Reuss Voigt Hill
#
# Bulk Modulus (GPa) = 52.83554 64.01466 58.42510
# Shear Modulus (GPa) = 24.91011 28.30734 26.60872
#
# Velocity S-wave (km/s) = 3.59600 3.83338 3.71659
# Velocity P-wave (km/s) = 6.68352 7.26802 6.98189
#
# Compressibility (1/GPa) = 0.01892665
#
# Stress axis : x y z
#
# Youngs Moduli (GPa) = 87.04214 35.91336 98.58366
#
# Poissons Ratio (x) = 0.23022 0.17175
# Poissons Ratio (y) = 0.55798 0.70217
# Poissons Ratio (z) = 0.15164 0.25580
#
# Static dielectric constant tensor:
#      x y z
#    x 3.778530 0.000000 0.085820 
#    y 0.000000 3.396350 0.000000 
#    z 0.085820 0.000000 3.652820 
# 
# 
# High freq. dielectric constant tensor:
#      x y z
#    x 1.766500 0.000000 0.000470 
#    y 0.000000 1.736770 0.000000 
#    z 0.000470 0.000000 1.758670 
# 
# From -- ./inp_files/55585.got.cif
#   From: 2010.06.25/outbox.cif.g09.slc.cpg/sg11_28_cif.got.tgz:55585.got - 2010.06.27 23:14:04.
