data_PCOD8075530
_publ_section_title
;
Structure prediction by ZEFSAII (Michael W. Deem and Ramdas Pophale) SiO2 
 PCOD8075530
Probable space group: P 21/M
;
_chemical_formula_sum "Si O2"
_cell_formula_units_Z 32
_cell_length_a 11.828490
_cell_length_b 16.527281
_cell_length_c 9.561829
_cell_angle_alpha 90.000000
_cell_angle_beta 53.320508
_cell_angle_gamma 90.000000
_cell_volume 1499.133725
_symmetry_space_group_name_H-M "P 21/M"
_symmetry_group_IT_number 11
_symmetry_cell_setting 'monoclinic'
loop_
_space_group_symop_operation_xyz
x,y,z
-x,1/2+y,-z
-x,-y,-z
x,1/2-y,z
loop_
_atom_site_type_symbol
_atom_site_label
_atom_site_fract_x
_atom_site_fract_y
_atom_site_fract_z
Si Si1 0.615456 0.595992 0.805979
Si Si2 0.372088 0.153183 0.701973
Si Si3 0.545370 0.159838 0.313151
Si Si4 0.095150 0.409018 0.312605
Si Si5 0.837949 0.341911 0.003665
Si Si6 0.145865 0.905089 0.313381
Si Si7 0.930369 0.915078 0.999337
Si Si8 0.437588 0.920854 0.205842
O O1 0.531225 0.662367 0.780373
O O2 0.765875 0.636447 0.733387
O O3 0.607665 0.512696 0.718556
O O4 0.552150 0.574332 0.001352
O O5 0.339636 0.250000 0.731371
O O6 0.439479 0.122096 0.505921
O O7 0.493560 0.130267 0.721452
O O8 0.229327 0.100825 0.830176
O O9 0.576764 0.250000 0.342867
O O10 0.698286 0.115836 0.177002
O O11 0.131817 0.499284 0.332104
O O12 0.065704 0.404707 0.169943
O O13 0.967044 0.368997 0.493593
O O14 0.799164 0.250000 0.999703
O O15 0.969386 0.346247 0.011340
O O16 0.883020 0.381839 0.824841
O O17 0.298561 0.874628 0.251837
O O18 0.000000 0.000000 0.000000
#
# Coordination Sequence:
#
# PCOD8075530 Si02
#       8
#     4   4   4   4   4   4   4   4
#     4  10  20  39  63  92 125 157 217 269 312 373
#     4  11  26  45  63  95 134 170 213 267 328 393
#     4  10  24  43  65  92 129 172 217 266 325 390
#     4  10  22  40  62  96 128 162 213 269 318 376
#     4  11  24  43  63  91 130 173 216 268 325 392
#     4  10  21  40  64  93 128 165 210 267 323 382
#     4  12  25  42  69  94 130 176 215 265 325 394
#     4  10  21  37  67  91 122 164 209 268 318 375
#
# _framework density 21.345659999999999
#
# number of rings (size 3 to 8) (size 9 to 14) (size 15 to 20)
#    0.000    1.500    3.750    0.375    5.250    2.500 
#    0.000    1.250    0.000    0.000    0.000    0.000 
#    0.000    0.000    0.000    0.000    0.000    0.000 
#
# Total GULP energy -396503.555821 kJ/mol
# GULP energy per Si atom -12390.736119 kJ/mol
# Density = 2.129708 g / cm^3
# Si number density = 21.345660 Si / 1000 Ang^3
#
#
#
# Elastic Constant Matrix: (Units=GPa)
#
#
# Indices 1 2 3 4 5 6 
#
# 1 153.7756 10.4651 50.6463 0.0000 -8.6503 0.0000
# 2 10.4651 41.3019 13.9686 0.0000 -2.2932 0.0000
# 3 50.6463 13.9686 142.9722 0.0000 -8.6491 0.0000
# 4 0.0000 0.0000 0.0000 18.0175 0.0000 1.5740
# 5 -8.6503 -2.2932 -8.6491 0.0000 34.8781 0.0000
# 6 0.0000 0.0000 0.0000 1.5740 0.0000 26.9499
#
#
#
# Elastic Compliance Matrix: (Units=1/GPa)
#
#
# Indices 1 2 3 4 5 6 
#
# 1 0.007450 -0.000987 -0.002472 0.000000 0.001170 0.000000
# 2 -0.000987 0.025208 -0.002059 0.000000 0.000902 0.000000
# 3 -0.002472 -0.002059 0.008148 0.000000 0.001272 0.000000
# 4 0.000000 0.000000 0.000000 0.055786 0.000000 -0.003258
# 5 0.001170 0.000902 0.001272 0.000000 0.029336 0.000000
# 6 0.000000 0.000000 0.000000 -0.003258 0.000000 0.037296
#
#
# Mechanical properties :
#
#
# Convention : Reuss Voigt Hill
#
# Bulk Modulus (GPa) = 33.58896 54.24552 43.91724
# Shear Modulus (GPa) = 27.14679 33.50042 30.32361
#
# Velocity S-wave (km/s) = 3.57006 3.96590 3.77317
# Velocity P-wave (km/s) = 5.72395 6.81463 6.29297
#
# Compressibility (1/GPa) = 0.02977169
#
# Stress axis : x y z
#
# Youngs Moduli (GPa) = 134.22683 39.66939 122.72761
#
# Poissons Ratio (x) = 0.03914 0.30337
# Poissons Ratio (y) = 0.13244 0.25267
# Poissons Ratio (z) = 0.33180 0.08167
#
# Static dielectric constant tensor:
#      x y z
#    x 4.050790 0.000000 -0.285060 
#    y 0.000000 3.580160 0.000000 
#    z -0.285060 0.000000 4.117060 
# 
# 
# High freq. dielectric constant tensor:
#      x y z
#    x 1.853690 0.000000 -0.008320 
#    y 0.000000 1.806450 0.000000 
#    z -0.008320 0.000000 1.845040 
# 
# From -- ./inp_files/19373.got.cif
#   From: 2010.06.25/outbox.cif.g09.slc.cpg/sg11_10_cif.got.tgz:19373.got - 2010.06.27 23:14:04.
