data_PCOD8075817
_publ_section_title
;
Structure prediction by ZEFSAII (Michael W. Deem and Ramdas Pophale) SiO2 
 PCOD8075817
Probable space group: P 21/M
;
_chemical_formula_sum "Si O2"
_cell_formula_units_Z 28
_cell_length_a 9.054401
_cell_length_b 10.873590
_cell_length_c 16.422171
_cell_angle_alpha 90.000000
_cell_angle_beta 58.012862
_cell_angle_gamma 90.000000
_cell_volume 1371.338397
_symmetry_space_group_name_H-M "P 21/M"
_symmetry_group_IT_number 11
_symmetry_cell_setting 'monoclinic'
loop_
_space_group_symop_operation_xyz
x,y,z
-x,1/2+y,-z
-x,-y,-z
x,1/2-y,z
loop_
_atom_site_type_symbol
_atom_site_label
_atom_site_fract_x
_atom_site_fract_y
_atom_site_fract_z
Si Si1 0.879646 0.391910 0.244720
Si Si2 0.275135 0.109670 0.106020
Si Si3 0.779667 0.614779 0.591242
Si Si4 0.520575 0.377962 0.547394
Si Si5 0.483979 0.610373 0.116886
Si Si6 0.431200 0.024822 0.735002
Si Si7 0.117197 0.551784 0.576360
O O1 0.846286 0.250000 0.276885
O O2 0.735363 0.434080 0.221139
O O3 0.861079 0.470783 0.333359
O O4 0.070543 0.411171 0.151195
O O5 0.310477 0.250000 0.130140
O O6 0.344650 0.000657 0.145188
O O7 0.363406 0.094431 0.992856
O O8 0.708951 0.750000 0.599664
O O9 0.615728 0.540805 0.671190
O O10 0.862891 0.574599 0.480321
O O11 0.929236 0.611675 0.616401
O O12 0.500000 0.500000 0.500000
O O13 0.458492 0.250000 0.522190
O O14 0.417491 0.383153 0.662536
O O15 0.727471 0.362353 0.502662
O O16 0.403001 0.750000 0.133866
O O17 0.573046 0.596664 0.178898
#
# Coordination Sequence:
#
# PCOD8075817 Si02
#       7
#     4   4   4   4   4   4   4
#     4  11  21  37  58  88 121 158 204 250 300 360
#     4   9  21  41  68  92 118 157 203 251 302 365
#     4  10  21  37  56  83 115 155 205 250 293 352
#     4  11  22  37  56  80 114 157 197 242 292 347
#     4  10  21  42  65  91 124 157 197 251 311 364
#     4  11  23  36  58  88 121 157 198 243 303 360
#     4  10  21  36  55  80 113 153 197 248 298 343
#
# _framework density 20.418009999999999
#
# number of rings (size 3 to 8) (size 9 to 14) (size 15 to 20)
#    0.000    1.714    1.429    3.000    0.000    5.143 
#    0.000    7.143    0.000    0.000    0.000    0.000 
#    0.000    0.000    0.000    0.000    0.000    0.000 
#
# Total GULP energy -346894.910917 kJ/mol
# GULP energy per Si atom -12389.103961 kJ/mol
# Density = 2.037154 g / cm^3
# Si number density = 20.418010 Si / 1000 Ang^3
#
#
#
# Elastic Constant Matrix: (Units=GPa)
#
#
# Indices 1 2 3 4 5 6 
#
# 1 109.7164 49.2620 37.0369 0.0000 -6.6270 0.0000
# 2 49.2620 140.4542 36.1915 0.0000 8.7439 0.0000
# 3 37.0369 36.1915 75.0596 0.0000 5.4758 0.0000
# 4 0.0000 0.0000 0.0000 11.4204 0.0000 6.3068
# 5 -6.6270 8.7439 5.4758 0.0000 36.4683 0.0000
# 6 0.0000 0.0000 0.0000 6.3068 0.0000 23.0430
#
#
#
# Elastic Compliance Matrix: (Units=1/GPa)
#
#
# Indices 1 2 3 4 5 6 
#
# 1 0.012483 -0.003376 -0.004809 0.000000 0.003800 0.000000
# 2 -0.003376 0.009111 -0.002551 0.000000 -0.002415 0.000000
# 3 -0.004809 -0.002551 0.017133 0.000000 -0.002835 0.000000
# 4 0.000000 0.000000 0.000000 0.103154 0.000000 -0.028233
# 5 0.003800 -0.002415 -0.002835 0.000000 0.029116 0.000000
# 6 0.000000 0.000000 0.000000 -0.028233 0.000000 0.051124
#
#
# Mechanical properties :
#
#
# Convention : Reuss Voigt Hill
#
# Bulk Modulus (GPa) = 57.95468 63.35679 60.65573
# Shear Modulus (GPa) = 20.05249 27.70232 23.87741
#
# Velocity S-wave (km/s) = 3.13724 3.68742 3.42340
# Velocity P-wave (km/s) = 6.44739 7.01617 6.73778
#
# Compressibility (1/GPa) = 0.01725486
#
# Stress axis : x y z
#
# Youngs Moduli (GPa) = 80.10937 109.75171 58.36765
#
# Poissons Ratio (x) = 0.37047 0.28070
# Poissons Ratio (y) = 0.27041 0.14892
# Poissons Ratio (z) = 0.38526 0.28003
#
# Static dielectric constant tensor:
#      x y z
#    x 3.832380 0.000000 -0.112330 
#    y 0.000000 3.929620 0.000000 
#    z -0.112330 0.000000 3.665110 
# 
# 
# High freq. dielectric constant tensor:
#      x y z
#    x 1.793930 0.000000 -0.007280 
#    y 0.000000 1.798900 0.000000 
#    z -0.007280 0.000000 1.792500 
# 
# From -- ./inp_files/47115.got.cif
#   From: 2010.06.25/outbox.cif.g09.slc.cpg/sg11_24_cif.got.tgz:47115.got - 2010.06.27 23:14:04.
