data_PCOD8075068
_publ_section_title
;
Structure prediction by ZEFSAII (Michael W. Deem and Ramdas Pophale) SiO2 
 PCOD8075068
Probable space group: P 21/M
;
_chemical_formula_sum "Si O2"
_cell_formula_units_Z 32
_cell_length_a 13.220542
_cell_length_b 8.898138
_cell_length_c 31.685199
_cell_angle_alpha 90.000000
_cell_angle_beta 155.100257
_cell_angle_gamma 90.000000
_cell_volume 1569.349517
_symmetry_space_group_name_H-M "P 21/M"
_symmetry_group_IT_number 11
_symmetry_cell_setting 'monoclinic'
loop_
_space_group_symop_operation_xyz
x,y,z
-x,1/2+y,-z
-x,-y,-z
x,1/2-y,z
loop_
_atom_site_type_symbol
_atom_site_label
_atom_site_fract_x
_atom_site_fract_y
_atom_site_fract_z
Si Si1 0.109489 0.585615 0.449663
Si Si2 0.594552 0.927832 0.221737
Si Si3 0.893097 0.927785 0.093320
Si Si4 0.548331 0.583980 0.560575
Si Si5 0.242308 0.074337 0.577154
Si Si6 0.603979 0.071586 0.134536
Si Si7 0.329776 0.928266 0.203851
Si Si8 0.013433 0.929268 0.233163
O O1 0.072826 0.750000 0.457673
O O2 0.276883 0.603231 0.473083
O O3 0.262079 0.470785 0.535994
O O4 0.848691 0.522827 0.338167
O O5 0.591568 0.750000 0.211217
O O6 0.384371 0.975080 0.175756
O O7 0.559008 0.017726 0.165208
O O8 0.916619 0.750000 0.102505
O O9 0.947034 0.987864 0.160962
O O10 0.079660 0.992194 0.128457
O O11 0.627251 0.979239 0.979998
O O12 0.500000 0.500000 0.500000
O O13 0.662664 0.750000 0.597096
O O14 0.720869 0.488900 0.656454
O O15 0.232665 0.250000 0.579209
O O16 0.461491 0.006925 0.686984
O O17 0.000000 0.000000 0.500000
O O18 0.639112 0.250000 0.147728
O O19 0.832607 0.993743 0.199840
O O20 0.329480 0.750000 0.206200
O O21 0.008929 0.750000 0.233952
#
# Coordination Sequence:
#
# PCOD8075068 Si02
#       8
#     4   4   4   4   4   4   4   4
#     4  10  21  37  55  82 117 154 192 235 284 341
#     4  10  20  37  59  83 117 159 197 232 287 361
#     4   9  20  38  61  88 116 149 194 251 305 357
#     4  11  23  38  59  88 125 160 195 239 289 346
#     4  11  20  33  56  84 114 151 192 233 279 337
#     4  11  23  39  60  87 116 147 196 255 307 356
#     4   9  18  35  58  84 117 156 192 231 288 354
#     4  11  22  40  64  87 116 155 201 245 300 363
#
# _framework density 20.390613999999999
#
# number of rings (size 3 to 8) (size 9 to 14) (size 15 to 20)
#    0.000    1.750    1.250    3.375    0.000    4.000 
#    0.000    1.875    0.000    5.250    0.000    0.000 
#    0.000    0.000    0.000    0.000    0.000    0.000 
#
# Total GULP energy -396631.350081 kJ/mol
# GULP energy per Si atom -12394.729690 kJ/mol
# Density = 2.034420 g / cm^3
# Si number density = 20.390614 Si / 1000 Ang^3
#
#
#
# Elastic Constant Matrix: (Units=GPa)
#
#
# Indices 1 2 3 4 5 6 
#
# 1 121.9826 29.0537 31.1660 0.0000 -6.4635 0.0000
# 2 29.0537 65.0619 22.0350 0.0000 -4.3067 0.0000
# 3 31.1660 22.0350 80.6932 0.0000 -5.7868 0.0000
# 4 0.0000 0.0000 0.0000 26.6946 0.0000 -5.0077
# 5 -6.4635 -4.3067 -5.7868 0.0000 37.0532 0.0000
# 6 0.0000 0.0000 0.0000 -5.0077 0.0000 25.9331
#
#
#
# Elastic Compliance Matrix: (Units=1/GPa)
#
#
# Indices 1 2 3 4 5 6 
#
# 1 0.009756 -0.003354 -0.002789 0.000000 0.000876 0.000000
# 2 -0.003354 0.018148 -0.003591 0.000000 0.000963 0.000000
# 3 -0.002789 -0.003591 0.014549 0.000000 0.001368 0.000000
# 4 0.000000 0.000000 0.000000 0.038869 0.000000 0.007506
# 5 0.000876 0.000963 0.001368 0.000000 0.027467 0.000000
# 6 0.000000 0.000000 0.000000 0.007506 0.000000 0.040010
#
#
# Mechanical properties :
#
#
# Convention : Reuss Voigt Hill
#
# Bulk Modulus (GPa) = 43.50934 48.02747 45.76840
# Shear Modulus (GPa) = 28.42080 30.30171 29.36126
#
# Velocity S-wave (km/s) = 3.73744 3.85913 3.79877
# Velocity P-wave (km/s) = 6.32525 6.59257 6.46030
#
# Compressibility (1/GPa) = 0.02298357
#
# Stress axis : x y z
#
# Youngs Moduli (GPa) = 102.50326 55.10348 68.73478
#
# Poissons Ratio (x) = 0.18481 0.19172
# Poissons Ratio (y) = 0.34378 0.24684
# Poissons Ratio (z) = 0.28591 0.19789
#
# Static dielectric constant tensor:
#      x y z
#    x 3.207490 0.000000 0.239710 
#    y 0.000000 2.731570 0.000000 
#    z 0.239710 0.000000 3.716850 
# 
# 
# High freq. dielectric constant tensor:
#      x y z
#    x 1.814830 0.000000 0.003630 
#    y 0.000000 1.772770 0.000000 
#    z 0.003630 0.000000 1.798660 
# 
# From -- ./inp_files/73191.got.cif
#   From: 2010.06.25/outbox.cif.g09.slc.cpg/sg11_37_cif.got.tgz:73191.got - 2010.06.27 23:14:04.
