data_PCOD8075293
_publ_section_title
;
Structure prediction by ZEFSAII (Michael W. Deem and Ramdas Pophale) SiO2 
 PCOD8075293
Probable space group: P 21/M
;
_chemical_formula_sum "Si O2"
_cell_formula_units_Z 32
_cell_length_a 12.555604
_cell_length_b 8.484872
_cell_length_c 31.552100
_cell_angle_alpha 90.000000
_cell_angle_beta 27.631705
_cell_angle_gamma 90.000000
_cell_volume 1558.939057
_symmetry_space_group_name_H-M "P 21/M"
_symmetry_group_IT_number 11
_symmetry_cell_setting 'monoclinic'
loop_
_space_group_symop_operation_xyz
x,y,z
-x,1/2+y,-z
-x,-y,-z
x,1/2-y,z
loop_
_atom_site_type_symbol
_atom_site_label
_atom_site_fract_x
_atom_site_fract_y
_atom_site_fract_z
Si Si1 0.873444 0.435100 0.176563
Si Si2 0.772463 0.568017 0.302101
Si Si3 0.904872 0.564546 0.665445
Si Si4 0.498034 0.077678 0.246172
Si Si5 0.596158 0.565942 0.509699
Si Si6 0.357149 0.068596 0.972536
Si Si7 0.819240 0.931197 0.792038
Si Si8 0.228403 0.923869 0.934942
O O1 0.882174 0.250000 0.163052
O O2 0.816920 0.465259 0.244882
O O3 0.670190 0.512400 0.218350
O O4 0.128523 0.503062 0.075940
O O5 0.769945 0.750000 0.290166
O O6 0.527834 0.520062 0.407527
O O7 0.968694 0.536429 0.267452
O O8 0.956685 0.750000 0.641406
O O9 0.745960 0.499870 0.681951
O O10 0.785615 0.538005 0.753597
O O11 0.135009 0.464532 0.581368
O O12 0.447732 0.250000 0.283787
O O13 0.610667 0.099211 0.161253
O O14 0.500000 0.500000 0.500000
O O15 0.542180 0.750000 0.530857
O O16 0.393256 0.250000 0.972121
O O17 0.593187 0.975392 0.899712
O O18 0.330050 0.048082 0.932029
O O19 0.878407 0.750000 0.780312
O O20 0.191953 0.750000 0.968819
O O21 0.000000 0.000000 0.000000
#
# Coordination Sequence:
#
# PCOD8075293 Si02
#       8
#     4   4   4   4   4   4   4   4
#     4  10  22  42  63  85 122 172 214 251 303 364
#     4  12  26  44  65  90 121 159 209 260 308 370
#     4  10  20  37  63  96 128 159 198 251 312 367
#     4   9  18  36  60  87 123 164 203 249 304 359
#     4  12  24  41  67  97 126 157 197 250 313 374
#     4  11  22  36  58  90 127 166 210 258 307 366
#     4  11  22  38  63  92 127 164 202 253 313 369
#     4  11  19  32  53  84 120 161 208 257 307 358
#
# _framework density 20.526779999999999
#
# number of rings (size 3 to 8) (size 9 to 14) (size 15 to 20)
#    0.000    1.250    3.750    3.375    0.000    2.000 
#    0.000    1.250    0.000    0.000    0.000    0.000 
#    0.000    0.000    0.000    0.000    0.000    0.000 
#
# Total GULP energy -396561.874193 kJ/mol
# GULP energy per Si atom -12392.558569 kJ/mol
# Density = 2.048006 g / cm^3
# Si number density = 20.526780 Si / 1000 Ang^3
#
#
#
# Elastic Constant Matrix: (Units=GPa)
#
#
# Indices 1 2 3 4 5 6 
#
# 1 67.9816 10.3796 36.1660 0.0000 -7.2941 0.0000
# 2 10.3796 49.0639 19.4377 0.0000 -3.9763 0.0000
# 3 36.1660 19.4377 115.0421 0.0000 -12.6761 0.0000
# 4 0.0000 0.0000 0.0000 22.5031 0.0000 0.1448
# 5 -7.2941 -3.9763 -12.6761 0.0000 36.6664 0.0000
# 6 0.0000 0.0000 0.0000 0.1448 0.0000 24.0129
#
#
#
# Elastic Compliance Matrix: (Units=1/GPa)
#
#
# Indices 1 2 3 4 5 6 
#
# 1 0.017878 -0.001603 -0.005174 0.000000 0.001594 0.000000
# 2 -0.001603 0.022033 -0.003109 0.000000 0.000996 0.000000
# 3 -0.005174 -0.003109 0.011117 0.000000 0.002477 0.000000
# 4 0.000000 0.000000 0.000000 0.044440 0.000000 -0.000268
# 5 0.001594 0.000996 0.002477 0.000000 0.028554 0.000000
# 6 0.000000 0.000000 0.000000 -0.000268 0.000000 0.041646
#
#
# Mechanical properties :
#
#
# Convention : Reuss Voigt Hill
#
# Bulk Modulus (GPa) = 31.99364 40.45048 36.22206
# Shear Modulus (GPa) = 25.52846 27.71010 26.61928
#
# Velocity S-wave (km/s) = 3.53039 3.67815 3.60503
# Velocity P-wave (km/s) = 5.67788 6.14714 5.91717
#
# Compressibility (1/GPa) = 0.03125621
#
# Stress axis : x y z
#
# Youngs Moduli (GPa) = 55.93418 45.38617 89.95045
#
# Poissons Ratio (x) = 0.07277 0.46539
# Poissons Ratio (y) = 0.08968 0.27966
# Poissons Ratio (z) = 0.28940 0.14111
#
# Static dielectric constant tensor:
#      x y z
#    x 3.741850 0.000000 -0.289070 
#    y 0.000000 3.582200 0.000000 
#    z -0.289070 0.000000 3.788560 
# 
# 
# High freq. dielectric constant tensor:
#      x y z
#    x 1.798700 0.000000 -0.021330 
#    y 0.000000 1.784500 0.000000 
#    z -0.021330 0.000000 1.801710 
# 
# From -- ./inp_files/73092.got.cif
#   From: 2010.06.25/outbox.cif.g09.slc.cpg/sg11_37_cif.got.tgz:73092.got - 2010.06.27 23:14:04.
