data_PCOD8075668
_publ_section_title
;
Structure prediction by ZEFSAII (Michael W. Deem and Ramdas Pophale) SiO2 
 PCOD8075668
Probable space group: P 21/M
;
_chemical_formula_sum "Si O2"
_cell_formula_units_Z 28
_cell_length_a 10.994009
_cell_length_b 21.005166
_cell_length_c 6.952586
_cell_angle_alpha 90.000000
_cell_angle_beta 114.592515
_cell_angle_gamma 90.000000
_cell_volume 1459.927272
_symmetry_space_group_name_H-M "P 21/M"
_symmetry_group_IT_number 11
_symmetry_cell_setting 'monoclinic'
loop_
_space_group_symop_operation_xyz
x,y,z
-x,1/2+y,-z
-x,-y,-z
x,1/2-y,z
loop_
_atom_site_type_symbol
_atom_site_label
_atom_site_fract_x
_atom_site_fract_y
_atom_site_fract_z
Si Si1 0.370853 0.324049 0.566375
Si Si2 0.931293 0.519115 0.260165
Si Si3 0.388894 0.582423 0.383308
Si Si4 0.471857 0.032998 0.183736
Si Si5 0.873676 0.821796 0.856415
Si Si6 0.729566 0.873200 0.108089
Si Si7 0.107747 0.584189 0.058886
O O1 0.403687 0.250000 0.545270
O O2 0.496939 0.366789 0.592276
O O3 0.240499 0.347144 0.363352
O O4 0.339217 0.332914 0.769811
O O5 0.820921 0.570262 0.250335
O O6 0.860366 0.460097 0.104892
O O7 0.000000 0.500000 0.500000
O O8 0.041990 0.545458 0.188414
O O9 0.398508 0.560105 0.614105
O O10 0.397927 0.518164 0.266324
O O11 0.245350 0.613262 0.236282
O O12 0.382611 0.095491 0.099488
O O13 0.500000 0.000000 0.000000
O O14 0.911383 0.750000 0.830938
O O15 0.009516 0.860936 0.918990
O O16 0.818856 0.826160 0.037767
#
# Coordination Sequence:
#
# PCOD8075668 Si02
#       7
#     4   4   4   4   4   4   4
#     4  11  23  39  61  85 114 157 203 242 286 353
#     4  10  21  34  57  85 120 149 182 235 291 345
#     4  11  23  37  58  91 124 150 194 242 302 354
#     4  11  22  35  59  87 124 154 185 240 304 356
#     4  10  22  41  60  80 114 158 199 240 285 344
#     4  11  20  37  60  87 112 152 197 239 288 350
#     4  10  22  36  56  88 115 149 192 235 289 349
#
# _framework density 19.179037000000001
#
# number of rings (size 3 to 8) (size 9 to 14) (size 15 to 20)
#    0.000    1.429    4.286    1.286    2.000    0.571 
#    0.000    0.000    0.000    0.000    0.000    0.000 
#    0.000    0.000    0.000    0.000    0.000    0.000 
#
# Total GULP energy -347141.585281 kJ/mol
# GULP energy per Si atom -12397.913760 kJ/mol
# Density = 1.913538 g / cm^3
# Si number density = 19.179037 Si / 1000 Ang^3
#
#
#
# Elastic Constant Matrix: (Units=GPa)
#
#
# Indices 1 2 3 4 5 6 
#
# 1 79.5541 30.9889 44.4165 0.0000 27.8594 0.0000
# 2 30.9889 66.4062 36.1195 0.0000 15.0091 0.0000
# 3 44.4165 36.1195 124.6369 0.0000 19.2474 0.0000
# 4 0.0000 0.0000 0.0000 28.1337 0.0000 8.8539
# 5 27.8594 15.0091 19.2474 0.0000 41.9740 0.0000
# 6 0.0000 0.0000 0.0000 8.8539 0.0000 10.5186
#
#
#
# Elastic Compliance Matrix: (Units=1/GPa)
#
#
# Indices 1 2 3 4 5 6 
#
# 1 0.020305 -0.004934 -0.004302 0.000000 -0.009740 0.000000
# 2 -0.004934 0.019835 -0.003659 0.000000 -0.002140 0.000000
# 3 -0.004302 -0.003659 0.010734 0.000000 -0.000758 0.000000
# 4 0.000000 0.000000 0.000000 0.048354 0.000000 -0.040701
# 5 -0.009740 -0.002140 -0.000758 0.000000 0.031402 0.000000
# 6 0.000000 0.000000 0.000000 -0.040701 0.000000 0.129330
#
#
# Mechanical properties :
#
#
# Convention : Reuss Voigt Hill
#
# Bulk Modulus (GPa) = 39.86736 54.84967 47.35851
# Shear Modulus (GPa) = 17.00036 26.73007 21.86521
#
# Velocity S-wave (km/s) = 2.98048 3.73730 3.38014
# Velocity P-wave (km/s) = 5.71633 6.87634 6.32299
#
# Compressibility (1/GPa) = 0.02508318
#
# Stress axis : x y z
#
# Youngs Moduli (GPa) = 49.24965 50.41485 93.16196
#
# Poissons Ratio (x) = 0.24875 0.40078
# Poissons Ratio (y) = 0.24300 0.34093
# Poissons Ratio (z) = 0.21187 0.18449
#
# Static dielectric constant tensor:
#      x y z
#    x 3.432520 0.000000 0.157490 
#    y 0.000000 3.415770 0.000000 
#    z 0.157490 0.000000 3.730680 
# 
# 
# High freq. dielectric constant tensor:
#      x y z
#    x 1.732340 0.000000 0.008080 
#    y 0.000000 1.734970 0.000000 
#    z 0.008080 0.000000 1.765150 
# 
# From -- ./inp_files/5088.got.cif
#   From: 2010.06.25/outbox.cif.g09.slc.cpg/sg11_3_cif.got.tgz:5088.got - 2010.06.27 23:14:04.
