data_PCOD8075856
_publ_section_title
;
Structure prediction by ZEFSAII (Michael W. Deem and Ramdas Pophale) SiO2 
 PCOD8075856
Probable space group: P 21/M
;
_chemical_formula_sum "Si O2"
_cell_formula_units_Z 32
_cell_length_a 24.168712
_cell_length_b 8.987621
_cell_length_c 14.536918
_cell_angle_alpha 90.000000
_cell_angle_beta 28.511371
_cell_angle_gamma 90.000000
_cell_volume 1507.273991
_symmetry_space_group_name_H-M "P 21/M"
_symmetry_group_IT_number 11
_symmetry_cell_setting 'monoclinic'
loop_
_space_group_symop_operation_xyz
x,y,z
-x,1/2+y,-z
-x,-y,-z
x,1/2-y,z
loop_
_atom_site_type_symbol
_atom_site_label
_atom_site_fract_x
_atom_site_fract_y
_atom_site_fract_z
Si Si1 0.595949 0.076206 0.476154
Si Si2 0.950730 0.923097 0.163382
Si Si3 0.838647 0.917162 0.829899
Si Si4 0.947866 0.423236 0.353577
Si Si5 0.762999 0.577938 0.739583
Si Si6 0.309067 0.080728 0.501138
Si Si7 0.475105 0.573428 0.939623
Si Si8 0.630918 0.077013 0.218401
O O1 0.583470 0.250000 0.502339
O O2 0.634021 0.024321 0.319491
O O3 0.693297 0.019136 0.403798
O O4 0.472456 0.005314 0.684005
O O5 0.987579 0.750000 0.109198
O O6 0.812461 0.942942 0.371845
O O7 0.998367 0.002243 0.186340
O O8 0.000000 0.000000 0.000000
O O9 0.796316 0.750000 0.916282
O O10 0.842657 0.937571 0.714096
O O11 0.963009 0.947540 0.692964
O O12 0.752268 0.037742 0.996800
O O13 0.924284 0.250000 0.368988
O O14 0.828679 0.501905 0.558209
O O15 0.740236 0.750000 0.747489
O O16 0.640745 0.496129 0.935428
O O17 0.325077 0.250000 0.509106
O O18 0.414385 0.029773 0.283041
O O19 0.460257 0.750000 0.970695
O O20 0.500000 0.500000 0.000000
O O21 0.607238 0.250000 0.243103
#
# Coordination Sequence:
#
# PCOD8075856 Si02
#       8
#     4   4   4   4   4   4   4   4
#     4  10  21  36  57  86 119 157 202 252 307 368
#     4  11  25  45  67  94 128 168 214 266 320 379
#     4  10  23  40  62  91 126 166 211 259 316 376
#     4  11  24  43  66  94 126 167 215 266 321 378
#     4  11  23  41  64  94 131 170 211 262 319 381
#     4  10  23  41  62  88 120 158 203 254 310 369
#     4  11  23  40  64  94 126 164 209 260 319 381
#     4  10  21  36  56  86 121 160 204 251 307 368
#
# _framework density 21.23038
#
# number of rings (size 3 to 8) (size 9 to 14) (size 15 to 20)
#    0.000    1.500    0.000    4.125    1.750    8.500 
#    0.000    0.000    0.000    0.000    0.000    0.000 
#    0.000    0.000    0.000    0.000    0.000    0.000 
#
# Total GULP energy -396944.883049 kJ/mol
# GULP energy per Si atom -12404.527595 kJ/mol
# Density = 2.118206 g / cm^3
# Si number density = 21.230380 Si / 1000 Ang^3
#
#
#
# Elastic Constant Matrix: (Units=GPa)
#
#
# Indices 1 2 3 4 5 6 
#
# 1 104.3911 45.7812 21.6734 0.0000 6.6455 0.0000
# 2 45.7812 103.0537 35.9090 0.0000 10.7792 0.0000
# 3 21.6734 35.9090 87.5942 0.0000 11.6158 0.0000
# 4 0.0000 0.0000 0.0000 37.2925 0.0000 1.8443
# 5 6.6455 10.7792 11.6158 0.0000 28.2360 0.0000
# 6 0.0000 0.0000 0.0000 1.8443 0.0000 36.3305
#
#
#
# Elastic Compliance Matrix: (Units=1/GPa)
#
#
# Indices 1 2 3 4 5 6 
#
# 1 0.011968 -0.004960 -0.000852 0.000000 -0.000573 0.000000
# 2 -0.004960 0.013553 -0.004017 0.000000 -0.002354 0.000000
# 3 -0.000852 -0.004017 0.013796 0.000000 -0.003942 0.000000
# 4 0.000000 0.000000 0.000000 0.026883 0.000000 -0.001365
# 5 -0.000573 -0.002354 -0.003942 0.000000 0.038071 0.000000
# 6 0.000000 0.000000 0.000000 -0.001365 0.000000 0.027594
#
#
# Mechanical properties :
#
#
# Convention : Reuss Voigt Hill
#
# Bulk Modulus (GPa) = 50.86389 55.75181 53.30785
# Shear Modulus (GPa) = 31.63049 33.15014 32.39031
#
# Velocity S-wave (km/s) = 3.86407 3.95580 3.91021
# Velocity P-wave (km/s) = 6.62708 6.86891 6.74908
#
# Compressibility (1/GPa) = 0.01966031
#
# Stress axis : x y z
#
# Youngs Moduli (GPa) = 83.55687 73.78482 72.48279
#
# Poissons Ratio (x) = 0.36597 0.06175
# Poissons Ratio (y) = 0.41444 0.29113
# Poissons Ratio (z) = 0.07119 0.29636
#
# Static dielectric constant tensor:
#      x y z
#    x 3.961690 0.000000 -0.004990 
#    y 0.000000 3.876560 0.000000 
#    z -0.004990 0.000000 3.794910 
# 
# 
# High freq. dielectric constant tensor:
#      x y z
#    x 1.843010 0.000000 0.002580 
#    y 0.000000 1.840460 0.000000 
#    z 0.002580 0.000000 1.828400 
# 
# From -- ./inp_files/55552.got.cif
#   From: 2010.06.25/outbox.cif.g09.slc.cpg/sg11_28_cif.got.tgz:55552.got - 2010.06.27 23:14:04.
