data_PCOD8075040
_publ_section_title
;
Structure prediction by ZEFSAII (Michael W. Deem and Ramdas Pophale) SiO2 
 PCOD8075040
Probable space group: P 21/M
;
_chemical_formula_sum "Si O2"
_cell_formula_units_Z 24
_cell_length_a 10.738927
_cell_length_b 10.685829
_cell_length_c 10.478076
_cell_angle_alpha 90.000000
_cell_angle_beta 84.225098
_cell_angle_gamma 90.000000
_cell_volume 1196.302323
_symmetry_space_group_name_H-M "P 21/M"
_symmetry_group_IT_number 11
_symmetry_cell_setting 'monoclinic'
loop_
_space_group_symop_operation_xyz
x,y,z
-x,1/2+y,-z
-x,-y,-z
x,1/2-y,z
loop_
_atom_site_type_symbol
_atom_site_label
_atom_site_fract_x
_atom_site_fract_y
_atom_site_fract_z
Si Si1 0.054824 0.392460 0.313986
Si Si2 0.389574 0.612427 0.135793
Si Si3 0.763771 0.391197 0.329186
Si Si4 0.913149 0.884825 0.972982
Si Si5 0.773065 0.396598 0.612821
Si Si6 0.334057 0.040862 0.891611
O O1 0.069662 0.250000 0.370990
O O2 0.111589 0.504590 0.393775
O O3 0.910022 0.425313 0.307075
O O4 0.125024 0.398059 0.170807
O O5 0.336261 0.750000 0.125186
O O6 0.329074 0.558984 0.272547
O O7 0.539286 0.618916 0.133975
O O8 0.343871 0.545597 0.014189
O O9 0.743757 0.250000 0.287250
O O10 0.713493 0.412372 0.478378
O O11 0.681504 0.470172 0.240105
O O12 0.982770 0.750000 0.986064
O O13 0.788560 0.876208 0.071769
O O14 0.000000 0.000000 0.000000
O O15 0.817113 0.250000 0.625114
#
# Coordination Sequence:
#
# PCOD8075040 Si02
#       6
#     4   4   4   4   4   4
#     4  10  20  37  58  86 120 152 191 236 287 344
#     4  10  22  38  58  82 112 150 195 244 285 337
#     4  10  21  37  59  85 117 153 191 239 290 342
#     4  11  22  36  59  89 119 150 189 241 291 344
#     4  10  21  39  60  86 117 153 196 236 284 342
#     4  11  21  38  58  83 115 151 194 236 289 345
#
# _framework density 20.061819
#
# number of rings (size 3 to 8) (size 9 to 14) (size 15 to 20)
#    0.000    1.667    3.333    1.500    0.000    2.000 
#    0.000    2.500    0.000    0.000    0.000    0.000 
#    0.000    0.000    0.000    0.000    0.000    0.000 
#
# Total GULP energy -297384.151192 kJ/mol
# GULP energy per Si atom -12391.006300 kJ/mol
# Density = 2.001616 g / cm^3
# Si number density = 20.061819 Si / 1000 Ang^3
#
#
#
# Elastic Constant Matrix: (Units=GPa)
#
#
# Indices 1 2 3 4 5 6 
#
# 1 56.9457 28.5667 26.7052 0.0000 -1.7612 0.0000
# 2 28.5667 105.5700 39.3690 0.0000 16.5913 0.0000
# 3 26.7052 39.3690 121.0429 0.0000 1.5674 0.0000
# 4 0.0000 0.0000 0.0000 23.8465 0.0000 -6.6491
# 5 -1.7612 16.5913 1.5674 0.0000 25.9266 0.0000
# 6 0.0000 0.0000 0.0000 -6.6491 0.0000 -6.6289
#
#
#
# Elastic Compliance Matrix: (Units=1/GPa)
#
#
# Indices 1 2 3 4 5 6 
#
# 1 0.021998 -0.005631 -0.003090 0.000000 0.005284 0.000000
# 2 -0.005631 0.013521 -0.003041 0.000000 -0.008851 0.000000
# 3 -0.003090 -0.003041 0.009918 0.000000 0.001136 0.000000
# 4 0.000000 0.000000 0.000000 0.032770 0.000000 -0.032870
# 5 0.005284 -0.008851 0.001136 0.000000 0.044525 0.000000
# 6 0.000000 0.000000 0.000000 -0.032870 0.000000 -0.117885
#
#
# Mechanical properties :
#
#
# Convention : Reuss Voigt Hill
#
# Bulk Modulus (GPa) = 45.63501 52.53784 49.08642
# Shear Modulus (GPa) = 140.15962 21.22337 80.69150
#
# Velocity S-wave (km/s) = 8.36753 3.25606 6.34892
# Velocity P-wave (km/s) = 10.77732 6.35459 8.84679
#
# Compressibility (1/GPa) = 0.02191300
#
# Stress axis : x y z
#
# Youngs Moduli (GPa) = 45.45901 73.95906 100.83018
#
# Poissons Ratio (x) = 0.41643 0.31161
# Poissons Ratio (y) = 0.25596 0.30661
# Poissons Ratio (z) = 0.14049 0.22490
#
# Static dielectric constant tensor:
#      x y z
#    x 3.443060 0.000000 -0.239840 
#    y 0.000000 3.647030 0.000000 
#    z -0.239840 0.000000 3.797750 
# 
# 
# High freq. dielectric constant tensor:
#      x y z
#    x 1.761310 0.000000 -0.017640 
#    y 0.000000 1.784540 0.000000 
#    z -0.017640 0.000000 1.793010 
# 
# From -- ./inp_files/31140.got.cif
#   From: 2010.06.25/outbox.cif.g09.slc.cpg/sg11_16_cif.got.tgz:31140.got - 2010.06.27 23:14:04.
