data_PCOD8075349
_publ_section_title
;
Structure prediction by ZEFSAII (Michael W. Deem and Ramdas Pophale) SiO2 
 PCOD8075349
Probable space group: P 21/M
;
_chemical_formula_sum "Si O2"
_cell_formula_units_Z 32
_cell_length_a 8.611077
_cell_length_b 13.928738
_cell_length_c 22.782111
_cell_angle_alpha 90.000000
_cell_angle_beta 142.324014
_cell_angle_gamma 90.000000
_cell_volume 1670.103009
_symmetry_space_group_name_H-M "P 21/M"
_symmetry_group_IT_number 11
_symmetry_cell_setting 'monoclinic'
loop_
_space_group_symop_operation_xyz
x,y,z
-x,1/2+y,-z
-x,-y,-z
x,1/2-y,z
loop_
_atom_site_type_symbol
_atom_site_label
_atom_site_fract_x
_atom_site_fract_y
_atom_site_fract_z
Si Si1 0.185319 0.638582 0.667630
Si Si2 0.257584 0.509759 0.468321
Si Si3 0.904003 0.859653 0.071553
Si Si4 0.475709 0.858461 0.235329
Si Si5 0.058382 0.139963 0.700352
Si Si6 0.039288 0.493078 0.804944
Si Si7 0.594869 0.360247 0.142430
Si Si8 0.524401 0.475959 0.338158
O O1 0.116901 0.750000 0.643907
O O2 0.354506 0.612300 0.775111
O O3 0.352800 0.610834 0.661501
O O4 0.920826 0.582652 0.593552
O O5 0.500000 0.500000 0.500000
O O6 0.329705 0.517832 0.557329
O O7 0.109717 0.606301 0.405355
O O8 0.880226 0.750000 0.086922
O O9 0.846924 0.929123 0.108876
O O10 0.184970 0.879557 0.129852
O O11 0.701749 0.880226 0.959583
O O12 0.508859 0.750000 0.268464
O O13 0.645713 0.874797 0.228187
O O14 0.567535 0.924953 0.316121
O O15 0.994640 0.250000 0.695800
O O16 0.987527 0.075929 0.734581
O O17 0.235845 0.576993 0.850595
O O18 0.773899 0.543432 0.742275
O O19 0.667077 0.250000 0.151783
#
# Coordination Sequence:
#
# PCOD8075349 Si02
#       8
#     4   4   4   4   4   4   4   4
#     4  11  24  41  61  86 120 161 198 241 293 350
#     4  12  23  42  61  87 119 154 195 245 293 356
#     4   9  19  35  59  90 118 155 199 244 296 354
#     4   9  19  36  59  86 116 152 194 245 298 342
#     4  11  22  38  61  86 119 154 194 246 297 351
#     4  11  20  38  60  86 122 154 198 243 304 343
#     4  10  20  38  60  84 120 159 199 241 294 357
#     4  11  22  39  61  83 118 152 198 247 286 351
#
# _framework density 19.160495999999998
#
# number of rings (size 3 to 8) (size 9 to 14) (size 15 to 20)
#    0.000    1.500    3.750    1.125    0.000    2.500 
#    0.000    6.875    0.000    3.000    0.000    0.000 
#    0.000    0.000    0.000    0.000    0.000    0.000 
#
# Total GULP energy -396880.007760 kJ/mol
# GULP energy per Si atom -12402.500243 kJ/mol
# Density = 1.911689 g / cm^3
# Si number density = 19.160496 Si / 1000 Ang^3
#
#
#
# Elastic Constant Matrix: (Units=GPa)
#
#
# Indices 1 2 3 4 5 6 
#
# 1 111.6011 41.4875 51.0947 0.0000 8.9701 0.0000
# 2 41.4875 79.4400 42.7561 0.0000 7.6755 0.0000
# 3 51.0947 42.7561 124.5010 0.0000 -5.1144 0.0000
# 4 0.0000 0.0000 0.0000 28.6003 0.0000 -0.0239
# 5 8.9701 7.6755 -5.1144 0.0000 30.3985 0.0000
# 6 0.0000 0.0000 0.0000 -0.0239 0.0000 29.7439
#
#
#
# Elastic Compliance Matrix: (Units=1/GPa)
#
#
# Indices 1 2 3 4 5 6 
#
# 1 0.012534 -0.004153 -0.003853 0.000000 -0.003298 0.000000
# 2 -0.004153 0.017555 -0.004487 0.000000 -0.003962 0.000000
# 3 -0.003853 -0.004487 0.011326 0.000000 0.004175 0.000000
# 4 0.000000 0.000000 0.000000 0.034965 0.000000 0.000028
# 5 -0.003298 -0.003962 0.004175 0.000000 0.035572 0.000000
# 6 0.000000 0.000000 0.000000 0.000028 0.000000 0.033620
#
#
# Mechanical properties :
#
#
# Convention : Reuss Voigt Hill
#
# Bulk Modulus (GPa) = 60.87201 65.13541 63.00371
# Shear Modulus (GPa) = 28.40363 29.76211 29.08287
#
# Velocity S-wave (km/s) = 3.85438 3.94548 3.90019
# Velocity P-wave (km/s) = 7.18657 7.40433 7.29627
#
# Compressibility (1/GPa) = 0.01642791
#
# Stress axis : x y z
#
# Youngs Moduli (GPa) = 79.78610 56.96403 88.29471
#
# Poissons Ratio (x) = 0.23659 0.34019
# Poissons Ratio (y) = 0.33137 0.39618
# Poissons Ratio (z) = 0.30741 0.25560
#
# Static dielectric constant tensor:
#      x y z
#    x 3.568540 0.000000 0.095550 
#    y 0.000000 3.571560 0.000000 
#    z 0.095550 0.000000 3.623920 
# 
# 
# High freq. dielectric constant tensor:
#      x y z
#    x 1.747090 0.000000 0.007790 
#    y 0.000000 1.748810 0.000000 
#    z 0.007790 0.000000 1.748980 
# 
# From -- ./inp_files/18071.got.cif
#   From: 2010.06.25/outbox.cif.g09.slc.cpg/sg11_10_cif.got.tgz:18071.got - 2010.06.27 23:14:04.
