data_PCOD8075132
_publ_section_title
;
Structure prediction by ZEFSAII (Michael W. Deem and Ramdas Pophale) SiO2 
 PCOD8075132
Probable space group: P 21/M
;
_chemical_formula_sum "Si O2"
_cell_formula_units_Z 28
_cell_length_a 21.910906
_cell_length_b 8.787787
_cell_length_c 9.847781
_cell_angle_alpha 90.000000
_cell_angle_beta 47.511579
_cell_angle_gamma 90.000000
_cell_volume 1398.265143
_symmetry_space_group_name_H-M "P 21/M"
_symmetry_group_IT_number 11
_symmetry_cell_setting 'monoclinic'
loop_
_space_group_symop_operation_xyz
x,y,z
-x,1/2+y,-z
-x,-y,-z
x,1/2-y,z
loop_
_atom_site_type_symbol
_atom_site_label
_atom_site_fract_x
_atom_site_fract_y
_atom_site_fract_z
Si Si1 0.682454 0.071358 0.269232
Si Si2 0.382258 0.570752 0.920649
Si Si3 0.684668 0.070007 0.697683
Si Si4 0.997009 0.929218 0.355568
Si Si5 0.431467 0.070036 0.340027
Si Si6 0.143135 0.070597 0.639912
Si Si7 0.130746 0.571409 0.938548
O O1 0.664716 0.250000 0.319140
O O2 0.667663 0.020553 0.136932
O O3 0.775453 0.028349 0.167525
O O4 0.620122 0.971277 0.449641
O O5 0.389441 0.750000 0.919575
O O6 0.475585 0.506640 0.779697
O O7 0.329475 0.511320 0.127941
O O8 0.694214 0.250000 0.672133
O O9 0.605057 0.017240 0.733855
O O10 0.766227 0.996890 0.513625
O O11 0.001224 0.750000 0.368354
O O12 0.913567 0.979128 0.402244
O O13 0.000000 0.000000 0.500000
O O14 0.074114 0.986323 0.148357
O O15 0.428115 0.250000 0.320160
O O16 0.149123 0.250000 0.641210
O O17 0.103881 0.009890 0.839310
O O18 0.118163 0.750000 0.936010
#
# Coordination Sequence:
#
# PCOD8075132 Si02
#       7
#     4   4   4   4   4   4   4
#     4  10  20  37  60  86 116 152 199 244 285 348
#     4   9  21  37  57  85 117 155 198 247 296 348
#     4  11  22  38  61  86 114 157 205 241 290 352
#     4  10  24  42  63  94 125 156 191 237 292 350
#     4  11  21  37  58  85 120 154 194 246 302 347
#     4  11  23  40  61  89 124 154 193 244 293 344
#     4  10  21  39  64  89 117 157 201 238 284 348
#
# _framework density 20.024815
#
# number of rings (size 3 to 8) (size 9 to 14) (size 15 to 20)
#    0.000    1.714    1.429    2.571    2.000    1.714 
#    0.000    4.286    0.000    0.000    0.000    0.000 
#    0.000    0.000    0.000    0.000    0.000    0.000 
#
# Total GULP energy -347264.150508 kJ/mol
# GULP energy per Si atom -12402.291090 kJ/mol
# Density = 1.997924 g / cm^3
# Si number density = 20.024815 Si / 1000 Ang^3
#
#
#
# Elastic Constant Matrix: (Units=GPa)
#
#
# Indices 1 2 3 4 5 6 
#
# 1 121.0992 38.1510 49.5486 0.0000 22.0275 0.0000
# 2 38.1510 40.2459 42.1533 0.0000 4.4780 0.0000
# 3 49.5486 42.1533 119.1350 0.0000 19.3749 0.0000
# 4 0.0000 0.0000 0.0000 29.1807 0.0000 4.3899
# 5 22.0275 4.4780 19.3749 0.0000 43.2377 0.0000
# 6 0.0000 0.0000 0.0000 4.3899 0.0000 24.7528
#
#
#
# Elastic Compliance Matrix: (Units=1/GPa)
#
#
# Indices 1 2 3 4 5 6 
#
# 1 0.012926 -0.011006 -0.000643 0.000000 -0.005157 0.000000
# 2 -0.011006 0.049069 -0.013882 0.000000 0.006745 0.000000
# 3 -0.000643 -0.013882 0.014330 0.000000 -0.004656 0.000000
# 4 0.000000 0.000000 0.000000 0.035209 0.000000 -0.006244
# 5 -0.005157 0.006745 -0.004656 0.000000 0.027143 0.000000
# 6 0.000000 0.000000 0.000000 -0.006244 0.000000 0.041507
#
#
# Mechanical properties :
#
#
# Convention : Reuss Voigt Hill
#
# Bulk Modulus (GPa) = 39.58150 60.02066 49.80108
# Shear Modulus (GPa) = 20.86223 29.47606 25.16914
#
# Velocity S-wave (km/s) = 3.23122 3.84080 3.54912
# Velocity P-wave (km/s) = 5.80777 7.05033 6.45900
#
# Compressibility (1/GPa) = 0.02526433
#
# Stress axis : x y z
#
# Youngs Moduli (GPa) = 77.36215 20.37926 69.78228
#
# Poissons Ratio (x) = 0.22429 0.04488
# Poissons Ratio (y) = 0.85144 0.96870
# Poissons Ratio (z) = 0.04975 0.28290
#
# Static dielectric constant tensor:
#      x y z
#    x 3.892060 0.000000 0.052840 
#    y 0.000000 3.442170 0.000000 
#    z 0.052840 0.000000 3.981280 
# 
# 
# High freq. dielectric constant tensor:
#      x y z
#    x 1.795580 0.000000 0.003110 
#    y 0.000000 1.763730 0.000000 
#    z 0.003110 0.000000 1.795770 
# 
# From -- ./inp_files/26067.got.cif
#   From: 2010.06.25/outbox.cif.g09.slc.cpg/sg11_14_cif.got.tgz:26067.got - 2010.06.27 23:14:04.
