data_PCOD8075507
_publ_section_title
;
Structure prediction by ZEFSAII (Michael W. Deem and Ramdas Pophale) SiO2 
 PCOD8075507
Probable space group: P 21/M
;
_chemical_formula_sum "Si O2"
_cell_formula_units_Z 28
_cell_length_a 10.925135
_cell_length_b 8.739616
_cell_length_c 14.969794
_cell_angle_alpha 90.000000
_cell_angle_beta 66.831237
_cell_angle_gamma 90.000000
_cell_volume 1314.061998
_symmetry_space_group_name_H-M "P 21/M"
_symmetry_group_IT_number 11
_symmetry_cell_setting 'monoclinic'
loop_
_space_group_symop_operation_xyz
x,y,z
-x,1/2+y,-z
-x,-y,-z
x,1/2-y,z
loop_
_atom_site_type_symbol
_atom_site_label
_atom_site_fract_x
_atom_site_fract_y
_atom_site_fract_z
Si Si1 0.352565 0.929819 0.543564
Si Si2 0.422302 0.073001 0.841275
Si Si3 0.008622 0.421198 0.091892
Si Si4 0.216006 0.075001 0.749006
Si Si5 0.681555 0.569320 0.749584
Si Si6 0.147350 0.931245 0.448878
Si Si7 0.312022 0.420891 0.055378
O O1 0.370248 0.750000 0.528217
O O2 0.252602 0.990281 0.494013
O O3 0.500000 0.000000 0.500000
O O4 0.285640 0.970267 0.656033
O O5 0.465707 0.250000 0.833365
O O6 0.288513 0.057406 0.823064
O O7 0.534854 0.975860 0.756008
O O8 0.394417 0.003334 0.949329
O O9 0.948961 0.250000 0.102825
O O10 0.932574 0.515447 0.190883
O O11 0.159230 0.416091 0.076209
O O12 0.000000 0.500000 0.000000
O O13 0.214278 0.250000 0.715911
O O14 0.708677 0.750000 0.737881
O O15 0.796868 0.484973 0.662428
O O16 0.675877 0.497891 0.851864
O O17 0.134135 0.750000 0.456456
O O18 0.000000 0.000000 0.500000
O O19 0.367794 0.250000 0.050156
#
# Coordination Sequence:
#
# PCOD8075507 Si02
#       7
#     4   4   4   4   4   4   4
#     4  11  25  45  69  97 129 167 214 270 329 386
#     4  10  20  39  61  87 127 167 201 246 304 367
#     4  11  21  38  60  87 124 165 207 254 309 371
#     4  11  23  39  63  93 125 164 206 254 314 375
#     4  11  23  39  63  92 122 160 207 256 307 368
#     4  11  26  47  68  93 127 169 213 267 327 383
#     4   9  20  38  59  85 124 165 199 246 306 362
#
# _framework density 21.307976
#
# number of rings (size 3 to 8) (size 9 to 14) (size 15 to 20)
#    0.000    1.429    1.429    3.429    2.000    6.857 
#    0.000    2.857    0.000    0.000    0.000    0.000 
#    0.000    0.000    0.000    0.000    0.000    0.000 
#
# Total GULP energy -347121.582571 kJ/mol
# GULP energy per Si atom -12397.199378 kJ/mol
# Density = 2.125948 g / cm^3
# Si number density = 21.307976 Si / 1000 Ang^3
#
#
#
# Elastic Constant Matrix: (Units=GPa)
#
#
# Indices 1 2 3 4 5 6 
#
# 1 89.9320 39.0366 48.0346 0.0000 -11.8378 0.0000
# 2 39.0366 65.4682 28.3165 0.0000 -1.1930 0.0000
# 3 48.0346 28.3165 143.4967 0.0000 -20.2378 0.0000
# 4 0.0000 0.0000 0.0000 38.4384 0.0000 -5.1405
# 5 -11.8378 -1.1930 -20.2378 0.0000 36.5374 0.0000
# 6 0.0000 0.0000 0.0000 -5.1405 0.0000 31.6932
#
#
#
# Elastic Compliance Matrix: (Units=1/GPa)
#
#
# Indices 1 2 3 4 5 6 
#
# 1 0.017234 -0.008662 -0.003593 0.000000 0.003311 0.000000
# 2 -0.008662 0.021119 -0.001699 0.000000 -0.003058 0.000000
# 3 -0.003593 -0.001699 0.009041 0.000000 0.003788 0.000000
# 4 0.000000 0.000000 0.000000 0.026592 0.000000 0.004313
# 5 0.003311 -0.003058 0.003788 0.000000 0.030440 0.000000
# 6 0.000000 0.000000 0.000000 0.004313 0.000000 0.032252
#
#
# Mechanical properties :
#
#
# Convention : Reuss Voigt Hill
#
# Bulk Modulus (GPa) = 51.31857 58.85246 55.08552
# Shear Modulus (GPa) = 29.22579 33.56774 31.39677
#
# Velocity S-wave (km/s) = 3.70752 3.97339 3.84275
# Velocity P-wave (km/s) = 6.51644 6.98071 6.75257
#
# Compressibility (1/GPa) = 0.01948612
#
# Stress axis : x y z
#
# Youngs Moduli (GPa) = 58.02424 47.35160 110.60681
#
# Poissons Ratio (x) = 0.41015 0.39739
# Poissons Ratio (y) = 0.50260 0.18794
# Poissons Ratio (z) = 0.20847 0.08046
#
# Static dielectric constant tensor:
#      x y z
#    x 2.671280 0.000000 0.848350 
#    y 0.000000 3.780570 0.000000 
#    z 0.848350 0.000000 3.297110 
# 
# 
# High freq. dielectric constant tensor:
#      x y z
#    x 1.843430 0.000000 -0.007770 
#    y 0.000000 1.825040 0.000000 
#    z -0.007770 0.000000 1.850820 
# 
# From -- ./inp_files/38417.got.cif
#   From: 2010.06.25/outbox.cif.g09.slc.cpg/sg11_20_cif.got.tgz:38417.got - 2010.06.27 23:14:04.
