data_PCOD8075030
_publ_section_title
;
Structure prediction by ZEFSAII (Michael W. Deem and Ramdas Pophale) SiO2 
 PCOD8075030
Probable space group: P 21/M
;
_chemical_formula_sum "Si O2"
_cell_formula_units_Z 28
_cell_length_a 9.376339
_cell_length_b 17.417349
_cell_length_c 16.460931
_cell_angle_alpha 90.000000
_cell_angle_beta 146.988780
_cell_angle_gamma 90.000000
_cell_volume 1464.567678
_symmetry_space_group_name_H-M "P 21/M"
_symmetry_group_IT_number 11
_symmetry_cell_setting 'monoclinic'
loop_
_space_group_symop_operation_xyz
x,y,z
-x,1/2+y,-z
-x,-y,-z
x,1/2-y,z
loop_
_atom_site_type_symbol
_atom_site_label
_atom_site_fract_x
_atom_site_fract_y
_atom_site_fract_z
Si Si1 0.810786 0.161505 0.989335
Si Si2 0.575090 0.989211 0.628797
Si Si3 0.315575 0.527373 0.794743
Si Si4 0.870652 0.335080 0.378277
Si Si5 0.837783 0.485013 0.101129
Si Si6 0.637168 0.914476 0.325586
Si Si7 0.595844 0.834739 0.720804
O O1 0.737521 0.250000 0.976773
O O2 0.782543 0.105776 0.054869
O O3 0.111435 0.156214 0.102285
O O4 0.622751 0.129897 0.828162
O O5 0.535293 0.898591 0.624570
O O6 0.876041 0.011635 0.788768
O O7 0.500000 0.000000 0.500000
O O8 0.408487 0.041014 0.611133
O O9 0.168433 0.608121 0.715578
O O10 0.201188 0.493472 0.823295
O O11 0.249508 0.473430 0.686876
O O12 0.630729 0.535578 0.950963
O O13 0.893677 0.250000 0.353801
O O14 0.611313 0.345741 0.307309
O O15 0.134468 0.352531 0.553796
O O16 0.565597 0.750000 0.666272
#
# Coordination Sequence:
#
# PCOD8075030 Si02
#       7
#     4   4   4   4   4   4   4
#     4   9  19  37  58  82 113 148 184 230 283 336
#     4  11  22  36  58  86 116 150 194 236 289 329
#     4  10  20  37  58  84 114 146 189 234 280 335
#     4  11  22  35  56  84 112 148 189 235 286 337
#     4   9  21  35  57  86 113 149 186 232 280 339
#     4  11  22  35  60  84 114 146 191 238 277 340
#     4   9  20  37  57  81 113 150 186 228 286 343
#
# _framework density 19.118269999999999
#
# number of rings (size 3 to 8) (size 9 to 14) (size 15 to 20)
#    0.000    2.000    1.429    1.714    4.000    2.286 
#    0.000    4.286    0.000    0.857    0.000    0.000 
#    0.000    0.000    0.000    0.000    0.000    0.000 
#
# Total GULP energy -347058.584668 kJ/mol
# GULP energy per Si atom -12394.949452 kJ/mol
# Density = 1.907476 g / cm^3
# Si number density = 19.118270 Si / 1000 Ang^3
#
#
#
# Elastic Constant Matrix: (Units=GPa)
#
#
# Indices 1 2 3 4 5 6 
#
# 1 61.7986 15.7905 23.0529 0.0000 2.8981 0.0000
# 2 15.7905 92.5234 43.9156 0.0000 1.6604 0.0000
# 3 23.0529 43.9156 84.1395 0.0000 3.7338 0.0000
# 4 0.0000 0.0000 0.0000 26.4501 0.0000 3.5954
# 5 2.8981 1.6604 3.7338 0.0000 32.0838 0.0000
# 6 0.0000 0.0000 0.0000 3.5954 0.0000 21.4661
#
#
#
# Elastic Compliance Matrix: (Units=1/GPa)
#
#
# Indices 1 2 3 4 5 6 
#
# 1 0.018127 -0.000983 -0.004406 0.000000 -0.001074 0.000000
# 2 -0.000983 0.014421 -0.007266 0.000000 0.000188 0.000000
# 3 -0.004406 -0.007266 0.016938 0.000000 -0.001197 0.000000
# 4 0.000000 0.000000 0.000000 0.038688 0.000000 -0.006480
# 5 -0.001074 0.000188 -0.001197 0.000000 0.031395 0.000000
# 6 0.000000 0.000000 0.000000 -0.006480 0.000000 0.047670
#
#
# Mechanical properties :
#
#
# Convention : Reuss Voigt Hill
#
# Bulk Modulus (GPa) = 41.36345 44.88661 43.12503
# Shear Modulus (GPa) = 24.92440 26.38018 25.65229
#
# Velocity S-wave (km/s) = 3.61459 3.71865 3.66699
# Velocity P-wave (km/s) = 6.25323 6.47821 6.36671
#
# Compressibility (1/GPa) = 0.02417593
#
# Stress axis : x y z
#
# Youngs Moduli (GPa) = 55.16753 69.34224 59.04033
#
# Poissons Ratio (x) = 0.06818 0.26011
# Poissons Ratio (y) = 0.05424 0.42898
# Poissons Ratio (z) = 0.24304 0.50384
#
# Static dielectric constant tensor:
#      x y z
#    x 3.378360 0.000000 0.241190 
#    y 0.000000 3.661990 0.000000 
#    z 0.241190 0.000000 3.604940 
# 
# 
# High freq. dielectric constant tensor:
#      x y z
#    x 1.733590 0.000000 0.019830 
#    y 0.000000 1.738370 0.000000 
#    z 0.019830 0.000000 1.751560 
# 
# From -- ./inp_files/48018.got.cif
#   From: 2010.06.25/outbox.cif.g09.slc.cpg/sg11_25_cif.got.tgz:48018.got - 2010.06.27 23:14:04.
