data_PCOD8075908
_publ_section_title
;
Structure prediction by ZEFSAII (Michael W. Deem and Ramdas Pophale) SiO2 
 PCOD8075908
Probable space group: P 21/M
;
_chemical_formula_sum "Si O2"
_cell_formula_units_Z 20
_cell_length_a 9.048420
_cell_length_b 9.878830
_cell_length_c 10.422835
_cell_angle_alpha 90.000000
_cell_angle_beta 101.404224
_cell_angle_gamma 90.000000
_cell_volume 913.279902
_symmetry_space_group_name_H-M "P 21/M"
_symmetry_group_IT_number 11
_symmetry_cell_setting 'monoclinic'
loop_
_space_group_symop_operation_xyz
x,y,z
-x,1/2+y,-z
-x,-y,-z
x,1/2-y,z
loop_
_atom_site_type_symbol
_atom_site_label
_atom_site_fract_x
_atom_site_fract_y
_atom_site_fract_z
Si Si1 0.772766 0.094852 0.091515
Si Si2 0.681749 0.401220 0.799145
Si Si3 0.808586 0.894965 0.464635
Si Si4 0.419431 0.908380 0.692563
Si Si5 0.029025 0.969499 0.291005
O O1 0.814612 0.250000 0.080160
O O2 0.643265 0.074035 0.175041
O O3 0.926779 0.022520 0.157219
O O4 0.711421 0.037890 0.946205
O O5 0.608200 0.250000 0.793719
O O6 0.575266 0.509372 0.708782
O O7 0.837152 0.383970 0.748873
O O8 0.721720 0.750000 0.454183
O O9 0.899654 0.908885 0.612962
O O10 0.696551 0.022215 0.426993
O O11 0.927645 0.880788 0.368883
O O12 0.440699 0.750000 0.659308
#
# Coordination Sequence:
#
# PCOD8075908 Si02
#       5
#     4   4   4   4   4
#     4   9  19  37  59  85 117 152 187 229 282 339
#     4  11  22  37  59  87 118 149 188 235 282 337
#     4  10  21  39  62  84 112 152 193 234 283 339
#     4  10  22  39  59  84 116 153 192 233 281 336
#     4  10  21  36  59  88 117 146 187 236 286 337
#
# _framework density 21.899092
#
# number of rings (size 3 to 8) (size 9 to 14) (size 15 to 20)
#    0.000    2.000    0.000    3.000    0.000    8.000 
#    0.000    5.000    0.000    0.000    0.000    0.000 
#    0.000    0.000    0.000    0.000    0.000    0.000 
#
# Total GULP energy -247941.344042 kJ/mol
# GULP energy per Si atom -12397.067202 kJ/mol
# Density = 2.184925 g / cm^3
# Si number density = 21.899092 Si / 1000 Ang^3
#
#
#
# Elastic Constant Matrix: (Units=GPa)
#
#
# Indices 1 2 3 4 5 6 
#
# 1 88.8424 40.2291 8.1974 0.0000 18.8827 0.0000
# 2 40.2291 141.2105 27.9925 0.0000 24.3290 0.0000
# 3 8.1974 27.9925 55.1707 0.0000 19.7530 0.0000
# 4 0.0000 0.0000 0.0000 -10.2828 0.0000 10.9790
# 5 18.8827 24.3290 19.7530 0.0000 27.4044 0.0000
# 6 0.0000 0.0000 0.0000 10.9790 0.0000 23.3592
#
#
#
# Elastic Compliance Matrix: (Units=1/GPa)
#
#
# Indices 1 2 3 4 5 6 
#
# 1 0.014319 -0.003043 0.002671 0.000000 -0.009091 0.000000
# 2 -0.003043 0.009198 -0.002752 0.000000 -0.004086 0.000000
# 3 0.002671 -0.002752 0.025487 0.000000 -0.017768 0.000000
# 4 0.000000 0.000000 0.000000 -0.064754 0.000000 0.030435
# 5 -0.009091 -0.004086 -0.017768 0.000000 0.059188 0.000000
# 6 0.000000 0.000000 0.000000 0.030435 0.000000 0.028505
#
#
# Mechanical properties :
#
#
# Convention : Reuss Voigt Hill
#
# Bulk Modulus (GPa) = 23.38836 48.67351 36.03093
# Shear Modulus (GPa) = 54.08776 22.01646 38.05211
#
# Velocity S-wave (km/s) = 4.97516 3.17418 4.17299
# Velocity P-wave (km/s) = 6.61107 5.97565 6.30138
#
# Compressibility (1/GPa) = 0.04275632
#
# Stress axis : x y z
#
# Youngs Moduli (GPa) = 69.83572 108.72091 39.23640
#
# Poissons Ratio (x) = 0.33080 -0.10480
# Poissons Ratio (y) = 0.21249 0.10798
# Poissons Ratio (z) = -0.18653 0.29920
#
# Static dielectric constant tensor:
#      x y z
#    x 3.761090 0.000000 0.001840 
#    y 0.000000 3.669460 0.000000 
#    z 0.001840 0.000000 4.039180 
# 
# 
# High freq. dielectric constant tensor:
#      x y z
#    x 1.853660 0.000000 0.001120 
#    y 0.000000 1.851020 0.000000 
#    z 0.001120 0.000000 1.865980 
# 
# From -- ./inp_files/15912.got.cif
#   From: 2010.06.25/outbox.cif.g09.slc.cpg/sg11_8_cif.got.tgz:15912.got - 2010.06.27 23:14:04.
