data_PCOD8075266
_publ_section_title
;
Structure prediction by ZEFSAII (Michael W. Deem and Ramdas Pophale) SiO2 
 PCOD8075266
Probable space group: P 21/M
;
_chemical_formula_sum "Si O2"
_cell_formula_units_Z 24
_cell_length_a 14.085925
_cell_length_b 14.547253
_cell_length_c 9.282507
_cell_angle_alpha 90.000000
_cell_angle_beta 39.727732
_cell_angle_gamma 90.000000
_cell_volume 1215.703718
_symmetry_space_group_name_H-M "P 21/M"
_symmetry_group_IT_number 11
_symmetry_cell_setting 'monoclinic'
loop_
_space_group_symop_operation_xyz
x,y,z
-x,1/2+y,-z
-x,-y,-z
x,1/2-y,z
loop_
_atom_site_type_symbol
_atom_site_label
_atom_site_fract_x
_atom_site_fract_y
_atom_site_fract_z
Si Si1 0.333283 0.474323 0.229386
Si Si2 0.146175 0.018364 0.920850
Si Si3 0.349760 0.142798 0.493609
Si Si4 0.093629 0.075189 0.304185
Si Si5 0.191771 0.650544 0.316203
Si Si6 0.696006 0.354987 0.130795
O O1 0.317237 0.408439 0.383139
O O2 0.257025 0.418734 0.185141
O O3 0.252924 0.572551 0.353757
O O4 0.500000 0.500000 0.000000
O O5 0.248487 0.096781 0.732660
O O6 0.234395 0.921895 0.830681
O O7 0.102335 0.056292 0.126435
O O8 0.000000 0.000000 0.000000
O O9 0.307573 0.250000 0.527018
O O10 0.520285 0.130709 0.337468
O O11 0.986725 0.163524 0.454714
O O12 0.000000 0.000000 0.500000
O O13 0.266808 0.750000 0.259032
O O14 0.236225 0.617418 0.103424
O O15 0.738240 0.250000 0.119915
#
# Coordination Sequence:
#
# PCOD8075266 Si02
#       6
#     4   4   4   4   4   4
#     4  11  20  38  66  96 127 164 215 270 319 377
#     4  12  23  40  64  93 132 172 214 267 326 386
#     4  11  25  42  64  95 132 172 216 264 327 394
#     4  10  20  38  59  89 126 165 213 260 318 372
#     4  10  20  37  62  91 126 167 212 262 314 377
#     4  10  21  41  66  91 123 169 214 259 320 386
#
# _framework density 19.741651000000001
#
# number of rings (size 3 to 8) (size 9 to 14) (size 15 to 20)
#    0.000    1.333    5.000    2.500    0.000    2.000 
#    0.000    2.500    0.000    1.000    0.000    0.000 
#    0.000    0.000    0.000    0.000    0.000    0.000 
#
# Total GULP energy -297449.038788 kJ/mol
# GULP energy per Si atom -12393.709950 kJ/mol
# Density = 1.969672 g / cm^3
# Si number density = 19.741651 Si / 1000 Ang^3
#
#
#
# Elastic Constant Matrix: (Units=GPa)
#
#
# Indices 1 2 3 4 5 6 
#
# 1 128.4961 68.5236 66.0924 0.0000 -6.8360 0.0000
# 2 68.5236 152.7068 55.0957 0.0000 2.6010 0.0000
# 3 66.0924 55.0957 145.8332 0.0000 0.2264 0.0000
# 4 0.0000 0.0000 0.0000 27.9892 0.0000 2.4436
# 5 -6.8360 2.6010 0.2264 0.0000 36.5956 0.0000
# 6 0.0000 0.0000 0.0000 2.4436 0.0000 34.7769
#
#
#
# Elastic Compliance Matrix: (Units=1/GPa)
#
#
# Indices 1 2 3 4 5 6 
#
# 1 0.012120 -0.004051 -0.003966 0.000000 0.002577 0.000000
# 2 -0.004051 0.008946 -0.001542 0.000000 -0.001383 0.000000
# 3 -0.003966 -0.001542 0.009238 0.000000 -0.000688 0.000000
# 4 0.000000 0.000000 0.000000 0.035949 0.000000 -0.002526
# 5 0.002577 -0.001383 -0.000688 0.000000 0.027910 0.000000
# 6 0.000000 0.000000 0.000000 -0.002526 0.000000 0.028932
#
#
# Mechanical properties :
#
#
# Convention : Reuss Voigt Hill
#
# Bulk Modulus (GPa) = 89.39868 89.60663 89.50266
# Shear Modulus (GPa) = 34.26022 35.69396 34.97709
#
# Velocity S-wave (km/s) = 4.17037 4.25673 4.21377
# Velocity P-wave (km/s) = 8.28081 8.34553 8.31324
#
# Compressibility (1/GPa) = 0.01118585
#
# Stress axis : x y z
#
# Youngs Moduli (GPa) = 82.50840 111.77870 108.24688
#
# Poissons Ratio (x) = 0.45287 0.42933
# Poissons Ratio (y) = 0.33428 0.16687
# Poissons Ratio (z) = 0.32725 0.17232
#
# Static dielectric constant tensor:
#      x y z
#    x 3.656650 0.000000 -0.554850 
#    y 0.000000 3.368410 0.000000 
#    z -0.554850 0.000000 3.804120 
# 
# 
# High freq. dielectric constant tensor:
#      x y z
#    x 1.762800 0.000000 -0.015300 
#    y 0.000000 1.775670 0.000000 
#    z -0.015300 0.000000 1.776440 
# 
# From -- ./inp_files/21987.got.cif
#   From: 2010.06.25/outbox.cif.g09.slc.cpg/sg11_11_cif.got.tgz:21987.got - 2010.06.27 23:14:04.
