data_PCOD8075704
_publ_section_title
;
Structure prediction by ZEFSAII (Michael W. Deem and Ramdas Pophale) SiO2 
 PCOD8075704
Probable space group: P 21/M
;
_chemical_formula_sum "Si O2"
_cell_formula_units_Z 32
_cell_length_a 21.154575
_cell_length_b 9.064826
_cell_length_c 26.666811
_cell_angle_alpha 90.000000
_cell_angle_beta 19.584464
_cell_angle_gamma 90.000000
_cell_volume 1714.090845
_symmetry_space_group_name_H-M "P 21/M"
_symmetry_group_IT_number 11
_symmetry_cell_setting 'monoclinic'
loop_
_space_group_symop_operation_xyz
x,y,z
-x,1/2+y,-z
-x,-y,-z
x,1/2-y,z
loop_
_atom_site_type_symbol
_atom_site_label
_atom_site_fract_x
_atom_site_fract_y
_atom_site_fract_z
Si Si1 0.118736 0.424648 0.868302
Si Si2 0.063832 0.918308 0.374049
Si Si3 0.877707 0.077783 0.952049
Si Si4 0.115242 0.576619 0.576963
Si Si5 0.514809 0.422827 0.435686
Si Si6 0.244090 0.918388 0.335511
Si Si7 0.492564 0.581812 0.237343
Si Si8 0.119243 0.420946 0.678742
O O1 0.135252 0.250000 0.864901
O O2 0.323389 0.498715 0.717414
O O3 0.024603 0.463187 0.885603
O O4 0.000000 0.500000 0.000000
O O5 0.043590 0.750000 0.371782
O O6 0.251786 0.940951 0.268899
O O7 0.057052 0.017423 0.329115
O O8 0.893284 0.960434 0.538324
O O9 0.844201 0.250000 0.975385
O O10 0.965435 0.022377 0.834061
O O11 0.676563 0.007928 0.114300
O O12 0.097834 0.750000 0.592435
O O13 0.314849 0.526625 0.403540
O O14 0.090664 0.513918 0.650385
O O15 0.500000 0.500000 0.500000
O O16 0.557193 0.250000 0.411680
O O17 0.325279 0.448477 0.546635
O O18 0.172392 0.750000 0.400703
O O19 0.445332 0.938602 0.213095
O O20 0.536846 0.750000 0.217394
O O21 0.088385 0.250000 0.689271
#
# Coordination Sequence:
#
# PCOD8075704 Si02
#       8
#     4   4   4   4   4   4   4   4
#     4  11  24  42  60  85 115 146 185 232 281 331
#     4   9  15  26  48  75 105 142 178 218 270 321
#     4  10  22  40  57  77 109 145 180 222 270 325
#     4  10  21  35  52  81 113 141 179 228 272 317
#     4  11  22  40  63  86 111 145 185 230 278 333
#     4   8  15  28  46  73 108 141 177 222 268 316
#     4   9  19  34  52  79 112 142 177 222 269 320
#     4  10  22  40  58  78 107 144 183 223 271 325
#
# _framework density 18.668787999999999
#
# number of rings (size 3 to 8) (size 9 to 14) (size 15 to 20)
#    0.000    2.250    1.250    2.250    1.750    5.500 
#    0.000    0.000    0.000    0.750    0.000    0.000 
#    0.000    0.000    0.000    0.000    0.000    0.000 
#
# Total GULP energy -396640.542086 kJ/mol
# GULP energy per Si atom -12395.016940 kJ/mol
# Density = 1.862630 g / cm^3
# Si number density = 18.668788 Si / 1000 Ang^3
#
#
#
# Elastic Constant Matrix: (Units=GPa)
#
#
# Indices 1 2 3 4 5 6 
#
# 1 87.2813 42.8343 1.8299 0.0000 21.7716 0.0000
# 2 42.8343 64.9100 15.3063 0.0000 9.6823 0.0000
# 3 1.8299 15.3063 40.2230 0.0000 17.2866 0.0000
# 4 0.0000 0.0000 0.0000 27.4531 0.0000 1.1706
# 5 21.7716 9.6823 17.2866 0.0000 23.6097 0.0000
# 6 0.0000 0.0000 0.0000 1.1706 0.0000 35.1401
#
#
#
# Elastic Compliance Matrix: (Units=1/GPa)
#
#
# Indices 1 2 3 4 5 6 
#
# 1 0.028451 -0.018539 0.020090 0.000000 -0.033343 0.000000
# 2 -0.018539 0.029177 -0.018187 0.000000 0.018446 0.000000
# 3 0.020090 -0.018187 0.051982 0.000000 -0.049128 0.000000
# 4 0.000000 0.000000 0.000000 0.036478 0.000000 -0.001215
# 5 -0.033343 0.018446 -0.049128 0.000000 0.101508 0.000000
# 6 0.000000 0.000000 0.000000 -0.001215 0.000000 0.028498
#
#
# Mechanical properties :
#
#
# Convention : Reuss Voigt Hill
#
# Bulk Modulus (GPa) = 13.09959 34.70615 23.90287
# Shear Modulus (GPa) = 14.93376 26.07017 20.50196
#
# Velocity S-wave (km/s) = 2.83138 3.74097 3.31750
# Velocity P-wave (km/s) = 4.20963 6.10661 5.24460
#
# Compressibility (1/GPa) = 0.07633830
#
# Stress axis : x y z
#
# Youngs Moduli (GPa) = 35.14763 34.27363 19.23754
#
# Poissons Ratio (x) = 0.63540 -0.38649
# Poissons Ratio (y) = 0.65160 0.34988
# Poissons Ratio (z) = -0.70612 0.62334
#
# Static dielectric constant tensor:
#      x y z
#    x 3.772740 0.000000 -0.100450 
#    y 0.000000 3.130640 0.000000 
#    z -0.100450 0.000000 3.119610 
# 
# 
# High freq. dielectric constant tensor:
#      x y z
#    x 1.741760 0.000000 -0.008430 
#    y 0.000000 1.731190 0.000000 
#    z -0.008430 0.000000 1.688060 
# 
# From -- ./inp_files/67238.got.cif
#   From: 2010.06.25/outbox.cif.g09.slc.cpg/sg11_34_cif.got.tgz:67238.got - 2010.06.27 23:14:04.
