data_PCOD8075643
_publ_section_title
;
Structure prediction by ZEFSAII (Michael W. Deem and Ramdas Pophale) SiO2 
 PCOD8075643
Probable space group: P 21/M
;
_chemical_formula_sum "Si O2"
_cell_formula_units_Z 32
_cell_length_a 13.996134
_cell_length_b 13.148010
_cell_length_c 10.407502
_cell_angle_alpha 90.000000
_cell_angle_beta 110.582026
_cell_angle_gamma 90.000000
_cell_volume 1792.954537
_symmetry_space_group_name_H-M "P 21/M"
_symmetry_group_IT_number 11
_symmetry_cell_setting 'monoclinic'
loop_
_space_group_symop_operation_xyz
x,y,z
-x,1/2+y,-z
-x,-y,-z
x,1/2-y,z
loop_
_atom_site_type_symbol
_atom_site_label
_atom_site_fract_x
_atom_site_fract_y
_atom_site_fract_z
Si Si1 0.438931 0.632126 0.280045
Si Si2 0.203565 0.009220 0.746734
Si Si3 0.142842 0.864950 0.508454
Si Si4 0.290503 0.540775 0.394770
Si Si5 0.673778 0.631215 0.401001
Si Si6 0.143400 0.634403 0.135178
Si Si7 0.967552 0.634815 0.219596
Si Si8 0.713138 0.134715 0.016072
O O1 0.419205 0.750000 0.297544
O O2 0.400166 0.573446 0.389358
O O3 0.556595 0.607231 0.312055
O O4 0.375924 0.599494 0.123445
O O5 0.132095 0.937174 0.626505
O O6 0.260580 0.093175 0.688477
O O7 0.286030 0.941086 0.862634
O O8 0.130707 0.064184 0.814920
O O9 0.139944 0.750000 0.556485
O O10 0.252390 0.886454 0.492674
O O11 0.049882 0.889129 0.369347
O O12 0.296095 0.426035 0.452674
O O13 0.208929 0.549939 0.241574
O O14 0.694693 0.750000 0.432946
O O15 0.169236 0.750000 0.199125
O O16 0.023324 0.614639 0.107585
O O17 0.175267 0.628381 0.001137
O O18 0.928737 0.750000 0.211169
O O19 0.693191 0.250000 0.054719
#
# Coordination Sequence:
#
# PCOD8075643 Si02
#       8
#     4   4   4   4   4   4   4   4
#     4   9  17  32  52  71  92 117 149 192 238 275
#     4  11  20  29  45  67  95 128 156 182 220 275
#     4   9  17  29  46  70  94 114 148 195 236 271
#     4   9  15  28  52  73  88 113 151 193 233 270
#     4  10  21  32  44  67  97 127 156 186 222 272
#     4   8  15  30  52  75  94 114 148 193 235 272
#     4   9  17  30  47  65  89 122 154 185 225 274
#     4   9  18  32  50  70  90 115 152 198 238 268
#
# _framework density 17.847635
#
# number of rings (size 3 to 8) (size 9 to 14) (size 15 to 20)
#    0.000    2.750    0.000    4.125    0.000    1.000 
#    0.000    0.000    0.000    9.750    0.000    0.000 
#    0.000    0.000    0.000    0.000    0.000    0.000 
#
# Total GULP energy -396595.359126 kJ/mol
# GULP energy per Si atom -12393.604973 kJ/mol
# Density = 1.780701 g / cm^3
# Si number density = 17.847635 Si / 1000 Ang^3
#
#
#
# Elastic Constant Matrix: (Units=GPa)
#
#
# Indices 1 2 3 4 5 6 
#
# 1 64.7411 28.6662 -1.3665 0.0000 2.0715 0.0000
# 2 28.6662 86.0791 28.4843 0.0000 1.6862 0.0000
# 3 -1.3665 28.4843 39.7184 0.0000 0.3375 0.0000
# 4 0.0000 0.0000 0.0000 26.2906 0.0000 -0.9402
# 5 2.0715 1.6862 0.3375 0.0000 15.3992 0.0000
# 6 0.0000 0.0000 0.0000 -0.9402 0.0000 21.7611
#
#
#
# Elastic Compliance Matrix: (Units=1/GPa)
#
#
# Indices 1 2 3 4 5 6 
#
# 1 0.019541 -0.008784 0.006987 0.000000 -0.001820 0.000000
# 2 -0.008784 0.019212 -0.014075 0.000000 -0.000614 0.000000
# 3 0.006987 -0.014075 0.035513 0.000000 -0.000177 0.000000
# 4 0.000000 0.000000 0.000000 0.038095 0.000000 0.001646
# 5 -0.001820 -0.000614 -0.000177 0.000000 0.065254 0.000000
# 6 0.000000 0.000000 0.000000 0.001646 0.000000 0.046025
#
#
# Mechanical properties :
#
#
# Convention : Reuss Voigt Hill
#
# Bulk Modulus (GPa) = 23.51678 33.56742 28.54210
# Shear Modulus (GPa) = 18.54881 21.67381 20.11131
#
# Velocity S-wave (km/s) = 3.22729 3.48858 3.36048
# Velocity P-wave (km/s) = 5.20502 5.92246 5.57529
#
# Compressibility (1/GPa) = 0.04252283
#
# Stress axis : x y z
#
# Youngs Moduli (GPa) = 51.17352 52.05039 28.15859
#
# Poissons Ratio (x) = 0.45722 -0.19676
# Poissons Ratio (y) = 0.44952 0.39633
# Poissons Ratio (z) = -0.35757 0.73261
#
# Static dielectric constant tensor:
#      x y z
#    x 3.360330 0.000000 -0.141510 
#    y 0.000000 3.231710 0.000000 
#    z -0.141510 0.000000 3.036840 
# 
# 
# High freq. dielectric constant tensor:
#      x y z
#    x 1.689440 0.000000 -0.014450 
#    y 0.000000 1.683500 0.000000 
#    z -0.014450 0.000000 1.662560 
# 
# From -- ./inp_files/38984.got.cif
#   From: 2010.06.25/outbox.cif.g09.slc.cpg/sg11_20_cif.got.tgz:38984.got - 2010.06.27 23:14:04.
