data_PCOD8075485
_publ_section_title
;
Structure prediction by ZEFSAII (Michael W. Deem and Ramdas Pophale) SiO2 
 PCOD8075485
Probable space group: P 21/M
;
_chemical_formula_sum "Si O2"
_cell_formula_units_Z 24
_cell_length_a 9.220665
_cell_length_b 19.898057
_cell_length_c 9.220669
_cell_angle_alpha 90.000000
_cell_angle_beta 132.115575
_cell_angle_gamma 90.000000
_cell_volume 1254.926846
_symmetry_space_group_name_H-M "P 21/M"
_symmetry_group_IT_number 11
_symmetry_cell_setting 'monoclinic'
loop_
_space_group_symop_operation_xyz
x,y,z
-x,1/2+y,-z
-x,-y,-z
x,1/2-y,z
loop_
_atom_site_type_symbol
_atom_site_label
_atom_site_fract_x
_atom_site_fract_y
_atom_site_fract_z
Si Si1 0.015506 0.827290 0.892308
Si Si2 0.436225 0.671803 0.063774
Si Si3 0.392312 0.172710 0.515510
Si Si4 0.561517 0.560051 0.938482
Si Si5 0.396601 0.939604 0.513224
Si Si6 0.986776 0.939604 0.103398
O O1 0.027525 0.750000 0.949870
O O2 0.836843 0.840508 0.663152
O O3 0.211242 0.848661 0.939642
O O4 0.989012 0.869286 0.020502
O O5 0.458572 0.750000 0.041441
O O6 0.560348 0.651336 0.288753
O O7 0.517741 0.631477 0.982259
O O8 0.449875 0.250000 0.527533
O O9 0.520502 0.130714 0.489008
O O10 0.436214 0.554237 0.709111
O O11 0.500000 0.500000 0.000000
O O12 0.790889 0.554238 0.063784
O O13 0.165011 0.943125 0.334988
O O14 0.500000 0.000000 0.500000
O O15 0.000000 0.000000 0.000000
#
# Coordination Sequence:
#
# PCOD8075485 Si02
#       6
#     4   4   4   4   4   4
#     4  10  20  38  66  93 120 160 206 248 297 362
#     4  10  22  40  62  92 130 161 193 249 313 364
#     4  10  20  38  66  93 120 160 206 248 297 362
#     4  12  26  40  60  92 128 161 196 257 316 360
#     4  12  23  40  65  90 119 160 211 255 297 360
#     4  12  23  40  65  90 119 160 211 255 297 360
#
# _framework density 19.12462
#
# number of rings (size 3 to 8) (size 9 to 14) (size 15 to 20)
#    0.000    1.000    5.000    2.000    0.000    3.333 
#    0.000    0.000    0.000    0.000    0.000    0.000 
#    0.000    0.000    0.000    0.000    0.000    0.000 
#
# Total GULP energy -297750.067187 kJ/mol
# GULP energy per Si atom -12406.252799 kJ/mol
# Density = 1.908109 g / cm^3
# Si number density = 19.124620 Si / 1000 Ang^3
#
#
#
# Elastic Constant Matrix: (Units=GPa)
#
#
# Indices 1 2 3 4 5 6 
#
# 1 155.7633 68.5256 83.6043 0.0000 10.2666 0.0000
# 2 68.5256 99.6978 55.6390 0.0000 -7.6784 0.0000
# 3 83.6043 55.6390 190.3684 0.0000 10.3539 0.0000
# 4 0.0000 0.0000 0.0000 30.4829 0.0000 -7.5503
# 5 10.2666 -7.6784 10.3539 0.0000 44.7465 0.0000
# 6 0.0000 0.0000 0.0000 -7.5503 0.0000 43.1538
#
#
#
# Elastic Compliance Matrix: (Units=1/GPa)
#
#
# Indices 1 2 3 4 5 6 
#
# 1 0.010785 -0.006067 -0.002807 0.000000 -0.002866 0.000000
# 2 -0.006067 0.015782 -0.002199 0.000000 0.004609 0.000000
# 3 -0.002807 -0.002199 0.007205 0.000000 -0.001400 0.000000
# 4 0.000000 0.000000 0.000000 0.034291 0.000000 0.006000
# 5 -0.002866 0.004609 -0.001400 0.000000 0.024121 0.000000
# 6 0.000000 0.000000 0.000000 0.006000 0.000000 0.024223
#
#
# Mechanical properties :
#
#
# Convention : Reuss Voigt Hill
#
# Bulk Modulus (GPa) = 86.01700 95.70747 90.86224
# Shear Modulus (GPa) = 35.10556 39.54733 37.32645
#
# Velocity S-wave (km/s) = 4.28906 4.55232 4.42265
# Velocity P-wave (km/s) = 8.34283 8.81954 8.58450
#
# Compressibility (1/GPa) = 0.01162561
#
# Stress axis : x y z
#
# Youngs Moduli (GPa) = 92.72473 63.36196 138.79705
#
# Poissons Ratio (x) = 0.38439 0.38965
# Poissons Ratio (y) = 0.56253 0.30523
# Poissons Ratio (z) = 0.26031 0.13934
#
# Static dielectric constant tensor:
#      x y z
#    x 3.547530 0.000000 0.434690 
#    y 0.000000 3.725470 0.000000 
#    z 0.434690 0.000000 4.277160 
# 
# 
# High freq. dielectric constant tensor:
#      x y z
#    x 1.733590 0.000000 0.015310 
#    y 0.000000 1.761520 0.000000 
#    z 0.015310 0.000000 1.759280 
# 
# From -- ./inp_files/14235.got.cif
#   From: 2010.06.25/outbox.cif.g09.slc.cpg/sg11_8_cif.got.tgz:14235.got - 2010.06.27 23:14:04.
