data_PCOD8075331
_publ_section_title
;
Structure prediction by ZEFSAII (Michael W. Deem and Ramdas Pophale) SiO2 
 PCOD8075331
Probable space group: P 21/M
;
_chemical_formula_sum "Si O2"
_cell_formula_units_Z 20
_cell_length_a 10.012348
_cell_length_b 16.545485
_cell_length_c 12.808355
_cell_angle_alpha 90.000000
_cell_angle_beta 22.207921
_cell_angle_gamma 90.000000
_cell_volume 801.982194
_symmetry_space_group_name_H-M "P 21/M"
_symmetry_group_IT_number 11
_symmetry_cell_setting 'monoclinic'
loop_
_space_group_symop_operation_xyz
x,y,z
-x,1/2+y,-z
-x,-y,-z
x,1/2-y,z
loop_
_atom_site_type_symbol
_atom_site_label
_atom_site_fract_x
_atom_site_fract_y
_atom_site_fract_z
Si Si1 0.646956 0.557039 0.123751
Si Si2 0.169435 0.653410 0.317407
Si Si3 0.410281 0.657416 0.922679
Si Si4 0.259491 0.030780 0.581823
Si Si5 0.223166 0.658236 0.831382
O O1 0.481551 0.619899 0.163109
O O2 0.345475 0.519985 0.414980
O O3 0.847391 0.484200 0.914820
O O4 0.926338 0.605234 0.991484
O O5 0.181948 0.750000 0.311792
O O6 0.795452 0.617228 0.625906
O O7 0.219745 0.618856 0.162572
O O8 0.490240 0.750000 0.891756
O O9 0.158803 0.651938 0.002618
O O10 0.380082 0.124425 0.478309
O O11 0.500000 0.000000 0.500000
O O12 0.209351 0.750000 0.800958
#
# Coordination Sequence:
#
# PCOD8075331 Si02
#       5
#     4   4   4   4   4
#     4  11  22  40  63  88 117 155 196 241 292 347
#     4  10  20  38  59  86 120 157 195 242 292 342
#     4   9  20  36  57  84 120 153 190 244 297 336
#     4  10  22  40  59  87 124 153 184 246 305 336
#     4  10  21  40  64  89 113 154 203 239 281 353
#
# _framework density 24.938210999999999
#
# number of rings (size 3 to 8) (size 9 to 14) (size 15 to 20)
#    0.000    2.000    0.000    4.200    0.000    4.800 
#    0.000   26.000    0.000    0.000    0.000    0.000 
#    0.000    0.000    0.000    0.000    0.000    0.000 
#
# Total GULP energy -247965.509128 kJ/mol
# GULP energy per Si atom -12398.275456 kJ/mol
# Density = 2.488145 g / cm^3
# Si number density = 24.938211 Si / 1000 Ang^3
#
#
#
# Elastic Constant Matrix: (Units=GPa)
#
#
# Indices 1 2 3 4 5 6 
#
# 1 116.6898 12.2089 52.0587 0.0000 11.7713 0.0000
# 2 12.2089 98.4321 27.8172 0.0000 11.3838 0.0000
# 3 52.0587 27.8172 177.1203 0.0000 22.1283 0.0000
# 4 0.0000 0.0000 0.0000 25.3998 0.0000 5.3281
# 5 11.7713 11.3838 22.1283 0.0000 43.0214 0.0000
# 6 0.0000 0.0000 0.0000 5.3281 0.0000 35.6641
#
#
#
# Elastic Compliance Matrix: (Units=1/GPa)
#
#
# Indices 1 2 3 4 5 6 
#
# 1 0.009940 -0.000322 -0.002716 0.000000 -0.001237 0.000000
# 2 -0.000322 0.010820 -0.001344 0.000000 -0.002083 0.000000
# 3 -0.002716 -0.001344 0.006966 0.000000 -0.002484 0.000000
# 4 0.000000 0.000000 0.000000 0.040644 0.000000 -0.006072
# 5 -0.001237 -0.002083 -0.002484 0.000000 0.025412 0.000000
# 6 0.000000 0.000000 0.000000 -0.006072 0.000000 0.028947
#
#
# Mechanical properties :
#
#
# Convention : Reuss Voigt Hill
#
# Bulk Modulus (GPa) = 52.74213 64.04576 58.39395
# Shear Modulus (GPa) = 36.28071 40.82754 38.55413
#
# Velocity S-wave (km/s) = 3.81835 4.05056 3.93617
# Velocity P-wave (km/s) = 6.37454 6.90026 6.64260
#
# Compressibility (1/GPa) = 0.01896017
#
# Stress axis : x y z
#
# Youngs Moduli (GPa) = 100.60250 92.42043 143.55997
#
# Poissons Ratio (x) = 0.02977 0.38997
# Poissons Ratio (y) = 0.03241 0.19299
# Poissons Ratio (z) = 0.27328 0.12424
#
# Static dielectric constant tensor:
#      x y z
#    x 4.592210 0.000000 0.351650 
#    y 0.000000 4.713440 0.000000 
#    z 0.351650 0.000000 5.011200 
# 
# 
# High freq. dielectric constant tensor:
#      x y z
#    x 2.003990 0.000000 0.008830 
#    y 0.000000 2.006720 0.000000 
#    z 0.008830 0.000000 2.005210 
# 
# From -- ./inp_files/50517.got.cif
#   From: 2010.06.25/outbox.cif.g09.slc.cpg/sg11_26_cif.got.tgz:50517.got - 2010.06.27 23:14:04.
