data_PCOD8075883
_publ_section_title
;
Structure prediction by ZEFSAII (Michael W. Deem and Ramdas Pophale) SiO2 
 PCOD8075883
Probable space group: P 21/M
;
_chemical_formula_sum "Si O2"
_cell_formula_units_Z 32
_cell_length_a 18.100556
_cell_length_b 13.272734
_cell_length_c 18.564671
_cell_angle_alpha 90.000000
_cell_angle_beta 158.476060
_cell_angle_gamma 90.000000
_cell_volume 1636.346915
_symmetry_space_group_name_H-M "P 21/M"
_symmetry_group_IT_number 11
_symmetry_cell_setting 'monoclinic'
loop_
_space_group_symop_operation_xyz
x,y,z
-x,1/2+y,-z
-x,-y,-z
x,1/2-y,z
loop_
_atom_site_type_symbol
_atom_site_label
_atom_site_fract_x
_atom_site_fract_y
_atom_site_fract_z
Si Si1 0.408053 0.508847 0.312858
Si Si2 0.520527 0.138382 0.035577
Si Si3 0.848517 0.987759 0.296569
Si Si4 0.525369 0.639113 0.845537
Si Si5 0.109862 0.633992 0.945896
Si Si6 0.709201 0.866027 0.675256
Si Si7 0.282508 0.864824 0.485376
Si Si8 0.085665 0.484480 0.804899
O O1 0.280349 0.563443 0.135495
O O2 0.263195 0.438351 0.230286
O O3 0.512376 0.597159 0.453489
O O4 0.576621 0.434095 0.435245
O O5 0.550681 0.250000 0.034217
O O6 0.677799 0.073341 0.133025
O O7 0.580377 0.124144 0.173364
O O8 0.283026 0.112939 0.809569
O O9 0.968622 0.988639 0.329591
O O10 0.000000 0.000000 0.500000
O O11 0.628373 0.750000 0.936143
O O12 0.350324 0.630373 0.629208
O O13 0.689438 0.554604 0.980020
O O14 0.182145 0.750000 0.007674
O O15 0.070532 0.594187 0.828848
O O16 0.906399 0.624079 0.806052
O O17 0.675732 0.750000 0.668527
O O18 0.283142 0.750000 0.456227
O O19 0.057963 0.908518 0.281594
#
# Coordination Sequence:
#
# PCOD8075883 Si02
#       8
#     4   4   4   4   4   4   4   4
#     4  11  21  39  63  85 118 155 195 242 287 338
#     4   9  19  36  56  81 111 148 192 240 293 350
#     4  10  21  36  58  84 115 153 195 245 296 347
#     4   9  18  34  57  82 113 147 184 237 300 350
#     4  11  23  40  60  84 116 160 200 236 289 345
#     4  10  22  40  61  87 119 154 194 238 289 346
#     4  11  21  34  57  89 116 147 191 239 296 351
#     4  11  21  37  57  82 120 154 194 240 295 349
#
# _framework density 19.555755000000001
#
# number of rings (size 3 to 8) (size 9 to 14) (size 15 to 20)
#    0.000    1.750    2.500    2.250    0.000    1.500 
#    0.000    0.000    0.000    0.000    0.000    0.000 
#    0.000    0.000    0.000    0.000    0.000    0.000 
#
# Total GULP energy -396732.388704 kJ/mol
# GULP energy per Si atom -12397.887147 kJ/mol
# Density = 1.951125 g / cm^3
# Si number density = 19.555755 Si / 1000 Ang^3
#
#
#
# Elastic Constant Matrix: (Units=GPa)
#
#
# Indices 1 2 3 4 5 6 
#
# 1 73.0576 40.7561 17.0209 0.0000 6.3908 0.0000
# 2 40.7561 123.7462 23.6045 0.0000 4.5988 0.0000
# 3 17.0209 23.6045 50.9487 0.0000 -5.2616 0.0000
# 4 0.0000 0.0000 0.0000 25.9468 0.0000 -0.5960
# 5 6.3908 4.5988 -5.2616 0.0000 29.5785 0.0000
# 6 0.0000 0.0000 0.0000 -0.5960 0.0000 28.2485
#
#
#
# Elastic Compliance Matrix: (Units=1/GPa)
#
#
# Indices 1 2 3 4 5 6 
#
# 1 0.017701 -0.004922 -0.004023 0.000000 -0.003775 0.000000
# 2 -0.004922 0.010369 -0.003276 0.000000 -0.001132 0.000000
# 3 -0.004023 -0.003276 0.023055 0.000000 0.005480 0.000000
# 4 0.000000 0.000000 0.000000 0.038559 0.000000 0.000814
# 5 -0.003775 -0.001132 0.005480 0.000000 0.035775 0.000000
# 6 0.000000 0.000000 0.000000 0.000814 0.000000 0.035417
#
#
# Mechanical properties :
#
#
# Convention : Reuss Voigt Hill
#
# Bulk Modulus (GPa) = 37.47775 45.61284 41.54529
# Shear Modulus (GPa) = 25.74471 27.84617 26.79544
#
# Velocity S-wave (km/s) = 3.63227 3.77760 3.70565
# Velocity P-wave (km/s) = 6.06608 6.51170 6.29283
#
# Compressibility (1/GPa) = 0.02668250
#
# Stress axis : x y z
#
# Youngs Moduli (GPa) = 56.49307 96.43884 43.37362
#
# Poissons Ratio (x) = 0.47470 0.17449
# Poissons Ratio (y) = 0.27808 0.14211
# Poissons Ratio (z) = 0.22727 0.31598
#
# Static dielectric constant tensor:
#      x y z
#    x 3.600630 0.000000 -0.037990 
#    y 0.000000 3.748320 0.000000 
#    z -0.037990 0.000000 3.341030 
# 
# 
# High freq. dielectric constant tensor:
#      x y z
#    x 1.764110 0.000000 0.003500 
#    y 0.000000 1.768340 0.000000 
#    z 0.003500 0.000000 1.750620 
# 
# From -- ./inp_files/66580.got.cif
#   From: 2010.06.25/outbox.cif.g09.slc.cpg/sg11_34_cif.got.tgz:66580.got - 2010.06.27 23:14:04.
