data_PCOD8075681
_publ_section_title
;
Structure prediction by ZEFSAII (Michael W. Deem and Ramdas Pophale) SiO2 
 PCOD8075681
Probable space group: P 21/M
;
_chemical_formula_sum "Si O2"
_cell_formula_units_Z 32
_cell_length_a 13.966780
_cell_length_b 9.196751
_cell_length_c 20.859451
_cell_angle_alpha 90.000000
_cell_angle_beta 138.423474
_cell_angle_gamma 90.000000
_cell_volume 1778.086646
_symmetry_space_group_name_H-M "P 21/M"
_symmetry_group_IT_number 11
_symmetry_cell_setting 'monoclinic'
loop_
_space_group_symop_operation_xyz
x,y,z
-x,1/2+y,-z
-x,-y,-z
x,1/2-y,z
loop_
_atom_site_type_symbol
_atom_site_label
_atom_site_fract_x
_atom_site_fract_y
_atom_site_fract_z
Si Si1 0.847629 0.423006 0.417175
Si Si2 0.671464 0.583354 0.222178
Si Si3 0.335784 0.580540 0.044630
Si Si4 0.150475 0.578950 0.074564
Si Si5 0.649901 0.080420 0.434984
Si Si6 0.646342 0.083640 0.571418
Si Si7 0.648964 0.581957 0.068831
Si Si8 0.652555 0.419979 0.712744
O O1 0.867972 0.250000 0.423909
O O2 0.764762 0.476415 0.312471
O O3 0.758135 0.473307 0.434649
O O4 0.000000 0.500000 0.500000
O O5 0.692616 0.750000 0.255610
O O6 0.502645 0.539941 0.142191
O O7 0.729386 0.565842 0.177738
O O8 0.323062 0.750000 0.022174
O O9 0.241308 0.534151 0.057838
O O10 0.269646 0.492350 0.950575
O O11 0.123966 0.750000 0.064140
O O12 0.236188 0.521075 0.179358
O O13 0.000000 0.500000 0.000000
O O14 0.617075 0.250000 0.409915
O O15 0.725133 0.047733 0.542963
O O16 0.499437 0.997988 0.353466
O O17 0.601410 0.250000 0.548713
O O18 0.725947 0.048457 0.678963
O O19 0.500000 0.000000 0.500000
O O20 0.621520 0.750000 0.039251
O O21 0.500000 0.500000 0.000000
O O22 0.623386 0.250000 0.708930
#
# Coordination Sequence:
#
# PCOD8075681 Si02
#       8
#     4   4   4   4   4   4   4   4
#     4  11  23  36  50  70 100 137 171 206 248 295
#     4   9  18  34  55  77 100 127 162 207 255 300
#     4   9  18  33  53  76 103 133 166 210 258 302
#     4  10  21  35  49  70 102 137 172 210 250 293
#     4   9  18  32  51  76 101 125 158 201 246 289
#     4   8  14  27  48  73  98 121 151 195 241 286
#     4   9  17  30  51  78 104 129 161 205 254 304
#     4   9  17  31  53  76  97 127 164 200 243 293
#
# _framework density 17.996873000000001
#
# number of rings (size 3 to 8) (size 9 to 14) (size 15 to 20)
#    0.000    2.750    0.000    2.250    0.000    5.500 
#    0.000    1.250    0.000    3.000    0.000    0.000 
#    0.000    0.000    0.000    0.000    0.000    0.000 
#
# Total GULP energy -396479.044562 kJ/mol
# GULP energy per Si atom -12389.970143 kJ/mol
# Density = 1.795591 g / cm^3
# Si number density = 17.996873 Si / 1000 Ang^3
#
#
#
# Elastic Constant Matrix: (Units=GPa)
#
#
# Indices 1 2 3 4 5 6 
#
# 1 103.5174 45.9968 102.2298 0.0000 -25.3601 0.0000
# 2 45.9968 60.4924 51.9532 0.0000 -11.2927 0.0000
# 3 102.2298 51.9532 114.4960 0.0000 -22.1754 0.0000
# 4 0.0000 0.0000 0.0000 30.4374 0.0000 -1.5195
# 5 -25.3601 -11.2927 -22.1754 0.0000 31.9097 0.0000
# 6 0.0000 0.0000 0.0000 -1.5195 0.0000 27.0251
#
#
#
# Elastic Compliance Matrix: (Units=1/GPa)
#
#
# Indices 1 2 3 4 5 6 
#
# 1 0.090017 0.001559 -0.077557 0.000000 0.018195 0.000000
# 2 0.001559 0.027154 -0.013418 0.000000 0.001524 0.000000
# 3 -0.077557 -0.013418 0.082289 0.000000 -0.009201 0.000000
# 4 0.000000 0.000000 0.000000 0.032947 0.000000 0.001852
# 5 0.018195 0.001524 -0.009201 0.000000 0.039944 0.000000
# 6 0.000000 0.000000 0.000000 0.001852 0.000000 0.037107
#
#
# Mechanical properties :
#
#
# Convention : Reuss Voigt Hill
#
# Bulk Modulus (GPa) = 48.47859 75.42952 61.95405
# Shear Modulus (GPa) = 10.09762 23.09618 16.59690
#
# Velocity S-wave (km/s) = 2.37128 3.58627 3.04009
# Velocity P-wave (km/s) = 5.87307 7.69103 6.84269
#
# Compressibility (1/GPa) = 0.02062766
#
# Stress axis : x y z
#
# Youngs Moduli (GPa) = 11.10896 36.82685 12.15235
#
# Poissons Ratio (x) = -0.05740 0.94250
# Poissons Ratio (y) = -0.01732 0.16306
# Poissons Ratio (z) = 0.86158 0.49414
#
# Static dielectric constant tensor:
#      x y z
#    x 4.210490 0.000000 -0.963400 
#    y 0.000000 3.410070 0.000000 
#    z -0.963400 0.000000 3.658470 
# 
# 
# High freq. dielectric constant tensor:
#      x y z
#    x 1.693610 0.000000 -0.037370 
#    y 0.000000 1.697770 0.000000 
#    z -0.037370 0.000000 1.684560 
# 
# From -- ./inp_files/65257.got.cif
#   From: 2010.06.25/outbox.cif.g09.slc.cpg/sg11_33_cif.got.tgz:65257.got - 2010.06.27 23:14:04.
