data_PCOD8075976
_publ_section_title
;
Structure prediction by ZEFSAII (Michael W. Deem and Ramdas Pophale) SiO2 
 PCOD8075976
Probable space group: P 21/M
;
_chemical_formula_sum "Si O2"
_cell_formula_units_Z 32
_cell_length_a 25.863301
_cell_length_b 8.812751
_cell_length_c 14.466481
_cell_angle_alpha 90.000000
_cell_angle_beta 32.878302
_cell_angle_gamma 90.000000
_cell_volume 1789.960114
_symmetry_space_group_name_H-M "P 21/M"
_symmetry_group_IT_number 11
_symmetry_cell_setting 'monoclinic'
loop_
_space_group_symop_operation_xyz
x,y,z
-x,1/2+y,-z
-x,-y,-z
x,1/2-y,z
loop_
_atom_site_type_symbol
_atom_site_label
_atom_site_fract_x
_atom_site_fract_y
_atom_site_fract_z
Si Si1 0.345263 0.072281 0.089100
Si Si2 0.099446 0.428431 0.745988
Si Si3 0.101665 0.071912 0.953716
Si Si4 0.558419 0.070021 0.764733
Si Si5 0.732392 0.429397 0.178132
Si Si6 0.440814 0.930338 0.440657
Si Si7 0.654122 0.572560 0.124293
Si Si8 0.266190 0.570618 0.378801
O O1 0.334787 0.250000 0.125836
O O2 0.272109 0.978905 0.262900
O O3 0.452543 0.013962 0.950568
O O4 0.319724 0.037125 0.021123
O O5 0.086359 0.250000 0.753130
O O6 0.128232 0.469718 0.808042
O O7 0.178334 0.489082 0.558266
O O8 0.001622 0.508930 0.865613
O O9 0.102224 0.250000 0.969526
O O10 0.175452 0.995687 0.911695
O O11 0.556919 0.250000 0.764285
O O12 0.585363 0.008534 0.622315
O O13 0.636914 0.010116 0.718392
O O14 0.738191 0.250000 0.174977
O O15 0.637626 0.494299 0.370960
O O16 0.727810 0.482791 0.078689
O O17 0.440331 0.750000 0.440582
O O18 0.546917 0.985968 0.307839
O O19 0.663523 0.750000 0.130603
O O20 0.253372 0.750000 0.407272
#
# Coordination Sequence:
#
# PCOD8075976 Si02
#       8
#     4   4   4   4   4   4   4   4
#     4   9  18  33  50  68  97 138 179 216 251 289
#     4  10  21  37  56  78 104 132 163 201 246 298
#     4  10  21  37  56  78 104 132 163 201 246 298
#     4   8  15  28  46  70 101 136 171 206 247 295
#     4  11  20  30  50  77 104 134 168 208 253 302
#     4   8  15  28  46  70 101 136 171 206 247 295
#     4   9  18  33  50  68  97 138 179 216 251 289
#     4  11  20  30  50  77 104 134 168 208 253 302
#
# _framework density 17.877493999999999
#
# number of rings (size 3 to 8) (size 9 to 14) (size 15 to 20)
#    0.000    2.500    0.000    4.500    0.000    3.000 
#    0.000    1.250    0.000    3.750    0.000    0.000 
#    0.000    0.000    0.000    0.000    0.000    0.000 
#
# Total GULP energy -396769.344878 kJ/mol
# GULP energy per Si atom -12399.042027 kJ/mol
# Density = 1.783680 g / cm^3
# Si number density = 17.877494 Si / 1000 Ang^3
#
#
#
# Elastic Constant Matrix: (Units=GPa)
#
#
# Indices 1 2 3 4 5 6 
#
# 1 119.0941 33.2676 48.8785 0.0000 -4.8452 0.0000
# 2 33.2676 39.4381 13.0695 0.0000 0.8222 0.0000
# 3 48.8785 13.0695 75.4648 0.0000 11.8553 0.0000
# 4 0.0000 0.0000 0.0000 24.6391 0.0000 1.0002
# 5 -4.8452 0.8222 11.8553 0.0000 21.8738 0.0000
# 6 0.0000 0.0000 0.0000 1.0002 0.0000 25.4378
#
#
#
# Elastic Compliance Matrix: (Units=1/GPa)
#
#
# Indices 1 2 3 4 5 6 
#
# 1 0.015618 -0.010117 -0.009801 0.000000 0.009152 0.000000
# 2 -0.010117 0.033509 0.001420 0.000000 -0.004270 0.000000
# 3 -0.009801 0.001420 0.021537 0.000000 -0.013897 0.000000
# 4 0.000000 0.000000 0.000000 0.040651 0.000000 -0.001598
# 5 0.009152 -0.004270 -0.013897 0.000000 0.055436 0.000000
# 6 0.000000 0.000000 0.000000 -0.001598 0.000000 0.039374
#
#
# Mechanical properties :
#
#
# Convention : Reuss Voigt Hill
#
# Bulk Modulus (GPa) = 29.70232 47.15870 38.43051
# Shear Modulus (GPa) = 19.65853 23.64225 21.65039
#
# Velocity S-wave (km/s) = 3.31966 3.64051 3.48378
# Velocity P-wave (km/s) = 5.59856 6.64132 6.14211
#
# Compressibility (1/GPa) = 0.03366740
#
# Stress axis : x y z
#
# Youngs Moduli (GPa) = 64.02981 29.84309 46.43249
#
# Poissons Ratio (x) = 0.30192 0.45509
# Poissons Ratio (y) = 0.64779 -0.06595
# Poissons Ratio (z) = 0.62757 -0.04239
#
# Static dielectric constant tensor:
#      x y z
#    x 3.352910 0.000000 0.036910 
#    y 0.000000 3.068120 0.000000 
#    z 0.036910 0.000000 3.265470 
# 
# 
# High freq. dielectric constant tensor:
#      x y z
#    x 1.690260 0.000000 0.007480 
#    y 0.000000 1.677630 0.000000 
#    z 0.007480 0.000000 1.678980 
# 
# From -- ./inp_files/51700.got.cif
#   From: 2010.06.25/outbox.cif.g09.slc.cpg/sg11_26_cif.got.tgz:51700.got - 2010.06.27 23:14:04.
