data_PCOD8075069
_publ_section_title
;
Structure prediction by ZEFSAII (Michael W. Deem and Ramdas Pophale) SiO2 
 PCOD8075069
Probable space group: P 21/M
;
_chemical_formula_sum "Si O2"
_cell_formula_units_Z 26
_cell_length_a 23.675770
_cell_length_b 11.390334
_cell_length_c 9.412467
_cell_angle_alpha 90.000000
_cell_angle_beta 35.389279
_cell_angle_gamma 90.000000
_cell_volume 1470.005906
_symmetry_space_group_name_H-M "P 21/M"
_symmetry_group_IT_number 11
_symmetry_cell_setting 'monoclinic'
loop_
_space_group_symop_operation_xyz
x,y,z
-x,1/2+y,-z
-x,-y,-z
x,1/2-y,z
loop_
_atom_site_type_symbol
_atom_site_label
_atom_site_fract_x
_atom_site_fract_y
_atom_site_fract_z
Si Si1 0.323996 0.750000 0.425875
Si Si2 0.797869 0.483820 0.886609
Si Si3 0.230998 0.977806 0.512936
Si Si4 0.147012 0.386227 0.944749
Si Si5 0.920602 0.113763 0.389080
Si Si6 0.324025 0.120873 0.077846
Si Si7 0.285859 0.750000 0.811864
Si Si8 0.510541 0.250000 0.711575
O O1 0.300798 0.865403 0.383634
O O2 0.255898 0.750000 0.707006
O O3 0.438080 0.750000 0.238048
O O4 0.886356 0.459274 0.597008
O O5 0.707590 0.543075 0.990533
O O6 0.835565 0.569257 0.931778
O O7 0.759053 0.362681 0.024714
O O8 0.130024 0.938200 0.647539
O O9 0.211733 0.038522 0.703522
O O10 0.289595 0.068370 0.296827
O O11 0.177314 0.250000 0.873384
O O12 0.034865 0.403667 0.133930
O O13 0.892667 0.250000 0.465729
O O14 0.275107 0.250000 0.164124
O O15 0.442294 0.134056 0.835791
O O16 0.404499 0.750000 0.582699
#
# Coordination Sequence:
#
# PCOD8075069 Si02
#       8
#     2   4   4   4   4   4   2   2
#     4  10  20  37  59  84 105 148 183 233 273 329
#     4  11  20  37  61  78 115 149 183 227 283 321
#     4  11  20  37  61  78 115 149 183 227 283 321
#     4  11  22  35  55  84 113 149 189 222 271 331
#     4  10  21  35  55  85 113 141 189 232 267 326
#     4   9  21  38  56  81 116 142 180 232 277 333
#     4  10  20  37  59  84 105 148 183 233 273 329
#     4   8  20  40  52  86 114 138 186 228 282 334
#
# _framework density 17.687003000000001
#
# number of rings (size 3 to 8) (size 9 to 14) (size 15 to 20)
#    0.923    0.923    3.077    1.846    0.000    1.231 
#    0.000    0.000    3.385    1.846    0.000    0.000 
#    0.000    0.000    0.000    0.000    0.000    0.000 
#
# Total GULP energy -322330.143756 kJ/mol
# GULP energy per Si atom -12397.313221 kJ/mol
# Density = 1.764675 g / cm^3
# Si number density = 17.687003 Si / 1000 Ang^3
#
#
#
# Elastic Constant Matrix: (Units=GPa)
#
#
# Indices 1 2 3 4 5 6 
#
# 1 69.2645 21.0106 8.1343 0.0000 4.0558 0.0000
# 2 21.0106 79.6928 8.9876 0.0000 -3.1534 0.0000
# 3 8.1343 8.9876 22.0178 0.0000 -5.4775 0.0000
# 4 0.0000 0.0000 0.0000 -6.4146 0.0000 -13.3323
# 5 4.0558 -3.1534 -5.4775 0.0000 29.6293 0.0000
# 6 0.0000 0.0000 0.0000 -13.3323 0.0000 25.2360
#
#
#
# Elastic Compliance Matrix: (Units=1/GPa)
#
#
# Indices 1 2 3 4 5 6 
#
# 1 0.016463 -0.003875 -0.005413 0.000000 -0.003667 0.000000
# 2 -0.003875 0.014071 -0.003991 0.000000 0.001290 0.000000
# 3 -0.005413 -0.003991 0.051493 0.000000 0.009836 0.000000
# 4 0.000000 0.000000 0.000000 -0.074305 0.000000 -0.039255
# 5 -0.003667 0.001290 0.009836 0.000000 0.036208 0.000000
# 6 0.000000 0.000000 0.000000 -0.039255 0.000000 0.018887
#
#
# Mechanical properties :
#
#
# Convention : Reuss Voigt Hill
#
# Bulk Modulus (GPa) = 18.02774 27.47111 22.74943
# Shear Modulus (GPa) = 46.35392 18.54632 32.45012
#
# Velocity S-wave (km/s) = 5.12492 3.24170 4.28797
# Velocity P-wave (km/s) = 6.72566 5.43847 6.11602
#
# Compressibility (1/GPa) = 0.05547008
#
# Stress axis : x y z
#
# Youngs Moduli (GPa) = 60.74146 71.06818 19.41993
#
# Poissons Ratio (x) = 0.27540 0.10511
# Poissons Ratio (y) = 0.23538 0.07751
# Poissons Ratio (z) = 0.32877 0.28364
#
# Static dielectric constant tensor:
#      x y z
#    x 3.256410 0.000000 0.043260 
#    y 0.000000 3.325040 0.000000 
#    z 0.043260 0.000000 3.061730 
# 
# 
# High freq. dielectric constant tensor:
#      x y z
#    x 1.687020 0.000000 0.005710 
#    y 0.000000 1.694870 0.000000 
#    z 0.005710 0.000000 1.671040 
# 
# From -- ./inp_files/26550.got.cif
#   From: 2010.06.25/outbox.cif.g09.slc.cpg/sg11_14_cif.got.tgz:26550.got - 2010.06.27 23:14:04.
