data_PCOD8075429
_publ_section_title
;
Structure prediction by ZEFSAII (Michael W. Deem and Ramdas Pophale) SiO2 
 PCOD8075429
Probable space group: P 21/M
;
_chemical_formula_sum "Si O2"
_cell_formula_units_Z 32
_cell_length_a 5.379389
_cell_length_b 17.812178
_cell_length_c 15.314370
_cell_angle_alpha 90.000000
_cell_angle_beta 98.009864
_cell_angle_gamma 90.000000
_cell_volume 1453.086184
_symmetry_space_group_name_H-M "P 21/M"
_symmetry_group_IT_number 11
_symmetry_cell_setting 'monoclinic'
loop_
_space_group_symop_operation_xyz
x,y,z
-x,1/2+y,-z
-x,-y,-z
x,1/2-y,z
loop_
_atom_site_type_symbol
_atom_site_label
_atom_site_fract_x
_atom_site_fract_y
_atom_site_fract_z
Si Si1 0.366569 0.162491 0.130269
Si Si2 0.036868 0.662531 0.576889
Si Si3 0.425340 0.418899 0.964060
Si Si4 0.075236 0.060197 0.781922
Si Si5 0.289561 0.668289 0.148736
Si Si6 0.906938 0.386613 0.225992
Si Si7 0.498223 0.336944 0.507363
Si Si8 0.665907 0.669280 0.314871
O O1 0.418158 0.250000 0.120983
O O2 0.630764 0.124010 0.170768
O O3 0.134979 0.151274 0.184446
O O4 0.282324 0.125070 0.034379
O O5 0.023033 0.750000 0.554970
O O6 0.104174 0.650699 0.680493
O O7 0.259666 0.625725 0.528282
O O8 0.765550 0.626596 0.539280
O O9 0.262933 0.430599 0.870974
O O10 0.658855 0.366289 0.945116
O O11 0.500000 0.500000 0.000000
O O12 0.154497 0.098270 0.693599
O O13 0.831802 0.104237 0.798966
O O14 0.022289 0.973656 0.761603
O O15 0.148978 0.750000 0.131082
O O16 0.537488 0.684470 0.215945
O O17 0.498351 0.250000 0.481014
O O18 0.517487 0.349685 0.612900
O O19 0.804890 0.750000 0.343874
#
# Coordination Sequence:
#
# PCOD8075429 Si02
#       8
#     4   4   4   4   4   4   4   4
#     4  12  26  44  69  97 128 172 224 274 319 382
#     4  10  20  38  62  91 124 165 215 268 318 377
#     4  11  23  43  62  92 130 169 217 267 326 386
#     4  11  24  40  65  91 132 174 212 266 332 394
#     4  10  22  39  64  93 128 169 218 272 323 387
#     4  12  26  44  67  95 135 174 217 267 330 388
#     4   9  19  36  64  94 124 163 213 267 319 377
#     4   9  20  39  63  95 127 167 218 267 321 389
#
# _framework density 22.022093000000002
#
# number of rings (size 3 to 8) (size 9 to 14) (size 15 to 20)
#    0.000    1.500    1.250    3.375    5.250    3.500 
#    0.000    1.250    0.000    0.000    0.000    0.000 
#    0.000    0.000    0.000    0.000    0.000    0.000 
#
# Total GULP energy -396453.639257 kJ/mol
# GULP energy per Si atom -12389.176227 kJ/mol
# Density = 2.197197 g / cm^3
# Si number density = 22.022093 Si / 1000 Ang^3
#
#
#
# Elastic Constant Matrix: (Units=GPa)
#
#
# Indices 1 2 3 4 5 6 
#
# 1 104.9930 27.0136 35.2186 0.0000 -19.9574 0.0000
# 2 27.0136 93.4590 17.2267 0.0000 -16.3254 0.0000
# 3 35.2186 17.2267 109.0435 0.0000 -34.5409 0.0000
# 4 0.0000 0.0000 0.0000 0.3635 0.0000 0.5379
# 5 -19.9574 -16.3254 -34.5409 0.0000 35.2703 0.0000
# 6 0.0000 0.0000 0.0000 0.5379 0.0000 24.1208
#
#
#
# Elastic Compliance Matrix: (Units=1/GPa)
#
#
# Indices 1 2 3 4 5 6 
#
# 1 0.011513 -0.002348 -0.002360 0.000000 0.003116 0.000000
# 2 -0.002348 0.012123 0.000290 0.000000 0.004566 0.000000
# 3 -0.002360 0.000290 0.013782 0.000000 0.012295 0.000000
# 4 0.000000 0.000000 0.000000 2.845115 0.000000 -0.063444
# 5 0.003116 0.004566 0.012295 0.000000 0.044270 0.000000
# 6 0.000000 0.000000 0.000000 -0.063444 0.000000 0.042873
#
#
# Mechanical properties :
#
#
# Convention : Reuss Voigt Hill
#
# Bulk Modulus (GPa) = 34.99013 51.82370 43.40692
# Shear Modulus (GPa) = 1.67334 27.15336 14.41335
#
# Velocity S-wave (km/s) = 0.87264 3.51523 2.56109
# Velocity P-wave (km/s) = 4.11564 6.32925 5.33844
#
# Compressibility (1/GPa) = 0.02857949
#
# Stress axis : x y z
#
# Youngs Moduli (GPa) = 86.86092 82.48885 72.55854
#
# Poissons Ratio (x) = 0.19371 0.17126
# Poissons Ratio (y) = 0.20398 -0.02102
# Poissons Ratio (z) = 0.20502 -0.02389
#
# Static dielectric constant tensor:
#      x y z
#    x 3.866610 0.000000 -0.313150 
#    y 0.000000 4.191450 0.000000 
#    z -0.313150 0.000000 3.942030 
# 
# 
# High freq. dielectric constant tensor:
#      x y z
#    x 1.857060 0.000000 -0.013700 
#    y 0.000000 1.857410 0.000000 
#    z -0.013700 0.000000 1.875210 
# 
# From -- ./inp_files/46046.got.cif
#   From: 2010.06.25/outbox.cif.g09.slc.cpg/sg11_24_cif.got.tgz:46046.got - 2010.06.27 23:14:04.
