data_PCOD8075059
_publ_section_title
;
Structure prediction by ZEFSAII (Michael W. Deem and Ramdas Pophale) SiO2 
 PCOD8075059
Probable space group: P 21/M
;
_chemical_formula_sum "Si O2"
_cell_formula_units_Z 20
_cell_length_a 16.404012
_cell_length_b 14.434273
_cell_length_c 8.402613
_cell_angle_alpha 90.000000
_cell_angle_beta 150.258028
_cell_angle_gamma 90.000000
_cell_volume 987.015731
_symmetry_space_group_name_H-M "P 21/M"
_symmetry_group_IT_number 11
_symmetry_cell_setting 'monoclinic'
loop_
_space_group_symop_operation_xyz
x,y,z
-x,1/2+y,-z
-x,-y,-z
x,1/2-y,z
loop_
_atom_site_type_symbol
_atom_site_label
_atom_site_fract_x
_atom_site_fract_y
_atom_site_fract_z
Si Si1 0.419959 0.856113 0.281766
Si Si2 0.236537 0.144961 0.982568
Si Si3 0.176771 0.527273 0.067209
Si Si4 0.598155 0.946088 0.299227
Si Si5 0.137688 0.144501 0.457560
O O1 0.365199 0.750000 0.176355
O O2 0.263779 0.913246 0.076763
O O3 0.470326 0.891919 0.193497
O O4 0.569545 0.869910 0.658847
O O5 0.183841 0.250000 0.936899
O O6 0.202677 0.120960 0.743111
O O7 0.136594 0.074872 0.927400
O O8 0.294181 0.519736 0.418943
O O9 0.010127 0.576244 0.838645
O O10 0.716455 0.870237 0.419981
O O11 0.500000 0.000000 0.000000
O O12 0.076426 0.250000 0.341657
#
# Coordination Sequence:
#
# PCOD8075059 Si02
#       5
#     4   4   4   4   4
#     4  10  20  37  59  83 110 148 194 235 277 339
#     4   9  19  35  58  82 109 148 193 235 282 339
#     4  11  21  37  59  85 114 149 190 238 285 339
#     4  11  22  38  58  83 115 156 194 234 283 339
#     4  11  22  37  57  85 118 149 183 236 296 344
#
# _framework density 20.263100999999999
#
# number of rings (size 3 to 8) (size 9 to 14) (size 15 to 20)
#    0.000    1.600    0.000    7.200    0.000    0.800 
#    0.000    3.000    0.000    1.200    0.000    0.000 
#    0.000    0.000    0.000    0.000    0.000    0.000 
#
# Total GULP energy -248099.450016 kJ/mol
# GULP energy per Si atom -12404.972501 kJ/mol
# Density = 2.021698 g / cm^3
# Si number density = 20.263101 Si / 1000 Ang^3
#
#
#
# Elastic Constant Matrix: (Units=GPa)
#
#
# Indices 1 2 3 4 5 6 
#
# 1 85.7706 38.2085 42.7558 0.0000 -8.7496 0.0000
# 2 38.2085 112.3007 41.5245 0.0000 -4.2196 0.0000
# 3 42.7558 41.5245 63.9363 0.0000 -16.1588 0.0000
# 4 0.0000 0.0000 0.0000 30.5956 0.0000 1.0463
# 5 -8.7496 -4.2196 -16.1588 0.0000 31.9970 0.0000
# 6 0.0000 0.0000 0.0000 1.0463 0.0000 34.3086
#
#
#
# Elastic Compliance Matrix: (Units=1/GPa)
#
#
# Indices 1 2 3 4 5 6 
#
# 1 0.017908 -0.002129 -0.010805 0.000000 -0.000841 0.000000
# 2 -0.002129 0.012169 -0.007131 0.000000 -0.002579 0.000000
# 3 -0.010805 -0.007131 0.030392 0.000000 0.011453 0.000000
# 4 0.000000 0.000000 0.000000 0.032719 0.000000 -0.000998
# 5 -0.000841 -0.002579 0.011453 0.000000 0.036467 0.000000
# 6 0.000000 0.000000 0.000000 -0.000998 0.000000 0.029178
#
#
# Mechanical properties :
#
#
# Convention : Reuss Voigt Hill
#
# Bulk Modulus (GPa) = 49.16848 56.33170 52.75009
# Shear Modulus (GPa) = 24.30211 28.68151 26.49181
#
# Velocity S-wave (km/s) = 3.46689 3.76633 3.61971
# Velocity P-wave (km/s) = 6.35165 6.83917 6.59991
#
# Compressibility (1/GPa) = 0.02033823
#
# Stress axis : x y z
#
# Youngs Moduli (GPa) = 55.84099 82.17546 32.90291
#
# Poissons Ratio (x) = 0.17496 0.35552
# Poissons Ratio (y) = 0.11889 0.23464
# Poissons Ratio (z) = 0.60337 0.58602
#
# Static dielectric constant tensor:
#      x y z
#    x 3.630510 0.000000 -0.126350 
#    y 0.000000 3.927590 0.000000 
#    z -0.126350 0.000000 3.554750 
# 
# 
# High freq. dielectric constant tensor:
#      x y z
#    x 1.789070 0.000000 -0.010100 
#    y 0.000000 1.803070 0.000000 
#    z -0.010100 0.000000 1.783080 
# 
# From -- ./inp_files/12391.got.cif
#   From: 2010.06.25/outbox.cif.g09.slc.cpg/sg11_7_cif.got.tgz:12391.got - 2010.06.27 23:14:04.
