data_PCOD8075717
_publ_section_title
;
Structure prediction by ZEFSAII (Michael W. Deem and Ramdas Pophale) SiO2 
 PCOD8075717
Probable space group: P 21/M
;
_chemical_formula_sum "Si O2"
_cell_formula_units_Z 32
_cell_length_a 15.142875
_cell_length_b 9.066495
_cell_length_c 24.371049
_cell_angle_alpha 90.000000
_cell_angle_beta 151.426961
_cell_angle_gamma 90.000000
_cell_volume 1600.305851
_symmetry_space_group_name_H-M "P 21/M"
_symmetry_group_IT_number 11
_symmetry_cell_setting 'monoclinic'
loop_
_space_group_symop_operation_xyz
x,y,z
-x,1/2+y,-z
-x,-y,-z
x,1/2-y,z
loop_
_atom_site_type_symbol
_atom_site_label
_atom_site_fract_x
_atom_site_fract_y
_atom_site_fract_z
Si Si1 0.012202 0.413628 0.449214
Si Si2 0.006610 0.916556 0.946723
Si Si3 0.390324 0.075153 0.489707
Si Si4 0.596755 0.409645 0.201953
Si Si5 0.943602 0.425220 0.636075
Si Si6 0.626331 0.922070 0.113505
Si Si7 0.678880 0.419803 0.739948
Si Si8 0.593615 0.415584 0.816093
O O1 0.107280 0.250000 0.508432
O O2 0.811919 0.383695 0.316831
O O3 0.000000 0.500000 0.500000
O O4 0.107964 0.508351 0.452529
O O5 0.941774 0.750000 0.920561
O O6 0.220401 0.923496 0.045019
O O7 0.867132 0.991894 0.826885
O O8 0.000000 0.000000 0.000000
O O9 0.364866 0.250000 0.465173
O O10 0.513266 0.041773 0.609799
O O11 0.500000 0.000000 0.500000
O O12 0.191599 0.999348 0.392260
O O13 0.498135 0.250000 0.140143
O O14 0.539892 0.523714 0.123796
O O15 0.554193 0.476373 0.238248
O O16 0.910143 0.250000 0.615432
O O17 0.154375 0.459565 0.770416
O O18 0.593169 0.750000 0.090223
O O19 0.500000 0.000000 0.000000
O O20 0.733851 0.250000 0.768283
O O21 0.621356 0.470481 0.769317
O O22 0.514561 0.250000 0.772471
#
# Coordination Sequence:
#
# PCOD8075717 Si02
#       8
#     4   4   4   4   4   4   4   4
#     4  10  21  36  56  86 122 159 198 240 290 355
#     4   9  17  31  52  78 109 146 187 231 283 341
#     4  11  24  43  64  89 120 160 206 257 305 358
#     4  10  21  35  53  84 118 150 192 237 284 344
#     4  10  22  41  64  91 121 157 199 250 307 361
#     4  10  21  40  65  89 118 155 195 242 296 354
#     4   9  20  37  57  81 111 151 195 241 298 353
#     4   9  18  33  53  81 116 150 187 235 293 352
#
# _framework density 19.996179000000001
#
# number of rings (size 3 to 8) (size 9 to 14) (size 15 to 20)
#    0.000    2.250    0.000    3.000    1.750    6.500 
#    2.250    0.000    0.000    0.000    0.000    0.000 
#    0.000    0.000    0.000    0.000    0.000    0.000 
#
# Total GULP energy -396535.723673 kJ/mol
# GULP energy per Si atom -12391.741365 kJ/mol
# Density = 1.995067 g / cm^3
# Si number density = 19.996179 Si / 1000 Ang^3
#
#
#
# Elastic Constant Matrix: (Units=GPa)
#
#
# Indices 1 2 3 4 5 6 
#
# 1 113.5015 61.6401 35.9853 0.0000 -0.5377 0.0000
# 2 61.6401 133.5997 47.1145 0.0000 -1.5678 0.0000
# 3 35.9853 47.1145 79.1925 0.0000 -6.6566 0.0000
# 4 0.0000 0.0000 0.0000 32.5198 0.0000 1.0937
# 5 -0.5377 -1.5678 -6.6566 0.0000 23.7494 0.0000
# 6 0.0000 0.0000 0.0000 1.0937 0.0000 33.1898
#
#
#
# Elastic Compliance Matrix: (Units=1/GPa)
#
#
# Indices 1 2 3 4 5 6 
#
# 1 0.012238 -0.004645 -0.002868 0.000000 -0.000833 0.000000
# 2 -0.004645 0.011258 -0.004643 0.000000 -0.000663 0.000000
# 3 -0.002868 -0.004643 0.017063 0.000000 0.004411 0.000000
# 4 0.000000 0.000000 0.000000 0.030785 0.000000 -0.001014
# 5 -0.000833 -0.000663 0.004411 0.000000 0.043280 0.000000
# 6 0.000000 0.000000 0.000000 -0.001014 0.000000 0.030163
#
#
# Mechanical properties :
#
#
# Convention : Reuss Voigt Hill
#
# Bulk Modulus (GPa) = 61.54333 68.41927 64.98130
# Shear Modulus (GPa) = 28.65102 29.99539 29.32320
#
# Velocity S-wave (km/s) = 3.78937 3.87726 3.83357
# Velocity P-wave (km/s) = 7.07037 7.37120 7.22235
#
# Compressibility (1/GPa) = 0.01624871
#
# Stress axis : x y z
#
# Youngs Moduli (GPa) = 81.71085 88.82897 58.60500
#
# Poissons Ratio (x) = 0.41261 0.16806
# Poissons Ratio (y) = 0.37954 0.27208
# Poissons Ratio (z) = 0.23432 0.41240
#
# Static dielectric constant tensor:
#      x y z
#    x 3.664420 0.000000 0.181520 
#    y 0.000000 3.772570 0.000000 
#    z 0.181520 0.000000 3.919690 
# 
# 
# High freq. dielectric constant tensor:
#      x y z
#    x 1.759980 0.000000 0.007640 
#    y 0.000000 1.795470 0.000000 
#    z 0.007640 0.000000 1.775900 
# 
# From -- ./inp_files/69069.got.cif
#   From: 2010.06.25/outbox.cif.g09.slc.cpg/sg11_35_cif.got.tgz:69069.got - 2010.06.27 23:14:04.
