data_PCOD8075206
_publ_section_title
;
Structure prediction by ZEFSAII (Michael W. Deem and Ramdas Pophale) SiO2 
 PCOD8075206
Probable space group: P 21/M
;
_chemical_formula_sum "Si O2"
_cell_formula_units_Z 24
_cell_length_a 9.612556
_cell_length_b 8.639538
_cell_length_c 29.321980
_cell_angle_alpha 90.000000
_cell_angle_beta 31.398780
_cell_angle_gamma 90.000000
_cell_volume 1268.683516
_symmetry_space_group_name_H-M "P 21/M"
_symmetry_group_IT_number 11
_symmetry_cell_setting 'monoclinic'
loop_
_space_group_symop_operation_xyz
x,y,z
-x,1/2+y,-z
-x,-y,-z
x,1/2-y,z
loop_
_atom_site_type_symbol
_atom_site_label
_atom_site_fract_x
_atom_site_fract_y
_atom_site_fract_z
Si Si1 0.773455 0.566999 0.782981
Si Si2 0.330073 0.929276 0.283143
Si Si3 0.057107 0.426881 0.871511
Si Si4 0.805030 0.933172 0.267553
Si Si5 0.243129 0.433061 0.403873
Si Si6 0.224099 0.069114 0.969809
O O1 0.776285 0.750000 0.783658
O O2 0.801377 0.509772 0.723531
O O3 0.506700 0.507170 0.881332
O O4 0.027383 0.500575 0.738069
O O5 0.250036 0.750000 0.307139
O O6 0.647868 0.949636 0.190714
O O7 0.214483 0.010932 0.360050
O O8 0.964438 0.250000 0.903459
O O9 0.050764 0.476784 0.820457
O O10 0.854841 0.536560 0.955646
O O11 0.774334 0.750000 0.280190
O O12 0.513297 0.006549 0.351301
O O13 0.239035 0.250000 0.406450
O O14 0.000000 0.500000 0.500000
O O15 0.248746 0.250000 0.953668
O O16 0.000000 0.000000 0.000000
#
# Coordination Sequence:
#
# PCOD8075206 Si02
#       6
#     4   4   4   4   4   4
#     4  12  24  38  58  86 120 158 199 244 297 350
#     4  10  20  37  61  87 118 155 196 240 293 349
#     4   9  19  36  58  82 112 153 201 244 290 345
#     4  10  22  41  62  86 120 156 193 242 300 352
#     4  11  22  40  66  94 121 152 194 237 287 350
#     4  12  23  35  55  82 116 156 203 250 293 342
#
# _framework density 18.917249000000002
#
# number of rings (size 3 to 8) (size 9 to 14) (size 15 to 20)
#    0.000    1.333    1.667    6.500    0.000    4.000 
#    0.000    0.833    0.000    0.000    0.000    0.000 
#    0.000    0.000    0.000    0.000    0.000    0.000 
#
# Total GULP energy -297721.491811 kJ/mol
# GULP energy per Si atom -12405.062159 kJ/mol
# Density = 1.887419 g / cm^3
# Si number density = 18.917249 Si / 1000 Ang^3
#
#
#
# Elastic Constant Matrix: (Units=GPa)
#
#
# Indices 1 2 3 4 5 6 
#
# 1 154.9082 72.6429 72.4590 0.0000 -5.5049 0.0000
# 2 72.6429 162.3350 65.1240 0.0000 -4.4546 0.0000
# 3 72.4590 65.1240 131.7691 0.0000 7.5560 0.0000
# 4 0.0000 0.0000 0.0000 33.8178 0.0000 2.1014
# 5 -5.5049 -4.4546 7.5560 0.0000 18.1148 0.0000
# 6 0.0000 0.0000 0.0000 2.1014 0.0000 35.0735
#
#
#
# Elastic Compliance Matrix: (Units=1/GPa)
#
#
# Indices 1 2 3 4 5 6 
#
# 1 0.009852 -0.002523 -0.004412 0.000000 0.004214 0.000000
# 2 -0.002523 0.008560 -0.002992 0.000000 0.002586 0.000000
# 3 -0.004412 -0.002992 0.011898 0.000000 -0.007039 0.000000
# 4 0.000000 0.000000 0.000000 0.029681 0.000000 -0.001778
# 5 0.004214 0.002586 -0.007039 0.000000 0.060056 0.000000
# 6 0.000000 0.000000 0.000000 -0.001778 0.000000 0.028618
#
#
# Mechanical properties :
#
#
# Convention : Reuss Voigt Hill
#
# Bulk Modulus (GPa) = 95.63874 96.60712 96.12293
# Shear Modulus (GPa) = 29.06901 33.32032 31.19467
#
# Velocity S-wave (km/s) = 3.92425 4.20142 4.06520
# Velocity P-wave (km/s) = 8.43796 8.64379 8.54149
#
# Compressibility (1/GPa) = 0.01045601
#
# Stress axis : x y z
#
# Youngs Moduli (GPa) = 101.49972 116.81928 84.05075
#
# Poissons Ratio (x) = 0.29474 0.37087
# Poissons Ratio (y) = 0.25608 0.25145
# Poissons Ratio (z) = 0.44786 0.34948
#
# Static dielectric constant tensor:
#      x y z
#    x 3.687890 0.000000 0.148900 
#    y 0.000000 3.650990 0.000000 
#    z 0.148900 0.000000 3.436560 
# 
# 
# High freq. dielectric constant tensor:
#      x y z
#    x 1.739820 0.000000 0.010400 
#    y 0.000000 1.751790 0.000000 
#    z 0.010400 0.000000 1.724620 
# 
# From -- ./inp_files/20600.got.cif
#   From: 2010.06.25/outbox.cif.g09.slc.cpg/sg11_11_cif.got.tgz:20600.got - 2010.06.27 23:14:04.
