data_PCOD8075195
_publ_section_title
;
Structure prediction by ZEFSAII (Michael W. Deem and Ramdas Pophale) SiO2 
 PCOD8075195
Probable space group: P 21/M
;
_chemical_formula_sum "Si O2"
_cell_formula_units_Z 32
_cell_length_a 12.846699
_cell_length_b 9.316537
_cell_length_c 13.986247
_cell_angle_alpha 90.000000
_cell_angle_beta 92.981973
_cell_angle_gamma 90.000000
_cell_volume 1671.701766
_symmetry_space_group_name_H-M "P 21/M"
_symmetry_group_IT_number 11
_symmetry_cell_setting 'monoclinic'
loop_
_space_group_symop_operation_xyz
x,y,z
-x,1/2+y,-z
-x,-y,-z
x,1/2-y,z
loop_
_atom_site_type_symbol
_atom_site_label
_atom_site_fract_x
_atom_site_fract_y
_atom_site_fract_z
Si Si1 0.624458 0.412928 0.206041
Si Si2 0.006526 0.915055 0.205315
Si Si3 0.396398 0.083111 0.245932
Si Si4 0.588950 0.415616 0.559318
Si Si5 0.807160 0.582450 0.882487
Si Si6 0.206937 0.080727 0.900145
Si Si7 0.256564 0.910185 0.598758
Si Si8 0.053839 0.414815 0.586734
O O1 0.645585 0.250000 0.175092
O O2 0.502257 0.451436 0.192932
O O3 0.689543 0.513394 0.139396
O O4 0.654618 0.436738 0.318163
O O5 0.019943 0.750000 0.175461
O O6 0.895662 0.973132 0.161009
O O7 0.012172 0.933490 0.319723
O O8 0.099475 0.003973 0.165574
O O9 0.394792 0.250000 0.277360
O O10 0.301786 0.043432 0.171933
O O11 0.386471 0.984686 0.337986
O O12 0.500000 0.500000 0.500000
O O13 0.554767 0.250000 0.570450
O O14 0.694706 0.426974 0.503584
O O15 0.831184 0.750000 0.877760
O O16 0.802456 0.529655 0.991221
O O17 0.220074 0.250000 0.892109
O O18 0.208600 0.750000 0.607517
O O19 0.169221 0.028361 0.610585
O O20 0.061397 0.250000 0.556527
O O21 0.000000 0.500000 0.500000
#
# Coordination Sequence:
#
# PCOD8075195 Si02
#       8
#     4   4   4   4   4   4   4   4
#     4  10  20  37  61  86 118 156 194 241 292 348
#     4  10  22  40  61  85 119 153 194 247 295 350
#     4  10  22  41  58  86 124 158 197 243 295 352
#     4  11  22  37  59  86 117 155 195 239 285 343
#     4  10  23  40  62  87 118 156 196 245 299 352
#     4  10  21  40  62  89 117 149 197 250 297 350
#     4  10  21  38  58  84 117 154 197 242 287 348
#     4  11  24  40  59  87 121 157 192 241 297 351
#
# _framework density 19.142168999999999
#
# number of rings (size 3 to 8) (size 9 to 14) (size 15 to 20)
#    0.000    1.750    2.500    1.125    1.750    4.500 
#    0.000    0.000    0.000    0.000    0.000    0.000 
#    0.000    0.000    0.000    0.000    0.000    0.000 
#
# Total GULP energy -396929.469093 kJ/mol
# GULP energy per Si atom -12404.045909 kJ/mol
# Density = 1.909860 g / cm^3
# Si number density = 19.142169 Si / 1000 Ang^3
#
#
#
# Elastic Constant Matrix: (Units=GPa)
#
#
# Indices 1 2 3 4 5 6 
#
# 1 115.9077 54.5627 57.2546 0.0000 -9.6891 0.0000
# 2 54.5627 90.2051 59.6305 0.0000 -6.9935 0.0000
# 3 57.2546 59.6305 115.1701 0.0000 -0.7971 0.0000
# 4 0.0000 0.0000 0.0000 33.0580 0.0000 -5.6832
# 5 -9.6891 -6.9935 -0.7971 0.0000 30.9052 0.0000
# 6 0.0000 0.0000 0.0000 -5.6832 0.0000 35.6719
#
#
#
# Elastic Compliance Matrix: (Units=1/GPa)
#
#
# Indices 1 2 3 4 5 6 
#
# 1 0.013233 -0.005240 -0.003846 0.000000 0.002864 0.000000
# 2 -0.005240 0.019338 -0.007389 0.000000 0.002542 0.000000
# 3 -0.003846 -0.007389 0.014403 0.000000 -0.002506 0.000000
# 4 0.000000 0.000000 0.000000 0.031102 0.000000 0.004955
# 5 0.002864 0.002542 -0.002506 0.000000 0.033766 0.000000
# 6 0.000000 0.000000 0.000000 0.004955 0.000000 0.028823
#
#
# Mechanical properties :
#
#
# Convention : Reuss Voigt Hill
#
# Bulk Modulus (GPa) = 71.31026 73.79760 72.55393
# Shear Modulus (GPa) = 28.04428 29.91605 28.98016
#
# Velocity S-wave (km/s) = 3.83175 3.95756 3.89516
# Velocity P-wave (km/s) = 7.54389 7.71486 7.62986
#
# Compressibility (1/GPa) = 0.01402323
#
# Stress axis : x y z
#
# Youngs Moduli (GPa) = 75.56616 51.71294 69.42875
#
# Poissons Ratio (x) = 0.27099 0.26700
# Poissons Ratio (y) = 0.39599 0.51304
# Poissons Ratio (z) = 0.29060 0.38213
#
# Static dielectric constant tensor:
#      x y z
#    x 3.531450 0.000000 0.058720 
#    y 0.000000 3.509220 0.000000 
#    z 0.058720 0.000000 3.619560 
# 
# 
# High freq. dielectric constant tensor:
#      x y z
#    x 1.749180 0.000000 -0.000530 
#    y 0.000000 1.744230 0.000000 
#    z -0.000530 0.000000 1.750040 
# 
# From -- ./inp_files/49339.got.cif
#   From: 2010.06.25/outbox.cif.g09.slc.cpg/sg11_25_cif.got.tgz:49339.got - 2010.06.27 23:14:04.
