data_PCOD8075603
_publ_section_title
;
Structure prediction by ZEFSAII (Michael W. Deem and Ramdas Pophale) SiO2 
 PCOD8075603
Probable space group: P 21/M
;
_chemical_formula_sum "Si O2"
_cell_formula_units_Z 32
_cell_length_a 12.023652
_cell_length_b 17.409580
_cell_length_c 15.054146
_cell_angle_alpha 90.000000
_cell_angle_beta 149.974081
_cell_angle_gamma 90.000000
_cell_volume 1576.851972
_symmetry_space_group_name_H-M "P 21/M"
_symmetry_group_IT_number 11
_symmetry_cell_setting 'monoclinic'
loop_
_space_group_symop_operation_xyz
x,y,z
-x,1/2+y,-z
-x,-y,-z
x,1/2-y,z
loop_
_atom_site_type_symbol
_atom_site_label
_atom_site_fract_x
_atom_site_fract_y
_atom_site_fract_z
Si Si1 0.272905 0.336758 0.172414
Si Si2 0.492739 0.509104 0.598936
Si Si3 0.628776 0.833056 0.137250
Si Si4 0.951269 0.979719 0.608732
Si Si5 0.037398 0.619827 0.514738
Si Si6 0.539426 0.876189 0.878726
Si Si7 0.317416 0.958224 0.001935
Si Si8 0.871220 0.427205 0.946396
O O1 0.329460 0.250000 0.246683
O O2 0.425914 0.404090 0.320846
O O3 0.309512 0.336738 0.091777
O O4 0.011486 0.352549 0.013081
O O5 0.500000 0.500000 0.500000
O O6 0.243323 0.494194 0.456625
O O7 0.628459 0.437545 0.735478
O O8 0.511169 0.750000 0.061661
O O9 0.873071 0.822748 0.349945
O O10 0.648790 0.856465 0.048390
O O11 0.493102 0.893007 0.101365
O O12 0.942031 0.899488 0.547630
O O13 0.183587 0.981144 0.821783
O O14 0.953161 0.044942 0.538038
O O15 0.286080 0.654292 0.696506
O O16 0.544394 0.968442 0.866851
O O17 0.149425 0.927487 0.961202
O O18 0.000000 0.500000 0.000000
#
# Coordination Sequence:
#
# PCOD8075603 Si02
#       8
#     4   4   4   4   4   4   4   4
#     4  11  24  42  65  94 130 168 211 271 338 386
#     4  11  22  38  65  97 127 165 217 270 318 391
#     4  12  27  41  60  96 135 174 213 265 334 388
#     4  11  20  37  65  98 117 163 221 264 314 374
#     4  11  22  38  63  91 127 165 214 266 310 382
#     4  12  22  44  67  95 129 172 220 266 320 392
#     4  12  21  41  71  91 125 167 222 268 315 394
#     4  10  20  40  64  91 119 164 217 260 317 389
#
# _framework density 20.293596000000001
#
# number of rings (size 3 to 8) (size 9 to 14) (size 15 to 20)
#    0.000    0.750    6.250    4.500    0.000    1.500 
#    0.000    0.625    0.000    3.000    0.000    0.000 
#    0.000    0.000    0.000    0.000    0.000    0.000 
#
# Total GULP energy -396666.632102 kJ/mol
# GULP energy per Si atom -12395.832253 kJ/mol
# Density = 2.024741 g / cm^3
# Si number density = 20.293596 Si / 1000 Ang^3
#
#
#
# Elastic Constant Matrix: (Units=GPa)
#
#
# Indices 1 2 3 4 5 6 
#
# 1 99.9302 16.2934 21.9251 0.0000 -2.1808 0.0000
# 2 16.2934 84.6050 20.8389 0.0000 10.4121 0.0000
# 3 21.9251 20.8389 96.4273 0.0000 0.3538 0.0000
# 4 0.0000 0.0000 0.0000 12.4054 0.0000 0.3924
# 5 -2.1808 10.4121 0.3538 0.0000 34.0039 0.0000
# 6 0.0000 0.0000 0.0000 0.3924 0.0000 12.1980
#
#
#
# Elastic Compliance Matrix: (Units=1/GPa)
#
#
# Indices 1 2 3 4 5 6 
#
# 1 0.010770 -0.001713 -0.002083 0.000000 0.001237 0.000000
# 2 -0.001713 0.013266 -0.002462 0.000000 -0.004146 0.000000
# 3 -0.002083 -0.002462 0.011374 0.000000 0.000502 0.000000
# 4 0.000000 0.000000 0.000000 0.080692 0.000000 -0.002596
# 5 0.001237 -0.004146 0.000502 0.000000 0.030752 0.000000
# 6 0.000000 0.000000 0.000000 -0.002596 0.000000 0.082064
#
#
# Mechanical properties :
#
#
# Convention : Reuss Voigt Hill
#
# Bulk Modulus (GPa) = 43.68007 44.34194 44.01101
# Shear Modulus (GPa) = 20.07478 26.51512 23.29495
#
# Velocity S-wave (km/s) = 3.14859 3.61858 3.39174
# Velocity P-wave (km/s) = 5.89822 6.27347 6.08874
#
# Compressibility (1/GPa) = 0.02289374
#
# Stress axis : x y z
#
# Youngs Moduli (GPa) = 92.84712 75.37867 87.91645
#
# Poissons Ratio (x) = 0.12915 0.18315
# Poissons Ratio (y) = 0.15908 0.21647
# Poissons Ratio (z) = 0.19342 0.18560
#
# Static dielectric constant tensor:
#      x y z
#    x 4.016250 0.000000 0.218460 
#    y 0.000000 3.679880 0.000000 
#    z 0.218460 0.000000 4.196640 
# 
# 
# High freq. dielectric constant tensor:
#      x y z
#    x 1.806590 0.000000 -0.002080 
#    y 0.000000 1.767640 0.000000 
#    z -0.002080 0.000000 1.795400 
# 
# From -- ./inp_files/50731.got.cif
#   From: 2010.06.25/outbox.cif.g09.slc.cpg/sg11_26_cif.got.tgz:50731.got - 2010.06.27 23:14:04.
