data_PCOD8075406
_publ_section_title
;
Structure prediction by ZEFSAII (Michael W. Deem and Ramdas Pophale) SiO2 
 PCOD8075406
Probable space group: P 21/M
;
_chemical_formula_sum "Si O2"
_cell_formula_units_Z 24
_cell_length_a 15.402879
_cell_length_b 8.753863
_cell_length_c 9.212350
_cell_angle_alpha 90.000000
_cell_angle_beta 89.989018
_cell_angle_gamma 90.000000
_cell_volume 1242.144357
_symmetry_space_group_name_H-M "P 21/M"
_symmetry_group_IT_number 11
_symmetry_cell_setting 'monoclinic'
loop_
_space_group_symop_operation_xyz
x,y,z
-x,1/2+y,-z
-x,-y,-z
x,1/2-y,z
loop_
_atom_site_type_symbol
_atom_site_label
_atom_site_fract_x
_atom_site_fract_y
_atom_site_fract_z
Si Si1 0.576479 0.068961 0.093792
Si Si2 0.262195 0.930272 0.420534
Si Si3 0.420738 0.068842 0.588468
Si Si4 0.081175 0.427687 0.420768
Si Si5 0.921253 0.924790 0.918065
Si Si6 0.256203 0.928048 0.088619
O O1 0.565383 0.250000 0.107270
O O2 0.575200 0.993195 0.249745
O O3 0.665681 0.023600 0.015113
O O4 0.500000 0.000000 0.000000
O O5 0.272891 0.750000 0.445293
O O6 0.278039 0.978269 0.253302
O O7 0.330813 0.019818 0.516984
O O8 0.167128 0.983177 0.472166
O O9 0.429217 0.250000 0.590050
O O10 0.500000 0.000000 0.500000
O O11 0.090688 0.250000 0.460431
O O12 0.066200 0.453788 0.251418
O O13 0.000000 0.500000 0.500000
O O14 0.920950 0.750000 0.960696
O O15 0.829859 0.991932 0.971765
O O16 0.000000 0.000000 0.000000
O O17 0.237658 0.750000 0.084800
#
# Coordination Sequence:
#
# PCOD8075406 Si02
#       6
#     4   4   4   4   4   4
#     4  11  23  40  62  89 120 154 192 238 288 344
#     4  10  20  38  62  87 115 150 191 239 292 347
#     4  12  25  41  61  87 118 154 195 240 290 347
#     4  10  21  37  57  84 115 152 194 238 288 343
#     4  10  21  36  57  83 113 148 189 234 283 337
#     4   9  20  38  60  84 113 148 188 233 285 340
#
# _framework density 19.321425999999999
#
# number of rings (size 3 to 8) (size 9 to 14) (size 15 to 20)
#    0.000    1.667    0.000    4.500    0.000    6.667 
#    0.000    1.667    0.000    0.000    0.000    0.000 
#    0.000    0.000    0.000    0.000    0.000    0.000 
#
# Total GULP energy -297710.571865 kJ/mol
# GULP energy per Si atom -12404.607161 kJ/mol
# Density = 1.927745 g / cm^3
# Si number density = 19.321426 Si / 1000 Ang^3
#
#
#
# Elastic Constant Matrix: (Units=GPa)
#
#
# Indices 1 2 3 4 5 6 
#
# 1 182.2520 88.0743 95.4285 0.0000 2.2518 0.0000
# 2 88.0743 112.3937 66.8474 0.0000 -2.4524 0.0000
# 3 95.4285 66.8474 118.2375 0.0000 -0.0579 0.0000
# 4 0.0000 0.0000 0.0000 34.5683 0.0000 2.9594
# 5 2.2518 -2.4524 -0.0579 0.0000 39.8052 0.0000
# 6 0.0000 0.0000 0.0000 2.9594 0.0000 43.0816
#
#
#
# Elastic Compliance Matrix: (Units=1/GPa)
#
#
# Indices 1 2 3 4 5 6 
#
# 1 0.011194 -0.005151 -0.006123 0.000000 -0.000960 0.000000
# 2 -0.005151 0.015802 -0.004776 0.000000 0.001258 0.000000
# 3 -0.006123 -0.004776 0.016099 0.000000 0.000076 0.000000
# 4 0.000000 0.000000 0.000000 0.029099 0.000000 -0.001999
# 5 -0.000960 0.001258 0.000076 0.000000 0.025254 0.000000
# 6 0.000000 0.000000 0.000000 -0.001999 0.000000 0.023349
#
#
# Mechanical properties :
#
#
# Convention : Reuss Voigt Hill
#
# Bulk Modulus (GPa) = 90.94438 101.50930 96.22684
# Shear Modulus (GPa) = 31.93620 34.32655 33.13138
#
# Velocity S-wave (km/s) = 4.06999 4.21955 4.14544
# Velocity P-wave (km/s) = 8.32212 8.74018 8.53371
#
# Compressibility (1/GPa) = 0.01099573
#
# Stress axis : x y z
#
# Youngs Moduli (GPa) = 89.33303 63.28411 62.11508
#
# Poissons Ratio (x) = 0.32600 0.38031
# Poissons Ratio (y) = 0.46018 0.29664
# Poissons Ratio (z) = 0.54696 0.30222
#
# Static dielectric constant tensor:
#      x y z
#    x 3.754370 0.000000 -0.055930 
#    y 0.000000 3.793360 0.000000 
#    z -0.055930 0.000000 3.554290 
# 
# 
# High freq. dielectric constant tensor:
#      x y z
#    x 1.770160 0.000000 0.000300 
#    y 0.000000 1.767000 0.000000 
#    z 0.000300 0.000000 1.752170 
# 
# From -- ./inp_files/20554.got.cif
#   From: 2010.06.25/outbox.cif.g09.slc.cpg/sg11_11_cif.got.tgz:20554.got - 2010.06.27 23:14:04.
