data_PCOD8075491
_publ_section_title
;
Structure prediction by ZEFSAII (Michael W. Deem and Ramdas Pophale) SiO2 
 PCOD8075491
Probable space group: P 21/M
;
_chemical_formula_sum "Si O2"
_cell_formula_units_Z 28
_cell_length_a 8.948690
_cell_length_b 27.142257
_cell_length_c 9.429564
_cell_angle_alpha 90.000000
_cell_angle_beta 147.151266
_cell_angle_gamma 90.000000
_cell_volume 1242.324671
_symmetry_space_group_name_H-M "P 21/M"
_symmetry_group_IT_number 11
_symmetry_cell_setting 'monoclinic'
loop_
_space_group_symop_operation_xyz
x,y,z
-x,1/2+y,-z
-x,-y,-z
x,1/2-y,z
loop_
_atom_site_type_symbol
_atom_site_label
_atom_site_fract_x
_atom_site_fract_y
_atom_site_fract_z
Si Si1 0.475853 0.425444 0.049671
Si Si2 0.300099 0.353263 0.430507
Si Si3 0.466037 0.496725 0.271931
Si Si4 0.894693 0.927714 0.518922
Si Si5 0.085638 0.250000 0.962756
Si Si6 0.543635 0.750000 0.471678
Si Si7 0.195090 0.143454 0.014852
Si Si8 0.273943 0.925989 0.306971
O O1 0.364097 0.475080 0.040304
O O2 0.793667 0.438633 0.274609
O O3 0.298040 0.415479 0.768890
O O4 0.458733 0.376101 0.136070
O O5 0.083670 0.380292 0.359916
O O6 0.344018 0.297771 0.521297
O O7 0.589133 0.381542 0.671491
O O8 0.216232 0.352697 0.199882
O O9 0.754410 0.526675 0.489809
O O10 0.518693 0.448915 0.411970
O O11 0.224589 0.531031 0.148518
O O12 0.110424 0.198608 0.891830
O O13 0.786805 0.250000 0.796786
O O14 0.341305 0.250000 0.275996
O O15 0.983142 0.098020 0.816632
#
# Coordination Sequence:
#
# PCOD8075491 Si02
#       8
#     4   4   4   4   2   2   4   4
#     4  12  25  44  62  93 133 176 211 265 318 384
#     4  10  22  42  65  98 123 167 215 269 322 384
#     4  10  22  41  63  95 130 176 222 263 322 378
#     4  11  27  42  64  91 136 173 217 258 322 382
#     4  10  22  38  68 102 122 160 209 273 326 384
#     4  10  20  38  70  98 126 154 215 271 328 376
#     4  11  23  41  71  92 131 163 220 268 329 381
#     4  10  20  39  65  98 126 165 218 279 311 376
#
# _framework density 22.53839
#
# number of rings (size 3 to 8) (size 9 to 14) (size 15 to 20)
#    0.000    1.429    2.857    1.714    4.000    1.714 
#    2.571    1.429    0.000    0.000    0.000    0.000 
#    0.000    0.000    0.000    0.000    0.000    0.000 
#
# Total GULP energy -346915.756160 kJ/mol
# GULP energy per Si atom -12389.848434 kJ/mol
# Density = 2.248709 g / cm^3
# Si number density = 22.538390 Si / 1000 Ang^3
#
#
#
# Elastic Constant Matrix: (Units=GPa)
#
#
# Indices 1 2 3 4 5 6 
#
# 1 60.4706 44.0462 15.5644 0.0000 -7.9702 0.0000
# 2 44.0462 161.4700 12.4037 0.0000 1.3429 0.0000
# 3 15.5644 12.4037 65.8372 0.0000 -2.3600 0.0000
# 4 0.0000 0.0000 0.0000 25.1086 0.0000 3.1687
# 5 -7.9702 1.3429 -2.3600 0.0000 29.8940 0.0000
# 6 0.0000 0.0000 0.0000 3.1687 0.0000 25.7736
#
#
#
# Elastic Compliance Matrix: (Units=1/GPa)
#
#
# Indices 1 2 3 4 5 6 
#
# 1 0.022682 -0.005928 -0.004031 0.000000 0.005995 0.000000
# 2 -0.005928 0.007837 -0.000145 0.000000 -0.001944 0.000000
# 3 -0.004031 -0.000145 0.016177 0.000000 0.000209 0.000000
# 4 0.000000 0.000000 0.000000 0.040455 0.000000 -0.004974
# 5 0.005995 -0.001944 0.000209 0.000000 0.035154 0.000000
# 6 0.000000 0.000000 0.000000 -0.004974 0.000000 0.039411
#
#
# Mechanical properties :
#
#
# Convention : Reuss Voigt Hill
#
# Bulk Modulus (GPa) = 37.75000 47.97849 42.86425
# Shear Modulus (GPa) = 26.21208 30.53945 28.37576
#
# Velocity S-wave (km/s) = 3.41397 3.68502 3.55208
# Velocity P-wave (km/s) = 5.68558 6.28009 5.99022
#
# Compressibility (1/GPa) = 0.02649007
#
# Stress axis : x y z
#
# Youngs Moduli (GPa) = 44.08744 127.59444 61.81754
#
# Poissons Ratio (x) = 0.75632 0.24916
# Poissons Ratio (y) = 0.26133 0.00896
# Poissons Ratio (z) = 0.17770 0.01849
#
# Static dielectric constant tensor:
#      x y z
#    x 4.171360 0.000000 -0.050640 
#    y 0.000000 4.724780 0.000000 
#    z -0.050640 0.000000 3.735090 
# 
# 
# High freq. dielectric constant tensor:
#      x y z
#    x 1.873610 0.000000 0.004780 
#    y 0.000000 1.905310 0.000000 
#    z 0.004780 0.000000 1.865850 
# 
# From -- ./inp_files/15306.got.cif
#   From: 2010.06.25/outbox.cif.g09.slc.cpg/sg11_8_cif.got.tgz:15306.got - 2010.06.27 23:14:04.
