data_PCOD8075197
_publ_section_title
;
Structure prediction by ZEFSAII (Michael W. Deem and Ramdas Pophale) SiO2 
 PCOD8075197
Probable space group: P 21/M
;
_chemical_formula_sum "Si O2"
_cell_formula_units_Z 24
_cell_length_a 23.803010
_cell_length_b 8.753546
_cell_length_c 11.570571
_cell_angle_alpha 90.000000
_cell_angle_beta 150.008584
_cell_angle_gamma 90.000000
_cell_volume 1205.113570
_symmetry_space_group_name_H-M "P 21/M"
_symmetry_group_IT_number 11
_symmetry_cell_setting 'monoclinic'
loop_
_space_group_symop_operation_xyz
x,y,z
-x,1/2+y,-z
-x,-y,-z
x,1/2-y,z
loop_
_atom_site_type_symbol
_atom_site_label
_atom_site_fract_x
_atom_site_fract_y
_atom_site_fract_z
Si Si1 0.401541 0.569991 0.250247
Si Si2 0.552727 0.073165 0.931014
Si Si3 0.039581 0.429038 0.392314
Si Si4 0.904868 0.429583 0.750962
Si Si5 0.163719 0.429300 0.847602
Si Si6 0.675145 0.926623 0.354714
O O1 0.500000 0.500000 0.500000
O O2 0.395156 0.750000 0.257725
O O3 0.424727 0.526542 0.159492
O O4 0.286907 0.493963 0.087976
O O5 0.580033 0.250000 0.004912
O O6 0.422627 0.037472 0.727364
O O7 0.634311 0.971105 0.154007
O O8 0.032666 0.250000 0.356030
O O9 0.087368 0.511938 0.365725
O O10 0.123424 0.469339 0.646502
O O11 0.915850 0.490398 0.200528
O O12 0.918348 0.250000 0.777267
O O13 0.783603 0.476568 0.585514
O O14 0.000000 0.500000 0.000000
O O15 0.161358 0.250000 0.867050
O O16 0.709151 0.750000 0.414327
#
# Coordination Sequence:
#
# PCOD8075197 Si02
#       6
#     4   4   4   4   4   4
#     4  11  23  38  56  81 116 154 193 237 287 343
#     4   9  20  38  60  85 113 148 189 235 285 337
#     4  10  21  39  63  89 115 148 192 238 286 341
#     4  12  25  40  58  83 118 156 194 237 288 344
#     4  10  21  38  61  88 117 150 190 237 288 343
#     4  10  20  37  61  87 114 146 189 238 286 339
#
# _framework density 19.915134999999999
#
# number of rings (size 3 to 8) (size 9 to 14) (size 15 to 20)
#    0.000    1.667    0.000    4.500    0.000    8.000 
#    0.000    5.000    0.000    0.000    0.000    0.000 
#    0.000    0.000    0.000    0.000    0.000    0.000 
#
# Total GULP energy -297753.269997 kJ/mol
# GULP energy per Si atom -12406.386250 kJ/mol
# Density = 1.986981 g / cm^3
# Si number density = 19.915135 Si / 1000 Ang^3
#
#
#
# Elastic Constant Matrix: (Units=GPa)
#
#
# Indices 1 2 3 4 5 6 
#
# 1 39.4983 16.8583 16.4655 0.0000 17.1139 0.0000
# 2 16.8583 101.1314 38.0581 0.0000 9.1792 0.0000
# 3 16.4655 38.0581 109.3609 0.0000 30.2602 0.0000
# 4 0.0000 0.0000 0.0000 39.9948 0.0000 2.5627
# 5 17.1139 9.1792 30.2602 0.0000 26.3295 0.0000
# 6 0.0000 0.0000 0.0000 2.5627 0.0000 33.6932
#
#
#
# Elastic Compliance Matrix: (Units=1/GPa)
#
#
# Indices 1 2 3 4 5 6 
#
# 1 0.037627 -0.005175 0.003525 0.000000 -0.026704 0.000000
# 2 -0.005175 0.012103 -0.004686 0.000000 0.004530 0.000000
# 3 0.003525 -0.004686 0.015288 0.000000 -0.018227 0.000000
# 4 0.000000 0.000000 0.000000 0.025126 0.000000 -0.001911
# 5 -0.026704 0.004530 -0.018227 0.000000 0.074707 0.000000
# 6 0.000000 0.000000 0.000000 -0.001911 0.000000 0.029825
#
#
# Mechanical properties :
#
#
# Convention : Reuss Voigt Hill
#
# Bulk Modulus (GPa) = 19.10398 43.63939 31.37169
# Shear Modulus (GPa) = 22.24229 31.91072 27.07650
#
# Velocity S-wave (km/s) = 3.34556 4.00726 3.69127
# Velocity P-wave (km/s) = 4.95351 6.58567 5.82702
#
# Compressibility (1/GPa) = 0.05234511
#
# Stress axis : x y z
#
# Youngs Moduli (GPa) = 26.57640 82.62306 65.41223
#
# Poissons Ratio (x) = 0.42758 -0.23056
# Poissons Ratio (y) = 0.13753 0.30654
# Poissons Ratio (z) = -0.09367 0.38719
#
# Static dielectric constant tensor:
#      x y z
#    x 3.689810 0.000000 0.137360 
#    y 0.000000 3.724050 0.000000 
#    z 0.137360 0.000000 3.621480 
# 
# 
# High freq. dielectric constant tensor:
#      x y z
#    x 1.781070 0.000000 0.013700 
#    y 0.000000 1.789450 0.000000 
#    z 0.013700 0.000000 1.779970 
# 
# From -- ./inp_files/44019.got.cif
#   From: 2010.06.25/outbox.cif.g09.slc.cpg/sg11_23_cif.got.tgz:44019.got - 2010.06.27 23:14:04.
