data_PCOD8075982
_publ_section_title
;
Structure prediction by ZEFSAII (Michael W. Deem and Ramdas Pophale) SiO2 
 PCOD8075982
Probable space group: P 21/M
;
_chemical_formula_sum "Si O2"
_cell_formula_units_Z 24
_cell_length_a 9.537743
_cell_length_b 17.490736
_cell_length_c 12.048740
_cell_angle_alpha 90.000000
_cell_angle_beta 38.589667
_cell_angle_gamma 90.000000
_cell_volume 1253.712583
_symmetry_space_group_name_H-M "P 21/M"
_symmetry_group_IT_number 11
_symmetry_cell_setting 'monoclinic'
loop_
_space_group_symop_operation_xyz
x,y,z
-x,1/2+y,-z
-x,-y,-z
x,1/2-y,z
loop_
_atom_site_type_symbol
_atom_site_label
_atom_site_fract_x
_atom_site_fract_y
_atom_site_fract_z
Si Si1 0.529801 0.161038 0.662515
Si Si2 0.787507 0.915953 0.721471
Si Si3 0.027501 0.159588 0.959567
Si Si4 0.198121 0.906717 0.312838
Si Si5 0.942520 0.160904 0.257935
Si Si6 0.314635 0.839499 0.011546
O O1 0.530750 0.250000 0.695742
O O2 0.605198 0.113358 0.722830
O O3 0.693537 0.144984 0.458011
O O4 0.283099 0.132895 0.778906
O O5 0.545184 0.882716 0.843815
O O6 0.955954 0.891564 0.518553
O O7 0.870721 0.883456 0.787255
O O8 0.772099 0.006541 0.743386
O O9 0.013080 0.250000 0.964842
O O10 0.947800 0.129797 0.129257
O O11 0.865880 0.126485 0.964339
O O12 0.218311 0.853052 0.193712
O O13 0.006143 0.250000 0.224836
O O14 0.356184 0.750000 0.968501
#
# Coordination Sequence:
#
# PCOD8075982 Si02
#       6
#     4   4   4   4   4   4
#     4   9  17  32  54  75  98 135 179 217 257 311
#     4  10  21  37  56  79 108 141 178 220 264 312
#     4   9  19  33  50  76 106 135 170 215 264 310
#     4  10  21  37  56  79 108 141 178 220 264 312
#     4   9  17  32  54  75  98 135 179 217 257 311
#     4  11  22  35  55  82 109 137 172 219 270 314
#
# _framework density 19.143142999999998
#
# number of rings (size 3 to 8) (size 9 to 14) (size 15 to 20)
#    0.000    2.333    0.000    2.500    0.000    4.667 
#    0.000    6.667    0.000    6.000    0.000    0.000 
#    0.000    0.000    0.000    0.000    0.000    0.000 
#
# Total GULP energy -297662.045214 kJ/mol
# GULP energy per Si atom -12402.585217 kJ/mol
# Density = 1.909957 g / cm^3
# Si number density = 19.143143 Si / 1000 Ang^3
#
#
#
# Elastic Constant Matrix: (Units=GPa)
#
#
# Indices 1 2 3 4 5 6 
#
# 1 122.9056 15.5269 63.4939 0.0000 -26.9920 0.0000
# 2 15.5269 30.3386 13.9942 0.0000 -6.7949 0.0000
# 3 63.4939 13.9942 103.0876 0.0000 -19.9363 0.0000
# 4 0.0000 0.0000 0.0000 19.5835 0.0000 -3.7661
# 5 -26.9920 -6.7949 -19.9363 0.0000 23.7539 0.0000
# 6 0.0000 0.0000 0.0000 -3.7661 0.0000 3.5422
#
#
#
# Elastic Compliance Matrix: (Units=1/GPa)
#
#
# Indices 1 2 3 4 5 6 
#
# 1 0.013817 -0.001945 -0.006348 0.000000 0.009817 0.000000
# 2 -0.001945 0.036507 -0.002585 0.000000 0.006063 0.000000
# 3 -0.006348 -0.002585 0.014830 0.000000 0.004494 0.000000
# 4 0.000000 0.000000 0.000000 0.064188 0.000000 0.068247
# 5 0.009817 0.006063 0.004494 0.000000 0.058760 0.000000
# 6 0.000000 0.000000 0.000000 0.068247 0.000000 0.354877
#
#
# Mechanical properties :
#
#
# Convention : Reuss Voigt Hill
#
# Bulk Modulus (GPa) = 23.04218 49.15132 36.09675
# Shear Modulus (GPa) = 8.63255 20.26368 14.44812
#
# Velocity S-wave (km/s) = 2.12586 3.25704 2.75024
# Velocity P-wave (km/s) = 4.25307 6.31473 5.38351
#
# Compressibility (1/GPa) = 0.04339867
#
# Stress axis : x y z
#
# Youngs Moduli (GPa) = 72.37291 27.39183 67.42908
#
# Poissons Ratio (x) = 0.05327 0.42803
# Poissons Ratio (y) = 0.14075 0.17434
# Poissons Ratio (z) = 0.45941 0.07082
#
# Static dielectric constant tensor:
#      x y z
#    x 3.631740 0.000000 -0.030560 
#    y 0.000000 3.320710 0.000000 
#    z -0.030560 0.000000 3.653330 
# 
# 
# High freq. dielectric constant tensor:
#      x y z
#    x 1.743090 0.000000 -0.002430 
#    y 0.000000 1.725460 0.000000 
#    z -0.002430 0.000000 1.759280 
# 
# From -- ./inp_files/32598.got.cif
#   From: 2010.06.25/outbox.cif.g09.slc.cpg/sg11_17_cif.got.tgz:32598.got - 2010.06.27 23:14:04.
