data_PCOD8075060
_publ_section_title
;
Structure prediction by ZEFSAII (Michael W. Deem and Ramdas Pophale) SiO2 
 PCOD8075060
Probable space group: P 21/M
;
_chemical_formula_sum "Si O2"
_cell_formula_units_Z 28
_cell_length_a 9.578784
_cell_length_b 8.539149
_cell_length_c 25.693396
_cell_angle_alpha 90.000000
_cell_angle_beta 137.362227
_cell_angle_gamma 90.000000
_cell_volume 1423.530370
_symmetry_space_group_name_H-M "P 21/M"
_symmetry_group_IT_number 11
_symmetry_cell_setting 'monoclinic'
loop_
_space_group_symop_operation_xyz
x,y,z
-x,1/2+y,-z
-x,-y,-z
x,1/2-y,z
loop_
_atom_site_type_symbol
_atom_site_label
_atom_site_fract_x
_atom_site_fract_y
_atom_site_fract_z
Si Si1 0.518482 0.932195 0.926584
Si Si2 0.738829 0.569191 0.786917
Si Si3 0.119220 0.935992 0.644712
Si Si4 0.490260 0.067044 0.808648
Si Si5 0.680751 0.064552 0.513969
Si Si6 0.629443 0.066798 0.384420
Si Si7 0.173023 0.069996 0.899026
O O1 0.461730 0.750000 0.914213
O O2 0.569812 0.984914 0.882686
O O3 0.325010 0.031863 0.893434
O O4 0.718394 0.969392 0.016392
O O5 0.703595 0.750000 0.792563
O O6 0.669146 0.461929 0.815763
O O7 0.600304 0.526795 0.698608
O O8 0.974382 0.538265 0.837919
O O9 0.102778 0.750000 0.641653
O O10 0.203430 0.997407 0.611654
O O11 0.274890 0.990672 0.732227
O O12 0.899158 0.011219 0.596909
O O13 0.459057 0.250000 0.809168
O O14 0.665319 0.250000 0.509199
O O15 0.659808 0.991887 0.449833
O O16 0.500000 0.000000 0.500000
O O17 0.663252 0.250000 0.398630
O O18 0.105814 0.250000 0.877274
#
# Coordination Sequence:
#
# PCOD8075060 Si02
#       7
#     4   4   4   4   4   4   4
#     4  10  21  38  58  80 111 151 189 228 278 334
#     4  10  20  37  59  83 111 146 187 231 282 334
#     4  10  20  38  60  82 108 142 183 227 280 337
#     4  11  22  37  58  85 113 143 184 233 281 332
#     4  11  22  37  55  81 114 147 185 228 274 325
#     4   8  18  36  58  80 106 142 183 224 269 325
#     4  10  21  37  57  83 113 147 189 233 277 328
#
# _framework density 19.669408000000001
#
# number of rings (size 3 to 8) (size 9 to 14) (size 15 to 20)
#    0.000    2.000    0.000    4.714    0.000    3.429 
#    0.000   12.143    0.000    0.000    0.000    0.000 
#    0.000    0.000    0.000    0.000    0.000    0.000 
#
# Total GULP energy -347285.394897 kJ/mol
# GULP energy per Si atom -12403.049818 kJ/mol
# Density = 1.962464 g / cm^3
# Si number density = 19.669408 Si / 1000 Ang^3
#
#
#
# Elastic Constant Matrix: (Units=GPa)
#
#
# Indices 1 2 3 4 5 6 
#
# 1 49.2470 15.7160 23.1847 0.0000 11.6608 0.0000
# 2 15.7160 62.7775 24.5005 0.0000 3.7804 0.0000
# 3 23.1847 24.5005 60.2627 0.0000 15.8680 0.0000
# 4 0.0000 0.0000 0.0000 30.6478 0.0000 4.2187
# 5 11.6608 3.7804 15.8680 0.0000 38.0443 0.0000
# 6 0.0000 0.0000 0.0000 4.2187 0.0000 33.3646
#
#
#
# Elastic Compliance Matrix: (Units=1/GPa)
#
#
# Indices 1 2 3 4 5 6 
#
# 1 0.025937 -0.003317 -0.007441 0.000000 -0.004517 0.000000
# 2 -0.003317 0.019434 -0.007172 0.000000 0.002077 0.000000
# 3 -0.007441 -0.007172 0.024247 0.000000 -0.007120 0.000000
# 4 0.000000 0.000000 0.000000 0.033207 0.000000 -0.004199
# 5 -0.004517 0.002077 -0.007120 0.000000 0.030433 0.000000
# 6 0.000000 0.000000 0.000000 -0.004199 0.000000 0.030503
#
#
# Mechanical properties :
#
#
# Convention : Reuss Voigt Hill
#
# Bulk Modulus (GPa) = 29.62208 33.23218 31.42713
# Shear Modulus (GPa) = 23.71113 27.67043 25.69078
#
# Velocity S-wave (km/s) = 3.47577 3.75477 3.61796
# Velocity P-wave (km/s) = 5.58576 5.97744 5.78491
#
# Compressibility (1/GPa) = 0.03375860
#
# Stress axis : x y z
#
# Youngs Moduli (GPa) = 38.55524 51.45745 41.24206
#
# Poissons Ratio (x) = 0.17070 0.30687
# Poissons Ratio (y) = 0.12790 0.29577
# Poissons Ratio (z) = 0.28687 0.36903
#
# Static dielectric constant tensor:
#      x y z
#    x 3.533190 0.000000 -0.153090 
#    y 0.000000 3.480290 0.000000 
#    z -0.153090 0.000000 3.636590 
# 
# 
# High freq. dielectric constant tensor:
#      x y z
#    x 1.760740 0.000000 -0.000100 
#    y 0.000000 1.765790 0.000000 
#    z -0.000100 0.000000 1.772530 
# 
# From -- ./inp_files/70918.got.cif
#   From: 2010.06.25/outbox.cif.g09.slc.cpg/sg11_36_cif.got.tgz:70918.got - 2010.06.27 23:14:04.
