data_PCOD8075213
_publ_section_title
;
Structure prediction by ZEFSAII (Michael W. Deem and Ramdas Pophale) SiO2 
 PCOD8075213
Probable space group: P 21/M
;
_chemical_formula_sum "Si O2"
_cell_formula_units_Z 28
_cell_length_a 9.919965
_cell_length_b 14.401706
_cell_length_c 12.313753
_cell_angle_alpha 90.000000
_cell_angle_beta 127.425746
_cell_angle_gamma 90.000000
_cell_volume 1397.051684
_symmetry_space_group_name_H-M "P 21/M"
_symmetry_group_IT_number 11
_symmetry_cell_setting 'monoclinic'
loop_
_space_group_symop_operation_xyz
x,y,z
-x,1/2+y,-z
-x,-y,-z
x,1/2-y,z
loop_
_atom_site_type_symbol
_atom_site_label
_atom_site_fract_x
_atom_site_fract_y
_atom_site_fract_z
Si Si1 0.432173 0.457449 0.188760
Si Si2 0.680816 0.978578 0.638481
Si Si3 0.216111 0.641186 0.619852
Si Si4 0.876294 0.143998 0.670597
Si Si5 0.738384 0.853857 0.083597
Si Si6 0.133836 0.356972 0.447586
Si Si7 0.584652 0.645821 0.238699
O O1 0.346243 0.426247 0.260015
O O2 0.618159 0.414189 0.261050
O O3 0.443941 0.569541 0.200040
O O4 0.310371 0.427435 0.031938
O O5 0.795393 0.914304 0.618598
O O6 0.500000 0.000000 0.500000
O O7 0.773827 0.077313 0.701597
O O8 0.253841 0.750000 0.648631
O O9 0.171010 0.614358 0.474817
O O10 0.058902 0.612191 0.619959
O O11 0.823262 0.250000 0.668092
O O12 0.073203 0.127158 0.784285
O O13 0.720602 0.750000 0.026640
O O14 0.617894 0.865539 0.127670
O O15 0.138643 0.250000 0.415313
O O16 0.244359 0.373521 0.609711
O O17 0.516624 0.750000 0.230761
#
# Coordination Sequence:
#
# PCOD8075213 Si02
#       7
#     4   4   4   4   4   4   4
#     4  12  24  38  62  95 127 161 199 258 308 360
#     4  12  24  38  58  97 128 160 204 250 311 367
#     4  10  20  37  64  94 119 158 209 256 305 356
#     4  10  21  39  64  88 121 165 209 250 298 368
#     4  10  22  41  63  89 119 159 208 257 309 361
#     4  10  21  38  62  91 126 161 201 257 310 363
#     4  10  20  37  61  88 118 159 208 252 303 359
#
# _framework density 20.042207999999999
#
# number of rings (size 3 to 8) (size 9 to 14) (size 15 to 20)
#    0.000    1.429    4.286    0.857    2.000    4.000 
#    0.000    0.000    0.000    0.000    0.000    0.000 
#    0.000    0.000    0.000    0.000    0.000    0.000 
#
# Total GULP energy -347249.596103 kJ/mol
# GULP energy per Si atom -12401.771289 kJ/mol
# Density = 1.999659 g / cm^3
# Si number density = 20.042208 Si / 1000 Ang^3
#
#
#
# Elastic Constant Matrix: (Units=GPa)
#
#
# Indices 1 2 3 4 5 6 
#
# 1 85.8782 32.8365 7.8162 0.0000 -15.4914 0.0000
# 2 32.8365 79.9454 19.0141 0.0000 -2.9002 0.0000
# 3 7.8162 19.0141 65.4392 0.0000 -12.6089 0.0000
# 4 0.0000 0.0000 0.0000 25.9816 0.0000 2.9337
# 5 -15.4914 -2.9002 -12.6089 0.0000 23.6302 0.0000
# 6 0.0000 0.0000 0.0000 2.9337 0.0000 31.3894
#
#
#
# Elastic Compliance Matrix: (Units=1/GPa)
#
#
# Indices 1 2 3 4 5 6 
#
# 1 0.015938 -0.006656 0.002102 0.000000 0.010753 0.000000
# 2 -0.006656 0.016222 -0.004877 0.000000 -0.004975 0.000000
# 3 0.002102 -0.004877 0.018500 0.000000 0.010651 0.000000
# 4 0.000000 0.000000 0.000000 0.038899 0.000000 -0.003636
# 5 0.010753 -0.004975 0.010651 0.000000 0.054441 0.000000
# 6 0.000000 0.000000 0.000000 -0.003636 0.000000 0.032198
#
#
# Mechanical properties :
#
#
# Convention : Reuss Voigt Hill
#
# Bulk Modulus (GPa) = 31.44888 38.95516 35.20202
# Shear Modulus (GPa) = 24.31218 27.63998 25.97608
#
# Velocity S-wave (km/s) = 3.48666 3.71764 3.60400
# Velocity P-wave (km/s) = 5.65106 6.15683 5.90936
#
# Compressibility (1/GPa) = 0.03179763
#
# Stress axis : x y z
#
# Youngs Moduli (GPa) = 62.74351 61.64486 54.05530
#
# Poissons Ratio (x) = 0.41032 -0.11364
# Poissons Ratio (y) = 0.41763 0.26363
# Poissons Ratio (z) = -0.13191 0.30064
#
# Static dielectric constant tensor:
#      x y z
#    x 3.169840 0.000000 0.239040 
#    y 0.000000 3.942210 0.000000 
#    z 0.239040 0.000000 3.248060 
# 
# 
# High freq. dielectric constant tensor:
#      x y z
#    x 1.777150 0.000000 -0.002080 
#    y 0.000000 1.794240 0.000000 
#    z -0.002080 0.000000 1.764870 
# 
# From -- ./inp_files/26947.got.cif
#   From: 2010.06.25/outbox.cif.g09.slc.cpg/sg11_14_cif.got.tgz:26947.got - 2010.06.27 23:14:04.
