data_PCOD8075890
_publ_section_title
;
Structure prediction by ZEFSAII (Michael W. Deem and Ramdas Pophale) SiO2 
 PCOD8075890
Probable space group: P 21/M
;
_chemical_formula_sum "Si O2"
_cell_formula_units_Z 28
_cell_length_a 8.888492
_cell_length_b 14.698756
_cell_length_c 21.314150
_cell_angle_alpha 90.000000
_cell_angle_beta 31.108795
_cell_angle_gamma 90.000000
_cell_volume 1438.750628
_symmetry_space_group_name_H-M "P 21/M"
_symmetry_group_IT_number 11
_symmetry_cell_setting 'monoclinic'
loop_
_space_group_symop_operation_xyz
x,y,z
-x,1/2+y,-z
-x,-y,-z
x,1/2-y,z
loop_
_atom_site_type_symbol
_atom_site_label
_atom_site_fract_x
_atom_site_fract_y
_atom_site_fract_z
Si Si1 0.738663 0.008257 0.859577
Si Si2 0.268205 0.475921 0.755223
Si Si3 0.146125 0.909274 0.422078
Si Si4 0.630411 0.145305 0.790151
Si Si5 0.041026 0.149023 0.936965
Si Si6 0.615756 0.849338 0.671933
Si Si7 0.385154 0.351780 0.190454
O O1 0.687760 0.097142 0.835710
O O2 0.072302 0.016502 0.763471
O O3 0.732810 0.917792 0.820370
O O4 0.500000 0.000000 0.000000
O O5 0.540379 0.404367 0.654006
O O6 0.054386 0.433836 0.883461
O O7 0.387202 0.576176 0.729239
O O8 0.202295 0.904486 0.327147
O O9 0.906878 0.834455 0.525638
O O10 0.000000 0.000000 0.500000
O O11 0.733240 0.250000 0.757616
O O12 0.284910 0.137685 0.903083
O O13 0.075084 0.250000 0.893138
O O14 0.729502 0.139523 0.079971
O O15 0.460078 0.750000 0.729600
O O16 0.739815 0.876968 0.696472
O O17 0.297544 0.250000 0.200534
#
# Coordination Sequence:
#
# PCOD8075890 Si02
#       7
#     4   4   4   4   4   4   4
#     4  12  24  36  55  85 125 161 187 233 303 364
#     4  10  21  36  58  87 117 151 194 238 294 353
#     4   9  18  39  64  86 110 145 197 251 286 338
#     4  10  22  38  59  85 117 156 203 248 293 351
#     4   9  18  35  58  82 109 150 200 250 293 340
#     4  10  21  38  63  87 111 150 197 246 297 346
#     4  10  21  37  57  83 116 153 198 246 295 355
#
# _framework density 19.461328999999999
#
# number of rings (size 3 to 8) (size 9 to 14) (size 15 to 20)
#    0.000    2.000    1.429    3.000    2.000    3.429 
#    0.000    6.429    0.000    3.429    0.000    0.000 
#    0.000    0.000    0.000    0.000    0.000    0.000 
#
# Total GULP energy -346893.612904 kJ/mol
# GULP energy per Si atom -12389.057604 kJ/mol
# Density = 1.941703 g / cm^3
# Si number density = 19.461329 Si / 1000 Ang^3
#
#
#
# Elastic Constant Matrix: (Units=GPa)
#
#
# Indices 1 2 3 4 5 6 
#
# 1 132.4480 56.5067 41.5521 0.0000 0.2725 0.0000
# 2 56.5067 110.5987 22.2629 0.0000 4.0182 0.0000
# 3 41.5521 22.2629 79.1321 0.0000 11.4244 0.0000
# 4 0.0000 0.0000 0.0000 26.1053 0.0000 5.2673
# 5 0.2725 4.0182 11.4244 0.0000 24.5324 0.0000
# 6 0.0000 0.0000 0.0000 5.2673 0.0000 25.2476
#
#
#
# Elastic Compliance Matrix: (Units=1/GPa)
#
#
# Indices 1 2 3 4 5 6 
#
# 1 0.011140 -0.004808 -0.004924 0.000000 0.002957 0.000000
# 2 -0.004808 0.011662 -0.000524 0.000000 -0.001613 0.000000
# 3 -0.004924 -0.000524 0.016456 0.000000 -0.007523 0.000000
# 4 0.000000 0.000000 0.000000 0.039990 0.000000 -0.008343
# 5 0.002957 -0.001613 -0.007523 0.000000 0.044497 0.000000
# 6 0.000000 0.000000 0.000000 -0.008343 0.000000 0.041348
#
#
# Mechanical properties :
#
#
# Convention : Reuss Voigt Hill
#
# Bulk Modulus (GPa) = 53.34014 62.53581 57.93797
# Shear Modulus (GPa) = 26.06168 28.63421 27.34794
#
# Velocity S-wave (km/s) = 3.66341 3.83996 3.75273
# Velocity P-wave (km/s) = 6.73512 7.20164 6.97228
#
# Compressibility (1/GPa) = 0.01874761
#
# Stress axis : x y z
#
# Youngs Moduli (GPa) = 89.76700 85.74783 60.76837
#
# Poissons Ratio (x) = 0.41227 0.29921
# Poissons Ratio (y) = 0.43159 0.03181
# Poissons Ratio (z) = 0.44199 0.04489
#
# Static dielectric constant tensor:
#      x y z
#    x 3.339130 0.000000 -0.039430 
#    y 0.000000 3.862320 0.000000 
#    z -0.039430 0.000000 4.100000 
# 
# 
# High freq. dielectric constant tensor:
#      x y z
#    x 1.730510 0.000000 -0.000070 
#    y 0.000000 1.774540 0.000000 
#    z -0.000070 0.000000 1.760760 
# 
# From -- ./inp_files/22275.got.cif
#   From: 2010.06.25/outbox.cif.g09.slc.cpg/sg11_12_cif.got.tgz:22275.got - 2010.06.27 23:14:04.
