data_PCOD8075455
_publ_section_title
;
Structure prediction by ZEFSAII (Michael W. Deem and Ramdas Pophale) SiO2 
 PCOD8075455
Probable space group: P 21/M
;
_chemical_formula_sum "Si O2"
_cell_formula_units_Z 28
_cell_length_a 11.915143
_cell_length_b 14.398105
_cell_length_c 10.189273
_cell_angle_alpha 90.000000
_cell_angle_beta 130.405648
_cell_angle_gamma 90.000000
_cell_volume 1331.076786
_symmetry_space_group_name_H-M "P 21/M"
_symmetry_group_IT_number 11
_symmetry_cell_setting 'monoclinic'
loop_
_space_group_symop_operation_xyz
x,y,z
-x,1/2+y,-z
-x,-y,-z
x,1/2-y,z
loop_
_atom_site_type_symbol
_atom_site_label
_atom_site_fract_x
_atom_site_fract_y
_atom_site_fract_z
Si Si1 0.100372 0.856386 0.567854
Si Si2 0.858420 0.963841 0.243213
Si Si3 0.431493 0.090819 0.389704
Si Si4 0.429658 0.646925 0.762821
Si Si5 0.584067 0.640269 0.141082
Si Si6 0.832736 0.509930 0.920445
Si Si7 0.401884 0.851235 0.253069
O O1 0.061720 0.750000 0.584968
O O2 0.255720 0.856513 0.612883
O O3 0.991328 0.893782 0.374090
O O4 0.101659 0.928900 0.691146
O O5 0.725411 0.925437 0.231783
O O6 0.825947 0.956074 0.064985
O O7 0.492876 0.087923 0.289349
O O8 0.252672 0.085621 0.237363
O O9 0.494437 0.166860 0.538425
O O10 0.500000 0.000000 0.500000
O O11 0.491925 0.750000 0.789405
O O12 0.470868 0.613423 0.939785
O O13 0.626630 0.750000 0.174026
O O14 0.505262 0.609368 0.215503
O O15 0.742113 0.414171 0.834383
O O16 0.000000 0.500000 0.000000
O O17 0.341473 0.750000 0.166242
#
# Coordination Sequence:
#
# PCOD8075455 Si02
#       7
#     4   4   4   4   4   4   4
#     4  10  24  40  62  95 128 163 212 266 325 392
#     4  11  23  40  67  91 130 173 208 264 334 373
#     4  10  22  38  62  90 127 166 213 261 308 390
#     4  10  20  38  63  91 124 164 212 265 317 376
#     4  10  21  39  67  99 126 159 217 270 317 382
#     4  11  25  42  62  94 130 171 220 261 320 398
#     4  10  23  43  66  94 127 170 215 271 328 383
#
# _framework density 21.035599999999999
#
# number of rings (size 3 to 8) (size 9 to 14) (size 15 to 20)
#    0.000    1.714    1.429    1.714    8.000    4.000 
#    0.000    2.143    0.000    0.000    0.000    0.000 
#    0.000    0.000    0.000    0.000    0.000    0.000 
#
# Total GULP energy -346963.817336 kJ/mol
# GULP energy per Si atom -12391.564905 kJ/mol
# Density = 2.098772 g / cm^3
# Si number density = 21.035600 Si / 1000 Ang^3
#
#
#
# Elastic Constant Matrix: (Units=GPa)
#
#
# Indices 1 2 3 4 5 6 
#
# 1 116.9645 36.9214 58.6468 0.0000 9.0903 0.0000
# 2 36.9214 103.4678 38.9375 0.0000 8.1911 0.0000
# 3 58.6468 38.9375 141.7397 0.0000 8.9770 0.0000
# 4 0.0000 0.0000 0.0000 26.7931 0.0000 -1.3035
# 5 9.0903 8.1911 8.9770 0.0000 39.4502 0.0000
# 6 0.0000 0.0000 0.0000 -1.3035 0.0000 26.4523
#
#
#
# Elastic Compliance Matrix: (Units=1/GPa)
#
#
# Indices 1 2 3 4 5 6 
#
# 1 0.011416 -0.002486 -0.003964 0.000000 -0.001212 0.000000
# 2 -0.002486 0.011419 -0.002024 0.000000 -0.001338 0.000000
# 3 -0.003964 -0.002024 0.009301 0.000000 -0.000783 0.000000
# 4 0.000000 0.000000 0.000000 0.037413 0.000000 0.001844
# 5 -0.001212 -0.001338 -0.000783 0.000000 0.026084 0.000000
# 6 0.000000 0.000000 0.000000 0.001844 0.000000 0.037895
#
#
# Mechanical properties :
#
#
# Convention : Reuss Voigt Hill
#
# Bulk Modulus (GPa) = 65.83640 70.13148 67.98394
# Shear Modulus (GPa) = 32.14656 33.71687 32.93172
#
# Velocity S-wave (km/s) = 3.91346 4.00790 3.96096
# Velocity P-wave (km/s) = 7.19623 7.40469 7.30121
#
# Compressibility (1/GPa) = 0.01518916
#
# Stress axis : x y z
#
# Youngs Moduli (GPa) = 87.59583 87.57011 107.51776
#
# Poissons Ratio (x) = 0.21770 0.42618
# Poissons Ratio (y) = 0.21777 0.21758
# Poissons Ratio (z) = 0.34722 0.17721
#
# Static dielectric constant tensor:
#      x y z
#    x 3.677320 0.000000 -0.249120 
#    y 0.000000 4.288970 0.000000 
#    z -0.249120 0.000000 5.739430 
# 
# 
# High freq. dielectric constant tensor:
#      x y z
#    x 1.806250 0.000000 0.006110 
#    y 0.000000 1.833220 0.000000 
#    z 0.006110 0.000000 1.838190 
# 
# From -- ./inp_files/18161.got.cif
#   From: 2010.06.25/outbox.cif.g09.slc.cpg/sg11_10_cif.got.tgz:18161.got - 2010.06.27 23:14:04.
