data_PCOD8075700
_publ_section_title
;
Structure prediction by ZEFSAII (Michael W. Deem and Ramdas Pophale) SiO2 
 PCOD8075700
Probable space group: P 21/M
;
_chemical_formula_sum "Si O2"
_cell_formula_units_Z 28
_cell_length_a 19.903305
_cell_length_b 9.114224
_cell_length_c 22.672806
_cell_angle_alpha 90.000000
_cell_angle_beta 19.407433
_cell_angle_gamma 90.000000
_cell_volume 1366.655131
_symmetry_space_group_name_H-M "P 21/M"
_symmetry_group_IT_number 11
_symmetry_cell_setting 'monoclinic'
loop_
_space_group_symop_operation_xyz
x,y,z
-x,1/2+y,-z
-x,-y,-z
x,1/2-y,z
loop_
_atom_site_type_symbol
_atom_site_label
_atom_site_fract_x
_atom_site_fract_y
_atom_site_fract_z
Si Si1 0.531921 0.419424 0.120430
Si Si2 0.853656 0.912298 0.078919
Si Si3 0.555946 0.412297 0.511480
Si Si4 0.925113 0.419421 0.727235
Si Si5 0.250672 0.417908 0.551509
Si Si6 0.655880 0.082093 0.146305
Si Si7 0.109729 0.924962 0.463432
O O1 0.457748 0.250000 0.184444
O O2 0.650214 0.459969 0.082381
O O3 0.342311 0.525616 0.269894
O O4 0.687401 0.443458 0.937540
O O5 0.943691 0.750000 0.994978
O O6 0.635875 0.905707 0.288046
O O7 0.829956 0.988742 0.034806
O O8 0.000000 0.000000 0.000000
O O9 0.500000 0.500000 0.500000
O O10 0.627700 0.250000 0.433632
O O11 0.735677 0.488755 0.399563
O O12 0.968802 0.250000 0.673384
O O13 0.047570 0.459982 0.685021
O O14 0.994262 0.525614 0.617935
O O15 0.248600 0.250000 0.573607
O O16 0.434915 0.450837 0.355028
O O17 0.718031 0.250000 0.104182
O O18 0.098854 0.750000 0.467054
O O19 0.000000 0.000000 0.500000
#
# Coordination Sequence:
#
# PCOD8075700 Si02
#       7
#     4   4   4   4   4   4   4
#     4  10  21  40  67  97 128 163 207 255 308 372
#     4  10  21  35  52  77 111 151 198 249 302 358
#     4  10  21  35  52  77 111 151 198 249 302 358
#     4  10  21  40  67  97 128 163 207 255 308 372
#     4   9  17  33  57  83 116 156 198 245 302 366
#     4   9  17  33  57  83 116 156 198 245 302 366
#     4  12  26  44  68  94 130 170 208 256 310 370
#
# _framework density 20.487977999999998
#
# number of rings (size 3 to 8) (size 9 to 14) (size 15 to 20)
#    0.000    2.000    1.429    2.143    0.000    5.143 
#    0.000    2.857    0.000    0.000    0.000    0.000 
#    0.000    0.000    0.000    0.000    0.000    0.000 
#
# Total GULP energy -347214.286852 kJ/mol
# GULP energy per Si atom -12400.510245 kJ/mol
# Density = 2.044135 g / cm^3
# Si number density = 20.487978 Si / 1000 Ang^3
#
#
#
# Elastic Constant Matrix: (Units=GPa)
#
#
# Indices 1 2 3 4 5 6 
#
# 1 122.9549 81.7329 46.1830 0.0000 -8.5359 0.0000
# 2 81.7329 156.4391 49.6135 0.0000 -6.5398 0.0000
# 3 46.1830 49.6135 77.9892 0.0000 -0.6058 0.0000
# 4 0.0000 0.0000 0.0000 22.7582 0.0000 -3.9376
# 5 -8.5359 -6.5398 -0.6058 0.0000 19.0205 0.0000
# 6 0.0000 0.0000 0.0000 -3.9376 0.0000 42.0934
#
#
#
# Elastic Compliance Matrix: (Units=1/GPa)
#
#
# Indices 1 2 3 4 5 6 
#
# 1 0.013892 -0.005619 -0.004619 0.000000 0.004155 0.000000
# 2 -0.005619 0.010411 -0.003288 0.000000 0.000953 0.000000
# 3 -0.004619 -0.003288 0.017629 0.000000 -0.002642 0.000000
# 4 0.000000 0.000000 0.000000 0.044663 0.000000 0.004178
# 5 0.004155 0.000953 -0.002642 0.000000 0.054683 0.000000
# 6 0.000000 0.000000 0.000000 0.004178 0.000000 0.024148
#
#
# Mechanical properties :
#
#
# Convention : Reuss Voigt Hill
#
# Bulk Modulus (GPa) = 67.21146 79.16021 73.18584
# Shear Modulus (GPa) = 25.32443 28.76467 27.04455
#
# Velocity S-wave (km/s) = 3.51958 3.75103 3.63715
# Velocity P-wave (km/s) = 7.02803 7.58166 7.31009
#
# Compressibility (1/GPa) = 0.01487841
#
# Stress axis : x y z
#
# Youngs Moduli (GPa) = 71.98410 96.05555 56.72519
#
# Poissons Ratio (x) = 0.53976 0.26204
# Poissons Ratio (y) = 0.40450 0.18650
# Poissons Ratio (z) = 0.33252 0.31582
#
# Static dielectric constant tensor:
#      x y z
#    x 2.488540 0.000000 0.233600 
#    y 0.000000 3.351560 0.000000 
#    z 0.233600 0.000000 3.631040 
# 
# 
# High freq. dielectric constant tensor:
#      x y z
#    x 1.805080 0.000000 -0.001790 
#    y 0.000000 1.795650 0.000000 
#    z -0.001790 0.000000 1.796240 
# 
# From -- ./inp_files/69791.got.cif
#   From: 2010.06.25/outbox.cif.g09.slc.cpg/sg11_35_cif.got.tgz:69791.got - 2010.06.27 23:14:04.
