data_PCOD8075385
_publ_section_title
;
Structure prediction by ZEFSAII (Michael W. Deem and Ramdas Pophale) SiO2 
 PCOD8075385
Probable space group: P 21/M
;
_chemical_formula_sum "Si O2"
_cell_formula_units_Z 28
_cell_length_a 9.549454
_cell_length_b 8.463024
_cell_length_c 26.908197
_cell_angle_alpha 90.000000
_cell_angle_beta 41.472798
_cell_angle_gamma 90.000000
_cell_volume 1440.191090
_symmetry_space_group_name_H-M "P 21/M"
_symmetry_group_IT_number 11
_symmetry_cell_setting 'monoclinic'
loop_
_space_group_symop_operation_xyz
x,y,z
-x,1/2+y,-z
-x,-y,-z
x,1/2-y,z
loop_
_atom_site_type_symbol
_atom_site_label
_atom_site_fract_x
_atom_site_fract_y
_atom_site_fract_z
Si Si1 0.313269 0.932262 0.197452
Si Si2 0.537617 0.937000 0.739427
Si Si3 0.142954 0.438525 0.790961
Si Si4 0.337627 0.929594 0.081510
Si Si5 0.272842 0.428420 0.557753
Si Si6 0.122012 0.929850 0.694162
Si Si7 0.069459 0.561188 0.427534
O O1 0.235353 0.750000 0.224519
O O2 0.433620 0.947551 0.112179
O O3 0.439601 0.982524 0.212620
O O4 0.128912 0.058273 0.237946
O O5 0.560140 0.750000 0.738136
O O6 0.298641 0.985723 0.789799
O O7 0.706252 0.997003 0.653144
O O8 0.160148 0.250000 0.786512
O O9 0.228290 0.507841 0.716164
O O10 0.900906 0.499499 0.862274
O O11 0.313667 0.750000 0.073150
O O12 0.500000 0.000000 0.000000
O O13 0.500000 0.500000 0.500000
O O14 0.296566 0.250000 0.535091
O O15 0.182812 0.446578 0.636076
O O16 0.112642 0.506483 0.560697
O O17 0.193955 0.750000 0.663965
O O18 0.084397 0.750000 0.423983
O O19 0.000000 0.500000 0.500000
#
# Coordination Sequence:
#
# PCOD8075385 Si02
#       7
#     4   4   4   4   4   4   4
#     4  10  20  38  61  87 119 159 199 237 293 356
#     4  12  24  39  62  91 121 157 204 254 301 356
#     4  10  22  40  61  87 121 161 199 241 297 357
#     4   9  20  38  64  93 123 157 196 242 294 354
#     4  11  24  40  59  82 114 154 198 247 303 358
#     4  11  21  36  59  86 114 149 197 249 293 348
#     4  11  25  43  62  84 119 162 203 250 307 365
#
# _framework density 19.441863999999999
#
# number of rings (size 3 to 8) (size 9 to 14) (size 15 to 20)
#    0.000    1.429    1.429    5.143    2.000    5.143 
#    0.000    0.714    0.000    0.000    0.000    0.000 
#    0.000    0.000    0.000    0.000    0.000    0.000 
#
# Total GULP energy -346927.594051 kJ/mol
# GULP energy per Si atom -12390.271216 kJ/mol
# Density = 1.939761 g / cm^3
# Si number density = 19.441864 Si / 1000 Ang^3
#
#
#
# Elastic Constant Matrix: (Units=GPa)
#
#
# Indices 1 2 3 4 5 6 
#
# 1 137.3616 31.2327 63.8555 0.0000 4.8032 0.0000
# 2 31.2327 81.5212 35.8036 0.0000 3.3887 0.0000
# 3 63.8555 35.8036 116.0214 0.0000 11.7958 0.0000
# 4 0.0000 0.0000 0.0000 34.0744 0.0000 1.0419
# 5 4.8032 3.3887 11.7958 0.0000 27.6419 0.0000
# 6 0.0000 0.0000 0.0000 1.0419 0.0000 32.7154
#
#
#
# Elastic Compliance Matrix: (Units=1/GPa)
#
#
# Indices 1 2 3 4 5 6 
#
# 1 0.009977 -0.001630 -0.005051 0.000000 0.000622 0.000000
# 2 -0.001630 0.014457 -0.003568 0.000000 0.000033 0.000000
# 3 -0.005051 -0.003568 0.012927 0.000000 -0.004201 0.000000
# 4 0.000000 0.000000 0.000000 0.029376 0.000000 -0.000936
# 5 0.000622 0.000033 -0.004201 0.000000 0.037858 0.000000
# 6 0.000000 0.000000 0.000000 -0.000936 0.000000 0.030596
#
#
# Mechanical properties :
#
#
# Convention : Reuss Voigt Hill
#
# Bulk Modulus (GPa) = 59.29979 66.29865 62.79922
# Shear Modulus (GPa) = 30.99610 32.48716 31.74163
#
# Velocity S-wave (km/s) = 3.99720 4.09221 4.04498
# Velocity P-wave (km/s) = 7.20213 7.51686 7.36118
#
# Compressibility (1/GPa) = 0.01686347
#
# Stress axis : x y z
#
# Youngs Moduli (GPa) = 100.22872 69.17231 77.35479
#
# Poissons Ratio (x) = 0.11273 0.39076
# Poissons Ratio (y) = 0.16335 0.27598
# Poissons Ratio (z) = 0.50630 0.24678
#
# Static dielectric constant tensor:
#      x y z
#    x 3.441690 0.000000 0.409020 
#    y 0.000000 3.542650 0.000000 
#    z 0.409020 0.000000 2.848300 
# 
# 
# High freq. dielectric constant tensor:
#      x y z
#    x 1.766430 0.000000 0.009740 
#    y 0.000000 1.764790 0.000000 
#    z 0.009740 0.000000 1.743030 
# 
# From -- ./inp_files/70779.got.cif
#   From: 2010.06.25/outbox.cif.g09.slc.cpg/sg11_36_cif.got.tgz:70779.got - 2010.06.27 23:14:04.
