data_PCOD8075208
_publ_section_title
;
Structure prediction by ZEFSAII (Michael W. Deem and Ramdas Pophale) SiO2 
 PCOD8075208
Probable space group: P 21/M
;
_chemical_formula_sum "Si O2"
_cell_formula_units_Z 28
_cell_length_a 11.769096
_cell_length_b 8.784357
_cell_length_c 13.512272
_cell_angle_alpha 90.000000
_cell_angle_beta 76.465684
_cell_angle_gamma 90.000000
_cell_volume 1358.158475
_symmetry_space_group_name_H-M "P 21/M"
_symmetry_group_IT_number 11
_symmetry_cell_setting 'monoclinic'
loop_
_space_group_symop_operation_xyz
x,y,z
-x,1/2+y,-z
-x,-y,-z
x,1/2-y,z
loop_
_atom_site_type_symbol
_atom_site_label
_atom_site_fract_x
_atom_site_fract_y
_atom_site_fract_z
Si Si1 0.930220 0.073889 0.244894
Si Si2 0.690191 0.072941 0.206722
Si Si3 0.522156 0.929766 0.388623
Si Si4 0.187705 0.069996 0.170443
Si Si5 0.899693 0.924267 0.457499
Si Si6 0.301690 0.074265 0.350870
Si Si7 0.617937 0.569171 0.018367
O O1 0.945313 0.250000 0.269371
O O2 0.830825 0.049678 0.181882
O O3 0.055107 0.008707 0.181020
O O4 0.888067 0.992497 0.351957
O O5 0.657334 0.250000 0.204127
O O6 0.637655 0.004528 0.318403
O O7 0.636600 0.982305 0.126369
O O8 0.539497 0.750000 0.394659
O O9 0.500000 0.000000 0.500000
O O10 0.414929 0.968928 0.337788
O O11 0.188813 0.250000 0.163454
O O12 0.230882 0.016635 0.269529
O O13 0.273663 0.004920 0.068714
O O14 0.933770 0.750000 0.441258
O O15 0.775945 0.947261 0.535965
O O16 0.000000 0.000000 0.500000
O O17 0.340462 0.250000 0.330188
O O18 0.608992 0.750000 0.015508
O O19 0.500000 0.500000 0.000000
#
# Coordination Sequence:
#
# PCOD8075208 Si02
#       7
#     4   4   4   4   4   4   4
#     4  10  21  40  62  87 121 163 207 251 306 368
#     4  11  24  42  65  91 125 163 203 254 311 370
#     4  12  25  41  62  89 123 160 206 253 305 369
#     4   9  19  38  62  88 118 157 201 250 305 359
#     4  11  21  34  57  88 124 164 202 248 302 362
#     4  10  20  37  61  87 121 161 205 255 309 362
#     4  11  23  41  67  93 122 160 207 257 312 370
#
# _framework density 20.616149
#
# number of rings (size 3 to 8) (size 9 to 14) (size 15 to 20)
#    0.000    1.429    1.429    4.286    0.000    6.286 
#    0.000    2.143    0.000    0.000    0.000    0.000 
#    0.000    0.000    0.000    0.000    0.000    0.000 
#
# Total GULP energy -347283.082339 kJ/mol
# GULP energy per Si atom -12402.967226 kJ/mol
# Density = 2.056923 g / cm^3
# Si number density = 20.616149 Si / 1000 Ang^3
#
#
#
# Elastic Constant Matrix: (Units=GPa)
#
#
# Indices 1 2 3 4 5 6 
#
# 1 137.0448 42.3885 50.3379 0.0000 -7.8542 0.0000
# 2 42.3885 89.8930 33.0553 0.0000 -4.5950 0.0000
# 3 50.3379 33.0553 125.2372 0.0000 -8.8594 0.0000
# 4 0.0000 0.0000 0.0000 31.1872 0.0000 2.9516
# 5 -7.8542 -4.5950 -8.8594 0.0000 32.0071 0.0000
# 6 0.0000 0.0000 0.0000 2.9516 0.0000 31.4140
#
#
#
# Elastic Compliance Matrix: (Units=1/GPa)
#
#
# Indices 1 2 3 4 5 6 
#
# 1 0.009435 -0.003354 -0.002833 0.000000 0.001050 0.000000
# 2 -0.003354 0.013537 -0.002189 0.000000 0.000515 0.000000
# 3 -0.002833 -0.002189 0.009822 0.000000 0.001709 0.000000
# 4 0.000000 0.000000 0.000000 0.032352 0.000000 -0.003040
# 5 0.001050 0.000515 0.001709 0.000000 0.032048 0.000000
# 6 0.000000 0.000000 0.000000 -0.003040 0.000000 0.032119
#
#
# Mechanical properties :
#
#
# Convention : Reuss Voigt Hill
#
# Bulk Modulus (GPa) = 62.32988 67.08206 64.70597
# Shear Modulus (GPa) = 33.02292 34.01454 33.51873
#
# Velocity S-wave (km/s) = 4.00659 4.06630 4.03656
# Velocity P-wave (km/s) = 7.19047 7.39294 7.29241
#
# Compressibility (1/GPa) = 0.01604367
#
# Stress axis : x y z
#
# Youngs Moduli (GPa) = 105.99000 73.87277 101.81168
#
# Poissons Ratio (x) = 0.24774 0.28842
# Poissons Ratio (y) = 0.35545 0.22282
# Poissons Ratio (z) = 0.30025 0.16168
#
# Static dielectric constant tensor:
#      x y z
#    x 3.640990 0.000000 -0.148650 
#    y 0.000000 3.636990 0.000000 
#    z -0.148650 0.000000 3.840220 
# 
# 
# High freq. dielectric constant tensor:
#      x y z
#    x 1.824200 0.000000 -0.005210 
#    y 0.000000 1.793210 0.000000 
#    z -0.005210 0.000000 1.806880 
# 
# From -- ./inp_files/48917.got.cif
#   From: 2010.06.25/outbox.cif.g09.slc.cpg/sg11_25_cif.got.tgz:48917.got - 2010.06.27 23:14:04.
