data_PCOD8075278
_publ_section_title
;
Structure prediction by ZEFSAII (Michael W. Deem and Ramdas Pophale) SiO2 
 PCOD8075278
Probable space group: P 21/M
;
_chemical_formula_sum "Si O2"
_cell_formula_units_Z 32
_cell_length_a 14.912520
_cell_length_b 8.678805
_cell_length_c 12.252940
_cell_angle_alpha 90.000000
_cell_angle_beta 91.582027
_cell_angle_gamma 90.000000
_cell_volume 1585.205982
_symmetry_space_group_name_H-M "P 21/M"
_symmetry_group_IT_number 11
_symmetry_cell_setting 'monoclinic'
loop_
_space_group_symop_operation_xyz
x,y,z
-x,1/2+y,-z
-x,-y,-z
x,1/2-y,z
loop_
_atom_site_type_symbol
_atom_site_label
_atom_site_fract_x
_atom_site_fract_y
_atom_site_fract_z
Si Si1 0.905077 0.072736 0.968323
Si Si2 0.521502 0.429567 0.326671
Si Si3 0.164349 0.428956 0.460657
Si Si4 0.129951 0.570532 0.688874
Si Si5 0.442280 0.069490 0.901527
Si Si6 0.368925 0.071133 0.487974
Si Si7 0.949508 0.074824 0.730776
Si Si8 0.762230 0.931418 0.119127
O O1 0.902466 0.250000 0.007996
O O2 0.890377 0.059067 0.838019
O O3 0.824983 0.979018 0.020952
O O4 0.000000 0.000000 0.000000
O O5 0.525488 0.250000 0.301944
O O6 0.518706 0.517104 0.212777
O O7 0.607457 0.477020 0.401884
O O8 0.432174 0.477556 0.389719
O O9 0.144706 0.250000 0.438671
O O10 0.130782 0.472187 0.579031
O O11 0.268536 0.469416 0.450093
O O12 0.111074 0.529480 0.372711
O O13 0.138472 0.750000 0.662039
O O14 0.210828 0.519533 0.769606
O O15 0.036168 0.534593 0.745661
O O16 0.451374 0.250000 0.909334
O O17 0.338965 0.018237 0.911952
O O18 0.500000 0.000000 0.000000
O O19 0.380870 0.250000 0.517319
O O20 0.983074 0.250000 0.717097
O O21 0.770775 0.750000 0.140346
#
# Coordination Sequence:
#
# PCOD8075278 Si02
#       8
#     4   4   4   4   4   4   4   4
#     4  11  23  40  65  92 122 159 204 255 303 359
#     4  10  20  37  63  91 120 155 200 250 301 361
#     4  11  23  39  59  85 122 161 200 246 301 363
#     4  12  24  39  62  89 120 158 202 249 302 362
#     4  11  25  43  63  89 124 164 204 253 310 367
#     4   9  20  38  60  88 120 158 199 244 301 362
#     4  11  24  41  60  86 121 158 199 248 302 360
#     4  11  24  42  65  92 123 161 206 254 307 366
#
# _framework density 20.186651000000001
#
# number of rings (size 3 to 8) (size 9 to 14) (size 15 to 20)
#    0.000    1.250    1.250    4.500    0.000    9.000 
#    0.000    3.750    0.000    0.000    0.000    0.000 
#    0.000    0.000    0.000    0.000    0.000    0.000 
#
# Total GULP energy -397009.052402 kJ/mol
# GULP energy per Si atom -12406.532888 kJ/mol
# Density = 2.014071 g / cm^3
# Si number density = 20.186651 Si / 1000 Ang^3
#
#
#
# Elastic Constant Matrix: (Units=GPa)
#
#
# Indices 1 2 3 4 5 6 
#
# 1 89.1201 37.4273 54.7384 0.0000 15.0122 0.0000
# 2 37.4273 57.1092 28.4643 0.0000 5.3225 0.0000
# 3 54.7384 28.4643 127.8419 0.0000 7.2665 0.0000
# 4 0.0000 0.0000 0.0000 35.8798 0.0000 1.0445
# 5 15.0122 5.3225 7.2665 0.0000 30.4989 0.0000
# 6 0.0000 0.0000 0.0000 1.0445 0.0000 34.0826
#
#
#
# Elastic Compliance Matrix: (Units=1/GPa)
#
#
# Indices 1 2 3 4 5 6 
#
# 1 0.020104 -0.009499 -0.006107 0.000000 -0.006783 0.000000
# 2 -0.009499 0.024363 -0.001400 0.000000 0.000758 0.000000
# 3 -0.006107 -0.001400 0.010709 0.000000 0.000699 0.000000
# 4 0.000000 0.000000 0.000000 0.027896 0.000000 -0.000855
# 5 -0.006783 0.000758 0.000699 0.000000 0.035828 0.000000
# 6 0.000000 0.000000 0.000000 -0.000855 0.000000 0.029367
#
#
# Mechanical properties :
#
#
# Convention : Reuss Voigt Hill
#
# Bulk Modulus (GPa) = 47.25348 57.25904 52.25626
# Shear Modulus (GPa) = 26.40831 30.32167 28.36499
#
# Velocity S-wave (km/s) = 3.62084 3.87985 3.75258
# Velocity P-wave (km/s) = 6.39842 6.96401 6.68719
#
# Compressibility (1/GPa) = 0.02116246
#
# Stress axis : x y z
#
# Youngs Moduli (GPa) = 49.74155 41.04576 93.37749
#
# Poissons Ratio (x) = 0.38990 0.57029
# Poissons Ratio (y) = 0.47251 0.13075
# Poissons Ratio (z) = 0.30379 0.05747
#
# Static dielectric constant tensor:
#      x y z
#    x 3.786530 0.000000 -0.100510 
#    y 0.000000 3.737200 0.000000 
#    z -0.100510 0.000000 3.775270 
# 
# 
# High freq. dielectric constant tensor:
#      x y z
#    x 1.790440 0.000000 -0.004900 
#    y 0.000000 1.799370 0.000000 
#    z -0.004900 0.000000 1.797490 
# 
# From -- ./inp_files/38060.got.cif
#   From: 2010.06.25/outbox.cif.g09.slc.cpg/sg11_20_cif.got.tgz:38060.got - 2010.06.27 23:14:04.
