data_PCOD8075182
_publ_section_title
;
Structure prediction by ZEFSAII (Michael W. Deem and Ramdas Pophale) SiO2 
 PCOD8075182
Probable space group: P 21/M
;
_chemical_formula_sum "Si O2"
_cell_formula_units_Z 28
_cell_length_a 29.044747
_cell_length_b 8.839471
_cell_length_c 9.168058
_cell_angle_alpha 90.000000
_cell_angle_beta 38.072938
_cell_angle_gamma 90.000000
_cell_volume 1451.509577
_symmetry_space_group_name_H-M "P 21/M"
_symmetry_group_IT_number 11
_symmetry_cell_setting 'monoclinic'
loop_
_space_group_symop_operation_xyz
x,y,z
-x,1/2+y,-z
-x,-y,-z
x,1/2-y,z
loop_
_atom_site_type_symbol
_atom_site_label
_atom_site_fract_x
_atom_site_fract_y
_atom_site_fract_z
Si Si1 0.207500 0.928317 0.400101
Si Si2 0.929890 0.571997 0.095775
Si Si3 0.363371 0.425228 0.013670
Si Si4 0.068954 0.073671 0.246956
Si Si5 0.357717 0.075580 0.689749
Si Si6 0.501974 0.428793 0.152550
Si Si7 0.796005 0.426317 0.927412
O O1 0.214706 0.750000 0.405484
O O2 0.188376 0.967447 0.280115
O O3 0.144263 0.994642 0.660301
O O4 0.284018 0.006718 0.257765
O O5 0.927337 0.750000 0.133499
O O6 0.936590 0.535159 0.909046
O O7 0.000000 0.500000 0.000000
O O8 0.365247 0.250000 0.053160
O O9 0.378487 0.450358 0.805778
O O10 0.426241 0.513966 0.942160
O O11 0.065004 0.250000 0.286336
O O12 0.146527 0.013567 0.114943
O O13 0.000000 0.000000 0.500000
O O14 0.338079 0.250000 0.708189
O O15 0.427665 0.018729 0.421911
O O16 0.286973 0.975782 0.819861
O O17 0.505939 0.250000 0.130985
O O18 0.500000 0.500000 0.000000
O O19 0.805481 0.250000 0.932824
#
# Coordination Sequence:
#
# PCOD8075182 Si02
#       7
#     4   4   4   4   4   4   4
#     4  10  21  38  60  87 116 147 186 232 280 335
#     4  11  24  40  59  85 115 150 190 233 280 334
#     4  10  20  37  61  86 112 147 189 233 283 338
#     4  11  24  40  59  84 115 149 188 231 278 332
#     4   9  20  38  60  84 112 148 189 232 281 336
#     4  11  23  38  56  82 116 152 190 235 284 335
#     4  10  21  37  60  88 115 145 186 232 280 334
#
# _framework density 19.290261999999998
#
# number of rings (size 3 to 8) (size 9 to 14) (size 15 to 20)
#    0.000    1.714    0.000    3.857    0.000   10.286 
#    0.000    1.429    0.000    0.000    0.000    0.000 
#    0.000    0.000    0.000    0.000    0.000    0.000 
#
# Total GULP energy -347356.937681 kJ/mol
# GULP energy per Si atom -12405.604917 kJ/mol
# Density = 1.924636 g / cm^3
# Si number density = 19.290262 Si / 1000 Ang^3
#
#
#
# Elastic Constant Matrix: (Units=GPa)
#
#
# Indices 1 2 3 4 5 6 
#
# 1 120.6641 59.2841 58.4652 0.0000 -17.2140 0.0000
# 2 59.2841 87.9696 61.6026 0.0000 -3.1785 0.0000
# 3 58.4652 61.6026 139.2289 0.0000 -16.6219 0.0000
# 4 0.0000 0.0000 0.0000 38.0080 0.0000 -5.1269
# 5 -17.2140 -3.1785 -16.6219 0.0000 20.4667 0.0000
# 6 0.0000 0.0000 0.0000 -5.1269 0.0000 38.7819
#
#
#
# Elastic Compliance Matrix: (Units=1/GPa)
#
#
# Indices 1 2 3 4 5 6 
#
# 1 0.014474 -0.008652 -0.001060 0.000000 0.009969 0.000000
# 2 -0.008652 0.021903 -0.007221 0.000000 -0.009740 0.000000
# 3 -0.001060 -0.007221 0.011718 0.000000 0.007504 0.000000
# 4 0.000000 0.000000 0.000000 0.026788 0.000000 0.003541
# 5 0.009969 -0.009740 0.007504 0.000000 0.061827 0.000000
# 6 0.000000 0.000000 0.000000 0.003541 0.000000 0.026253
#
#
# Mechanical properties :
#
#
# Convention : Reuss Voigt Hill
#
# Bulk Modulus (GPa) = 70.27229 78.50739 74.38984
# Shear Modulus (GPa) = 24.80516 30.68537 27.74526
#
# Velocity S-wave (km/s) = 3.58982 3.99271 3.79661
# Velocity P-wave (km/s) = 7.32737 7.87667 7.60698
#
# Compressibility (1/GPa) = 0.01423036
#
# Stress axis : x y z
#
# Youngs Moduli (GPa) = 69.08940 45.65625 85.33840
#
# Poissons Ratio (x) = 0.39502 0.09042
# Poissons Ratio (y) = 0.59777 0.61620
# Poissons Ratio (z) = 0.07321 0.32967
#
# Static dielectric constant tensor:
#      x y z
#    x 3.562950 0.000000 -0.066440 
#    y 0.000000 3.675550 0.000000 
#    z -0.066440 0.000000 3.672260 
# 
# 
# High freq. dielectric constant tensor:
#      x y z
#    x 1.757230 0.000000 -0.007420 
#    y 0.000000 1.765500 0.000000 
#    z -0.007420 0.000000 1.762330 
# 
# From -- ./inp_files/28389.got.cif
#   From: 2010.06.25/outbox.cif.g09.slc.cpg/sg11_15_cif.got.tgz:28389.got - 2010.06.27 23:14:04.
