data_PCOD8075273
_publ_section_title
;
Structure prediction by ZEFSAII (Michael W. Deem and Ramdas Pophale) SiO2 
 PCOD8075273
Probable space group: P 21/M
;
_chemical_formula_sum "Si O2"
_cell_formula_units_Z 28
_cell_length_a 6.861323
_cell_length_b 20.147499
_cell_length_c 10.166727
_cell_angle_alpha 90.000000
_cell_angle_beta 72.497867
_cell_angle_gamma 90.000000
_cell_volume 1340.369611
_symmetry_space_group_name_H-M "P 21/M"
_symmetry_group_IT_number 11
_symmetry_cell_setting 'monoclinic'
loop_
_space_group_symop_operation_xyz
x,y,z
-x,1/2+y,-z
-x,-y,-z
x,1/2-y,z
loop_
_atom_site_type_symbol
_atom_site_label
_atom_site_fract_x
_atom_site_fract_y
_atom_site_fract_z
Si Si1 0.542027 0.360997 0.430487
Si Si2 0.641690 0.826695 0.066079
Si Si3 0.094726 0.406306 0.564478
Si Si4 0.636770 0.323978 0.118759
Si Si5 0.705620 0.323064 0.668468
Si Si6 0.006158 0.577150 0.955982
Si Si7 0.894654 0.455384 0.345068
O O1 0.303745 0.366113 0.511015
O O2 0.569162 0.326096 0.284673
O O3 0.646652 0.319516 0.526537
O O4 0.659687 0.431490 0.406741
O O5 0.708762 0.750000 0.081173
O O6 0.475131 0.852537 0.205356
O O7 0.560452 0.832350 0.933627
O O8 0.823194 0.878950 0.050412
O O9 0.120010 0.465336 0.664734
O O10 0.913475 0.361530 0.655560
O O11 0.041144 0.435655 0.433992
O O12 0.733000 0.250000 0.076391
O O13 0.787897 0.383538 0.045787
O O14 0.750664 0.250000 0.711458
O O15 0.994746 0.577578 0.800991
O O16 0.000000 0.500000 0.000000
#
# Coordination Sequence:
#
# PCOD8075273 Si02
#       7
#     4   4   4   4   4   4   4
#     4  10  20  37  63  88 118 153 197 246 299 350
#     4  10  23  43  62  87 124 162 197 247 304 356
#     4  10  20  38  62  83 120 158 191 240 303 352
#     4  10  22  41  63  89 119 159 204 247 299 362
#     4  10  23  38  57  89 119 151 202 248 289 354
#     4  11  24  39  62  91 120 157 204 250 300 353
#     4   9  21  38  55  91 119 150 197 242 293 359
#
# _framework density 20.889762000000001
#
# number of rings (size 3 to 8) (size 9 to 14) (size 15 to 20)
#    0.000    2.000    0.000    2.143    4.000    1.714 
#    5.143    6.429    0.000    0.000    0.000    0.000 
#    0.000    0.000    0.000    0.000    0.000    0.000 
#
# Total GULP energy -347088.610435 kJ/mol
# GULP energy per Si atom -12396.021801 kJ/mol
# Density = 2.084222 g / cm^3
# Si number density = 20.889762 Si / 1000 Ang^3
#
#
#
# Elastic Constant Matrix: (Units=GPa)
#
#
# Indices 1 2 3 4 5 6 
#
# 1 87.1785 50.5416 27.4819 0.0000 -24.3234 0.0000
# 2 50.5416 128.0007 22.2347 0.0000 -26.2973 0.0000
# 3 27.4819 22.2347 78.8501 0.0000 -16.2269 0.0000
# 4 0.0000 0.0000 0.0000 31.6289 0.0000 -4.7793
# 5 -24.3234 -26.2973 -16.2269 0.0000 41.2794 0.0000
# 6 0.0000 0.0000 0.0000 -4.7793 0.0000 30.0180
#
#
#
# Elastic Compliance Matrix: (Units=1/GPa)
#
#
# Indices 1 2 3 4 5 6 
#
# 1 0.016954 -0.004980 -0.003375 0.000000 0.005491 0.000000
# 2 -0.004980 0.010612 -0.000511 0.000000 0.003626 0.000000
# 3 -0.003375 -0.000511 0.014717 0.000000 0.003471 0.000000
# 4 0.000000 0.000000 0.000000 0.032396 0.000000 0.005158
# 5 0.005491 0.003626 0.003471 0.000000 0.031135 0.000000
# 6 0.000000 0.000000 0.000000 0.005158 0.000000 0.034135
#
#
# Mechanical properties :
#
#
# Convention : Reuss Voigt Hill
#
# Bulk Modulus (GPa) = 40.72979 54.94951 47.83965
# Shear Modulus (GPa) = 30.14539 33.50334 31.82437
#
# Velocity S-wave (km/s) = 3.80290 4.00911 3.90737
# Velocity P-wave (km/s) = 6.23077 6.91320 6.58084
#
# Compressibility (1/GPa) = 0.02455206
#
# Stress axis : x y z
#
# Youngs Moduli (GPa) = 58.98465 94.22954 67.94920
#
# Poissons Ratio (x) = 0.46926 0.22931
# Poissons Ratio (y) = 0.29374 0.03471
# Poissons Ratio (z) = 0.19905 0.04813
#
# Static dielectric constant tensor:
#      x y z
#    x 3.595480 0.000000 0.035230 
#    y 0.000000 3.866660 0.000000 
#    z 0.035230 0.000000 3.859310 
# 
# 
# High freq. dielectric constant tensor:
#      x y z
#    x 1.809870 0.000000 0.004000 
#    y 0.000000 1.820270 0.000000 
#    z 0.004000 0.000000 1.826920 
# 
# From -- ./inp_files/29973.got.cif
#   From: 2010.06.25/outbox.cif.g09.slc.cpg/sg11_15_cif.got.tgz:29973.got - 2010.06.27 23:14:04.
