data_PCOD8075949
_publ_section_title
;
Structure prediction by ZEFSAII (Michael W. Deem and Ramdas Pophale) SiO2 
 PCOD8075949
Probable space group: P 21/M
;
_chemical_formula_sum "Si O2"
_cell_formula_units_Z 28
_cell_length_a 29.025097
_cell_length_b 8.992313
_cell_length_c 9.055353
_cell_angle_alpha 90.000000
_cell_angle_beta 140.954010
_cell_angle_gamma 90.000000
_cell_volume 1488.855034
_symmetry_space_group_name_H-M "P 21/M"
_symmetry_group_IT_number 11
_symmetry_cell_setting 'monoclinic'
loop_
_space_group_symop_operation_xyz
x,y,z
-x,1/2+y,-z
-x,-y,-z
x,1/2-y,z
loop_
_atom_site_type_symbol
_atom_site_label
_atom_site_fract_x
_atom_site_fract_y
_atom_site_fract_z
Si Si1 0.000335 0.422244 0.346711
Si Si2 0.565275 0.422603 0.246529
Si Si3 0.158218 0.423805 0.740744
Si Si4 0.292135 0.575492 0.582857
Si Si5 0.157547 0.924715 0.054969
Si Si6 0.298535 0.074125 0.910438
Si Si7 0.568729 0.073130 0.593246
O O1 0.998435 0.250000 0.375903
O O2 0.078571 0.463584 0.466125
O O3 0.000000 0.500000 0.500000
O O4 0.923194 0.465424 0.075603
O O5 0.548605 0.250000 0.197259
O O6 0.642191 0.462060 0.364004
O O7 0.567844 0.476994 0.421164
O O8 0.500000 0.500000 0.000000
O O9 0.164004 0.250000 0.788848
O O10 0.219513 0.473125 0.777214
O O11 0.169671 0.503983 0.925150
O O12 0.289180 0.750000 0.615814
O O13 0.217806 0.518499 0.320323
O O14 0.304100 0.478687 0.757185
O O15 0.167597 0.750000 0.056617
O O16 0.312455 0.250000 0.953007
O O17 0.357875 0.989138 0.153980
O O18 0.566047 0.250000 0.606070
O O19 0.500000 0.000000 0.500000
#
# Coordination Sequence:
#
# PCOD8075949 Si02
#       7
#     4   4   4   4   4   4   4
#     4   8  14  27  48  74 102 133 170 217 267 317
#     4  10  22  38  57  80 106 135 169 209 255 305
#     4   9  18  32  51  76 107 139 174 218 269 318
#     4  10  21  37  54  75 104 139 177 220 265 310
#     4   9  17  31  54  79 102 133 178 224 269 320
#     4  11  23  37  53  77 108 144 181 217 260 312
#     4  11  23  40  61  85 111 139 173 215 260 310
#
# _framework density 18.806397
#
# number of rings (size 3 to 8) (size 9 to 14) (size 15 to 20)
#    0.000    2.286    0.000    2.571    0.000    6.857 
#    0.000    0.714    0.000    0.000    0.000    0.000 
#    0.000    0.000    0.000    0.000    0.000    0.000 
#
# Total GULP energy -347005.700557 kJ/mol
# GULP energy per Si atom -12393.060734 kJ/mol
# Density = 1.876359 g / cm^3
# Si number density = 18.806397 Si / 1000 Ang^3
#
#
#
# Elastic Constant Matrix: (Units=GPa)
#
#
# Indices 1 2 3 4 5 6 
#
# 1 134.7195 45.3701 83.4104 0.0000 7.3516 0.0000
# 2 45.3701 46.5335 47.0424 0.0000 2.3537 0.0000
# 3 83.4104 47.0424 167.4968 0.0000 13.3050 0.0000
# 4 0.0000 0.0000 0.0000 29.4487 0.0000 -0.6284
# 5 7.3516 2.3537 13.3050 0.0000 36.9075 0.0000
# 6 0.0000 0.0000 0.0000 -0.6284 0.0000 26.1482
#
#
#
# Elastic Compliance Matrix: (Units=1/GPa)
#
#
# Indices 1 2 3 4 5 6 
#
# 1 0.012713 -0.008397 -0.003927 0.000000 -0.000581 0.000000
# 2 -0.008397 0.035604 -0.005941 0.000000 0.001544 0.000000
# 3 -0.003927 -0.005941 0.009782 0.000000 -0.002365 0.000000
# 4 0.000000 0.000000 0.000000 0.033975 0.000000 0.000816
# 5 -0.000581 0.001544 -0.002365 0.000000 0.027965 0.000000
# 6 0.000000 0.000000 0.000000 0.000816 0.000000 0.038263
#
#
# Mechanical properties :
#
#
# Convention : Reuss Voigt Hill
#
# Bulk Modulus (GPa) = 46.35732 77.82175 62.08954
# Shear Modulus (GPa) = 24.74980 30.02933 27.38956
#
# Velocity S-wave (km/s) = 3.63165 4.00029 3.82042
# Velocity P-wave (km/s) = 6.50296 7.92507 7.24897
#
# Compressibility (1/GPa) = 0.02157157
#
# Stress axis : x y z
#
# Youngs Moduli (GPa) = 78.65660 28.08637 102.22728
#
# Poissons Ratio (x) = 0.23583 0.40141
# Poissons Ratio (y) = 0.66045 0.60733
# Poissons Ratio (z) = 0.30886 0.16686
#
# Static dielectric constant tensor:
#      x y z
#    x 3.711480 0.000000 0.463190 
#    y 0.000000 3.466970 0.000000 
#    z 0.463190 0.000000 3.846870 
# 
# 
# High freq. dielectric constant tensor:
#      x y z
#    x 1.728300 0.000000 0.025090 
#    y 0.000000 1.728590 0.000000 
#    z 0.025090 0.000000 1.743060 
# 
# From -- ./inp_files/28553.got.cif
#   From: 2010.06.25/outbox.cif.g09.slc.cpg/sg11_15_cif.got.tgz:28553.got - 2010.06.27 23:14:04.
