data_PCOD8075809
_publ_section_title
;
Structure prediction by ZEFSAII (Michael W. Deem and Ramdas Pophale) SiO2 
 PCOD8075809
Probable space group: P 21/M
;
_chemical_formula_sum "Si O2"
_cell_formula_units_Z 32
_cell_length_a 27.587970
_cell_length_b 8.816320
_cell_length_c 14.115224
_cell_angle_alpha 90.000000
_cell_angle_beta 30.076884
_cell_angle_gamma 90.000000
_cell_volume 1720.571385
_symmetry_space_group_name_H-M "P 21/M"
_symmetry_group_IT_number 11
_symmetry_cell_setting 'monoclinic'
loop_
_space_group_symop_operation_xyz
x,y,z
-x,1/2+y,-z
-x,-y,-z
x,1/2-y,z
loop_
_atom_site_type_symbol
_atom_site_label
_atom_site_fract_x
_atom_site_fract_y
_atom_site_fract_z
Si Si1 0.595822 0.075017 0.300254
Si Si2 0.397380 0.071995 0.201298
Si Si3 0.877564 0.070598 0.621230
Si Si4 0.635854 0.926812 0.525188
Si Si5 0.923502 0.429709 0.753528
Si Si6 0.559125 0.928654 0.179238
Si Si7 0.695247 0.070394 0.808829
Si Si8 0.236810 0.575898 0.832638
O O1 0.576883 0.250000 0.308407
O O2 0.681008 0.053973 0.228957
O O3 0.500000 0.000000 0.500000
O O4 0.624689 0.987617 0.155233
O O5 0.405757 0.250000 0.169588
O O6 0.364811 0.033664 0.362996
O O7 0.309292 0.002598 0.287911
O O8 0.500000 0.000000 0.000000
O O9 0.880903 0.250000 0.608264
O O10 0.873749 0.018684 0.737992
O O11 0.785544 0.008593 0.717841
O O12 0.972258 0.004590 0.410631
O O13 0.618192 0.750000 0.536763
O O14 0.552096 0.024003 0.615289
O O15 0.737196 0.977566 0.304691
O O16 0.934589 0.250000 0.733782
O O17 0.860675 0.482314 0.950635
O O18 0.568468 0.750000 0.151523
O O19 0.595411 0.014370 0.024598
O O20 0.696079 0.250000 0.799307
O O21 0.226302 0.750000 0.818944
#
# Coordination Sequence:
#
# PCOD8075809 Si02
#       8
#     4   4   4   4   4   4   4   4
#     4  11  21  33  49  73 108 146 184 223 267 322
#     4  11  23  38  57  81 110 146 189 234 284 335
#     4   9  19  36  58  85 114 145 180 226 281 333
#     4  11  23  37  54  76 107 145 185 230 276 327
#     4   9  18  35  58  84 114 147 182 224 274 333
#     4  12  23  34  51  76 108 147 187 226 272 330
#     4  11  22  37  58  82 111 145 183 233 286 335
#     4  10  21  36  55  78 109 149 187 226 276 333
#
# _framework density 18.598472000000001
#
# number of rings (size 3 to 8) (size 9 to 14) (size 15 to 20)
#    0.000    1.500    2.500    3.375    0.000    5.500 
#    0.000    2.500    0.000    0.750    0.000    0.000 
#    0.000    0.000    0.000    0.000    0.000    0.000 
#
# Total GULP energy -396788.411949 kJ/mol
# GULP energy per Si atom -12399.637873 kJ/mol
# Density = 1.855614 g / cm^3
# Si number density = 18.598472 Si / 1000 Ang^3
#
#
#
# Elastic Constant Matrix: (Units=GPa)
#
#
# Indices 1 2 3 4 5 6 
#
# 1 93.6750 39.4616 45.1497 0.0000 11.6291 0.0000
# 2 39.4616 67.0765 31.5531 0.0000 9.6294 0.0000
# 3 45.1497 31.5531 108.3340 0.0000 15.5695 0.0000
# 4 0.0000 0.0000 0.0000 31.4354 0.0000 3.2923
# 5 11.6291 9.6294 15.5695 0.0000 29.3618 0.0000
# 6 0.0000 0.0000 0.0000 3.2923 0.0000 30.1046
#
#
#
# Elastic Compliance Matrix: (Units=1/GPa)
#
#
# Indices 1 2 3 4 5 6 
#
# 1 0.015975 -0.007112 -0.004343 0.000000 -0.001691 0.000000
# 2 -0.007112 0.020732 -0.002708 0.000000 -0.002546 0.000000
# 3 -0.004343 -0.002708 0.012400 0.000000 -0.003967 0.000000
# 4 0.000000 0.000000 0.000000 0.032180 0.000000 -0.003519
# 5 -0.001691 -0.002546 -0.003967 0.000000 0.037666 0.000000
# 6 0.000000 0.000000 0.000000 -0.003519 0.000000 0.033602
#
#
# Mechanical properties :
#
#
# Convention : Reuss Voigt Hill
#
# Bulk Modulus (GPa) = 48.12512 55.71270 51.91891
# Shear Modulus (GPa) = 26.62295 28.37513 27.49904
#
# Velocity S-wave (km/s) = 3.78757 3.91022 3.84938
# Velocity P-wave (km/s) = 6.71264 7.09979 6.90893
#
# Compressibility (1/GPa) = 0.02077917
#
# Stress axis : x y z
#
# Youngs Moduli (GPa) = 62.59974 48.23458 80.64743
#
# Poissons Ratio (x) = 0.34305 0.35026
# Poissons Ratio (y) = 0.44522 0.21842
# Poissons Ratio (z) = 0.27187 0.13064
#
# Static dielectric constant tensor:
#      x y z
#    x 5.414530 0.000000 -0.814420 
#    y 0.000000 3.435040 0.000000 
#    z -0.814420 0.000000 3.973220 
# 
# 
# High freq. dielectric constant tensor:
#      x y z
#    x 1.712230 0.000000 0.015710 
#    y 0.000000 1.724420 0.000000 
#    z 0.015710 0.000000 1.711540 
# 
# From -- ./inp_files/56069.got.cif
#   From: 2010.06.25/outbox.cif.g09.slc.cpg/sg11_29_cif.got.tgz:56069.got - 2010.06.27 23:14:04.
