data_PCOD8075609
_publ_section_title
;
Structure prediction by ZEFSAII (Michael W. Deem and Ramdas Pophale) SiO2 
 PCOD8075609
Probable space group: P 21/M
;
_chemical_formula_sum "Si O2"
_cell_formula_units_Z 24
_cell_length_a 14.619963
_cell_length_b 9.360167
_cell_length_c 14.702625
_cell_angle_alpha 90.000000
_cell_angle_beta 37.655185
_cell_angle_gamma 90.000000
_cell_volume 1229.137733
_symmetry_space_group_name_H-M "P 21/M"
_symmetry_group_IT_number 11
_symmetry_cell_setting 'monoclinic'
loop_
_space_group_symop_operation_xyz
x,y,z
-x,1/2+y,-z
-x,-y,-z
x,1/2-y,z
loop_
_atom_site_type_symbol
_atom_site_label
_atom_site_fract_x
_atom_site_fract_y
_atom_site_fract_z
Si Si1 0.858954 0.422257 0.568600
Si Si2 0.694864 0.250000 0.382803
Si Si3 0.114887 0.250000 0.771325
Si Si4 0.786091 0.250000 0.111394
Si Si5 0.553485 0.474439 0.236527
Si Si6 0.563617 0.924086 0.861992
Si Si7 0.233203 0.013777 0.552766
Si Si8 0.612512 0.750000 0.306224
O O1 0.857127 0.250000 0.587153
O O2 0.723258 0.503047 0.723145
O O3 0.856491 0.455028 0.463276
O O4 0.000000 0.500000 0.500000
O O5 0.788929 0.250000 0.217365
O O6 0.738938 0.386695 0.402433
O O7 0.513303 0.250000 0.514486
O O8 0.130208 0.118030 0.691622
O O9 0.230617 0.250000 0.764688
O O10 0.952641 0.250000 0.943028
O O11 0.697728 0.386233 0.148175
O O12 0.544896 0.474328 0.134276
O O13 0.392681 0.414476 0.398991
O O14 0.588501 0.623857 0.254443
O O15 0.573122 0.750000 0.861976
O O16 0.500000 0.000000 0.000000
#
# Coordination Sequence:
#
# PCOD8075609 Si02
#       8
#     4   2   2   2   4   4   4   2
#     4  11  24  43  69  99 131 168 216 270 328 388
#     4  10  20  40  67  88 121 161 218 267 313 374
#     4  12  26  38  59  94 133 171 210 261 329 384
#     4  12  24  40  59  90 131 169 204 267 321 388
#     4  10  22  41  67  90 124 164 221 261 316 375
#     4  11  24  42  69  99 132 171 214 269 326 387
#     4  10  22  41  66  92 122 166 218 264 312 381
#     4  10  22  40  65  96 117 169 218 271 315 380
#
# _framework density 19.525883
#
# number of rings (size 3 to 8) (size 9 to 14) (size 15 to 20)
#    0.000    1.333    1.667    3.500    9.333    6.667 
#    0.000    0.000    0.000    0.000    0.000    0.000 
#    0.000    0.000    0.000    0.000    0.000    0.000 
#
# Total GULP energy -297399.485826 kJ/mol
# GULP energy per Si atom -12391.645243 kJ/mol
# Density = 1.948144 g / cm^3
# Si number density = 19.525883 Si / 1000 Ang^3
#
#
#
# Elastic Constant Matrix: (Units=GPa)
#
#
# Indices 1 2 3 4 5 6 
#
# 1 133.3305 53.0367 85.4569 0.0000 1.9477 0.0000
# 2 53.0367 138.9418 73.8470 0.0000 -4.9082 0.0000
# 3 85.4569 73.8470 149.1002 0.0000 10.4545 0.0000
# 4 0.0000 0.0000 0.0000 26.4011 0.0000 7.9128
# 5 1.9477 -4.9082 10.4545 0.0000 35.6228 0.0000
# 6 0.0000 0.0000 0.0000 7.9128 0.0000 57.8684
#
#
#
# Elastic Compliance Matrix: (Units=1/GPa)
#
#
# Indices 1 2 3 4 5 6 
#
# 1 0.012053 -0.001156 -0.006410 0.000000 0.001063 0.000000
# 2 -0.001156 0.010166 -0.004569 0.000000 0.002805 0.000000
# 3 -0.006410 -0.004569 0.012929 0.000000 -0.004074 0.000000
# 4 0.000000 0.000000 0.000000 0.039496 0.000000 -0.005401
# 5 0.001063 0.002805 -0.004074 0.000000 0.029596 0.000000
# 6 0.000000 0.000000 0.000000 -0.005401 0.000000 0.018019
#
#
# Mechanical properties :
#
#
# Convention : Reuss Voigt Hill
#
# Bulk Modulus (GPa) = 91.93077 94.00599 92.96838
# Shear Modulus (GPa) = 33.29868 37.91391 35.60629
#
# Velocity S-wave (km/s) = 4.13408 4.41128 4.27493
# Velocity P-wave (km/s) = 8.36488 8.61363 8.49017
#
# Compressibility (1/GPa) = 0.01087775
#
# Stress axis : x y z
#
# Youngs Moduli (GPa) = 82.96650 98.36531 77.34336
#
# Poissons Ratio (x) = 0.11376 0.49577
# Poissons Ratio (y) = 0.09595 0.35338
# Poissons Ratio (z) = 0.53181 0.44943
#
# Static dielectric constant tensor:
#      x y z
#    x 4.711550 0.000000 0.768970 
#    y 0.000000 1.375350 0.000000 
#    z 0.768970 0.000000 4.186250 
# 
# 
# High freq. dielectric constant tensor:
#      x y z
#    x 1.774510 0.000000 0.009800 
#    y 0.000000 1.779070 0.000000 
#    z 0.009800 0.000000 1.754970 
# 
# From -- ./inp_files/51557.got.cif
#   From: 2010.06.25/outbox.cif.g09.slc.cpg/sg11_26_cif.got.tgz:51557.got - 2010.06.27 23:14:04.
