data_PCOD8075277
_publ_section_title
;
Structure prediction by ZEFSAII (Michael W. Deem and Ramdas Pophale) SiO2 
 PCOD8075277
Probable space group: P 21/M
;
_chemical_formula_sum "Si O2"
_cell_formula_units_Z 32
_cell_length_a 23.694339
_cell_length_b 8.688666
_cell_length_c 16.612528
_cell_angle_alpha 90.000000
_cell_angle_beta 151.975167
_cell_angle_gamma 90.000000
_cell_volume 1606.928463
_symmetry_space_group_name_H-M "P 21/M"
_symmetry_group_IT_number 11
_symmetry_cell_setting 'monoclinic'
loop_
_space_group_symop_operation_xyz
x,y,z
-x,1/2+y,-z
-x,-y,-z
x,1/2-y,z
loop_
_atom_site_type_symbol
_atom_site_label
_atom_site_fract_x
_atom_site_fract_y
_atom_site_fract_z
Si Si1 0.503524 0.068888 0.757886
Si Si2 0.291699 0.568980 0.385433
Si Si3 0.256249 0.068873 0.006456
Si Si4 0.931263 0.432018 0.792305
Si Si5 0.978373 0.931962 0.385992
Si Si6 0.831351 0.433239 0.501044
Si Si7 0.439403 0.932584 0.845427
Si Si8 0.198395 0.068910 0.117123
O O1 0.495008 0.250000 0.757919
O O2 0.393911 0.012742 0.565326
O O3 0.502869 0.992048 0.844731
O O4 0.626728 0.025410 0.869660
O O5 0.313716 0.750000 0.420524
O O6 0.160553 0.518322 0.253390
O O7 0.295087 0.515497 0.296604
O O8 0.281544 0.250000 0.030281
O O9 0.148136 0.016125 0.811839
O O10 0.222929 0.024984 0.055853
O O11 0.936579 0.250000 0.790253
O O12 0.882831 0.503042 0.648224
O O13 0.066104 0.493102 0.976227
O O14 0.982743 0.750000 0.396469
O O15 0.912943 0.003901 0.531432
O O16 0.000000 0.000000 0.500000
O O17 0.834688 0.250000 0.507674
O O18 0.696580 0.493211 0.321933
O O19 0.447805 0.750000 0.856680
O O20 0.500000 0.000000 0.000000
O O21 0.210943 0.250000 0.146399
#
# Coordination Sequence:
#
# PCOD8075277 Si02
#       8
#     4   4   4   4   4   4   4   4
#     4  12  26  43  62  86 119 160 208 257 302 353
#     4  11  22  38  62  90 123 159 196 244 305 364
#     4  10  22  41  63  86 118 161 203 248 303 361
#     4   9  16  33  61  90 120 155 193 239 298 360
#     4  10  21  38  62  91 121 157 198 243 297 357
#     4   9  17  35  63  89 118 158 196 237 294 355
#     4  11  23  41  65  93 127 162 202 247 300 360
#     4  10  20  37  63  91 120 155 199 246 298 364
#
# _framework density 19.913768000000001
#
# number of rings (size 3 to 8) (size 9 to 14) (size 15 to 20)
#    0.000    1.750    2.500    2.250    1.750    1.500 
#    0.000    1.250    0.000    0.000    0.000    0.000 
#    0.000    0.000    0.000    0.000    0.000    0.000 
#
# Total GULP energy -396809.589703 kJ/mol
# GULP energy per Si atom -12400.299678 kJ/mol
# Density = 1.986844 g / cm^3
# Si number density = 19.913768 Si / 1000 Ang^3
#
#
#
# Elastic Constant Matrix: (Units=GPa)
#
#
# Indices 1 2 3 4 5 6 
#
# 1 110.2084 35.4521 64.5693 0.0000 -4.5187 0.0000
# 2 35.4521 57.8302 36.1679 0.0000 0.2080 0.0000
# 3 64.5693 36.1679 126.2375 0.0000 -18.8017 0.0000
# 4 0.0000 0.0000 0.0000 30.1024 0.0000 -7.9876
# 5 -4.5187 0.2080 -18.8017 0.0000 43.9476 0.0000
# 6 0.0000 0.0000 0.0000 -7.9876 0.0000 21.6991
#
#
#
# Elastic Compliance Matrix: (Units=1/GPa)
#
#
# Indices 1 2 3 4 5 6 
#
# 1 0.014106 -0.004911 -0.005969 0.000000 -0.001080 0.000000
# 2 -0.004911 0.023119 -0.004490 0.000000 -0.002535 0.000000
# 3 -0.005969 -0.004490 0.013001 0.000000 0.004970 0.000000
# 4 0.000000 0.000000 0.000000 0.036816 0.000000 0.013552
# 5 -0.001080 -0.002535 0.004970 0.000000 0.024781 0.000000
# 6 0.000000 0.000000 0.000000 0.013552 0.000000 0.051073
#
#
# Mechanical properties :
#
#
# Convention : Reuss Voigt Hill
#
# Bulk Modulus (GPa) = 51.31360 62.96162 57.13761
# Shear Modulus (GPa) = 24.98337 29.68895 27.33616
#
# Velocity S-wave (km/s) = 3.54584 3.86537 3.70905
# Velocity P-wave (km/s) = 6.52594 7.18382 6.86277
#
# Compressibility (1/GPa) = 0.01948801
#
# Stress axis : x y z
#
# Youngs Moduli (GPa) = 70.89006 43.25360 76.91547
#
# Poissons Ratio (x) = 0.21240 0.45912
# Poissons Ratio (y) = 0.34811 0.34533
# Poissons Ratio (z) = 0.42316 0.19420
#
# Static dielectric constant tensor:
#      x y z
#    x 3.544950 0.000000 0.239050 
#    y 0.000000 3.345020 0.000000 
#    z 0.239050 0.000000 3.611100 
# 
# 
# High freq. dielectric constant tensor:
#      x y z
#    x 1.787600 0.000000 -0.004770 
#    y 0.000000 1.749380 0.000000 
#    z -0.004770 0.000000 1.792270 
# 
# From -- ./inp_files/55704.got.cif
#   From: 2010.06.25/outbox.cif.g09.slc.cpg/sg11_28_cif.got.tgz:55704.got - 2010.06.27 23:14:04.
