data_PCOD8075418
_publ_section_title
;
Structure prediction by ZEFSAII (Michael W. Deem and Ramdas Pophale) SiO2 
 PCOD8075418
Probable space group: P 21/M
;
_chemical_formula_sum "Si O2"
_cell_formula_units_Z 28
_cell_length_a 20.108679
_cell_length_b 9.030741
_cell_length_c 15.943793
_cell_angle_alpha 90.000000
_cell_angle_beta 29.557186
_cell_angle_gamma 90.000000
_cell_volume 1428.244796
_symmetry_space_group_name_H-M "P 21/M"
_symmetry_group_IT_number 11
_symmetry_cell_setting 'monoclinic'
loop_
_space_group_symop_operation_xyz
x,y,z
-x,1/2+y,-z
-x,-y,-z
x,1/2-y,z
loop_
_atom_site_type_symbol
_atom_site_label
_atom_site_fract_x
_atom_site_fract_y
_atom_site_fract_z
Si Si1 0.424326 0.079020 0.340483
Si Si2 0.119708 0.921788 0.917441
Si Si3 0.107619 0.422150 0.105551
Si Si4 0.712844 0.419029 0.957579
Si Si5 0.411802 0.921700 0.527183
Si Si6 0.862975 0.078435 0.627225
Si Si7 0.810936 0.077862 0.498318
O O1 0.401605 0.250000 0.388164
O O2 0.451305 0.990040 0.395346
O O3 0.294509 0.019925 0.435610
O O4 0.553522 0.055632 0.139538
O O5 0.084194 0.750000 0.965786
O O6 0.253954 0.946336 0.716350
O O7 0.142169 0.988848 0.984184
O O8 0.000000 0.000000 0.000000
O O9 0.131169 0.250000 0.061858
O O10 0.207626 0.472157 0.068759
O O11 0.955863 0.454532 0.299749
O O12 0.752272 0.250000 0.937148
O O13 0.750372 0.455984 0.820433
O O14 0.449817 0.750000 0.485257
O O15 0.500000 0.000000 0.500000
O O16 0.898484 0.250000 0.581236
O O17 0.808481 0.023310 0.597303
O O18 0.000000 0.000000 0.500000
O O19 0.771728 0.250000 0.532746
#
# Coordination Sequence:
#
# PCOD8075418 Si02
#       7
#     4   4   4   4   4   4   4
#     4  11  24  40  59  88 121 157 200 242 293 354
#     4  11  24  40  59  86 118 152 195 245 297 351
#     4  11  22  37  60  89 117 151 198 243 292 353
#     4  10  22  39  60  87 120 154 194 244 292 345
#     4  11  24  42  63  87 118 157 199 245 295 352
#     4  10  20  38  62  88 120 155 195 243 294 347
#     4  10  22  39  59  87 122 157 195 244 295 348
#
# _framework density 19.604482999999998
#
# number of rings (size 3 to 8) (size 9 to 14) (size 15 to 20)
#    0.000    1.429    1.429    3.429    0.000   12.571 
#    0.000    0.000    0.000    0.000    0.000    0.000 
#    0.000    0.000    0.000    0.000    0.000    0.000 
#
# Total GULP energy -347366.538135 kJ/mol
# GULP energy per Si atom -12405.947791 kJ/mol
# Density = 1.955986 g / cm^3
# Si number density = 19.604483 Si / 1000 Ang^3
#
#
#
# Elastic Constant Matrix: (Units=GPa)
#
#
# Indices 1 2 3 4 5 6 
#
# 1 88.7318 36.3428 10.6861 0.0000 4.9622 0.0000
# 2 36.3428 94.2932 37.7424 0.0000 -2.1980 0.0000
# 3 10.6861 37.7424 78.5838 0.0000 10.6907 0.0000
# 4 0.0000 0.0000 0.0000 23.7985 0.0000 -1.0544
# 5 4.9622 -2.1980 10.6907 0.0000 39.5395 0.0000
# 6 0.0000 0.0000 0.0000 -1.0544 0.0000 40.7460
#
#
#
# Elastic Compliance Matrix: (Units=1/GPa)
#
#
# Indices 1 2 3 4 5 6 
#
# 1 0.013632 -0.005815 0.001262 0.000000 -0.002375 0.000000
# 2 -0.005815 0.015857 -0.007314 0.000000 0.003589 0.000000
# 3 0.001262 -0.007314 0.016760 0.000000 -0.005096 0.000000
# 4 0.000000 0.000000 0.000000 0.042068 0.000000 0.001089
# 5 -0.002375 0.003589 -0.005096 0.000000 0.027167 0.000000
# 6 0.000000 0.000000 0.000000 0.001089 0.000000 0.024570
#
#
# Mechanical properties :
#
#
# Convention : Reuss Voigt Hill
#
# Bulk Modulus (GPa) = 44.41110 47.90570 46.15840
# Shear Modulus (GPa) = 29.18991 32.60598 30.89794
#
# Velocity S-wave (km/s) = 3.86287 4.08265 3.97428
# Velocity P-wave (km/s) = 6.52674 6.83470 6.68250
#
# Compressibility (1/GPa) = 0.02251689
#
# Stress axis : x y z
#
# Youngs Moduli (GPa) = 73.35474 63.06213 59.66764
#
# Poissons Ratio (x) = 0.36669 -0.07531
# Poissons Ratio (y) = 0.42654 0.43638
# Poissons Ratio (z) = -0.09258 0.46120
#
# Static dielectric constant tensor:
#      x y z
#    x 3.526720 0.000000 -0.117010 
#    y 0.000000 3.690030 0.000000 
#    z -0.117010 0.000000 3.322900 
# 
# 
# High freq. dielectric constant tensor:
#      x y z
#    x 1.770730 0.000000 0.005770 
#    y 0.000000 1.771450 0.000000 
#    z 0.005770 0.000000 1.778580 
# 
# From -- ./inp_files/54539.got.cif
#   From: 2010.06.25/outbox.cif.g09.slc.cpg/sg11_28_cif.got.tgz:54539.got - 2010.06.27 23:14:04.
