data_PCOD8075126
_publ_section_title
;
Structure prediction by ZEFSAII (Michael W. Deem and Ramdas Pophale) SiO2 
 PCOD8075126
Probable space group: P 21/M
;
_chemical_formula_sum "Si O2"
_cell_formula_units_Z 32
_cell_length_a 9.052015
_cell_length_b 19.023905
_cell_length_c 15.527125
_cell_angle_alpha 90.000000
_cell_angle_beta 141.219222
_cell_angle_gamma 90.000000
_cell_volume 1674.741330
_symmetry_space_group_name_H-M "P 21/M"
_symmetry_group_IT_number 11
_symmetry_cell_setting 'monoclinic'
loop_
_space_group_symop_operation_xyz
x,y,z
-x,1/2+y,-z
-x,-y,-z
x,1/2-y,z
loop_
_atom_site_type_symbol
_atom_site_label
_atom_site_fract_x
_atom_site_fract_y
_atom_site_fract_z
Si Si1 0.933418 0.831168 0.305129
Si Si2 0.091007 0.168312 0.904781
Si Si3 0.177199 0.957881 0.140557
Si Si4 0.975561 0.066627 0.375957
Si Si5 0.698574 0.565330 0.320756
Si Si6 0.542223 0.331739 0.396439
Si Si7 0.571987 0.169139 0.215180
Si Si8 0.290127 0.457858 0.361650
O O1 0.870210 0.750000 0.287552
O O2 0.929849 0.853157 0.204084
O O3 0.737132 0.873363 0.268800
O O4 0.188407 0.849717 0.459076
O O5 0.022224 0.250000 0.889095
O O6 0.916286 0.120242 0.880873
O O7 0.357851 0.152891 0.054180
O O8 0.422216 0.948605 0.202422
O O9 0.204894 0.002502 0.238919
O O10 0.000000 0.000000 0.000000
O O11 0.805519 0.132588 0.286081
O O12 0.192881 0.086815 0.537364
O O13 0.071080 0.045076 0.326466
O O14 0.821668 0.004767 0.344854
O O15 0.482843 0.250000 0.386778
O O16 0.501238 0.355070 0.279273
O O17 0.371660 0.378430 0.377712
O O18 0.639273 0.250000 0.248858
O O19 0.500000 0.500000 0.500000
#
# Coordination Sequence:
#
# PCOD8075126 Si02
#       8
#     4   4   4   4   4   4   4   4
#     4  10  21  38  61  88 119 155 199 246 301 362
#     4  10  22  41  62  86 121 161 196 244 303 361
#     4  12  25  40  61  91 123 161 205 248 296 362
#     4  11  22  36  60  87 116 153 195 248 298 350
#     4  11  22  37  59  86 118 154 194 247 298 349
#     4  10  20  37  60  85 117 156 198 244 297 362
#     4  10  21  40  64  87 117 156 198 243 297 359
#     4  12  23  38  59  88 121 161 199 250 300 352
#
# _framework density 19.107427999999999
#
# number of rings (size 3 to 8) (size 9 to 14) (size 15 to 20)
#    0.000    1.250    2.500    4.500    0.000    2.000 
#    0.000    2.500    0.000    4.500    0.000    0.000 
#    0.000    0.000    0.000    0.000    0.000    0.000 
#
# Total GULP energy -396980.473539 kJ/mol
# GULP energy per Si atom -12405.639798 kJ/mol
# Density = 1.906394 g / cm^3
# Si number density = 19.107428 Si / 1000 Ang^3
#
#
#
# Elastic Constant Matrix: (Units=GPa)
#
#
# Indices 1 2 3 4 5 6 
#
# 1 113.0829 56.2976 38.1501 0.0000 8.3330 0.0000
# 2 56.2976 89.8545 40.8518 0.0000 3.4040 0.0000
# 3 38.1501 40.8518 96.8012 0.0000 -6.8455 0.0000
# 4 0.0000 0.0000 0.0000 26.2521 0.0000 3.5913
# 5 8.3330 3.4040 -6.8455 0.0000 31.2769 0.0000
# 6 0.0000 0.0000 0.0000 3.5913 0.0000 46.6961
#
#
#
# Elastic Compliance Matrix: (Units=1/GPa)
#
#
# Indices 1 2 3 4 5 6 
#
# 1 0.013530 -0.007197 -0.002534 0.000000 -0.003376 0.000000
# 2 -0.007197 0.017848 -0.004771 0.000000 -0.001069 0.000000
# 3 -0.002534 -0.004771 0.013638 0.000000 0.004179 0.000000
# 4 0.000000 0.000000 0.000000 0.038497 0.000000 -0.002961
# 5 -0.003376 -0.001069 0.004179 0.000000 0.033903 0.000000
# 6 0.000000 0.000000 0.000000 -0.002961 0.000000 0.021643
#
#
# Mechanical properties :
#
#
# Convention : Reuss Voigt Hill
#
# Bulk Modulus (GPa) = 62.45419 63.37084 62.91252
# Shear Modulus (GPa) = 28.83501 31.80762 30.32131
#
# Velocity S-wave (km/s) = 3.88893 4.08447 3.98790
# Velocity P-wave (km/s) = 7.27474 7.44858 7.36217
#
# Compressibility (1/GPa) = 0.01601174
#
# Stress axis : x y z
#
# Youngs Moduli (GPa) = 73.91201 56.02802 73.32393
#
# Poissons Ratio (x) = 0.40324 0.18577
# Poissons Ratio (y) = 0.53195 0.34986
# Poissons Ratio (z) = 0.18726 0.26733
#
# Static dielectric constant tensor:
#      x y z
#    x 3.457740 0.000000 -0.129000 
#    y 0.000000 3.706300 0.000000 
#    z -0.129000 0.000000 3.634340 
# 
# 
# High freq. dielectric constant tensor:
#      x y z
#    x 1.737270 0.000000 -0.008160 
#    y 0.000000 1.755280 0.000000 
#    z -0.008160 0.000000 1.750880 
# 
# From -- ./inp_files/48284.got.cif
#   From: 2010.06.25/outbox.cif.g09.slc.cpg/sg11_25_cif.got.tgz:48284.got - 2010.06.27 23:14:04.
