data_PCOD8075783
_publ_section_title
;
Structure prediction by ZEFSAII (Michael W. Deem and Ramdas Pophale) SiO2 
 PCOD8075783
Probable space group: P 21/M
;
_chemical_formula_sum "Si O2"
_cell_formula_units_Z 28
_cell_length_a 17.455237
_cell_length_b 8.917073
_cell_length_c 14.022291
_cell_angle_alpha 90.000000
_cell_angle_beta 136.136384
_cell_angle_gamma 90.000000
_cell_volume 1512.395107
_symmetry_space_group_name_H-M "P 21/M"
_symmetry_group_IT_number 11
_symmetry_cell_setting 'monoclinic'
loop_
_space_group_symop_operation_xyz
x,y,z
-x,1/2+y,-z
-x,-y,-z
x,1/2-y,z
loop_
_atom_site_type_symbol
_atom_site_label
_atom_site_fract_x
_atom_site_fract_y
_atom_site_fract_z
Si Si1 0.371729 0.573993 0.642538
Si Si2 0.834189 0.073526 0.672105
Si Si3 0.738438 0.420849 0.097584
Si Si4 0.208616 0.571494 0.155277
Si Si5 0.413066 0.922255 0.219785
Si Si6 0.939319 0.426577 0.148158
Si Si7 0.389568 0.073284 0.860961
O O1 0.376068 0.750000 0.668286
O O2 0.266183 0.528223 0.485614
O O3 0.479600 0.526871 0.679487
O O4 0.363365 0.482761 0.732175
O O5 0.848256 0.250000 0.691938
O O6 0.812256 0.006485 0.758153
O O7 0.945087 0.005718 0.727402
O O8 0.742691 0.250000 0.138148
O O9 0.856201 0.468364 0.159265
O O10 0.712957 0.528977 0.163361
O O11 0.642576 0.437748 0.933445
O O12 0.209247 0.750000 0.153041
O O13 0.328425 0.518043 0.224601
O O14 0.112174 0.513609 0.997907
O O15 0.447130 0.750000 0.268862
O O16 0.957826 0.250000 0.159930
O O17 0.405736 0.250000 0.873787
O O18 0.500000 0.000000 0.000000
#
# Coordination Sequence:
#
# PCOD8075783 Si02
#       7
#     4   4   4   4   4   4   4
#     4  11  23  36  51  77 113 148 182 222 269 320
#     4  10  21  36  53  76 112 151 184 224 268 314
#     4   9  18  34  56  83 110 137 174 224 274 317
#     4   8  16  33  56  81 108 142 182 225 274 317
#     4   9  17  32  55  79 106 142 179 220 274 325
#     4   9  18  34  58  83 108 141 182 224 268 320
#     4  12  23  36  58  84 108 138 176 221 270 325
#
# _framework density 18.513680999999998
#
# number of rings (size 3 to 8) (size 9 to 14) (size 15 to 20)
#    0.000    2.286    1.429    3.857    0.000    2.286 
#    0.000    3.571    0.000    0.000    0.000    0.000 
#    0.000    0.000    0.000    0.000    0.000    0.000 
#
# Total GULP energy -347226.932529 kJ/mol
# GULP energy per Si atom -12400.961876 kJ/mol
# Density = 1.847154 g / cm^3
# Si number density = 18.513681 Si / 1000 Ang^3
#
#
#
# Elastic Constant Matrix: (Units=GPa)
#
#
# Indices 1 2 3 4 5 6 
#
# 1 121.1454 40.5502 63.8607 0.0000 16.6779 0.0000
# 2 40.5502 64.1981 41.9472 0.0000 7.3498 0.0000
# 3 63.8607 41.9472 99.6290 0.0000 21.9913 0.0000
# 4 0.0000 0.0000 0.0000 22.5226 0.0000 4.0239
# 5 16.6779 7.3498 21.9913 0.0000 27.4612 0.0000
# 6 0.0000 0.0000 0.0000 4.0239 0.0000 31.3613
#
#
#
# Elastic Compliance Matrix: (Units=1/GPa)
#
#
# Indices 1 2 3 4 5 6 
#
# 1 0.013199 -0.003951 -0.006391 0.000000 -0.001841 0.000000
# 2 -0.003951 0.022746 -0.007568 0.000000 0.002372 0.000000
# 3 -0.006391 -0.007568 0.019455 0.000000 -0.009673 0.000000
# 4 0.000000 0.000000 0.000000 0.045441 0.000000 -0.005830
# 5 -0.001841 0.002372 -0.009673 0.000000 0.044645 0.000000
# 6 0.000000 0.000000 0.000000 -0.005830 0.000000 0.032635
#
#
# Mechanical properties :
#
#
# Convention : Reuss Voigt Hill
#
# Bulk Modulus (GPa) = 51.06943 64.18764 57.62853
# Shear Modulus (GPa) = 22.67921 25.50998 24.09460
#
# Velocity S-wave (km/s) = 3.50379 3.71603 3.61147
# Velocity P-wave (km/s) = 6.63426 7.29092 6.97032
#
# Compressibility (1/GPa) = 0.01958118
#
# Stress axis : x y z
#
# Youngs Moduli (GPa) = 75.76217 43.96470 51.40032
#
# Poissons Ratio (x) = 0.17369 0.32849
# Poissons Ratio (y) = 0.29931 0.38899
# Poissons Ratio (z) = 0.48418 0.33272
#
# Static dielectric constant tensor:
#      x y z
#    x 3.665540 0.000000 -0.015040 
#    y 0.000000 3.289660 0.000000 
#    z -0.015040 0.000000 3.302750 
# 
# 
# High freq. dielectric constant tensor:
#      x y z
#    x 1.733120 0.000000 0.004950 
#    y 0.000000 1.700580 0.000000 
#    z 0.004950 0.000000 1.700840 
# 
# From -- ./inp_files/44672.got.cif
#   From: 2010.06.25/outbox.cif.g09.slc.cpg/sg11_23_cif.got.tgz:44672.got - 2010.06.27 23:14:04.
