data_PCOD8075202
_publ_section_title
;
Structure prediction by ZEFSAII (Michael W. Deem and Ramdas Pophale) SiO2 
 PCOD8075202
Probable space group: P 21/M
;
_chemical_formula_sum "Si O2"
_cell_formula_units_Z 32
_cell_length_a 22.240269
_cell_length_b 8.860886
_cell_length_c 11.141127
_cell_angle_alpha 90.000000
_cell_angle_beta 131.625200
_cell_angle_gamma 90.000000
_cell_volume 1641.198070
_symmetry_space_group_name_H-M "P 21/M"
_symmetry_group_IT_number 11
_symmetry_cell_setting 'monoclinic'
loop_
_space_group_symop_operation_xyz
x,y,z
-x,1/2+y,-z
-x,-y,-z
x,1/2-y,z
loop_
_atom_site_type_symbol
_atom_site_label
_atom_site_fract_x
_atom_site_fract_y
_atom_site_fract_z
Si Si1 0.515791 0.427111 0.148279
Si Si2 0.795052 0.074088 0.226498
Si Si3 0.866475 0.925344 0.096392
Si Si4 0.826256 0.575973 0.516883
Si Si5 0.668265 0.923739 0.456890
Si Si6 0.694765 0.924203 0.765913
Si Si7 0.375644 0.925444 0.105333
Si Si8 0.992234 0.927035 0.860483
O O1 0.509164 0.250000 0.124379
O O2 0.604472 0.469191 0.308966
O O3 0.451126 0.481732 0.158806
O O4 0.500000 0.500000 0.000000
O O5 0.811476 0.250000 0.227225
O O6 0.816284 0.029583 0.389018
O O7 0.701745 0.034656 0.078368
O O8 0.851795 0.980806 0.212309
O O9 0.888826 0.750000 0.128355
O O10 0.788634 0.957975 0.911682
O O11 0.939794 0.016690 0.139151
O O12 0.828419 0.750000 0.478129
O O13 0.754378 0.545473 0.513239
O O14 0.906851 0.527784 0.691497
O O15 0.642086 0.750000 0.406004
O O16 0.673160 0.968024 0.602393
O O17 0.676010 0.750000 0.769773
O O18 0.640176 0.027753 0.778517
O O19 0.397161 0.750000 0.128591
O O20 0.000177 0.750000 0.887746
O O21 0.000000 0.000000 0.000000
#
# Coordination Sequence:
#
# PCOD8075202 Si02
#       8
#     4   4   4   4   4   4   4   4
#     4  12  25  40  59  84 114 149 189 233 284 339
#     4  10  21  37  59  87 116 148 189 236 283 333
#     4  10  20  37  61  87 116 152 191 231 281 338
#     4  10  22  39  59  83 113 151 191 233 283 339
#     4  10  21  39  61  84 113 149 190 235 282 334
#     4   9  19  37  61  87 116 152 191 231 280 337
#     4  10  21  38  60  87 117 149 188 233 281 335
#     4  11  23  39  59  85 116 150 191 236 284 338
#
# _framework density 19.497952000000002
#
# number of rings (size 3 to 8) (size 9 to 14) (size 15 to 20)
#    0.000    1.750    0.000    4.125    0.000    9.000 
#    0.000    1.250    0.000    0.000    0.000    0.000 
#    0.000    0.000    0.000    0.000    0.000    0.000 
#
# Total GULP energy -397000.895359 kJ/mol
# GULP energy per Si atom -12406.277980 kJ/mol
# Density = 1.945357 g / cm^3
# Si number density = 19.497952 Si / 1000 Ang^3
#
#
#
# Elastic Constant Matrix: (Units=GPa)
#
#
# Indices 1 2 3 4 5 6 
#
# 1 90.5575 31.4835 43.8434 0.0000 0.8592 0.0000
# 2 31.4835 77.9332 40.6163 0.0000 -2.7698 0.0000
# 3 43.8434 40.6163 104.2139 0.0000 -10.2739 0.0000
# 4 0.0000 0.0000 0.0000 33.3116 0.0000 -2.1741
# 5 0.8592 -2.7698 -10.2739 0.0000 32.1063 0.0000
# 6 0.0000 0.0000 0.0000 -2.1741 0.0000 39.1762
#
#
#
# Elastic Compliance Matrix: (Units=1/GPa)
#
#
# Indices 1 2 3 4 5 6 
#
# 1 0.014705 -0.003363 -0.005104 0.000000 -0.002317 0.000000
# 2 -0.003363 0.016884 -0.005176 0.000000 -0.000110 0.000000
# 3 -0.005104 -0.005176 0.014177 0.000000 0.004227 0.000000
# 4 0.000000 0.000000 0.000000 0.030129 0.000000 0.001672
# 5 -0.002317 -0.000110 0.004227 0.000000 0.032552 0.000000
# 6 0.000000 0.000000 0.000000 0.001672 0.000000 0.025618
#
#
# Mechanical properties :
#
#
# Convention : Reuss Voigt Hill
#
# Bulk Modulus (GPa) = 54.11494 56.06567 55.09031
# Shear Modulus (GPa) = 29.84869 31.36959 30.60914
#
# Velocity S-wave (km/s) = 3.91687 4.01542 3.96645
# Velocity P-wave (km/s) = 6.94768 7.09332 7.02088
#
# Compressibility (1/GPa) = 0.01847918
#
# Stress axis : x y z
#
# Youngs Moduli (GPa) = 68.00395 59.22827 70.53558
#
# Poissons Ratio (x) = 0.19916 0.36004
# Poissons Ratio (y) = 0.22867 0.36512
# Poissons Ratio (z) = 0.34712 0.30659
#
# Static dielectric constant tensor:
#      x y z
#    x 3.735300 0.000000 -0.008000 
#    y 0.000000 3.615170 0.000000 
#    z -0.008000 0.000000 3.606880 
# 
# 
# High freq. dielectric constant tensor:
#      x y z
#    x 1.772370 0.000000 -0.003030 
#    y 0.000000 1.764600 0.000000 
#    z -0.003030 0.000000 1.762500 
# 
# From -- ./inp_files/42944.got.cif
#   From: 2010.06.25/outbox.cif.g09.slc.cpg/sg11_22_cif.got.tgz:42944.got - 2010.06.27 23:14:04.
