data_PCOD8075231
_publ_section_title
;
Structure prediction by ZEFSAII (Michael W. Deem and Ramdas Pophale) SiO2 
 PCOD8075231
Probable space group: P 21/M
;
_chemical_formula_sum "Si O2"
_cell_formula_units_Z 28
_cell_length_a 10.938877
_cell_length_b 14.810144
_cell_length_c 8.637908
_cell_angle_alpha 90.000000
_cell_angle_beta 62.497365
_cell_angle_gamma 90.000000
_cell_volume 1241.249597
_symmetry_space_group_name_H-M "P 21/M"
_symmetry_group_IT_number 11
_symmetry_cell_setting 'monoclinic'
loop_
_space_group_symop_operation_xyz
x,y,z
-x,1/2+y,-z
-x,-y,-z
x,1/2-y,z
loop_
_atom_site_type_symbol
_atom_site_label
_atom_site_fract_x
_atom_site_fract_y
_atom_site_fract_z
Si Si1 0.918678 0.355878 0.683151
Si Si2 0.148215 0.152333 0.030560
Si Si3 0.366661 0.386994 0.137689
Si Si4 0.249805 0.491625 0.761516
Si Si5 0.228611 0.147831 0.538111
Si Si6 0.879277 0.353822 0.363635
Si Si7 0.659306 0.429421 0.987667
O O1 0.936888 0.250000 0.662683
O O2 0.861634 0.388953 0.549658
O O3 0.808232 0.381691 0.880485
O O4 0.072046 0.393706 0.627885
O O5 0.123304 0.250000 0.963252
O O6 0.297975 0.155121 0.024716
O O7 0.040504 0.137491 0.231369
O O8 0.133378 0.071323 0.915125
O O9 0.292869 0.348970 0.331434
O O10 0.352211 0.495420 0.139821
O O11 0.529981 0.361183 0.045458
O O12 0.315406 0.421003 0.598319
O O13 0.200637 0.582215 0.707438
O O14 0.353540 0.525163 0.834284
O O15 0.233454 0.250000 0.601831
O O16 0.827533 0.250000 0.372932
#
# Coordination Sequence:
#
# PCOD8075231 Si02
#       7
#     4   4   4   4   4   4   4
#     4  10  22  39  60  90 122 157 212 264 302 367
#     4  10  20  37  61  91 122 161 210 256 302 364
#     4  10  21  41  65  86 121 165 214 256 306 371
#     4  11  24  37  59  92 134 161 197 255 326 367
#     4  11  23  39  64  94 123 165 215 259 306 375
#     4  10  21  38  60  90 124 161 207 256 310 368
#     4  10  24  40  60  93 123 165 207 255 319 379
#
# _framework density 22.557914
#
# number of rings (size 3 to 8) (size 9 to 14) (size 15 to 20)
#    0.000    1.714    1.429    2.143    6.000    3.429 
#    0.000    1.429    0.000    5.143    0.000    0.000 
#    0.000    0.000    0.000    0.000    0.000    0.000 
#
# Total GULP energy -346967.983746 kJ/mol
# GULP energy per Si atom -12391.713705 kJ/mol
# Density = 2.250657 g / cm^3
# Si number density = 22.557914 Si / 1000 Ang^3
#
#
#
# Elastic Constant Matrix: (Units=GPa)
#
#
# Indices 1 2 3 4 5 6 
#
# 1 58.9427 27.7575 23.4099 0.0000 1.9223 0.0000
# 2 27.7575 82.0707 24.7154 0.0000 14.4984 0.0000
# 3 23.4099 24.7154 83.1124 0.0000 13.2236 0.0000
# 4 0.0000 0.0000 0.0000 26.4222 0.0000 3.2159
# 5 1.9223 14.4984 13.2236 0.0000 40.1982 0.0000
# 6 0.0000 0.0000 0.0000 3.2159 0.0000 16.7716
#
#
#
# Elastic Compliance Matrix: (Units=1/GPa)
#
#
# Indices 1 2 3 4 5 6 
#
# 1 0.021764 -0.006456 -0.004659 0.000000 0.002820 0.000000
# 2 -0.006456 0.015845 -0.002145 0.000000 -0.004700 0.000000
# 3 -0.004659 -0.002145 0.014587 0.000000 -0.003802 0.000000
# 4 0.000000 0.000000 0.000000 0.038751 0.000000 -0.007431
# 5 0.002820 -0.004700 -0.003802 0.000000 0.027688 0.000000
# 6 0.000000 0.000000 0.000000 -0.007431 0.000000 0.061049
#
#
# Mechanical properties :
#
#
# Convention : Reuss Voigt Hill
#
# Bulk Modulus (GPa) = 38.94900 41.76572 40.35736
# Shear Modulus (GPa) = 23.28129 26.56125 24.92127
#
# Velocity S-wave (km/s) = 3.21607 3.43515 3.32741
# Velocity P-wave (km/s) = 5.57624 5.85566 5.71766
#
# Compressibility (1/GPa) = 0.02567460
#
# Stress axis : x y z
#
# Youngs Moduli (GPa) = 45.94646 63.11284 68.55355
#
# Poissons Ratio (x) = 0.40747 0.31940
# Poissons Ratio (y) = 0.29664 0.14708
# Poissons Ratio (z) = 0.21407 0.13541
#
# Static dielectric constant tensor:
#      x y z
#    x 3.849180 0.000000 0.134900 
#    y 0.000000 4.110420 0.000000 
#    z 0.134900 0.000000 4.038820 
# 
# 
# High freq. dielectric constant tensor:
#      x y z
#    x 1.861100 0.000000 0.019930 
#    y 0.000000 1.896160 0.000000 
#    z 0.019930 0.000000 1.884940 
# 
# From -- ./inp_files/17910.got.cif
#   From: 2010.06.25/outbox.cif.g09.slc.cpg/sg11_9_cif.got.tgz:17910.got - 2010.06.27 23:14:04.
