data_PCOD8075167
_publ_section_title
;
Structure prediction by ZEFSAII (Michael W. Deem and Ramdas Pophale) SiO2 
 PCOD8075167
Probable space group: P 21/M
;
_chemical_formula_sum "Si O2"
_cell_formula_units_Z 32
_cell_length_a 11.812457
_cell_length_b 12.641462
_cell_length_c 22.370736
_cell_angle_alpha 90.000000
_cell_angle_beta 152.627924
_cell_angle_gamma 90.000000
_cell_volume 1535.874219
_symmetry_space_group_name_H-M "P 21/M"
_symmetry_group_IT_number 11
_symmetry_cell_setting 'monoclinic'
loop_
_space_group_symop_operation_xyz
x,y,z
-x,1/2+y,-z
-x,-y,-z
x,1/2-y,z
loop_
_atom_site_type_symbol
_atom_site_label
_atom_site_fract_x
_atom_site_fract_y
_atom_site_fract_z
Si Si1 0.873507 0.426130 0.154538
Si Si2 0.297260 0.376556 0.125337
Si Si3 0.023816 0.479238 0.104015
Si Si4 0.466523 0.870225 0.334021
Si Si5 0.341336 0.137723 0.921947
Si Si6 0.087470 0.131106 0.681746
Si Si7 0.733229 0.973281 0.351714
Si Si8 0.724718 0.535144 0.564513
O O1 0.814129 0.550445 0.116854
O O2 0.945931 0.397004 0.120518
O O3 0.083918 0.404905 0.302149
O O4 0.634656 0.368322 0.068289
O O5 0.307352 0.250000 0.118066
O O6 0.112861 0.401513 0.093348
O O7 0.571175 0.419773 0.268446
O O8 0.193989 0.442216 0.020089
O O9 0.239567 0.550647 0.232663
O O10 0.372500 0.750000 0.288270
O O11 0.609727 0.892472 0.339845
O O12 0.639638 0.884735 0.473147
O O13 0.251007 0.250000 0.905414
O O14 0.292575 0.128692 0.828854
O O15 0.994900 0.250000 0.624482
O O16 0.237214 0.084108 0.697090
O O17 0.847117 0.065156 0.588667
O O18 0.000000 0.000000 0.500000
O O19 0.500000 0.500000 0.500000
#
# Coordination Sequence:
#
# PCOD8075167 Si02
#       8
#     4   4   4   4   4   4   4   4
#     4  10  20  37  61  81 121 158 191 250 301 348
#     4  10  23  40  63  93 123 158 204 255 314 370
#     4  10  21  41  62  88 123 159 203 258 305 367
#     4  11  23  39  61  89 123 164 206 253 311 366
#     4   9  20  36  57  87 113 149 200 242 295 356
#     4  10  21  40  64  86 116 161 204 247 307 370
#     4  11  22  41  62  89 126 156 200 254 305 365
#     4  11  22  40  58  89 126 157 206 255 295 361
#
# _framework density 20.835039999999999
#
# number of rings (size 3 to 8) (size 9 to 14) (size 15 to 20)
#    0.000    1.750    2.500    1.500    0.000    3.500 
#    0.000    3.125    0.000    0.000    0.000    0.000 
#    0.000    0.000    0.000    0.000    0.000    0.000 
#
# Total GULP energy -396705.126810 kJ/mol
# GULP energy per Si atom -12397.035213 kJ/mol
# Density = 2.078762 g / cm^3
# Si number density = 20.835040 Si / 1000 Ang^3
#
#
#
# Elastic Constant Matrix: (Units=GPa)
#
#
# Indices 1 2 3 4 5 6 
#
# 1 87.6111 3.5199 4.8310 0.0000 -3.3173 0.0000
# 2 3.5199 75.2858 2.7778 0.0000 -4.0881 0.0000
# 3 4.8310 2.7778 106.9322 0.0000 -1.4065 0.0000
# 4 0.0000 0.0000 0.0000 13.2733 0.0000 -11.7613
# 5 -3.3173 -4.0881 -1.4065 0.0000 30.0937 0.0000
# 6 0.0000 0.0000 0.0000 -11.7613 0.0000 7.4975
#
#
#
# Elastic Compliance Matrix: (Units=1/GPa)
#
#
# Indices 1 2 3 4 5 6 
#
# 1 0.011504 -0.000455 -0.000492 0.000000 0.001183 0.000000
# 2 -0.000455 0.013411 -0.000305 0.000000 0.001757 0.000000
# 3 -0.000492 -0.000305 0.009386 0.000000 0.000343 0.000000
# 4 0.000000 0.000000 0.000000 -0.193179 0.000000 -0.303038
# 5 0.001183 0.001757 0.000343 0.000000 0.033615 0.000000
# 6 0.000000 0.000000 0.000000 -0.303038 0.000000 -0.341995
#
#
# Mechanical properties :
#
#
# Convention : Reuss Voigt Hill
#
# Bulk Modulus (GPa) = 31.45009 32.45408 31.95208
# Shear Modulus (GPa) = -11.00949 27.41959 8.20505
#
# Velocity S-wave (km/s) = -2.30122 3.63165 1.98662
# Velocity P-wave (km/s) = 2.84021 5.76157 4.54216
#
# Compressibility (1/GPa) = 0.03179642
#
# Stress axis : x y z
#
# Youngs Moduli (GPa) = 86.92376 74.56744 106.53727
#
# Poissons Ratio (x) = 0.03396 0.05245
# Poissons Ratio (y) = 0.03959 0.03246
# Poissons Ratio (z) = 0.04280 0.02272
#
# Static dielectric constant tensor:
#      x y z
#    x 3.626230 0.000000 -0.055330 
#    y 0.000000 3.653560 0.000000 
#    z -0.055330 0.000000 3.942130 
# 
# 
# High freq. dielectric constant tensor:
#      x y z
#    x 1.825650 0.000000 -0.005260 
#    y 0.000000 1.799640 0.000000 
#    z -0.005260 0.000000 1.825620 
# 
# From -- ./inp_files/68612.got.cif
#   From: 2010.06.25/outbox.cif.g09.slc.cpg/sg11_35_cif.got.tgz:68612.got - 2010.06.27 23:14:04.
