data_PCOD8075512
_publ_section_title
;
Structure prediction by ZEFSAII (Michael W. Deem and Ramdas Pophale) SiO2 
 PCOD8075512
Probable space group: P 21/M
;
_chemical_formula_sum "Si O2"
_cell_formula_units_Z 28
_cell_length_a 27.119452
_cell_length_b 8.851381
_cell_length_c 9.298486
_cell_angle_alpha 90.000000
_cell_angle_beta 39.141190
_cell_angle_gamma 90.000000
_cell_volume 1408.945701
_symmetry_space_group_name_H-M "P 21/M"
_symmetry_group_IT_number 11
_symmetry_cell_setting 'monoclinic'
loop_
_space_group_symop_operation_xyz
x,y,z
-x,1/2+y,-z
-x,-y,-z
x,1/2-y,z
loop_
_atom_site_type_symbol
_atom_site_label
_atom_site_fract_x
_atom_site_fract_y
_atom_site_fract_z
Si Si1 0.991905 0.930058 0.676054
Si Si2 0.463726 0.081111 0.214837
Si Si3 0.267821 0.929611 0.045197
Si Si4 0.562671 0.418272 0.264622
Si Si5 0.868113 0.930200 0.464665
Si Si6 0.294544 0.428553 0.686530
Si Si7 0.846546 0.573263 0.189640
O O1 0.996922 0.750000 0.650578
O O2 0.910645 0.986319 0.930637
O O3 0.000000 0.000000 0.500000
O O4 0.058173 0.988965 0.632302
O O5 0.442492 0.250000 0.216559
O O6 0.534169 0.074860 0.166996
O O7 0.382303 0.009920 0.456262
O O8 0.500000 0.000000 0.000000
O O9 0.254834 0.750000 0.090765
O O10 0.207178 0.021490 0.276504
O O11 0.351435 0.988262 0.915181
O O12 0.259539 0.978521 0.898645
O O13 0.500000 0.500000 0.500000
O O14 0.567238 0.250000 0.315128
O O15 0.878101 0.750000 0.449113
O O16 0.858867 0.992825 0.322080
O O17 0.294047 0.250000 0.724405
O O18 0.239899 0.466631 0.673258
O O19 0.857579 0.750000 0.177925
#
# Coordination Sequence:
#
# PCOD8075512 Si02
#       7
#     4   4   4   4   4   4   4
#     4  11  22  40  65  93 124 156 196 241 291 350
#     4  10  22  37  57  84 117 155 198 246 297 354
#     4  11  23  38  58  87 120 154 197 247 298 353
#     4  10  21  38  58  84 116 153 198 247 299 353
#     4  11  23  40  62  88 119 157 198 240 293 350
#     4  10  20  39  62  85 115 155 201 246 295 355
#     4   9  21  39  61  88 118 153 195 243 292 348
#
# _framework density 19.873016
#
# number of rings (size 3 to 8) (size 9 to 14) (size 15 to 20)
#    0.000    1.714    1.429    2.571    2.000    2.857 
#    0.000    4.286    0.000    0.000    0.000    0.000 
#    0.000    0.000    0.000    0.000    0.000    0.000 
#
# Total GULP energy -347170.321963 kJ/mol
# GULP energy per Si atom -12398.940070 kJ/mol
# Density = 1.982778 g / cm^3
# Si number density = 19.873016 Si / 1000 Ang^3
#
#
#
# Elastic Constant Matrix: (Units=GPa)
#
#
# Indices 1 2 3 4 5 6 
#
# 1 127.2903 26.0658 42.0060 0.0000 0.7958 0.0000
# 2 26.0658 53.5103 26.2916 0.0000 6.5368 0.0000
# 3 42.0060 26.2916 115.6693 0.0000 11.1474 0.0000
# 4 0.0000 0.0000 0.0000 33.2258 0.0000 1.3736
# 5 0.7958 6.5368 11.1474 0.0000 41.2527 0.0000
# 6 0.0000 0.0000 0.0000 1.3736 0.0000 29.0013
#
#
#
# Elastic Compliance Matrix: (Units=1/GPa)
#
#
# Indices 1 2 3 4 5 6 
#
# 1 0.009456 -0.003379 -0.002772 0.000000 0.001102 0.000000
# 2 -0.003379 0.022423 -0.003628 0.000000 -0.002508 0.000000
# 3 -0.002772 -0.003628 0.010695 0.000000 -0.002262 0.000000
# 4 0.000000 0.000000 0.000000 0.030156 0.000000 -0.001428
# 5 0.001102 -0.002508 -0.002262 0.000000 0.025228 0.000000
# 6 0.000000 0.000000 0.000000 -0.001428 0.000000 0.034549
#
#
# Mechanical properties :
#
#
# Convention : Reuss Voigt Hill
#
# Bulk Modulus (GPa) = 43.44903 53.91072 48.67987
# Shear Modulus (GPa) = 31.30168 34.16973 32.73571
#
# Velocity S-wave (km/s) = 3.97304 4.15107 4.06303
# Velocity P-wave (km/s) = 6.55420 7.08249 6.82346
#
# Compressibility (1/GPa) = 0.02301548
#
# Stress axis : x y z
#
# Youngs Moduli (GPa) = 105.75453 44.59765 93.50444
#
# Poissons Ratio (x) = 0.15068 0.25921
# Poissons Ratio (y) = 0.35731 0.33924
# Poissons Ratio (z) = 0.29317 0.16180
#
# Static dielectric constant tensor:
#      x y z
#    x 4.599060 0.000000 -0.416420 
#    y 0.000000 3.514750 0.000000 
#    z -0.416420 0.000000 3.902040 
# 
# 
# High freq. dielectric constant tensor:
#      x y z
#    x 1.792250 0.000000 -0.004950 
#    y 0.000000 1.759820 0.000000 
#    z -0.004950 0.000000 1.785940 
# 
# From -- ./inp_files/28368.got.cif
#   From: 2010.06.25/outbox.cif.g09.slc.cpg/sg11_15_cif.got.tgz:28368.got - 2010.06.27 23:14:04.
