data_PCOD8075995
_publ_section_title
;
Structure prediction by ZEFSAII (Michael W. Deem and Ramdas Pophale) SiO2 
 PCOD8075995
Probable space group: P 21/M
;
_chemical_formula_sum "Si O2"
_cell_formula_units_Z 32
_cell_length_a 11.056249
_cell_length_b 8.888305
_cell_length_c 30.342735
_cell_angle_alpha 90.000000
_cell_angle_beta 32.201724
_cell_angle_gamma 90.000000
_cell_volume 1589.017280
_symmetry_space_group_name_H-M "P 21/M"
_symmetry_group_IT_number 11
_symmetry_cell_setting 'monoclinic'
loop_
_space_group_symop_operation_xyz
x,y,z
-x,1/2+y,-z
-x,-y,-z
x,1/2-y,z
loop_
_atom_site_type_symbol
_atom_site_label
_atom_site_fract_x
_atom_site_fract_y
_atom_site_fract_z
Si Si1 0.614502 0.583168 0.733038
Si Si2 0.114252 0.427366 0.007362
Si Si3 0.069867 0.426395 0.594927
Si Si4 0.555033 0.920543 0.850377
Si Si5 0.929598 0.427618 0.313007
Si Si6 0.806529 0.423899 0.530247
Si Si7 0.161973 0.578244 0.823468
Si Si8 0.706166 0.922520 0.301130
O O1 0.727596 0.750000 0.695592
O O2 0.495706 0.565770 0.817039
O O3 0.424750 0.564537 0.755029
O O4 0.804839 0.457866 0.666837
O O5 0.085983 0.250000 0.011674
O O6 0.994518 0.485584 0.089033
O O7 0.378665 0.472626 0.930208
O O8 0.000000 0.500000 0.000000
O O9 0.115290 0.250000 0.581629
O O10 0.145488 0.496190 0.618110
O O11 0.213750 0.500377 0.511464
O O12 0.521658 0.750000 0.877386
O O13 0.812803 0.975177 0.779044
O O14 0.913434 0.250000 0.324432
O O15 0.760643 0.481188 0.327498
O O16 0.872329 0.250000 0.504768
O O17 0.559667 0.443333 0.628651
O O18 0.000000 0.500000 0.500000
O O19 0.095507 0.750000 0.833098
O O20 0.134914 0.479362 0.787897
O O21 0.766279 0.750000 0.292149
#
# Coordination Sequence:
#
# PCOD8075995 Si02
#       8
#     4   4   4   4   4   4   4   4
#     4   9  17  33  55  81 118 157 193 238 292 352
#     4  11  21  34  55  87 122 156 194 240 293 352
#     4  11  22  36  59  91 121 154 199 245 290 346
#     4   9  18  35  57  85 116 149 192 241 292 346
#     4  10  22  42  65  85 115 159 202 243 294 351
#     4  11  24  42  63  91 125 157 193 241 297 354
#     4  10  21  37  56  81 117 158 197 235 294 360
#     4  11  25  42  61  87 116 150 199 251 294 345
#
# _framework density 20.138233
#
# number of rings (size 3 to 8) (size 9 to 14) (size 15 to 20)
#    0.000    1.750    1.250    4.125    0.000    8.500 
#    0.000    0.625    0.000    0.000    0.000    0.000 
#    0.000    0.000    0.000    0.000    0.000    0.000 
#
# Total GULP energy -396850.043401 kJ/mol
# GULP energy per Si atom -12401.563856 kJ/mol
# Density = 2.009240 g / cm^3
# Si number density = 20.138233 Si / 1000 Ang^3
#
#
#
# Elastic Constant Matrix: (Units=GPa)
#
#
# Indices 1 2 3 4 5 6 
#
# 1 84.4507 41.0236 30.4751 0.0000 13.4012 0.0000
# 2 41.0236 110.0606 46.9422 0.0000 10.4395 0.0000
# 3 30.4751 46.9422 101.1035 0.0000 20.8737 0.0000
# 4 0.0000 0.0000 0.0000 33.0944 0.0000 1.9457
# 5 13.4012 10.4395 20.8737 0.0000 27.8509 0.0000
# 6 0.0000 0.0000 0.0000 1.9457 0.0000 33.6753
#
#
#
# Elastic Compliance Matrix: (Units=1/GPa)
#
#
# Indices 1 2 3 4 5 6 
#
# 1 0.015368 -0.004641 -0.001550 0.000000 -0.004494 0.000000
# 2 -0.004641 0.012734 -0.004719 0.000000 0.000997 0.000000
# 3 -0.001550 -0.004719 0.014232 0.000000 -0.008152 0.000000
# 4 0.000000 0.000000 0.000000 0.030320 0.000000 -0.001752
# 5 -0.004494 0.000997 -0.008152 0.000000 0.043804 0.000000
# 6 0.000000 0.000000 0.000000 -0.001752 0.000000 0.029797
#
#
# Mechanical properties :
#
#
# Convention : Reuss Voigt Hill
#
# Bulk Modulus (GPa) = 48.74689 59.16630 53.95659
# Shear Modulus (GPa) = 28.58573 30.73571 29.66072
#
# Velocity S-wave (km/s) = 3.77168 3.91095 3.84194
# Velocity P-wave (km/s) = 6.57466 7.05959 6.82144
#
# Compressibility (1/GPa) = 0.02051413
#
# Stress axis : x y z
#
# Youngs Moduli (GPa) = 65.07028 78.52961 70.26303
#
# Poissons Ratio (x) = 0.36446 0.10889
# Poissons Ratio (y) = 0.30199 0.33159
# Poissons Ratio (z) = 0.10084 0.37061
#
# Static dielectric constant tensor:
#      x y z
#    x 3.463730 0.000000 0.072610 
#    y 0.000000 3.620380 0.000000 
#    z 0.072610 0.000000 3.742020 
# 
# 
# High freq. dielectric constant tensor:
#      x y z
#    x 1.772320 0.000000 0.005470 
#    y 0.000000 1.786190 0.000000 
#    z 0.005470 0.000000 1.787980 
# 
# From -- ./inp_files/73104.got.cif
#   From: 2010.06.25/outbox.cif.g09.slc.cpg/sg11_37_cif.got.tgz:73104.got - 2010.06.27 23:14:04.
