data_PCOD8075012
_publ_section_title
;
Structure prediction by ZEFSAII (Michael W. Deem and Ramdas Pophale) SiO2 
 PCOD8075012
Probable space group: P 21/M
;
_chemical_formula_sum "Si O2"
_cell_formula_units_Z 32
_cell_length_a 9.518963
_cell_length_b 19.540217
_cell_length_c 12.715667
_cell_angle_alpha 90.000000
_cell_angle_beta 46.013380
_cell_angle_gamma 90.000000
_cell_volume 1701.728111
_symmetry_space_group_name_H-M "P 21/M"
_symmetry_group_IT_number 11
_symmetry_cell_setting 'monoclinic'
loop_
_space_group_symop_operation_xyz
x,y,z
-x,1/2+y,-z
-x,-y,-z
x,1/2-y,z
loop_
_atom_site_type_symbol
_atom_site_label
_atom_site_fract_x
_atom_site_fract_y
_atom_site_fract_z
Si Si1 0.651623 0.059609 0.930816
Si Si2 0.046868 0.934225 0.407564
Si Si3 0.697953 0.328056 0.620308
Si Si4 0.975874 0.064524 0.935421
Si Si5 0.748684 0.946587 0.399305
Si Si6 0.015117 0.668701 0.888769
Si Si7 0.587036 0.672146 0.041856
Si Si8 0.673432 0.400759 0.422079
O O1 0.785912 0.047070 0.761101
O O2 0.773952 0.057657 0.975360
O O3 0.528779 0.130044 0.986883
O O4 0.500000 0.000000 0.000000
O O5 0.111247 0.870929 0.446175
O O6 0.860883 0.909766 0.436447
O O7 0.000000 0.000000 0.500000
O O8 0.766749 0.250000 0.579415
O O9 0.515896 0.338397 0.792200
O O10 0.626026 0.352644 0.544683
O O11 0.160462 0.070512 0.761676
O O12 0.971944 0.134280 0.003625
O O13 0.000000 0.000000 0.000000
O O14 0.530083 0.920062 0.526617
O O15 0.772337 0.028170 0.405748
O O16 0.031778 0.750000 0.895186
O O17 0.191700 0.640460 0.727895
O O18 0.811640 0.648535 0.937548
O O19 0.576186 0.750000 0.009656
#
# Coordination Sequence:
#
# PCOD8075012 Si02
#       8
#     4   4   4   4   4   4   4   4
#     4  10  22  34  57  86 112 148 190 238 292 337
#     4  10  20  37  57  85 116 147 192 240 285 348
#     4  10  20  37  60  85 114 154 192 236 293 354
#     4  11  21  38  59  86 120 154 198 242 286 350
#     4  10  22  37  58  87 117 154 194 242 293 337
#     4  11  23  39  60  86 118 157 194 244 296 345
#     4   9  20  38  58  81 113 151 194 235 288 353
#     4  11  21  36  58  87 117 151 196 241 288 353
#
# _framework density 18.804413
#
# number of rings (size 3 to 8) (size 9 to 14) (size 15 to 20)
#    0.000    1.750    2.500    1.875    1.750    2.500 
#    0.000    3.750    0.000    0.000    0.000    0.000 
#    0.000    0.000    0.000    0.000    0.000    0.000 
#
# Total GULP energy -396812.887311 kJ/mol
# GULP energy per Si atom -12400.402728 kJ/mol
# Density = 1.876161 g / cm^3
# Si number density = 18.804413 Si / 1000 Ang^3
#
#
#
# Elastic Constant Matrix: (Units=GPa)
#
#
# Indices 1 2 3 4 5 6 
#
# 1 119.2687 65.9596 48.9479 0.0000 -7.4065 0.0000
# 2 65.9596 122.0821 46.1896 0.0000 -2.6896 0.0000
# 3 48.9479 46.1896 69.0151 0.0000 -5.7020 0.0000
# 4 0.0000 0.0000 0.0000 34.2576 0.0000 0.0459
# 5 -7.4065 -2.6896 -5.7020 0.0000 27.2711 0.0000
# 6 0.0000 0.0000 0.0000 0.0459 0.0000 33.8647
#
#
#
# Elastic Compliance Matrix: (Units=1/GPa)
#
#
# Indices 1 2 3 4 5 6 
#
# 1 0.013902 -0.005087 -0.006294 0.000000 0.001958 0.000000
# 2 -0.005087 0.012836 -0.005080 0.000000 -0.001178 0.000000
# 3 -0.006294 -0.005080 0.022560 0.000000 0.002507 0.000000
# 4 0.000000 0.000000 0.000000 0.029191 0.000000 -0.000040
# 5 0.001958 -0.001178 0.002507 0.000000 0.037609 0.000000
# 6 0.000000 0.000000 0.000000 -0.000040 0.000000 0.029529
#
#
# Mechanical properties :
#
#
# Convention : Reuss Voigt Hill
#
# Bulk Modulus (GPa) = 61.06118 70.28444 65.67281
# Shear Modulus (GPa) = 27.17294 29.02993 28.10143
#
# Velocity S-wave (km/s) = 3.80548 3.93336 3.86995
# Velocity P-wave (km/s) = 7.20077 7.62143 7.41408
#
# Compressibility (1/GPa) = 0.01637702
#
# Stress axis : x y z
#
# Youngs Moduli (GPa) = 71.93155 77.90808 44.32574
#
# Poissons Ratio (x) = 0.39630 0.27897
# Poissons Ratio (y) = 0.36590 0.22518
# Poissons Ratio (z) = 0.45271 0.39578
#
# Static dielectric constant tensor:
#      x y z
#    x 3.574820 0.000000 0.011040 
#    y 0.000000 3.339120 0.000000 
#    z 0.011040 0.000000 3.197910 
# 
# 
# High freq. dielectric constant tensor:
#      x y z
#    x 1.735730 0.000000 -0.005320 
#    y 0.000000 1.730960 0.000000 
#    z -0.005320 0.000000 1.732660 
# 
# From -- ./inp_files/32829.got.cif
#   From: 2010.06.25/outbox.cif.g09.slc.cpg/sg11_17_cif.got.tgz:32829.got - 2010.06.27 23:14:04.
