data_PCOD8075677
_publ_section_title
;
Structure prediction by ZEFSAII (Michael W. Deem and Ramdas Pophale) SiO2 
 PCOD8075677
Probable space group: P 21/M
;
_chemical_formula_sum "Si O2"
_cell_formula_units_Z 32
_cell_length_a 14.118202
_cell_length_b 9.739202
_cell_length_c 25.348923
_cell_angle_alpha 90.000000
_cell_angle_beta 29.937735
_cell_angle_gamma 90.000000
_cell_volume 1739.457391
_symmetry_space_group_name_H-M "P 21/M"
_symmetry_group_IT_number 11
_symmetry_cell_setting 'monoclinic'
loop_
_space_group_symop_operation_xyz
x,y,z
-x,1/2+y,-z
-x,-y,-z
x,1/2-y,z
loop_
_atom_site_type_symbol
_atom_site_label
_atom_site_fract_x
_atom_site_fract_y
_atom_site_fract_z
Si Si1 0.356640 0.407347 0.450648
Si Si2 0.649517 0.902625 0.354665
Si Si3 0.603933 0.910872 0.788489
Si Si4 0.862592 0.902617 0.141378
Si Si5 0.926461 0.089117 0.681101
Si Si6 0.776661 0.413220 0.974121
Si Si7 0.024816 0.586793 0.224565
Si Si8 0.435380 0.907320 0.757497
O O1 0.392255 0.250000 0.449055
O O2 0.469072 0.496581 0.439911
O O3 0.426739 0.439992 0.357877
O O4 0.135915 0.443600 0.559195
O O5 0.580501 0.750000 0.404413
O O6 0.746108 0.896316 0.251339
O O7 0.807313 0.961450 0.319340
O O8 0.647625 0.750000 0.775759
O O9 0.433085 0.961928 0.908868
O O10 0.551491 0.943386 0.753696
O O11 0.786998 0.999981 0.713030
O O12 0.873634 0.750000 0.110973
O O13 0.757218 0.003393 0.151475
O O14 0.072301 0.961401 0.054087
O O15 0.877528 0.250000 0.699086
O O16 0.906305 0.038283 0.751370
O O17 0.787600 0.250000 0.967523
O O18 0.832583 0.472617 0.889231
O O19 0.022517 0.750000 0.222315
O O20 0.368805 0.750000 0.789958
#
# Coordination Sequence:
#
# PCOD8075677 Si02
#       8
#     4   4   4   4   4   4   4   4
#     4   9  18  32  48  68  97 127 151 185 235 279
#     4   8  14  27  49  74  95 118 152 188 224 276
#     4  10  21  35  49  67  92 124 162 197 229 270
#     4   8  14  27  49  74  95 118 152 188 224 276
#     4  10  21  35  49  67  92 124 162 197 229 270
#     4   8  15  30  51  72  95 122 150 186 234 281
#     4   8  15  30  51  72  95 122 150 186 234 281
#     4   9  18  32  48  68  97 127 151 185 235 279
#
# _framework density 18.396542
#
# number of rings (size 3 to 8) (size 9 to 14) (size 15 to 20)
#    0.000    3.250    0.000    1.500    0.000    3.000 
#    0.000    1.250    0.000    1.500    0.000    0.000 
#    0.000    0.000    0.000    0.000    0.000    0.000 
#
# Total GULP energy -396657.065414 kJ/mol
# GULP energy per Si atom -12395.533294 kJ/mol
# Density = 1.835467 g / cm^3
# Si number density = 18.396542 Si / 1000 Ang^3
#
#
#
# Elastic Constant Matrix: (Units=GPa)
#
#
# Indices 1 2 3 4 5 6 
#
# 1 64.2967 21.7466 2.9348 0.0000 -9.4938 0.0000
# 2 21.7466 42.4675 15.0545 0.0000 -11.8247 0.0000
# 3 2.9348 15.0545 53.2411 0.0000 -10.2494 0.0000
# 4 0.0000 0.0000 0.0000 15.6132 0.0000 -1.3943
# 5 -9.4938 -11.8247 -10.2494 0.0000 26.6602 0.0000
# 6 0.0000 0.0000 0.0000 -1.3943 0.0000 16.3397
#
#
#
# Elastic Compliance Matrix: (Units=1/GPa)
#
#
# Indices 1 2 3 4 5 6 
#
# 1 0.019245 -0.009731 0.002353 0.000000 0.003442 0.000000
# 2 -0.009731 0.033505 -0.007283 0.000000 0.008596 0.000000
# 3 0.002353 -0.007283 0.021870 0.000000 0.006016 0.000000
# 4 0.000000 0.000000 0.000000 0.064540 0.000000 0.005507
# 5 0.003442 0.008596 0.006016 0.000000 0.044860 0.000000
# 6 0.000000 0.000000 0.000000 0.005507 0.000000 0.061671
#
#
# Mechanical properties :
#
#
# Convention : Reuss Voigt Hill
#
# Bulk Modulus (GPa) = 22.07512 26.60856 24.34184
# Shear Modulus (GPa) = 17.23475 19.74059 18.48767
#
# Velocity S-wave (km/s) = 3.06412 3.27931 3.17354
# Velocity P-wave (km/s) = 4.95420 5.36971 5.16613
#
# Compressibility (1/GPa) = 0.04529987
#
# Stress axis : x y z
#
# Youngs Moduli (GPa) = 51.96199 29.84589 45.72448
#
# Poissons Ratio (x) = 0.29042 -0.10760
# Poissons Ratio (y) = 0.50562 0.33300
# Poissons Ratio (z) = -0.12228 0.21736
#
# Static dielectric constant tensor:
#      x y z
#    x 3.479380 0.000000 0.070440 
#    y 0.000000 3.284990 0.000000 
#    z 0.070440 0.000000 3.519100 
# 
# 
# High freq. dielectric constant tensor:
#      x y z
#    x 1.710860 0.000000 0.001140 
#    y 0.000000 1.681280 0.000000 
#    z 0.001140 0.000000 1.711490 
# 
# From -- ./inp_files/68569.got.cif
#   From: 2010.06.25/outbox.cif.g09.slc.cpg/sg11_35_cif.got.tgz:68569.got - 2010.06.27 23:14:04.
