data_PCOD8075753
_publ_section_title
;
Structure prediction by ZEFSAII (Michael W. Deem and Ramdas Pophale) SiO2 
 PCOD8075753
Probable space group: P 21/M
;
_chemical_formula_sum "Si O2"
_cell_formula_units_Z 32
_cell_length_a 18.103050
_cell_length_b 14.120503
_cell_length_c 11.901264
_cell_angle_alpha 90.000000
_cell_angle_beta 30.309578
_cell_angle_gamma 90.000000
_cell_volume 1535.338616
_symmetry_space_group_name_H-M "P 21/M"
_symmetry_group_IT_number 11
_symmetry_cell_setting 'monoclinic'
loop_
_space_group_symop_operation_xyz
x,y,z
-x,1/2+y,-z
-x,-y,-z
x,1/2-y,z
loop_
_atom_site_type_symbol
_atom_site_label
_atom_site_fract_x
_atom_site_fract_y
_atom_site_fract_z
Si Si1 0.994022 0.357778 0.346480
Si Si2 0.559075 0.545949 0.034023
Si Si3 0.874022 0.639036 0.588009
Si Si4 0.734507 0.142586 0.540988
Si Si5 0.081697 0.956030 0.141246
Si Si6 0.492184 0.357284 0.544514
Si Si7 0.176654 0.857248 0.807495
Si Si8 0.394412 0.533950 0.798893
O O1 0.041839 0.250000 0.255770
O O2 0.025478 0.382297 0.434839
O O3 0.080409 0.429513 0.151717
O O4 0.820636 0.374144 0.545746
O O5 0.435104 0.619300 0.232217
O O6 0.569368 0.465569 0.116505
O O7 0.500000 0.500000 0.000000
O O8 0.711694 0.599547 0.818605
O O9 0.865315 0.750000 0.574596
O O10 0.945179 0.587118 0.388484
O O11 0.737972 0.250000 0.499357
O O12 0.820867 0.095481 0.321243
O O13 0.074738 0.922263 0.021151
O O14 0.233430 0.920745 0.996714
O O15 0.428388 0.250000 0.628918
O O16 0.657720 0.359182 0.367541
O O17 0.395576 0.424963 0.751621
O O18 0.488854 0.401257 0.422099
O O19 0.114057 0.750000 0.894134
#
# Coordination Sequence:
#
# PCOD8075753 Si02
#       8
#     4   4   4   4   4   4   4   4
#     4  10  22  38  59  87 122 166 209 254 306 366
#     4  12  24  39  63  90 125 166 208 258 316 367
#     4  11  24  42  64  89 123 169 213 253 306 372
#     4  10  21  39  61  87 118 154 207 259 307 364
#     4  11  21  37  61  88 124 159 206 257 308 371
#     4   9  18  36  60  89 123 160 202 258 316 369
#     4   9  18  34  60  89 117 156 203 255 315 373
#     4  10  21  35  60  93 123 158 210 255 307 378
#
# _framework density 20.842307000000002
#
# number of rings (size 3 to 8) (size 9 to 14) (size 15 to 20)
#    0.000    1.750    2.500    1.875    1.750    2.000 
#    0.000    1.250    0.000    0.000    0.000    0.000 
#    0.000    0.000    0.000    0.000    0.000    0.000 
#
# Total GULP energy -396590.904601 kJ/mol
# GULP energy per Si atom -12393.465769 kJ/mol
# Density = 2.079487 g / cm^3
# Si number density = 20.842307 Si / 1000 Ang^3
#
#
#
# Elastic Constant Matrix: (Units=GPa)
#
#
# Indices 1 2 3 4 5 6 
#
# 1 108.9338 22.2047 52.3114 0.0000 9.2048 0.0000
# 2 22.2047 82.9897 29.5893 0.0000 14.4306 0.0000
# 3 52.3114 29.5893 109.4920 0.0000 14.4152 0.0000
# 4 0.0000 0.0000 0.0000 28.8853 0.0000 0.7656
# 5 9.2048 14.4306 14.4152 0.0000 30.9516 0.0000
# 6 0.0000 0.0000 0.0000 0.7656 0.0000 23.6949
#
#
#
# Elastic Compliance Matrix: (Units=1/GPa)
#
#
# Indices 1 2 3 4 5 6 
#
# 1 0.012045 -0.001223 -0.005356 0.000000 -0.000517 0.000000
# 2 -0.001223 0.014174 -0.002582 0.000000 -0.005042 0.000000
# 3 -0.005356 -0.002582 0.012807 0.000000 -0.003168 0.000000
# 4 0.000000 0.000000 0.000000 0.034649 0.000000 -0.001120
# 5 -0.000517 -0.005042 -0.003168 0.000000 0.036288 0.000000
# 6 0.000000 0.000000 0.000000 -0.001120 0.000000 0.042239
#
#
# Mechanical properties :
#
#
# Convention : Reuss Voigt Hill
#
# Bulk Modulus (GPa) = 48.30140 56.62512 52.46326
# Shear Modulus (GPa) = 28.18054 29.86037 29.02046
#
# Velocity S-wave (km/s) = 3.68106 3.78918 3.73551
# Velocity P-wave (km/s) = 6.42588 6.80964 6.62054
#
# Compressibility (1/GPa) = 0.02070333
#
# Stress axis : x y z
#
# Youngs Moduli (GPa) = 83.02245 70.54973 78.08298
#
# Poissons Ratio (x) = 0.08629 0.41821
# Poissons Ratio (y) = 0.10155 0.20164
# Poissons Ratio (z) = 0.44467 0.18218
#
# Static dielectric constant tensor:
#      x y z
#    x 3.924230 0.000000 0.010720 
#    y 0.000000 3.899090 0.000000 
#    z 0.010720 0.000000 3.916190 
# 
# 
# High freq. dielectric constant tensor:
#      x y z
#    x 1.811970 0.000000 0.009220 
#    y 0.000000 1.808810 0.000000 
#    z 0.009220 0.000000 1.809110 
# 
# From -- ./inp_files/41621.got.cif
#   From: 2010.06.25/outbox.cif.g09.slc.cpg/sg11_21_cif.got.tgz:41621.got - 2010.06.27 23:14:04.
