data_PCOD8075279
_publ_section_title
;
Structure prediction by ZEFSAII (Michael W. Deem and Ramdas Pophale) SiO2 
 PCOD8075279
Probable space group: P 21/M
;
_chemical_formula_sum "Si O2"
_cell_formula_units_Z 28
_cell_length_a 22.607400
_cell_length_b 9.051239
_cell_length_c 19.687790
_cell_angle_alpha 90.000000
_cell_angle_beta 160.091730
_cell_angle_gamma 90.000000
_cell_volume 1371.804450
_symmetry_space_group_name_H-M "P 21/M"
_symmetry_group_IT_number 11
_symmetry_cell_setting 'monoclinic'
loop_
_space_group_symop_operation_xyz
x,y,z
-x,1/2+y,-z
-x,-y,-z
x,1/2-y,z
loop_
_atom_site_type_symbol
_atom_site_label
_atom_site_fract_x
_atom_site_fract_y
_atom_site_fract_z
Si Si1 0.912899 0.582007 0.343895
Si Si2 0.342296 0.413990 0.641762
Si Si3 0.616070 0.922513 0.463942
Si Si4 0.956973 0.086020 0.256428
Si Si5 0.037106 0.573488 0.111594
Si Si6 0.767921 0.077477 0.920038
Si Si7 0.518022 0.917980 0.949020
O O1 0.972186 0.750000 0.413526
O O2 0.000000 0.500000 0.500000
O O3 0.975443 0.522326 0.339481
O O4 0.708423 0.561648 0.125352
O O5 0.408607 0.250000 0.733166
O O6 0.422485 0.463037 0.656393
O O7 0.136091 0.415308 0.408466
O O8 0.388457 0.522315 0.752508
O O9 0.668736 0.750000 0.527077
O O10 0.437698 0.955007 0.312794
O O11 0.771361 0.023303 0.658786
O O12 0.915701 0.250000 0.240228
O O13 0.811262 0.036868 0.045148
O O14 0.034231 0.750000 0.102965
O O15 0.000000 0.500000 0.000000
O O16 0.883583 0.523231 0.996085
O O17 0.810086 0.250000 0.951744
O O18 0.469089 0.750000 0.910449
O O19 0.500000 0.000000 0.000000
#
# Coordination Sequence:
#
# PCOD8075279 Si02
#       7
#     4   4   4   4   4   4   4
#     4  11  24  39  55  80 115 155 203 257 313 373
#     4  10  20  37  63  91 121 158 202 252 308 372
#     4  10  21  41  69  98 130 169 214 263 319 383
#     4  10  20  37  63  91 121 158 202 252 308 372
#     4  12  26  44  68  96 134 174 214 266 320 382
#     4  10  21  41  69  98 130 169 214 263 319 383
#     4  11  24  39  55  80 115 155 203 257 313 373
#
# _framework density 20.411072000000001
#
# number of rings (size 3 to 8) (size 9 to 14) (size 15 to 20)
#    0.000    1.429    1.429    3.857    0.000    9.714 
#    0.000    0.000    0.000    0.000    0.000    0.000 
#    0.000    0.000    0.000    0.000    0.000    0.000 
#
# Total GULP energy -347241.835944 kJ/mol
# GULP energy per Si atom -12401.494141 kJ/mol
# Density = 2.036462 g / cm^3
# Si number density = 20.411072 Si / 1000 Ang^3
#
#
#
# Elastic Constant Matrix: (Units=GPa)
#
#
# Indices 1 2 3 4 5 6 
#
# 1 109.2696 66.1141 55.8672 0.0000 -5.5176 0.0000
# 2 66.1141 129.1667 62.2199 0.0000 -3.5661 0.0000
# 3 55.8672 62.2199 104.3143 0.0000 1.1923 0.0000
# 4 0.0000 0.0000 0.0000 32.3737 0.0000 -4.1404
# 5 -5.5176 -3.5661 1.1923 0.0000 30.0045 0.0000
# 6 0.0000 0.0000 0.0000 -4.1404 0.0000 36.7638
#
#
#
# Elastic Compliance Matrix: (Units=1/GPa)
#
#
# Indices 1 2 3 4 5 6 
#
# 1 0.014937 -0.005213 -0.004917 0.000000 0.002323 0.000000
# 2 -0.005213 0.012755 -0.004825 0.000000 0.000749 0.000000
# 3 -0.004917 -0.004825 0.015121 0.000000 -0.002078 0.000000
# 4 0.000000 0.000000 0.000000 0.031341 0.000000 0.003530
# 5 0.002323 0.000749 -0.002078 0.000000 0.033927 0.000000
# 6 0.000000 0.000000 0.000000 0.003530 0.000000 0.027598
#
#
# Mechanical properties :
#
#
# Convention : Reuss Voigt Hill
#
# Bulk Modulus (GPa) = 77.49402 79.01702 78.25552
# Shear Modulus (GPa) = 29.43097 30.39837 29.91467
#
# Velocity S-wave (km/s) = 3.80137 3.86334 3.83248
# Velocity P-wave (km/s) = 7.57075 7.66142 7.61622
#
# Compressibility (1/GPa) = 0.01290422
#
# Stress axis : x y z
#
# Youngs Moduli (GPa) = 66.94796 78.40173 66.13224
#
# Poissons Ratio (x) = 0.40870 0.32517
# Poissons Ratio (y) = 0.34899 0.31906
# Poissons Ratio (z) = 0.32918 0.37825
#
# Static dielectric constant tensor:
#      x y z
#    x 3.421420 0.000000 -0.332080 
#    y 0.000000 3.707850 0.000000 
#    z -0.332080 0.000000 3.067980 
# 
# 
# High freq. dielectric constant tensor:
#      x y z
#    x 1.802210 0.000000 0.006360 
#    y 0.000000 1.792060 0.000000 
#    z 0.006360 0.000000 1.808860 
# 
# From -- ./inp_files/66744.got.cif
#   From: 2010.06.25/outbox.cif.g09.slc.cpg/sg11_34_cif.got.tgz:66744.got - 2010.06.27 23:14:04.
