data_PCOD8075087
_publ_section_title
;
Structure prediction by ZEFSAII (Michael W. Deem and Ramdas Pophale) SiO2 
 PCOD8075087
Probable space group: P 21/M
;
_chemical_formula_sum "Si O2"
_cell_formula_units_Z 32
_cell_length_a 14.784876
_cell_length_b 8.753645
_cell_length_c 12.339655
_cell_angle_alpha 90.000000
_cell_angle_beta 91.930911
_cell_angle_gamma 90.000000
_cell_volume 1596.110536
_symmetry_space_group_name_H-M "P 21/M"
_symmetry_group_IT_number 11
_symmetry_cell_setting 'monoclinic'
loop_
_space_group_symop_operation_xyz
x,y,z
-x,1/2+y,-z
-x,-y,-z
x,1/2-y,z
loop_
_atom_site_type_symbol
_atom_site_label
_atom_site_fract_x
_atom_site_fract_y
_atom_site_fract_z
Si Si1 0.798131 0.926065 0.689972
Si Si2 0.018701 0.930098 0.382274
Si Si3 0.263526 0.076377 0.543851
Si Si4 0.484419 0.922342 0.829833
Si Si5 0.443001 0.578254 0.589047
Si Si6 0.849386 0.071370 0.292264
Si Si7 0.319136 0.428412 0.116393
Si Si8 0.295583 0.072723 0.873604
O O1 0.826776 0.750000 0.710686
O O2 0.729830 0.939009 0.585298
O O3 0.746022 0.996608 0.792298
O O4 0.885775 0.023798 0.665067
O O5 0.012547 0.750000 0.394419
O O6 0.000000 0.000000 0.500000
O O7 0.946164 0.988065 0.289366
O O8 0.243126 0.250000 0.578160
O O9 0.354701 0.022934 0.605012
O O10 0.185141 0.968791 0.588190
O O11 0.467588 0.750000 0.872505
O O12 0.499216 0.919718 0.701464
O O13 0.577915 0.995465 0.879934
O O14 0.398762 0.023719 0.857873
O O15 0.500000 0.500000 0.500000
O O16 0.416041 0.750000 0.552698
O O17 0.863637 0.250000 0.279560
O O18 0.777812 0.017665 0.199319
O O19 0.330636 0.250000 0.142069
O O20 0.272797 0.459684 0.998815
O O21 0.286798 0.250000 0.844707
#
# Coordination Sequence:
#
# PCOD8075087 Si02
#       8
#     4   4   4   4   4   4   4   4
#     4  10  21  40  64  90 123 162 200 250 308 363
#     4  12  24  40  64  95 126 158 197 245 302 368
#     4  11  21  35  59  87 120 157 197 244 304 364
#     4  10  20  37  59  85 119 162 207 252 302 358
#     4  11  22  34  52  80 120 163 204 246 300 362
#     4  12  24  40  62  89 121 157 200 249 302 359
#     4   9  20  39  62  88 121 163 208 253 305 358
#     4  11  22  38  62  90 121 161 210 258 302 357
#
# _framework density 20.048736999999999
#
# number of rings (size 3 to 8) (size 9 to 14) (size 15 to 20)
#    0.000    1.250    2.500    4.500    0.000    3.000 
#    0.000    3.125    0.000    0.000    0.000    0.000 
#    0.000    0.000    0.000    0.000    0.000    0.000 
#
# Total GULP energy -396770.964610 kJ/mol
# GULP energy per Si atom -12399.092644 kJ/mol
# Density = 2.000311 g / cm^3
# Si number density = 20.048737 Si / 1000 Ang^3
#
#
#
# Elastic Constant Matrix: (Units=GPa)
#
#
# Indices 1 2 3 4 5 6 
#
# 1 105.0079 40.6856 35.8129 0.0000 8.5244 0.0000
# 2 40.6856 108.7955 35.3523 0.0000 4.6895 0.0000
# 3 35.8129 35.3523 103.0956 0.0000 -0.6154 0.0000
# 4 0.0000 0.0000 0.0000 21.0068 0.0000 -3.8977
# 5 8.5244 4.6895 -0.6154 0.0000 23.5713 0.0000
# 6 0.0000 0.0000 0.0000 -3.8977 0.0000 31.3488
#
#
#
# Elastic Compliance Matrix: (Units=1/GPa)
#
#
# Indices 1 2 3 4 5 6 
#
# 1 0.012205 -0.003392 -0.003099 0.000000 -0.003820 0.000000
# 2 -0.003392 0.011397 -0.002736 0.000000 -0.001112 0.000000
# 3 -0.003099 -0.002736 0.011726 0.000000 0.001971 0.000000
# 4 0.000000 0.000000 0.000000 0.048728 0.000000 0.006059
# 5 -0.003820 -0.001112 0.001971 0.000000 0.044079 0.000000
# 6 0.000000 0.000000 0.000000 0.006059 0.000000 0.032652
#
#
# Mechanical properties :
#
#
# Convention : Reuss Voigt Hill
#
# Bulk Modulus (GPa) = 59.26833 60.06674 59.66754
# Shear Modulus (GPa) = 27.04649 28.85526 27.95087
#
# Velocity S-wave (km/s) = 3.67691 3.79787 3.73788
# Velocity P-wave (km/s) = 6.90308 7.01834 6.96095
#
# Compressibility (1/GPa) = 0.01687242
#
# Stress axis : x y z
#
# Youngs Moduli (GPa) = 81.93694 87.74009 85.27773
#
# Poissons Ratio (x) = 0.29765 0.26428
# Poissons Ratio (y) = 0.27796 0.23336
# Poissons Ratio (z) = 0.25393 0.24009
#
# Static dielectric constant tensor:
#      x y z
#    x 3.944120 0.000000 0.146310 
#    y 0.000000 3.563160 0.000000 
#    z 0.146310 0.000000 3.703960 
# 
# 
# High freq. dielectric constant tensor:
#      x y z
#    x 1.783710 0.000000 0.007660 
#    y 0.000000 1.775000 0.000000 
#    z 0.007660 0.000000 1.780670 
# 
# From -- ./inp_files/38145.got.cif
#   From: 2010.06.25/outbox.cif.g09.slc.cpg/sg11_20_cif.got.tgz:38145.got - 2010.06.27 23:14:04.
