data_PCOD8075090
_publ_section_title
;
Structure prediction by ZEFSAII (Michael W. Deem and Ramdas Pophale) SiO2 
 PCOD8075090
Probable space group: P 21/M
;
_chemical_formula_sum "Si O2"
_cell_formula_units_Z 28
_cell_length_a 16.105232
_cell_length_b 8.795105
_cell_length_c 20.320945
_cell_angle_alpha 90.000000
_cell_angle_beta 150.064206
_cell_angle_gamma 90.000000
_cell_volume 1436.408228
_symmetry_space_group_name_H-M "P 21/M"
_symmetry_group_IT_number 11
_symmetry_cell_setting 'monoclinic'
loop_
_space_group_symop_operation_xyz
x,y,z
-x,1/2+y,-z
-x,-y,-z
x,1/2-y,z
loop_
_atom_site_type_symbol
_atom_site_label
_atom_site_fract_x
_atom_site_fract_y
_atom_site_fract_z
Si Si1 0.954294 0.072589 0.899879
Si Si2 0.574973 0.429345 0.616672
Si Si3 0.658249 0.069137 0.437964
Si Si4 0.989869 0.430179 0.301358
Si Si5 0.870824 0.070958 0.361594
Si Si6 0.559031 0.070507 0.226171
Si Si7 0.809763 0.568848 0.055267
O O1 0.977160 0.250000 0.924631
O O2 0.768906 0.029496 0.751027
O O3 0.077723 0.012516 0.928137
O O4 0.000000 0.000000 0.000000
O O5 0.500000 0.500000 0.500000
O O6 0.542826 0.250000 0.595642
O O7 0.493490 0.506442 0.623861
O O8 0.663540 0.250000 0.446701
O O9 0.628859 0.009298 0.343657
O O10 0.829729 0.003856 0.583768
O O11 0.007763 0.250000 0.310257
O O12 0.907629 0.485297 0.313284
O O13 0.870068 0.489043 0.162567
O O14 0.889378 0.250000 0.380297
O O15 0.684841 0.019169 0.254718
O O16 0.000000 0.000000 0.500000
O O17 0.546405 0.250000 0.222601
O O18 0.376213 0.006516 0.085410
O O19 0.818068 0.750000 0.069907
#
# Coordination Sequence:
#
# PCOD8075090 Si02
#       7
#     4   4   4   4   4   4   4
#     4  10  22  39  60  85 115 153 195 240 289 346
#     4  11  23  38  57  86 120 153 195 244 292 346
#     4  11  21  37  62  86 111 151 198 242 296 352
#     4  11  23  37  57  87 122 155 192 244 295 346
#     4  10  20  37  59  86 118 152 194 241 291 346
#     4   9  19  36  60  86 113 149 196 243 286 344
#     4  10  21  39  60  84 116 155 197 236 286 353
#
# _framework density 19.493065999999999
#
# number of rings (size 3 to 8) (size 9 to 14) (size 15 to 20)
#    0.000    1.714    1.429    3.000    0.000    5.143 
#    0.000    2.143    0.000    0.000    0.000    0.000 
#    0.000    0.000    0.000    0.000    0.000    0.000 
#
# Total GULP energy -347297.226615 kJ/mol
# GULP energy per Si atom -12403.472379 kJ/mol
# Density = 1.944870 g / cm^3
# Si number density = 19.493066 Si / 1000 Ang^3
#
#
#
# Elastic Constant Matrix: (Units=GPa)
#
#
# Indices 1 2 3 4 5 6 
#
# 1 146.0350 33.8149 63.1266 0.0000 5.3525 0.0000
# 2 33.8149 49.1194 35.5096 0.0000 -1.7586 0.0000
# 3 63.1266 35.5096 144.5697 0.0000 0.0885 0.0000
# 4 0.0000 0.0000 0.0000 30.1629 0.0000 -4.2211
# 5 5.3525 -1.7586 0.0885 0.0000 41.2892 0.0000
# 6 0.0000 0.0000 0.0000 -4.2211 0.0000 28.5252
#
#
#
# Elastic Compliance Matrix: (Units=1/GPa)
#
#
# Indices 1 2 3 4 5 6 
#
# 1 0.009152 -0.004208 -0.002962 0.000000 -0.001359 0.000000
# 2 -0.004208 0.026736 -0.004731 0.000000 0.001694 0.000000
# 3 -0.002962 -0.004731 0.009372 0.000000 0.000162 0.000000
# 4 0.000000 0.000000 0.000000 0.033854 0.000000 0.005010
# 5 -0.001359 0.001694 0.000162 0.000000 0.024467 0.000000
# 6 0.000000 0.000000 0.000000 0.005010 0.000000 0.035798
#
#
# Mechanical properties :
#
#
# Convention : Reuss Voigt Hill
#
# Bulk Modulus (GPa) = 46.59954 67.18070 56.89012
# Shear Modulus (GPa) = 29.35400 33.81365 31.58383
#
# Velocity S-wave (km/s) = 3.88476 4.16943 4.02961
# Velocity P-wave (km/s) = 6.63923 7.59721 7.13432
#
# Compressibility (1/GPa) = 0.02145944
#
# Stress axis : x y z
#
# Youngs Moduli (GPa) = 109.26299 37.40278 106.69811
#
# Poissons Ratio (x) = 0.15739 0.31603
# Poissons Ratio (y) = 0.45978 0.50474
# Poissons Ratio (z) = 0.32363 0.17694
#
# Static dielectric constant tensor:
#      x y z
#    x 3.945720 0.000000 0.161490 
#    y 0.000000 3.296390 0.000000 
#    z 0.161490 0.000000 3.662300 
# 
# 
# High freq. dielectric constant tensor:
#      x y z
#    x 1.777110 0.000000 0.004550 
#    y 0.000000 1.745060 0.000000 
#    z 0.004550 0.000000 1.770750 
# 
# From -- ./inp_files/65461.got.cif
#   From: 2010.06.25/outbox.cif.g09.slc.cpg/sg11_33_cif.got.tgz:65461.got - 2010.06.27 23:14:04.
