data_PCOD8075683
_publ_section_title
;
Structure prediction by ZEFSAII (Michael W. Deem and Ramdas Pophale) SiO2 
 PCOD8075683
Probable space group: P 21/M
;
_chemical_formula_sum "Si O2"
_cell_formula_units_Z 32
_cell_length_a 24.171301
_cell_length_b 8.969847
_cell_length_c 17.684341
_cell_angle_alpha 90.000000
_cell_angle_beta 152.239315
_cell_angle_gamma 90.000000
_cell_volume 1785.888586
_symmetry_space_group_name_H-M "P 21/M"
_symmetry_group_IT_number 11
_symmetry_cell_setting 'monoclinic'
loop_
_space_group_symop_operation_xyz
x,y,z
-x,1/2+y,-z
-x,-y,-z
x,1/2-y,z
loop_
_atom_site_type_symbol
_atom_site_label
_atom_site_fract_x
_atom_site_fract_y
_atom_site_fract_z
Si Si1 0.631337 0.072944 0.993722
Si Si2 0.842444 0.926070 0.655145
Si Si3 0.205468 0.078794 0.923921
Si Si4 0.122892 0.421971 0.140395
Si Si5 0.902295 0.925202 0.052777
Si Si6 0.631222 0.575652 0.298015
Si Si7 0.263257 0.424829 0.730830
Si Si8 0.027862 0.922147 0.455621
O O1 0.637208 0.250000 0.008783
O O2 0.692836 0.022352 0.990401
O O3 0.698292 0.001845 0.145464
O O4 0.495922 0.012656 0.829088
O O5 0.855763 0.750000 0.658102
O O6 0.800773 0.962769 0.692206
O O7 0.739239 0.995639 0.477133
O O8 0.969311 0.997008 0.788551
O O9 0.247991 0.250000 0.972549
O O10 0.183358 0.021952 0.982830
O O11 0.081958 0.057756 0.732147
O O12 0.093686 0.250000 0.106888
O O13 0.170564 0.463230 0.113659
O O14 0.000000 0.500000 0.000000
O O15 0.927242 0.750000 0.091966
O O16 0.634580 0.750000 0.317682
O O17 0.643950 0.541953 0.224099
O O18 0.247885 0.250000 0.727825
O O19 0.139132 0.493908 0.552670
O O20 0.059163 0.750000 0.507599
O O21 0.000000 0.000000 0.500000
#
# Coordination Sequence:
#
# PCOD8075683 Si02
#       8
#     4   4   4   4   4   4   4   4
#     4  11  22  36  52  68  91 127 170 208 244 286
#     4   9  16  30  51  75 101 127 157 193 238 288
#     4  10  21  35  50  69  98 131 162 198 241 286
#     4   8  14  25  46  73 100 128 153 185 233 286
#     4   9  17  30  48  75 105 128 155 192 236 289
#     4   9  20  35  51  72  96 125 163 207 244 284
#     4  11  21  35  53  72  97 125 159 204 252 296
#     4  11  21  33  50  72  98 128 161 199 242 288
#
# _framework density 17.91825
#
# number of rings (size 3 to 8) (size 9 to 14) (size 15 to 20)
#    0.000    2.250    1.250    2.250    0.000    1.000 
#    0.000    3.750    0.000    0.750    0.000    0.000 
#    0.000    0.000    0.000    0.000    0.000    0.125 
#
# Total GULP energy -396539.543332 kJ/mol
# GULP energy per Si atom -12391.860729 kJ/mol
# Density = 1.787747 g / cm^3
# Si number density = 17.918250 Si / 1000 Ang^3
#
#
#
# Elastic Constant Matrix: (Units=GPa)
#
#
# Indices 1 2 3 4 5 6 
#
# 1 141.8720 41.2958 45.2701 0.0000 -1.7476 0.0000
# 2 41.2958 55.2142 20.4173 0.0000 3.8980 0.0000
# 3 45.2701 20.4173 49.1692 0.0000 7.5750 0.0000
# 4 0.0000 0.0000 0.0000 17.1954 0.0000 2.8475
# 5 -1.7476 3.8980 7.5750 0.0000 31.8001 0.0000
# 6 0.0000 0.0000 0.0000 2.8475 0.0000 22.4373
#
#
#
# Elastic Compliance Matrix: (Units=1/GPa)
#
#
# Indices 1 2 3 4 5 6 
#
# 1 0.011538 -0.005609 -0.008821 0.000000 0.003423 0.000000
# 2 -0.005609 0.024132 -0.004519 0.000000 -0.002190 0.000000
# 3 -0.008821 -0.004519 0.031481 0.000000 -0.007430 0.000000
# 4 0.000000 0.000000 0.000000 0.059404 0.000000 -0.007539
# 5 0.003423 -0.002190 -0.007430 0.000000 0.033673 0.000000
# 6 0.000000 0.000000 0.000000 -0.007539 0.000000 0.045525
#
#
# Mechanical properties :
#
#
# Convention : Reuss Voigt Hill
#
# Bulk Modulus (GPa) = 34.18551 51.13575 42.66063
# Shear Modulus (GPa) = 19.73137 23.57137 21.65137
#
# Velocity S-wave (km/s) = 3.32202 3.63091 3.47989
# Velocity P-wave (km/s) = 5.81673 6.79546 6.32506
#
# Compressibility (1/GPa) = 0.02925216
#
# Stress axis : x y z
#
# Youngs Moduli (GPa) = 86.66704 41.43832 31.76522
#
# Poissons Ratio (x) = 0.23244 0.28022
# Poissons Ratio (y) = 0.48615 0.14354
# Poissons Ratio (z) = 0.76453 0.18725
#
# Static dielectric constant tensor:
#      x y z
#    x 4.027650 0.000000 -0.777300 
#    y 0.000000 3.292140 0.000000 
#    z -0.777300 0.000000 4.354620 
# 
# 
# High freq. dielectric constant tensor:
#      x y z
#    x 1.703510 0.000000 -0.015030 
#    y 0.000000 1.685830 0.000000 
#    z -0.015030 0.000000 1.670980 
# 
# From -- ./inp_files/61786.got.cif
#   From: 2010.06.25/outbox.cif.g09.slc.cpg/sg11_31_cif.got.tgz:61786.got - 2010.06.27 23:14:04.
