data_PCOD8075499
_publ_section_title
;
Structure prediction by ZEFSAII (Michael W. Deem and Ramdas Pophale) SiO2 
 PCOD8075499
Probable space group: P 21/M
;
_chemical_formula_sum "Si O2"
_cell_formula_units_Z 32
_cell_length_a 14.297782
_cell_length_b 17.258141
_cell_length_c 6.847489
_cell_angle_alpha 90.000000
_cell_angle_beta 94.426142
_cell_angle_gamma 90.000000
_cell_volume 1684.600291
_symmetry_space_group_name_H-M "P 21/M"
_symmetry_group_IT_number 11
_symmetry_cell_setting 'monoclinic'
loop_
_space_group_symop_operation_xyz
x,y,z
-x,1/2+y,-z
-x,-y,-z
x,1/2-y,z
loop_
_atom_site_type_symbol
_atom_site_label
_atom_site_fract_x
_atom_site_fract_y
_atom_site_fract_z
Si Si1 0.534005 0.158762 0.561666
Si Si2 0.888755 0.063668 0.328448
Si Si3 0.042956 0.103132 0.661420
Si Si4 0.993212 0.838873 0.927631
Si Si5 0.672315 0.074366 0.319107
Si Si6 0.172623 0.162777 0.367491
Si Si7 0.357907 0.064119 0.415333
Si Si8 0.417945 0.954063 0.091726
O O1 0.522981 0.250000 0.594318
O O2 0.621651 0.142732 0.432129
O O3 0.441399 0.125920 0.440608
O O4 0.545822 0.118230 0.774204
O O5 0.782799 0.083794 0.367556
O O6 0.949743 0.082685 0.527811
O O7 0.920906 0.113032 0.147363
O O8 0.899951 0.973939 0.272385
O O9 0.111799 0.159582 0.554771
O O10 0.009046 0.149329 0.843393
O O11 0.011439 0.750000 0.876795
O O12 0.893600 0.865697 0.820553
O O13 0.635049 0.992212 0.396475
O O14 0.650685 0.079570 0.085470
O O15 0.208873 0.250000 0.340790
O O16 0.259340 0.106275 0.395958
O O17 0.362942 0.014433 0.218876
O O18 0.500000 0.000000 0.000000
#
# Coordination Sequence:
#
# PCOD8075499 Si02
#       8
#     4   4   4   4   4   4   4   4
#     4  11  24  41  62  90 123 158 202 249 300 356
#     4  10  22  37  61  87 112 153 203 240 284 346
#     4  10  20  39  60  84 117 157 197 238 289 348
#     4  10  22  38  57  86 123 156 192 244 297 349
#     4  11  22  41  63  90 120 158 200 251 294 353
#     4  10  21  36  57  91 124 152 191 242 300 356
#     4  11  21  38  64  88 120 158 200 241 302 360
#     4  11  21  41  64  86 117 161 200 243 297 358
#
# _framework density 18.995605000000001
#
# number of rings (size 3 to 8) (size 9 to 14) (size 15 to 20)
#    0.000    1.500    3.750    1.875    1.750    3.500 
#    0.000    1.250    0.000    0.000    0.000    0.000 
#    0.000    0.000    0.000    0.000    0.000    0.000 
#
# Total GULP energy -396922.873150 kJ/mol
# GULP energy per Si atom -12403.839786 kJ/mol
# Density = 1.895237 g / cm^3
# Si number density = 18.995605 Si / 1000 Ang^3
#
#
#
# Elastic Constant Matrix: (Units=GPa)
#
#
# Indices 1 2 3 4 5 6 
#
# 1 96.3897 30.0485 31.3576 0.0000 -2.5622 0.0000
# 2 30.0485 91.0086 32.7724 0.0000 0.2423 0.0000
# 3 31.3576 32.7724 115.2052 0.0000 -6.5028 0.0000
# 4 0.0000 0.0000 0.0000 21.8253 0.0000 -8.2941
# 5 -2.5622 0.2423 -6.5028 0.0000 17.6272 0.0000
# 6 0.0000 0.0000 0.0000 -8.2941 0.0000 19.3159
#
#
#
# Elastic Compliance Matrix: (Units=1/GPa)
#
#
# Indices 1 2 3 4 5 6 
#
# 1 0.012153 -0.003167 -0.002354 0.000000 0.000942 0.000000
# 2 -0.003167 0.013106 -0.002964 0.000000 -0.001734 0.000000
# 3 -0.002354 -0.002964 0.010363 0.000000 0.003522 0.000000
# 4 0.000000 0.000000 0.000000 0.054753 0.000000 0.023510
# 5 0.000942 -0.001734 0.003522 0.000000 0.058190 0.000000
# 6 0.000000 0.000000 0.000000 0.023510 0.000000 0.061866
#
#
# Mechanical properties :
#
#
# Convention : Reuss Voigt Hill
#
# Bulk Modulus (GPa) = 53.61602 54.55116 54.08359
# Shear Modulus (GPa) = 21.40252 25.64868 23.52560
#
# Velocity S-wave (km/s) = 3.36029 3.67855 3.52302
# Velocity P-wave (km/s) = 6.58348 6.84269 6.71434
#
# Compressibility (1/GPa) = 0.01865114
#
# Stress axis : x y z
#
# Youngs Moduli (GPa) = 82.28637 76.30273 96.49987
#
# Poissons Ratio (x) = 0.24168 0.22713
# Poissons Ratio (y) = 0.26064 0.28602
# Poissons Ratio (z) = 0.19367 0.22615
#
# Static dielectric constant tensor:
#      x y z
#    x 3.422240 0.000000 0.009500 
#    y 0.000000 3.442760 0.000000 
#    z 0.009500 0.000000 3.655260 
# 
# 
# High freq. dielectric constant tensor:
#      x y z
#    x 1.739970 0.000000 -0.001960 
#    y 0.000000 1.736150 0.000000 
#    z -0.001960 0.000000 1.743060 
# 
# From -- ./inp_files/6833.got.cif
#   From: 2010.06.25/outbox.cif.g09.slc.cpg/sg11_4_cif.got.tgz:6833.got - 2010.06.27 23:14:04.
