data_PCOD8075584
_publ_section_title
;
Structure prediction by ZEFSAII (Michael W. Deem and Ramdas Pophale) SiO2 
 PCOD8075584
Probable space group: P 21/M
;
_chemical_formula_sum "Si O2"
_cell_formula_units_Z 28
_cell_length_a 12.230398
_cell_length_b 20.664518
_cell_length_c 6.817640
_cell_angle_alpha 90.000000
_cell_angle_beta 125.634668
_cell_angle_gamma 90.000000
_cell_volume 1400.412733
_symmetry_space_group_name_H-M "P 21/M"
_symmetry_group_IT_number 11
_symmetry_cell_setting 'monoclinic'
loop_
_space_group_symop_operation_xyz
x,y,z
-x,1/2+y,-z
-x,-y,-z
x,1/2-y,z
loop_
_atom_site_type_symbol
_atom_site_label
_atom_site_fract_x
_atom_site_fract_y
_atom_site_fract_z
Si Si1 0.037504 0.395704 0.125411
Si Si2 0.305247 0.610420 0.736102
Si Si3 0.402630 0.548672 0.221835
Si Si4 0.180833 0.976721 0.309898
Si Si5 0.545815 0.906811 0.733716
Si Si6 0.045992 0.675944 0.583992
Si Si7 0.187064 0.324523 0.966682
O O1 0.141821 0.449469 0.308766
O O2 0.955833 0.368298 0.224386
O O3 0.116474 0.337608 0.101722
O O4 0.943544 0.429819 0.866615
O O5 0.244952 0.544868 0.581813
O O6 0.428327 0.633149 0.724493
O O7 0.187055 0.663894 0.618528
O O8 0.358942 0.597944 0.009411
O O9 0.279867 0.527898 0.230656
O O10 0.456050 0.480976 0.185941
O O11 0.514530 0.587216 0.467561
O O12 0.684348 0.870572 0.922025
O O13 0.041668 0.750000 0.644585
O O14 0.917670 0.659302 0.315709
O O15 0.233100 0.250000 0.009116
#
# Coordination Sequence:
#
# PCOD8075584 Si02
#       7
#     4   4   4   4   4   4   4
#     4  11  21  38  61  92 125 154 201 253 311 364
#     4  11  22  39  64  93 122 159 200 255 307 362
#     4  10  20  40  61  91 128 155 201 254 313 363
#     4  10  21  34  63  96 119 155 196 256 315 363
#     4  10  23  39  61  92 125 162 202 249 311 370
#     4  11  25  41  62  90 124 165 208 250 301 365
#     4  11  24  43  63  87 124 167 208 254 303 367
#
# _framework density 19.994104
#
# number of rings (size 3 to 8) (size 9 to 14) (size 15 to 20)
#    0.000    1.429    4.286    0.857    2.000    2.286 
#    0.000    0.714    0.000    0.000    0.000    0.000 
#    0.000    0.000    0.000    0.000    0.000    0.000 
#
# Total GULP energy -347167.424949 kJ/mol
# GULP energy per Si atom -12398.836605 kJ/mol
# Density = 1.994860 g / cm^3
# Si number density = 19.994104 Si / 1000 Ang^3
#
#
#
# Elastic Constant Matrix: (Units=GPa)
#
#
# Indices 1 2 3 4 5 6 
#
# 1 90.1099 29.1522 27.5143 0.0000 5.5126 0.0000
# 2 29.1522 80.7564 43.5816 0.0000 4.2800 0.0000
# 3 27.5143 43.5816 96.2469 0.0000 11.3568 0.0000
# 4 0.0000 0.0000 0.0000 20.1192 0.0000 0.6440
# 5 5.5126 4.2800 11.3568 0.0000 31.8153 0.0000
# 6 0.0000 0.0000 0.0000 0.6440 0.0000 27.0406
#
#
#
# Elastic Compliance Matrix: (Units=1/GPa)
#
#
# Indices 1 2 3 4 5 6 
#
# 1 0.012908 -0.003546 -0.001959 0.000000 -0.001060 0.000000
# 2 -0.003546 0.017368 -0.006940 0.000000 0.000755 0.000000
# 3 -0.001959 -0.006940 0.014555 0.000000 -0.003923 0.000000
# 4 0.000000 0.000000 0.000000 0.049742 0.000000 -0.001185
# 5 -0.001060 0.000755 -0.003923 0.000000 0.032914 0.000000
# 6 0.000000 0.000000 0.000000 -0.001185 0.000000 0.037010
#
#
# Mechanical properties :
#
#
# Convention : Reuss Voigt Hill
#
# Bulk Modulus (GPa) = 50.14782 51.95662 51.05222
# Shear Modulus (GPa) = 25.50578 26.91935 26.21257
#
# Velocity S-wave (km/s) = 3.57552 3.67326 3.62472
# Velocity P-wave (km/s) = 6.49473 6.63573 6.56561
#
# Compressibility (1/GPa) = 0.01994105
#
# Stress axis : x y z
#
# Youngs Moduli (GPa) = 77.47212 57.57633 68.70329
#
# Poissons Ratio (x) = 0.20417 0.13460
# Poissons Ratio (y) = 0.27473 0.47679
# Poissons Ratio (z) = 0.15178 0.39957
#
# Static dielectric constant tensor:
#      x y z
#    x 3.755920 0.000000 0.177460 
#    y 0.000000 3.425740 0.000000 
#    z 0.177460 0.000000 3.626190 
# 
# 
# High freq. dielectric constant tensor:
#      x y z
#    x 1.789770 0.000000 0.009500 
#    y 0.000000 1.758020 0.000000 
#    z 0.009500 0.000000 1.782970 
# 
# From -- ./inp_files/5100.got.cif
#   From: 2010.06.25/outbox.cif.g09.slc.cpg/sg11_3_cif.got.tgz:5100.got - 2010.06.27 23:14:04.
