data_PCOD8075201
_publ_section_title
;
Structure prediction by ZEFSAII (Michael W. Deem and Ramdas Pophale) SiO2 
 PCOD8075201
Probable space group: P 21/M
;
_chemical_formula_sum "Si O2"
_cell_formula_units_Z 24
_cell_length_a 9.079105
_cell_length_b 8.741081
_cell_length_c 15.908580
_cell_angle_alpha 90.000000
_cell_angle_beta 106.342732
_cell_angle_gamma 90.000000
_cell_volume 1211.512482
_symmetry_space_group_name_H-M "P 21/M"
_symmetry_group_IT_number 11
_symmetry_cell_setting 'monoclinic'
loop_
_space_group_symop_operation_xyz
x,y,z
-x,1/2+y,-z
-x,-y,-z
x,1/2-y,z
loop_
_atom_site_type_symbol
_atom_site_label
_atom_site_fract_x
_atom_site_fract_y
_atom_site_fract_z
Si Si1 0.481226 0.071331 0.752261
Si Si2 0.202263 0.071680 0.244061
Si Si3 0.958124 0.930778 0.082266
Si Si4 0.375536 0.070005 0.919076
Si Si5 0.209121 0.426398 0.583730
Si Si6 0.120791 0.926556 0.402267
O O1 0.525522 0.250000 0.758364
O O2 0.409518 0.021499 0.829304
O O3 0.358320 0.032232 0.660944
O O4 0.629425 0.969548 0.760937
O O5 0.173299 0.250000 0.225457
O O6 0.187252 0.030364 0.339202
O O7 0.078917 0.977448 0.171918
O O8 0.958191 0.750000 0.074223
O O9 0.791705 0.993306 0.082985
O O10 0.000000 0.000000 0.000000
O O11 0.380996 0.250000 0.930565
O O12 0.500000 0.000000 0.000000
O O13 0.207435 0.250000 0.555036
O O14 0.211073 0.531752 0.501800
O O15 0.059729 0.461049 0.616307
O O16 0.151597 0.750000 0.385409
#
# Coordination Sequence:
#
# PCOD8075201 Si02
#       6
#     4   4   4   4   4   4
#     4  10  21  39  60  82 113 153 193 238 290 340
#     4  12  25  39  57  85 118 154 196 239 284 339
#     4  11  23  41  63  89 119 152 191 235 286 342
#     4  10  22  39  61  87 116 150 189 233 282 338
#     4   9  19  37  61  87 114 148 193 241 291 347
#     4  10  20  37  61  87 116 151 190 237 292 347
#
# _framework density 19.809949
#
# number of rings (size 3 to 8) (size 9 to 14) (size 15 to 20)
#    0.000    1.667    0.000    4.500    0.000    9.333 
#    0.000    1.667    0.000    0.000    0.000    0.000 
#    0.000    0.000    0.000    0.000    0.000    0.000 
#
# Total GULP energy -297741.436152 kJ/mol
# GULP energy per Si atom -12405.893173 kJ/mol
# Density = 1.976486 g / cm^3
# Si number density = 19.809949 Si / 1000 Ang^3
#
#
#
# Elastic Constant Matrix: (Units=GPa)
#
#
# Indices 1 2 3 4 5 6 
#
# 1 146.0557 39.3246 65.0506 0.0000 -0.3423 0.0000
# 2 39.3246 57.5295 30.8834 0.0000 -5.3261 0.0000
# 3 65.0506 30.8834 106.5593 0.0000 -2.2264 0.0000
# 4 0.0000 0.0000 0.0000 38.6827 0.0000 1.0075
# 5 -0.3423 -5.3261 -2.2264 0.0000 39.7025 0.0000
# 6 0.0000 0.0000 0.0000 1.0075 0.0000 30.1857
#
#
#
# Elastic Compliance Matrix: (Units=1/GPa)
#
#
# Indices 1 2 3 4 5 6 
#
# 1 0.010257 -0.004398 -0.005004 0.000000 -0.000782 0.000000
# 2 -0.004398 0.022708 -0.003838 0.000000 0.002793 0.000000
# 3 -0.005004 -0.003838 0.013555 0.000000 0.000202 0.000000
# 4 0.000000 0.000000 0.000000 0.025874 0.000000 -0.000864
# 5 -0.000782 0.002793 0.000202 0.000000 0.025567 0.000000
# 6 0.000000 0.000000 0.000000 -0.000864 0.000000 0.033157
#
#
# Mechanical properties :
#
#
# Convention : Reuss Voigt Hill
#
# Bulk Modulus (GPa) = 49.89644 64.51796 57.20720
# Shear Modulus (GPa) = 30.43628 33.37324 31.90476
#
# Velocity S-wave (km/s) = 3.92396 4.10893 4.01751
# Velocity P-wave (km/s) = 6.76552 7.42632 7.10361
#
# Compressibility (1/GPa) = 0.02004151
#
# Stress axis : x y z
#
# Youngs Moduli (GPa) = 97.48989 44.03817 73.77082
#
# Poissons Ratio (x) = 0.19368 0.36911
# Poissons Ratio (y) = 0.42875 0.28314
# Poissons Ratio (z) = 0.48779 0.16902
#
# Static dielectric constant tensor:
#      x y z
#    x 3.864290 0.000000 -0.073210 
#    y 0.000000 3.627380 0.000000 
#    z -0.073210 0.000000 3.764760 
# 
# 
# High freq. dielectric constant tensor:
#      x y z
#    x 1.782010 0.000000 -0.000660 
#    y 0.000000 1.769660 0.000000 
#    z -0.000660 0.000000 1.786990 
# 
# From -- ./inp_files/20357.got.cif
#   From: 2010.06.25/outbox.cif.g09.slc.cpg/sg11_11_cif.got.tgz:20357.got - 2010.06.27 23:14:04.
