data_PCOD8075393
_publ_section_title
;
Structure prediction by ZEFSAII (Michael W. Deem and Ramdas Pophale) SiO2 
 PCOD8075393
Probable space group: P 21/M
;
_chemical_formula_sum "Si O2"
_cell_formula_units_Z 24
_cell_length_a 13.068700
_cell_length_b 10.046685
_cell_length_c 9.751946
_cell_angle_alpha 90.000000
_cell_angle_beta 99.793563
_cell_angle_gamma 90.000000
_cell_volume 1261.743064
_symmetry_space_group_name_H-M "P 21/M"
_symmetry_group_IT_number 11
_symmetry_cell_setting 'monoclinic'
loop_
_space_group_symop_operation_xyz
x,y,z
-x,1/2+y,-z
-x,-y,-z
x,1/2-y,z
loop_
_atom_site_type_symbol
_atom_site_label
_atom_site_fract_x
_atom_site_fract_y
_atom_site_fract_z
Si Si1 0.728993 0.482215 0.958492
Si Si2 0.731531 0.984437 0.646913
Si Si3 0.380938 0.750000 0.422786
Si Si4 0.620340 0.750000 0.976611
Si Si5 0.949386 0.901841 0.595444
Si Si6 0.574549 0.250000 0.880115
Si Si7 0.946327 0.098913 0.091698
Si Si8 0.422391 0.250000 0.346250
O O1 0.768953 0.497780 0.811862
O O2 0.693429 0.622456 0.011668
O O3 0.633285 0.381132 0.944438
O O4 0.823202 0.427110 0.070464
O O5 0.827465 0.932273 0.580534
O O6 0.637682 0.880368 0.617409
O O7 0.692446 0.122615 0.575019
O O8 0.436778 0.750000 0.287187
O O9 0.464384 0.750000 0.562536
O O10 0.564511 0.750000 0.815489
O O11 0.538581 0.750000 0.080557
O O12 0.963421 0.750000 0.549110
O O13 0.007940 0.927623 0.749685
O O14 0.000000 0.000000 0.500000
O O15 0.968287 0.250000 0.048592
O O16 0.000000 0.000000 0.000000
#
# Coordination Sequence:
#
# PCOD8075393 Si02
#       8
#     4   4   2   2   4   2   4   2
#     4  10  20  38  61  89 118 155 199 244 304 359
#     4  10  20  38  63  84 118 160 196 247 302 356
#     4  10  22  36  62  86 114 156 204 240 291 364
#     4  10  22  36  62  83 120 158 192 247 303 350
#     4  11  25  44  62  89 128 162 200 252 312 361
#     4  10  20  40  56  85 122 150 192 255 303 344
#     4  11  23  39  67  94 121 156 207 254 296 374
#     4  10  20  40  58  84 114 158 206 242 289 358
#
# _framework density 19.021305999999999
#
# number of rings (size 3 to 8) (size 9 to 14) (size 15 to 20)
#    0.000    1.667    3.333    1.000    2.333    0.667 
#    6.000    0.000    0.000    0.000    0.000    0.000 
#    0.000    0.000    0.000    0.000    0.000    0.000 
#
# Total GULP energy -297721.191207 kJ/mol
# GULP energy per Si atom -12405.049634 kJ/mol
# Density = 1.897801 g / cm^3
# Si number density = 19.021306 Si / 1000 Ang^3
#
#
#
# Elastic Constant Matrix: (Units=GPa)
#
#
# Indices 1 2 3 4 5 6 
#
# 1 80.7893 35.5391 48.8165 0.0000 -1.1141 0.0000
# 2 35.5391 155.2223 55.2673 0.0000 -3.6022 0.0000
# 3 48.8165 55.2673 68.9776 0.0000 4.2648 0.0000
# 4 0.0000 0.0000 0.0000 22.0554 0.0000 -0.8763
# 5 -1.1141 -3.6022 4.2648 0.0000 33.2466 0.0000
# 6 0.0000 0.0000 0.0000 -0.8763 0.0000 14.9713
#
#
#
# Elastic Compliance Matrix: (Units=1/GPa)
#
#
# Indices 1 2 3 4 5 6 
#
# 1 0.021958 0.000894 -0.016438 0.000000 0.002941 0.000000
# 2 0.000894 0.009173 -0.008110 0.000000 0.002064 0.000000
# 3 -0.016438 -0.008110 0.032979 0.000000 -0.005660 0.000000
# 4 0.000000 0.000000 0.000000 0.045446 0.000000 0.002660
# 5 0.002941 0.002064 -0.005660 0.000000 0.031127 0.000000
# 6 0.000000 0.000000 0.000000 0.002660 0.000000 0.066950
#
#
# Mechanical properties :
#
#
# Convention : Reuss Voigt Hill
#
# Bulk Modulus (GPa) = 59.51848 64.91499 62.21673
# Shear Modulus (GPa) = 19.19085 25.07907 22.13496
#
# Velocity S-wave (km/s) = 3.17979 3.63502 3.41500
# Velocity P-wave (km/s) = 6.69625 7.19857 6.95195
#
# Compressibility (1/GPa) = 0.01680151
#
# Stress axis : x y z
#
# Youngs Moduli (GPa) = 45.54215 109.01254 30.32278
#
# Poissons Ratio (x) = -0.09741 0.49843
# Poissons Ratio (y) = -0.04069 0.24592
# Poissons Ratio (z) = 0.74860 0.88409
#
# Static dielectric constant tensor:
#      x y z
#    x 3.397800 0.000000 0.074170 
#    y 0.000000 3.747900 0.000000 
#    z 0.074170 0.000000 3.213420 
# 
# 
# High freq. dielectric constant tensor:
#      x y z
#    x 1.741460 0.000000 0.009410 
#    y 0.000000 1.763920 0.000000 
#    z 0.009410 0.000000 1.718380 
# 
# From -- ./inp_files/20665.got.cif
#   From: 2010.06.25/outbox.cif.g09.slc.cpg/sg11_11_cif.got.tgz:20665.got - 2010.06.27 23:14:04.
