data_PCOD8075825
_publ_section_title
;
Structure prediction by ZEFSAII (Michael W. Deem and Ramdas Pophale) SiO2 
 PCOD8075825
Probable space group: P 21/M
;
_chemical_formula_sum "Si O2"
_cell_formula_units_Z 20
_cell_length_a 7.562766
_cell_length_b 8.914215
_cell_length_c 23.828514
_cell_angle_alpha 90.000000
_cell_angle_beta 38.236580
_cell_angle_gamma 90.000000
_cell_volume 994.233110
_symmetry_space_group_name_H-M "P 21/M"
_symmetry_group_IT_number 11
_symmetry_cell_setting 'monoclinic'
loop_
_space_group_symop_operation_xyz
x,y,z
-x,1/2+y,-z
-x,-y,-z
x,1/2-y,z
loop_
_atom_site_type_symbol
_atom_site_label
_atom_site_fract_x
_atom_site_fract_y
_atom_site_fract_z
Si Si1 0.674394 0.911444 0.410985
Si Si2 0.267568 0.574928 0.771742
Si Si3 0.142217 0.930098 0.214779
Si Si4 0.264826 0.574340 0.903656
Si Si5 0.268005 0.914825 0.408485
O O1 0.736991 0.750000 0.422879
O O2 0.491205 0.891690 0.401590
O O3 0.971579 0.982870 0.314266
O O4 0.500000 0.000000 0.500000
O O5 0.261194 0.750000 0.758152
O O6 0.225853 0.544577 0.847609
O O7 0.580930 0.510194 0.678091
O O8 0.011803 0.493090 0.802470
O O9 0.148868 0.750000 0.209134
O O10 0.456052 0.996355 0.140548
O O11 0.280150 0.750000 0.913424
O O12 0.000000 0.500000 0.000000
O O13 0.177147 0.750000 0.408098
O O14 0.000000 0.000000 0.500000
#
# Coordination Sequence:
#
# PCOD8075825 Si02
#       5
#     4   4   4   4   4
#     4   9  20  35  53  82 116 154 198 240 291 352
#     4  10  22  41  63  90 123 161 205 253 307 366
#     4  10  22  41  63  90 124 163 205 252 308 368
#     4  11  25  43  66  94 122 159 207 258 312 370
#     4  10  21  36  55  84 119 159 203 245 297 359
#
# _framework density 20.116005999999999
#
# number of rings (size 3 to 8) (size 9 to 14) (size 15 to 20)
#    0.000    2.000    0.000    3.600    2.800    8.800 
#    0.000    0.000    0.000    0.000    0.000    0.000 
#    0.000    0.000    0.000    0.000    0.000    0.000 
#
# Total GULP energy -247904.583516 kJ/mol
# GULP energy per Si atom -12395.229176 kJ/mol
# Density = 2.007022 g / cm^3
# Si number density = 20.116006 Si / 1000 Ang^3
#
#
#
# Elastic Constant Matrix: (Units=GPa)
#
#
# Indices 1 2 3 4 5 6 
#
# 1 80.2670 55.7493 61.3598 0.0000 -5.8597 0.0000
# 2 55.7493 146.6875 87.9582 0.0000 0.8862 0.0000
# 3 61.3598 87.9582 186.9403 0.0000 -10.9761 0.0000
# 4 0.0000 0.0000 0.0000 40.8520 0.0000 -2.7733
# 5 -5.8597 0.8862 -10.9761 0.0000 36.3448 0.0000
# 6 0.0000 0.0000 0.0000 -2.7733 0.0000 28.5743
#
#
#
# Elastic Compliance Matrix: (Units=1/GPa)
#
#
# Indices 1 2 3 4 5 6 
#
# 1 0.018919 -0.004946 -0.003763 0.000000 0.002034 0.000000
# 2 -0.004946 0.010883 -0.003624 0.000000 -0.002157 0.000000
# 3 -0.003763 -0.003624 0.008408 0.000000 0.002021 0.000000
# 4 0.000000 0.000000 0.000000 0.024641 0.000000 0.002392
# 5 0.002034 -0.002157 0.002021 0.000000 0.028505 0.000000
# 6 0.000000 0.000000 0.000000 0.002392 0.000000 0.035229
#
#
# Mechanical properties :
#
#
# Convention : Reuss Voigt Hill
#
# Bulk Modulus (GPa) = 73.83296 91.55883 82.69589
# Shear Modulus (GPa) = 32.09955 35.07606 33.58781
#
# Velocity S-wave (km/s) = 3.99898 4.18028 4.09064
# Velocity P-wave (km/s) = 7.62271 8.30144 7.96930
#
# Compressibility (1/GPa) = 0.01354409
#
# Stress axis : x y z
#
# Youngs Moduli (GPa) = 52.85714 91.88695 118.93140
#
# Poissons Ratio (x) = 0.45447 0.44756
# Poissons Ratio (y) = 0.26143 0.43098
# Poissons Ratio (z) = 0.19891 0.33298
#
# Static dielectric constant tensor:
#      x y z
#    x 3.441950 0.000000 -0.057870 
#    y 0.000000 4.110340 0.000000 
#    z -0.057870 0.000000 3.268920 
# 
# 
# High freq. dielectric constant tensor:
#      x y z
#    x 1.783600 0.000000 -0.004050 
#    y 0.000000 1.798230 0.000000 
#    z -0.004050 0.000000 1.794090 
# 
# From -- ./inp_files/20162.got.cif
#   From: 2010.06.25/outbox.cif.g09.slc.cpg/sg11_11_cif.got.tgz:20162.got - 2010.06.27 23:14:04.
