data_PCOD8075005
_publ_section_title
;
Structure prediction by ZEFSAII (Michael W. Deem and Ramdas Pophale) SiO2 
 PCOD8075005
Probable space group: P 21/M
;
_chemical_formula_sum "Si O2"
_cell_formula_units_Z 20
_cell_length_a 16.467724
_cell_length_b 16.223158
_cell_length_c 5.129468
_cell_angle_alpha 90.000000
_cell_angle_beta 52.175393
_cell_angle_gamma 90.000000
_cell_volume 1082.452529
_symmetry_space_group_name_H-M "P 21/M"
_symmetry_group_IT_number 11
_symmetry_cell_setting 'monoclinic'
loop_
_space_group_symop_operation_xyz
x,y,z
-x,1/2+y,-z
-x,-y,-z
x,1/2-y,z
loop_
_atom_site_type_symbol
_atom_site_label
_atom_site_fract_x
_atom_site_fract_y
_atom_site_fract_z
Si Si1 0.559005 0.418064 0.936939
Si Si2 0.118166 0.020162 0.302713
Si Si3 0.233063 0.998850 0.587905
Si Si4 0.473989 0.342164 0.606597
Si Si5 0.252382 0.153418 0.846399
O O1 0.678807 0.434475 0.658166
O O2 0.515401 0.351375 0.819022
O O3 0.500000 0.500000 0.000000
O O4 0.540067 0.396094 0.275106
O O5 0.147947 0.992670 0.531985
O O6 0.181283 0.968185 0.960478
O O7 0.150665 0.117324 0.195296
O O8 0.000000 0.000000 0.500000
O O9 0.270339 0.095224 0.553568
O O10 0.492738 0.250000 0.477038
O O11 0.352096 0.361635 0.833253
O O12 0.237212 0.250000 0.802019
#
# Coordination Sequence:
#
# PCOD8075005 Si02
#       5
#     4   4   4   4   4
#     4  12  20  36  57  83 117 150 194 224 281 343
#     4  10  20  37  57  83 108 142 188 237 289 327
#     4  10  21  34  58  85 106 148 186 234 271 335
#     4  11  23  36  55  84 120 155 187 232 286 337
#     4   9  21  35  55  86 116 141 181 234 288 331
#
# _framework density 18.476561
#
# number of rings (size 3 to 8) (size 9 to 14) (size 15 to 20)
#    1.200    0.400    2.000    4.200    0.000    0.800 
#    0.000    0.000    0.000    7.200    0.000    0.000 
#    0.000    0.000    0.000    0.000    0.000    0.000 
#
# Total GULP energy -247770.610293 kJ/mol
# GULP energy per Si atom -12388.530515 kJ/mol
# Density = 1.843451 g / cm^3
# Si number density = 18.476561 Si / 1000 Ang^3
#
#
#
# Elastic Constant Matrix: (Units=GPa)
#
#
# Indices 1 2 3 4 5 6 
#
# 1 115.1650 28.5638 17.9576 0.0000 -4.5640 0.0000
# 2 28.5638 59.5150 21.1254 0.0000 -16.4183 0.0000
# 3 17.9576 21.1254 65.3152 0.0000 -6.4410 0.0000
# 4 0.0000 0.0000 0.0000 23.1084 0.0000 0.1736
# 5 -4.5640 -16.4183 -6.4410 0.0000 41.1813 0.0000
# 6 0.0000 0.0000 0.0000 0.1736 0.0000 21.4557
#
#
#
# Elastic Compliance Matrix: (Units=1/GPa)
#
#
# Indices 1 2 3 4 5 6 
#
# 1 0.009992 -0.004568 -0.001361 0.000000 -0.000927 0.000000
# 2 -0.004568 0.023091 -0.005438 0.000000 0.007849 0.000000
# 3 -0.001361 -0.005438 0.017485 0.000000 0.000416 0.000000
# 4 0.000000 0.000000 0.000000 0.043277 0.000000 -0.000350
# 5 -0.000927 0.007849 0.000416 0.000000 0.027374 0.000000
# 6 0.000000 0.000000 0.000000 -0.000350 0.000000 0.046611
#
#
# Mechanical properties :
#
#
# Convention : Reuss Voigt Hill
#
# Bulk Modulus (GPa) = 35.92996 41.69877 38.81436
# Shear Modulus (GPa) = 25.01990 28.63896 26.82943
#
# Velocity S-wave (km/s) = 3.68386 3.94129 3.81475
# Velocity P-wave (km/s) = 6.13049 6.58249 6.36051
#
# Compressibility (1/GPa) = 0.02783193
#
# Stress axis : x y z
#
# Youngs Moduli (GPa) = 100.08344 43.30775 57.19335
#
# Poissons Ratio (x) = 0.19783 0.07784
# Poissons Ratio (y) = 0.45718 0.31104
# Poissons Ratio (z) = 0.13621 0.23553
#
# Static dielectric constant tensor:
#      x y z
#    x 3.484210 0.000000 -0.198240 
#    y 0.000000 2.920720 0.000000 
#    z -0.198240 0.000000 3.426610 
# 
# 
# High freq. dielectric constant tensor:
#      x y z
#    x 1.717030 0.000000 0.012120 
#    y 0.000000 1.689150 0.000000 
#    z 0.012120 0.000000 1.717480 
# 
# From -- ./inp_files/4503.got.cif
#   From: 2010.06.25/outbox.cif.g09.slc.cpg/sg11_3_cif.got.tgz:4503.got - 2010.06.27 23:14:04.
