data_PCOD8075641
_publ_section_title
;
Structure prediction by ZEFSAII (Michael W. Deem and Ramdas Pophale) SiO2 
 PCOD8075641
Probable space group: P 21/M
;
_chemical_formula_sum "Si O2"
_cell_formula_units_Z 28
_cell_length_a 6.451022
_cell_length_b 27.021777
_cell_length_c 9.086570
_cell_angle_alpha 90.000000
_cell_angle_beta 122.781801
_cell_angle_gamma 90.000000
_cell_volume 1331.690818
_symmetry_space_group_name_H-M "P 21/M"
_symmetry_group_IT_number 11
_symmetry_cell_setting 'monoclinic'
loop_
_space_group_symop_operation_xyz
x,y,z
-x,1/2+y,-z
-x,-y,-z
x,1/2-y,z
loop_
_atom_site_type_symbol
_atom_site_label
_atom_site_fract_x
_atom_site_fract_y
_atom_site_fract_z
Si Si1 0.914022 0.970113 0.325094
Si Si2 0.758065 0.623788 0.967799
Si Si3 0.353006 0.948095 0.935626
Si Si4 0.532761 0.191966 0.954012
Si Si5 0.757857 0.427674 0.774582
Si Si6 0.700235 0.874367 0.381831
Si Si7 0.991464 0.635849 0.766759
O O1 0.847332 0.913518 0.336391
O O2 0.140764 0.969937 0.296199
O O3 0.678930 0.997084 0.151754
O O4 0.000000 0.000000 0.500000
O O5 0.600237 0.577847 0.969647
O O6 0.650144 0.675530 0.985486
O O7 0.764868 0.628639 0.793530
O O8 0.039665 0.615199 0.124894
O O9 0.121776 0.916690 0.786465
O O10 0.329204 0.950380 0.103176
O O11 0.522617 0.250000 0.928586
O O12 0.811954 0.175803 0.098422
O O13 0.434379 0.166322 0.768736
O O14 0.512971 0.403474 0.609888
O O15 0.878917 0.847311 0.566756
#
# Coordination Sequence:
#
# PCOD8075641 Si02
#       7
#     4   4   4   4   4   4   4
#     4  12  25  38  61 101 140 179 226 268 320 390
#     4  10  20  44  66  95 130 174 216 273 321 393
#     4  10  21  41  60  94 131 183 221 262 311 386
#     4  11  24  47  73  96 124 168 221 279 342 399
#     4  11  22  40  64  92 135 178 222 262 325 383
#     4  12  24  43  67 100 133 173 221 276 328 398
#     4  10  23  42  67  95 134 168 215 270 330 388
#
# _framework density 21.025901999999999
#
# number of rings (size 3 to 8) (size 9 to 14) (size 15 to 20)
#    0.000    1.143    7.143    0.429    2.000    6.286 
#    0.000    0.000    0.000    0.000    0.000    0.000 
#    0.000    0.000    0.000    0.000    0.000    0.000 
#
# Total GULP energy -347127.642169 kJ/mol
# GULP energy per Si atom -12397.415792 kJ/mol
# Density = 2.097805 g / cm^3
# Si number density = 21.025902 Si / 1000 Ang^3
#
#
#
# Elastic Constant Matrix: (Units=GPa)
#
#
# Indices 1 2 3 4 5 6 
#
# 1 137.1351 43.1376 46.5787 0.0000 -8.0615 0.0000
# 2 43.1376 135.3429 53.6771 0.0000 -4.6046 0.0000
# 3 46.5787 53.6771 150.1406 0.0000 -1.8424 0.0000
# 4 0.0000 0.0000 0.0000 17.5418 0.0000 0.4279
# 5 -8.0615 -4.6046 -1.8424 0.0000 20.8174 0.0000
# 6 0.0000 0.0000 0.0000 0.4279 0.0000 23.5115
#
#
#
# Elastic Compliance Matrix: (Units=1/GPa)
#
#
# Indices 1 2 3 4 5 6 
#
# 1 0.008730 -0.001896 -0.001996 0.000000 0.002785 0.000000
# 2 -0.001896 0.009077 -0.002644 0.000000 0.001039 0.000000
# 3 -0.001996 -0.002644 0.008217 0.000000 -0.000631 0.000000
# 4 0.000000 0.000000 0.000000 0.057032 0.000000 -0.001038
# 5 0.002785 0.001039 -0.000631 0.000000 0.049289 0.000000
# 6 0.000000 0.000000 0.000000 -0.001038 0.000000 0.042551
#
#
# Mechanical properties :
#
#
# Convention : Reuss Voigt Hill
#
# Bulk Modulus (GPa) = 77.21172 78.82282 78.01727
# Shear Modulus (GPa) = 26.00274 30.98916 28.49595
#
# Velocity S-wave (km/s) = 3.52049 3.84325 3.68540
# Velocity P-wave (km/s) = 7.30254 7.56729 7.43609
#
# Compressibility (1/GPa) = 0.01295140
#
# Stress axis : x y z
#
# Youngs Moduli (GPa) = 114.54361 110.16839 121.69375
#
# Poissons Ratio (x) = 0.20889 0.24295
# Poissons Ratio (y) = 0.21718 0.32178
# Poissons Ratio (z) = 0.22867 0.29130
#
# Static dielectric constant tensor:
#      x y z
#    x 4.214820 0.000000 0.025420 
#    y 0.000000 3.516110 0.000000 
#    z 0.025420 0.000000 3.923530 
# 
# 
# High freq. dielectric constant tensor:
#      x y z
#    x 1.844660 0.000000 0.003530 
#    y 0.000000 1.790200 0.000000 
#    z 0.003530 0.000000 1.830610 
# 
# From -- ./inp_files/10901.got.cif
#   From: 2010.06.25/outbox.cif.g09.slc.cpg/sg11_6_cif.got.tgz:10901.got - 2010.06.27 23:14:04.
