data_PCOD8075870
_publ_section_title
;
Structure prediction by ZEFSAII (Michael W. Deem and Ramdas Pophale) SiO2 
 PCOD8075870
Probable space group: P 21/M
;
_chemical_formula_sum "Si O2"
_cell_formula_units_Z 32
_cell_length_a 14.848741
_cell_length_b 9.183328
_cell_length_c 22.289432
_cell_angle_alpha 90.000000
_cell_angle_beta 31.880926
_cell_angle_gamma 90.000000
_cell_volume 1605.279590
_symmetry_space_group_name_H-M "P 21/M"
_symmetry_group_IT_number 11
_symmetry_cell_setting 'monoclinic'
loop_
_space_group_symop_operation_xyz
x,y,z
-x,1/2+y,-z
-x,-y,-z
x,1/2-y,z
loop_
_atom_site_type_symbol
_atom_site_label
_atom_site_fract_x
_atom_site_fract_y
_atom_site_fract_z
Si Si1 0.590160 0.079017 0.503773
Si Si2 0.690096 0.081615 0.107934
Si Si3 0.885568 0.082814 0.517774
Si Si4 0.385674 0.915073 0.235450
Si Si5 0.003545 0.580414 0.881416
Si Si6 0.984831 0.417608 0.262781
Si Si7 0.913905 0.421617 0.685233
Si Si8 0.372189 0.918646 0.718822
O O1 0.552003 0.250000 0.521798
O O2 0.789221 0.046266 0.386717
O O3 0.500000 0.000000 0.500000
O O4 0.520868 0.016106 0.605817
O O5 0.709631 0.250000 0.082036
O O6 0.628292 0.053430 0.210228
O O7 0.552403 0.015335 0.139435
O O8 0.872529 0.007655 0.996321
O O9 0.943938 0.250000 0.478330
O O10 0.694588 0.073559 0.652011
O O11 0.000000 0.000000 0.500000
O O12 0.915631 0.000855 0.437723
O O13 0.442543 0.750000 0.190160
O O14 0.252535 0.965587 0.259370
O O15 0.979036 0.750000 0.909362
O O16 0.970169 0.544014 0.830901
O O17 0.193101 0.531170 0.791689
O O18 0.025754 0.250000 0.253758
O O19 0.105191 0.519103 0.236317
O O20 0.943734 0.250000 0.666943
O O21 0.407064 0.750000 0.683717
#
# Coordination Sequence:
#
# PCOD8075870 Si02
#       8
#     4   4   4   4   4   4   4   4
#     4  11  22  38  61  90 124 159 196 239 294 354
#     4  11  24  38  60  91 118 149 199 252 293 341
#     4   9  17  31  52  78 111 149 190 234 285 347
#     4   9  20  38  56  79 115 156 196 238 294 351
#     4  10  21  42  64  81 116 159 195 239 297 357
#     4  10  22  39  60  87 119 159 199 238 293 353
#     4  10  21  36  57  85 116 155 198 243 294 351
#     4  10  22  41  61  88 123 156 193 241 296 352
#
# _framework density 19.934221999999998
#
# number of rings (size 3 to 8) (size 9 to 14) (size 15 to 20)
#    0.000    2.000    1.250    2.625    1.750    6.000 
#    0.000    0.625    0.000    0.000    0.000    0.000 
#    0.000    0.000    0.000    0.000    0.000    0.000 
#
# Total GULP energy -396807.929742 kJ/mol
# GULP energy per Si atom -12400.247804 kJ/mol
# Density = 1.988885 g / cm^3
# Si number density = 19.934222 Si / 1000 Ang^3
#
#
#
# Elastic Constant Matrix: (Units=GPa)
#
#
# Indices 1 2 3 4 5 6 
#
# 1 74.0217 31.2287 4.2030 0.0000 -3.8719 0.0000
# 2 31.2287 89.8817 35.3977 0.0000 -0.5139 0.0000
# 3 4.2030 35.3977 62.4389 0.0000 -0.1479 0.0000
# 4 0.0000 0.0000 0.0000 32.9880 0.0000 3.3413
# 5 -3.8719 -0.5139 -0.1479 0.0000 13.8267 0.0000
# 6 0.0000 0.0000 0.0000 3.3413 0.0000 31.5448
#
#
#
# Elastic Compliance Matrix: (Units=1/GPa)
#
#
# Indices 1 2 3 4 5 6 
#
# 1 0.016437 -0.006764 0.002739 0.000000 0.004381 0.000000
# 2 -0.006764 0.017110 -0.009248 0.000000 -0.001357 0.000000
# 3 0.002739 -0.009248 0.021076 0.000000 0.000649 0.000000
# 4 0.000000 0.000000 0.000000 0.030643 0.000000 -0.003246
# 5 0.004381 -0.001357 0.000649 0.000000 0.073507 0.000000
# 6 0.000000 0.000000 0.000000 -0.003246 0.000000 0.032045
#
#
# Mechanical properties :
#
#
# Convention : Reuss Voigt Hill
#
# Bulk Modulus (GPa) = 35.61795 40.88901 38.25348
# Shear Modulus (GPa) = 22.05328 26.03943 24.04635
#
# Velocity S-wave (km/s) = 3.32972 3.61815 3.47693
# Velocity P-wave (km/s) = 5.71745 6.16532 5.94561
#
# Compressibility (1/GPa) = 0.02807573
#
# Stress axis : x y z
#
# Youngs Moduli (GPa) = 60.83835 58.44420 47.44798
#
# Poissons Ratio (x) = 0.39534 -0.12995
# Poissons Ratio (y) = 0.41154 0.43880
# Poissons Ratio (z) = -0.16663 0.54049
#
# Static dielectric constant tensor:
#      x y z
#    x 3.697350 0.000000 0.071530 
#    y 0.000000 3.661410 0.000000 
#    z 0.071530 0.000000 3.586610 
# 
# 
# High freq. dielectric constant tensor:
#      x y z
#    x 1.780850 0.000000 0.003730 
#    y 0.000000 1.779600 0.000000 
#    z 0.003730 0.000000 1.763780 
# 
# From -- ./inp_files/69056.got.cif
#   From: 2010.06.25/outbox.cif.g09.slc.cpg/sg11_35_cif.got.tgz:69056.got - 2010.06.27 23:14:04.
