data_PCOD8075103
_publ_section_title
;
Structure prediction by ZEFSAII (Michael W. Deem and Ramdas Pophale) SiO2 
 PCOD8075103
Probable space group: P 21/M
;
_chemical_formula_sum "Si O2"
_cell_formula_units_Z 28
_cell_length_a 25.533748
_cell_length_b 8.930099
_cell_length_c 9.086029
_cell_angle_alpha 90.000000
_cell_angle_beta 136.903479
_cell_angle_gamma 90.000000
_cell_volume 1415.505398
_symmetry_space_group_name_H-M "P 21/M"
_symmetry_group_IT_number 11
_symmetry_cell_setting 'monoclinic'
loop_
_space_group_symop_operation_xyz
x,y,z
-x,1/2+y,-z
-x,-y,-z
x,1/2-y,z
loop_
_atom_site_type_symbol
_atom_site_label
_atom_site_fract_x
_atom_site_fract_y
_atom_site_fract_z
Si Si1 0.188084 0.577447 0.751894
Si Si2 0.230833 0.923597 0.173757
Si Si3 0.902569 0.576965 0.935039
Si Si4 0.384026 0.424961 0.424190
Si Si5 0.513370 0.575171 0.871664
Si Si6 0.944863 0.577083 0.687363
Si Si7 0.660834 0.578153 0.995629
O O1 0.174566 0.750000 0.684691
O O2 0.115088 0.482391 0.554047
O O3 0.196743 0.548995 0.942441
O O4 0.264524 0.523164 0.824280
O O5 0.246159 0.750000 0.235761
O O6 0.172308 0.986451 0.172942
O O7 0.310114 0.011457 0.357118
O O8 0.893231 0.750000 0.958170
O O9 0.910462 0.551773 0.777887
O O10 0.976414 0.513126 0.171294
O O11 0.390222 0.250000 0.470329
O O12 0.459341 0.505425 0.637293
O O13 0.379023 0.461388 0.241117
O O14 0.495645 0.750000 0.847248
O O15 0.601006 0.546039 0.003144
O O16 0.500000 0.500000 0.000000
O O17 0.962528 0.750000 0.692479
O O18 0.688090 0.750000 0.051073
#
# Coordination Sequence:
#
# PCOD8075103 Si02
#       7
#     4   4   4   4   4   4   4
#     4  10  21  36  57  84 111 141 181 226 271 322
#     4  10  21  37  57  83 112 143 181 224 271 323
#     4  10  21  37  57  81 109 144 185 226 271 324
#     4  10  20  37  60  83 108 142 182 225 274 325
#     4  11  23  38  56  82 114 146 182 225 271 322
#     4  10  21  37  57  80 109 145 183 224 272 325
#     4   9  20  38  59  81 108 143 182 224 272 325
#
# _framework density 19.780920999999999
#
# number of rings (size 3 to 8) (size 9 to 14) (size 15 to 20)
#    0.000    2.000    0.000    3.000    0.000    6.857 
#    0.000    1.429    0.000    0.000    0.000    0.000 
#    0.000    0.000    0.000    0.000    0.000    0.000 
#
# Total GULP energy -347364.601638 kJ/mol
# GULP energy per Si atom -12405.878630 kJ/mol
# Density = 1.973590 g / cm^3
# Si number density = 19.780921 Si / 1000 Ang^3
#
#
#
# Elastic Constant Matrix: (Units=GPa)
#
#
# Indices 1 2 3 4 5 6 
#
# 1 69.5685 22.7072 -13.9826 0.0000 5.4464 0.0000
# 2 22.7072 86.6340 13.3103 0.0000 -0.1728 0.0000
# 3 -13.9826 13.3103 32.9342 0.0000 6.0156 0.0000
# 4 0.0000 0.0000 0.0000 39.1351 0.0000 4.5849
# 5 5.4464 -0.1728 6.0156 0.0000 17.7777 0.0000
# 6 0.0000 0.0000 0.0000 4.5849 0.0000 36.7043
#
#
#
# Elastic Compliance Matrix: (Units=1/GPa)
#
#
# Indices 1 2 3 4 5 6 
#
# 1 0.020428 -0.007481 0.013700 0.000000 -0.010967 0.000000
# 2 -0.007481 0.015108 -0.010368 0.000000 0.005947 0.000000
# 3 0.013700 -0.010368 0.043866 0.000000 -0.019141 0.000000
# 4 0.000000 0.000000 0.000000 0.025932 0.000000 -0.003239
# 5 -0.010967 0.005947 -0.019141 0.000000 0.066145 0.000000
# 6 0.000000 0.000000 0.000000 -0.003239 0.000000 0.027649
#
#
# Mechanical properties :
#
#
# Convention : Reuss Voigt Hill
#
# Bulk Modulus (GPa) = 14.06407 25.91185 19.98796
# Shear Modulus (GPa) = 21.63284 29.86354 25.74819
#
# Velocity S-wave (km/s) = 3.31058 3.88972 3.61178
# Velocity P-wave (km/s) = 4.66247 5.77071 5.24594
#
# Compressibility (1/GPa) = 0.07110318
#
# Stress axis : x y z
#
# Youngs Moduli (GPa) = 48.95211 66.18805 22.79648
#
# Poissons Ratio (x) = 0.49515 -0.31230
# Poissons Ratio (y) = 0.36621 0.23636
# Poissons Ratio (z) = -0.67062 0.68627
#
# Static dielectric constant tensor:
#      x y z
#    x 3.569230 0.000000 0.124660 
#    y 0.000000 3.778000 0.000000 
#    z 0.124660 0.000000 3.669080 
# 
# 
# High freq. dielectric constant tensor:
#      x y z
#    x 1.772630 0.000000 0.009900 
#    y 0.000000 1.785420 0.000000 
#    z 0.009900 0.000000 1.766700 
# 
# From -- ./inp_files/28165.got.cif
#   From: 2010.06.25/outbox.cif.g09.slc.cpg/sg11_15_cif.got.tgz:28165.got - 2010.06.27 23:14:04.
