data_PCOD8075282
_publ_section_title
;
Structure prediction by ZEFSAII (Michael W. Deem and Ramdas Pophale) SiO2 
 PCOD8075282
Probable space group: P 21/M
;
_chemical_formula_sum "Si O2"
_cell_formula_units_Z 32
_cell_length_a 13.649730
_cell_length_b 24.411870
_cell_length_c 8.998086
_cell_angle_alpha 90.000000
_cell_angle_beta 146.713969
_cell_angle_gamma 90.000000
_cell_volume 1645.524713
_symmetry_space_group_name_H-M "P 21/M"
_symmetry_group_IT_number 11
_symmetry_cell_setting 'monoclinic'
loop_
_space_group_symop_operation_xyz
x,y,z
-x,1/2+y,-z
-x,-y,-z
x,1/2-y,z
loop_
_atom_site_type_symbol
_atom_site_label
_atom_site_fract_x
_atom_site_fract_y
_atom_site_fract_z
Si Si1 0.271089 0.312552 0.268861
Si Si2 0.923929 0.525195 0.551757
Si Si3 0.677299 0.476288 0.466117
Si Si4 0.547319 0.594839 0.332409
Si Si5 0.486110 0.312488 0.246913
Si Si6 0.590590 0.592566 0.056460
Si Si7 0.793800 0.412041 0.902767
Si Si8 0.119631 0.688586 0.151908
O O1 0.320214 0.250000 0.377269
O O2 0.320847 0.354581 0.463718
O O3 0.382276 0.329913 0.264651
O O4 0.056962 0.317237 0.968586
O O5 0.824936 0.478749 0.523240
O O6 0.793025 0.574762 0.343767
O O7 0.000000 0.500000 0.500000
O O8 0.083861 0.546574 0.854213
O O9 0.642123 0.536790 0.487632
O O10 0.742541 0.437696 0.679702
O O11 0.498723 0.451883 0.165864
O O12 0.489539 0.596453 0.086428
O O13 0.376702 0.601724 0.217153
O O14 0.444505 0.250000 0.155037
O O15 0.698673 0.323536 0.526556
O O16 0.407793 0.347842 0.013982
O O17 0.893863 0.354483 0.000214
O O18 0.129890 0.750000 0.097560
#
# Coordination Sequence:
#
# PCOD8075282 Si02
#       8
#     4   4   4   4   4   4   4   4
#     4  10  21  39  63  90 120 157 203 252 304 361
#     4  11  24  39  57  89 127 161 201 259 316 368
#     4  11  22  39  60  84 119 165 208 248 302 370
#     4  11  22  37  61  87 123 159 201 252 311 362
#     4  10  21  41  64  89 121 162 204 252 304 364
#     4  11  22  41  58  86 126 163 198 251 314 367
#     4  12  22  39  62  91 119 162 211 252 304 368
#     4  10  20  37  63  92 119 151 205 259 296 353
#
# _framework density 19.446684000000001
#
# number of rings (size 3 to 8) (size 9 to 14) (size 15 to 20)
#    0.000    1.250    2.500    5.250    0.000    2.500 
#    2.250    0.625    0.000    0.000    0.000    0.000 
#    0.000    0.000    0.000    0.000    0.000    0.000 
#
# Total GULP energy -396820.430111 kJ/mol
# GULP energy per Si atom -12400.638441 kJ/mol
# Density = 1.940242 g / cm^3
# Si number density = 19.446684 Si / 1000 Ang^3
#
#
#
# Elastic Constant Matrix: (Units=GPa)
#
#
# Indices 1 2 3 4 5 6 
#
# 1 101.2782 40.0517 49.0951 0.0000 6.6065 0.0000
# 2 40.0517 104.3297 35.0632 0.0000 -12.4920 0.0000
# 3 49.0951 35.0632 94.0422 0.0000 -3.6755 0.0000
# 4 0.0000 0.0000 0.0000 28.2723 0.0000 -7.4170
# 5 6.6065 -12.4920 -3.6755 0.0000 31.7333 0.0000
# 6 0.0000 0.0000 0.0000 -7.4170 0.0000 31.1509
#
#
#
# Elastic Compliance Matrix: (Units=1/GPa)
#
#
# Indices 1 2 3 4 5 6 
#
# 1 0.015075 -0.004272 -0.006495 0.000000 -0.005572 0.000000
# 2 -0.004272 0.012660 -0.002271 0.000000 0.005610 0.000000
# 3 -0.006495 -0.002271 0.014957 0.000000 0.002191 0.000000
# 4 0.000000 0.000000 0.000000 0.037727 0.000000 0.008983
# 5 -0.005572 0.005610 0.002191 0.000000 0.035135 0.000000
# 6 0.000000 0.000000 0.000000 0.008983 0.000000 0.034241
#
#
# Mechanical properties :
#
#
# Convention : Reuss Voigt Hill
#
# Bulk Modulus (GPa) = 60.18202 60.89668 60.53935
# Shear Modulus (GPa) = 27.56222 29.92729 28.74476
#
# Velocity S-wave (km/s) = 3.76882 3.92719 3.84882
# Velocity P-wave (km/s) = 7.06775 7.20739 7.13791
#
# Compressibility (1/GPa) = 0.01661626
#
# Stress axis : x y z
#
# Youngs Moduli (GPa) = 66.33459 78.99059 66.85987
#
# Poissons Ratio (x) = 0.33741 0.43427
# Poissons Ratio (y) = 0.28335 0.15183
# Poissons Ratio (z) = 0.43085 0.17938
#
# Static dielectric constant tensor:
#      x y z
#    x 3.690270 0.000000 0.120060 
#    y 0.000000 3.675720 0.000000 
#    z 0.120060 0.000000 3.439550 
# 
# 
# High freq. dielectric constant tensor:
#      x y z
#    x 1.761590 0.000000 0.012800 
#    y 0.000000 1.770800 0.000000 
#    z 0.012800 0.000000 1.747210 
# 
# From -- ./inp_files/23330.got.cif
#   From: 2010.06.25/outbox.cif.g09.slc.cpg/sg11_12_cif.got.tgz:23330.got - 2010.06.27 23:14:04.
