data_PCOD8075707
_publ_section_title
;
Structure prediction by ZEFSAII (Michael W. Deem and Ramdas Pophale) SiO2 
 PCOD8075707
Probable space group: P 21/M
;
_chemical_formula_sum "Si O2"
_cell_formula_units_Z 32
_cell_length_a 12.201175
_cell_length_b 14.760280
_cell_length_c 9.306892
_cell_angle_alpha 90.000000
_cell_angle_beta 90.392722
_cell_angle_gamma 90.000000
_cell_volume 1676.064488
_symmetry_space_group_name_H-M "P 21/M"
_symmetry_group_IT_number 11
_symmetry_cell_setting 'monoclinic'
loop_
_space_group_symop_operation_xyz
x,y,z
-x,1/2+y,-z
-x,-y,-z
x,1/2-y,z
loop_
_atom_site_type_symbol
_atom_site_label
_atom_site_fract_x
_atom_site_fract_y
_atom_site_fract_z
Si Si1 0.272322 0.143037 0.836191
Si Si2 0.730469 0.642981 0.833426
Si Si3 0.520520 0.857328 0.336958
Si Si4 0.282431 0.850555 0.668404
Si Si5 0.871945 0.989633 0.331905
Si Si6 0.279254 0.850578 0.327349
Si Si7 0.523665 0.857364 0.655481
Si Si8 0.875085 0.510423 0.669706
O O1 0.259595 0.250000 0.816823
O O2 0.387050 0.107359 0.771107
O O3 0.171999 0.098053 0.750988
O O4 0.269436 0.113697 0.001313
O O5 0.742866 0.750000 0.814722
O O6 0.617499 0.606483 0.762406
O O7 0.832483 0.598030 0.753438
O O8 0.522357 0.750000 0.347643
O O9 0.399762 0.886309 0.279536
O O10 0.544506 0.898272 0.496051
O O11 0.258591 0.750000 0.732920
O O12 0.278633 0.843572 0.497895
O O13 0.403856 0.886035 0.714447
O O14 0.191914 0.920909 0.724340
O O15 0.855016 0.974475 0.500915
O O16 0.998075 0.000202 0.292265
O O17 0.254322 0.750000 0.263154
O O18 0.187520 0.920878 0.273048
O O19 0.526618 0.750000 0.646049
#
# Coordination Sequence:
#
# PCOD8075707 Si02
#       8
#     4   4   4   4   4   4   4   4
#     4  10  21  36  53  74 104 139 170 207 256 305
#     4  10  21  36  53  74 104 139 170 207 256 305
#     4   8  14  28  52  77  99 127 165 208 255 309
#     4   8  15  30  52  77 104 132 164 208 261 310
#     4  10  21  35  53  78 104 134 175 217 253 296
#     4   8  15  30  52  77 104 132 164 208 261 310
#     4   8  14  28  52  77  99 127 165 208 255 309
#     4  10  21  35  53  78 104 134 175 217 253 296
#
# _framework density 19.092345000000002
#
# number of rings (size 3 to 8) (size 9 to 14) (size 15 to 20)
#    0.000    3.000    0.000    2.250    0.000    4.000 
#    0.000    8.750    0.000    2.250    0.000    0.000 
#    0.000    0.000    0.000    0.000    0.000    0.000 
#
# Total GULP energy -396698.121328 kJ/mol
# GULP energy per Si atom -12396.816292 kJ/mol
# Density = 1.904889 g / cm^3
# Si number density = 19.092345 Si / 1000 Ang^3
#
#
#
# Elastic Constant Matrix: (Units=GPa)
#
#
# Indices 1 2 3 4 5 6 
#
# 1 169.9358 57.3560 66.4781 0.0000 -3.9496 0.0000
# 2 57.3560 65.3137 38.7402 0.0000 -2.0076 0.0000
# 3 66.4781 38.7402 72.5794 0.0000 -2.8791 0.0000
# 4 0.0000 0.0000 0.0000 19.6632 0.0000 -0.2631
# 5 -3.9496 -2.0076 -2.8791 0.0000 -0.6352 0.0000
# 6 0.0000 0.0000 0.0000 -0.2631 0.0000 33.4360
#
#
#
# Elastic Compliance Matrix: (Units=1/GPa)
#
#
# Indices 1 2 3 4 5 6 
#
# 1 0.010012 -0.005058 -0.007040 0.000000 -0.014356 0.000000
# 2 -0.005058 0.024811 -0.008878 0.000000 -0.006730 0.000000
# 3 -0.007040 -0.008878 0.023576 0.000000 -0.035024 0.000000
# 4 0.000000 0.000000 0.000000 0.050862 0.000000 0.000400
# 5 -0.014356 -0.006730 -0.035024 0.000000 -1.304935 0.000000
# 6 0.000000 0.000000 0.000000 0.000400 0.000000 0.029911
#
#
# Mechanical properties :
#
#
# Convention : Reuss Voigt Hill
#
# Bulk Modulus (GPa) = 60.79952 70.33083 65.56518
# Shear Modulus (GPa) = -4.47096 20.17643 7.85274
#
# Velocity S-wave (km/s) = -1.53194 3.25434 2.03026
# Velocity P-wave (km/s) = 5.36516 7.14410 6.31756
#
# Compressibility (1/GPa) = 0.01644750
#
# Stress axis : x y z
#
# Youngs Moduli (GPa) = 99.87915 40.30480 42.41633
#
# Poissons Ratio (x) = 0.20384 0.29863
# Poissons Ratio (y) = 0.50515 0.37656
# Poissons Ratio (z) = 0.70319 0.35781
#
# Static dielectric constant tensor:
#      x y z
#    x 3.667410 0.000000 -0.010410 
#    y 0.000000 3.538160 0.000000 
#    z -0.010410 0.000000 3.249740 
# 
# 
# High freq. dielectric constant tensor:
#      x y z
#    x 1.744670 0.000000 -0.000940 
#    y 0.000000 1.740200 0.000000 
#    z -0.000940 0.000000 1.703270 
# 
# From -- ./inp_files/17752.got.cif
#   From: 2010.06.25/outbox.cif.g09.slc.cpg/sg11_9_cif.got.tgz:17752.got - 2010.06.27 23:14:04.
