data_PCOD8075607
_publ_section_title
;
Structure prediction by ZEFSAII (Michael W. Deem and Ramdas Pophale) SiO2 
 PCOD8075607
Probable space group: P 21/M
;
_chemical_formula_sum "Si O2"
_cell_formula_units_Z 32
_cell_length_a 11.600583
_cell_length_b 14.742746
_cell_length_c 16.508417
_cell_angle_alpha 90.000000
_cell_angle_beta 145.644489
_cell_angle_gamma 90.000000
_cell_volume 1593.286236
_symmetry_space_group_name_H-M "P 21/M"
_symmetry_group_IT_number 11
_symmetry_cell_setting 'monoclinic'
loop_
_space_group_symop_operation_xyz
x,y,z
-x,1/2+y,-z
-x,-y,-z
x,1/2-y,z
loop_
_atom_site_type_symbol
_atom_site_label
_atom_site_fract_x
_atom_site_fract_y
_atom_site_fract_z
Si Si1 0.960124 0.150433 0.661724
Si Si2 0.352376 0.855777 0.894623
Si Si3 0.121848 0.407469 0.583872
Si Si4 0.931616 0.486965 0.051707
Si Si5 0.081871 0.149142 0.386110
Si Si6 0.275102 0.147398 0.984367
Si Si7 0.434705 0.858336 0.123308
Si Si8 0.734435 0.991758 0.614058
O O1 0.859940 0.250000 0.611076
O O2 0.028194 0.137963 0.608795
O O3 0.160345 0.144135 0.832474
O O4 0.793192 0.080508 0.597106
O O5 0.313807 0.750000 0.859322
O O6 0.130599 0.902702 0.760662
O O7 0.498296 0.889027 0.906525
O O8 0.450968 0.876190 0.037601
O O9 0.088392 0.344829 0.486453
O O10 0.369251 0.413234 0.729952
O O11 0.000000 0.500000 0.500000
O O12 0.123574 0.474790 0.224286
O O13 0.817784 0.581067 0.003826
O O14 0.000000 0.500000 0.000000
O O15 0.776781 0.401563 0.966336
O O16 0.098208 0.250000 0.359577
O O17 0.256691 0.091762 0.443581
O O18 0.275615 0.250000 0.019917
O O19 0.439144 0.750000 0.146841
O O20 0.500000 0.000000 0.500000
#
# Coordination Sequence:
#
# PCOD8075607 Si02
#       8
#     4   4   4   4   4   4   4   4
#     4  10  20  40  65  91 124 167 212 258 316 389
#     4   9  18  36  64  94 121 156 202 253 320 390
#     4  12  24  38  64 100 136 167 204 262 328 395
#     4  11  26  41  64  92 122 170 226 270 313 375
#     4  11  23  40  63  97 133 165 207 265 329 391
#     4   9  19  38  65  93 124 161 207 260 319 383
#     4  11  23  42  68  95 129 172 215 265 327 394
#     4  11  25  44  62  88 128 172 222 269 319 382
#
# _framework density 20.084275000000002
#
# number of rings (size 3 to 8) (size 9 to 14) (size 15 to 20)
#    0.000    1.500    3.750    1.125    3.500    1.500 
#    0.000    0.000    0.000    0.000    0.000    0.000 
#    0.000    0.000    0.000    0.000    0.000    0.000 
#
# Total GULP energy -396609.117023 kJ/mol
# GULP energy per Si atom -12394.034907 kJ/mol
# Density = 2.003856 g / cm^3
# Si number density = 20.084275 Si / 1000 Ang^3
#
#
#
# Elastic Constant Matrix: (Units=GPa)
#
#
# Indices 1 2 3 4 5 6 
#
# 1 146.9399 67.9597 47.2131 0.0000 9.3536 0.0000
# 2 67.9597 110.4169 53.6194 0.0000 9.3058 0.0000
# 3 47.2131 53.6194 104.8739 0.0000 20.2986 0.0000
# 4 0.0000 0.0000 0.0000 23.5012 0.0000 -2.1942
# 5 9.3536 9.3058 20.2986 0.0000 37.6335 0.0000
# 6 0.0000 0.0000 0.0000 -2.1942 0.0000 20.0770
#
#
#
# Elastic Compliance Matrix: (Units=1/GPa)
#
#
# Indices 1 2 3 4 5 6 
#
# 1 0.009753 -0.005152 -0.001713 0.000000 -0.000226 0.000000
# 2 -0.005152 0.014774 -0.005332 0.000000 0.000503 0.000000
# 3 -0.001713 -0.005332 0.014175 0.000000 -0.005901 0.000000
# 4 0.000000 0.000000 0.000000 0.042990 0.000000 0.004698
# 5 -0.000226 0.000503 -0.005901 0.000000 0.029687 0.000000
# 6 0.000000 0.000000 0.000000 0.004698 0.000000 0.050322
#
#
# Mechanical properties :
#
#
# Convention : Reuss Voigt Hill
#
# Bulk Modulus (GPa) = 69.88710 77.75723 73.82216
# Shear Modulus (GPa) = 26.19682 29.13825 27.66753
#
# Velocity S-wave (km/s) = 3.61549 3.81307 3.71559
# Velocity P-wave (km/s) = 7.23198 7.62794 7.43260
#
# Compressibility (1/GPa) = 0.01430879
#
# Stress axis : x y z
#
# Youngs Moduli (GPa) = 102.53193 67.68521 70.54904
#
# Poissons Ratio (x) = 0.34871 0.12084
# Poissons Ratio (y) = 0.52825 0.37615
# Poissons Ratio (z) = 0.17562 0.36088
#
# Static dielectric constant tensor:
#      x y z
#    x 3.546630 0.000000 0.003910 
#    y 0.000000 3.967450 0.000000 
#    z 0.003910 0.000000 3.825490 
# 
# 
# High freq. dielectric constant tensor:
#      x y z
#    x 1.775980 0.000000 0.000590 
#    y 0.000000 1.790230 0.000000 
#    z 0.000590 0.000000 1.783480 
# 
# From -- ./inp_files/59539.got.cif
#   From: 2010.06.25/outbox.cif.g09.slc.cpg/sg11_30_cif.got.tgz:59539.got - 2010.06.27 23:14:04.
