data_PCOD8075434
_publ_section_title
;
Structure prediction by ZEFSAII (Michael W. Deem and Ramdas Pophale) SiO2 
 PCOD8075434
Probable space group: P 21/M
;
_chemical_formula_sum "Si O2"
_cell_formula_units_Z 32
_cell_length_a 22.401136
_cell_length_b 8.877904
_cell_length_c 10.481676
_cell_angle_alpha 90.000000
_cell_angle_beta 130.276232
_cell_angle_gamma 90.000000
_cell_volume 1590.375409
_symmetry_space_group_name_H-M "P 21/M"
_symmetry_group_IT_number 11
_symmetry_cell_setting 'monoclinic'
loop_
_space_group_symop_operation_xyz
x,y,z
-x,1/2+y,-z
-x,-y,-z
x,1/2-y,z
loop_
_atom_site_type_symbol
_atom_site_label
_atom_site_fract_x
_atom_site_fract_y
_atom_site_fract_z
Si Si1 0.050655 0.425202 0.179365
Si Si2 0.482833 0.927977 0.109966
Si Si3 0.971028 0.071397 0.328465
Si Si4 0.190806 0.429372 0.975924
Si Si5 0.781523 0.574382 0.692109
Si Si6 0.421476 0.413116 0.403763
Si Si7 0.630551 0.073977 0.447146
Si Si8 0.341053 0.086623 0.032639
O O1 0.034190 0.250000 0.143391
O O2 0.027303 0.480256 0.289196
O O3 0.140862 0.464173 0.279595
O O4 0.000000 0.500000 0.000000
O O5 0.487161 0.750000 0.108327
O O6 0.551378 0.989880 0.295255
O O7 0.393187 0.971877 0.021513
O O8 0.500000 0.000000 0.000000
O O9 0.970975 0.250000 0.344373
O O10 0.000000 0.000000 0.500000
O O11 0.884956 0.014869 0.177135
O O12 0.178393 0.250000 0.953732
O O13 0.209434 0.478243 0.147580
O O14 0.258125 0.479173 0.967208
O O15 0.760359 0.750000 0.660412
O O16 0.714643 0.486721 0.515754
O O17 0.500000 0.500000 0.500000
O O18 0.432434 0.250000 0.488830
O O19 0.362055 0.524743 0.394544
O O20 0.390617 0.376753 0.224078
O O21 0.621399 0.250000 0.408527
O O22 0.329985 0.250000 0.946534
#
# Coordination Sequence:
#
# PCOD8075434 Si02
#       8
#     4   4   4   4   4   4   4   4
#     4  10  21  38  65  95 126 165 212 264 324 390
#     4  12  26  45  66  85 116 163 213 260 315 376
#     4  11  24  42  64  93 127 171 218 264 321 388
#     4  10  20  38  65  94 127 164 200 251 316 378
#     4  10  20  38  62  93 128 163 204 257 321 379
#     4  11  20  33  56  87 120 155 195 242 300 361
#     4  12  24  38  59  89 125 161 203 255 308 365
#     4  10  21  38  61  90 122 157 201 249 305 369
#
# _framework density 20.121037000000001
#
# number of rings (size 3 to 8) (size 9 to 14) (size 15 to 20)
#    0.000    1.250    3.750    3.000    0.000    2.500 
#    2.250    0.000    0.000    0.000    0.000    0.000 
#    0.000    0.000    0.000    0.000    0.000    0.000 
#
# Total GULP energy -396460.029955 kJ/mol
# GULP energy per Si atom -12389.375936 kJ/mol
# Density = 2.007524 g / cm^3
# Si number density = 20.121037 Si / 1000 Ang^3
#
#
#
# Elastic Constant Matrix: (Units=GPa)
#
#
# Indices 1 2 3 4 5 6 
#
# 1 165.4927 64.6301 58.1600 0.0000 12.5158 0.0000
# 2 64.6301 110.1481 37.4399 0.0000 9.3064 0.0000
# 3 58.1600 37.4399 68.5301 0.0000 10.4480 0.0000
# 4 0.0000 0.0000 0.0000 31.0787 0.0000 3.4113
# 5 12.5158 9.3064 10.4480 0.0000 35.3669 0.0000
# 6 0.0000 0.0000 0.0000 3.4113 0.0000 28.3845
#
#
#
# Elastic Compliance Matrix: (Units=1/GPa)
#
#
# Indices 1 2 3 4 5 6 
#
# 1 0.009621 -0.003498 -0.006153 0.000000 -0.000667 0.000000
# 2 -0.003498 0.012468 -0.003699 0.000000 -0.000951 0.000000
# 3 -0.006153 -0.003699 0.022361 0.000000 -0.003455 0.000000
# 4 0.000000 0.000000 0.000000 0.032607 0.000000 -0.003919
# 5 -0.000667 -0.000951 -0.003455 0.000000 0.029782 0.000000
# 6 0.000000 0.000000 0.000000 -0.003919 0.000000 0.035701
#
#
# Mechanical properties :
#
#
# Convention : Reuss Voigt Hill
#
# Bulk Modulus (GPa) = 56.32871 73.84787 65.08829
# Shear Modulus (GPa) = 28.54588 31.22872 29.88730
#
# Velocity S-wave (km/s) = 3.77066 3.94387 3.85824
# Velocity P-wave (km/s) = 6.85659 7.58422 7.22956
#
# Compressibility (1/GPa) = 0.01775294
#
# Stress axis : x y z
#
# Youngs Moduli (GPa) = 103.93669 80.20268 44.72005
#
# Poissons Ratio (x) = 0.28052 0.27516
# Poissons Ratio (y) = 0.36353 0.16540
# Poissons Ratio (z) = 0.63951 0.29664
#
# Static dielectric constant tensor:
#      x y z
#    x 3.986100 0.000000 -0.036640 
#    y 0.000000 3.578680 0.000000 
#    z -0.036640 0.000000 3.512420 
# 
# 
# High freq. dielectric constant tensor:
#      x y z
#    x 1.799350 0.000000 0.015310 
#    y 0.000000 1.784410 0.000000 
#    z 0.015310 0.000000 1.772400 
# 
# From -- ./inp_files/42867.got.cif
#   From: 2010.06.25/outbox.cif.g09.slc.cpg/sg11_22_cif.got.tgz:42867.got - 2010.06.27 23:14:04.
