data_PCOD8075100
_publ_section_title
;
Structure prediction by ZEFSAII (Michael W. Deem and Ramdas Pophale) SiO2 
 PCOD8075100
Probable space group: P 21/M
;
_chemical_formula_sum "Si O2"
_cell_formula_units_Z 28
_cell_length_a 28.977497
_cell_length_b 8.991636
_cell_length_c 9.078501
_cell_angle_alpha 90.000000
_cell_angle_beta 38.372718
_cell_angle_gamma 90.000000
_cell_volume 1468.411015
_symmetry_space_group_name_H-M "P 21/M"
_symmetry_group_IT_number 11
_symmetry_cell_setting 'monoclinic'
loop_
_space_group_symop_operation_xyz
x,y,z
-x,1/2+y,-z
-x,-y,-z
x,1/2-y,z
loop_
_atom_site_type_symbol
_atom_site_label
_atom_site_fract_x
_atom_site_fract_y
_atom_site_fract_z
Si Si1 0.854168 0.074283 0.702912
Si Si2 0.432380 0.919857 0.092066
Si Si3 0.001287 0.575958 0.840076
Si Si4 0.138397 0.075466 0.004870
Si Si5 0.716982 0.577323 0.542236
Si Si6 0.719896 0.574719 0.872605
Si Si7 0.568238 0.421389 0.252616
O O1 0.841216 0.250000 0.731250
O O2 0.925671 0.025921 0.430299
O O3 0.783612 0.991799 0.813815
O O4 0.866952 0.022138 0.836522
O O5 0.432461 0.750000 0.141963
O O6 0.354345 0.989377 0.339119
O O7 0.442458 0.939153 0.893781
O O8 0.500000 0.000000 0.000000
O O9 0.999854 0.750000 0.871389
O O10 0.929599 0.525766 0.927478
O O11 0.000000 0.500000 0.000000
O O12 0.134645 0.250000 0.053336
O O13 0.213831 0.034065 0.731797
O O14 0.697310 0.750000 0.581564
O O15 0.736411 0.533294 0.661533
O O16 0.715614 0.750000 0.908904
O O17 0.642915 0.502759 0.118267
O O18 0.500000 0.500000 0.500000
O O19 0.572213 0.250000 0.290930
#
# Coordination Sequence:
#
# PCOD8075100 Si02
#       7
#     4   4   4   4   4   4   4
#     4  11  23  37  55  84 117 147 183 230 278 327
#     4  10  21  36  56  81 110 143 181 225 274 327
#     4  10  22  39  60  85 113 147 188 230 275 329
#     4  10  21  38  58  82 113 148 185 227 274 329
#     4   9  19  36  58  81 106 140 185 229 272 326
#     4  10  20  37  60  82 108 147 188 229 279 333
#     4  10  21  37  57  83 113 146 186 232 279 331
#
# _framework density 19.068228999999999
#
# number of rings (size 3 to 8) (size 9 to 14) (size 15 to 20)
#    0.000    2.000    0.000    3.000    0.000    6.857 
#    0.000    1.429    0.000    0.000    0.000    0.000 
#    0.000    0.000    0.000    0.000    0.000    0.000 
#
# Total GULP energy -347336.087016 kJ/mol
# GULP energy per Si atom -12404.860251 kJ/mol
# Density = 1.902483 g / cm^3
# Si number density = 19.068229 Si / 1000 Ang^3
#
#
#
# Elastic Constant Matrix: (Units=GPa)
#
#
# Indices 1 2 3 4 5 6 
#
# 1 142.9477 66.6455 75.3660 0.0000 -22.8631 0.0000
# 2 66.6455 97.4104 70.4065 0.0000 -11.0766 0.0000
# 3 75.3660 70.4065 156.1271 0.0000 -14.9605 0.0000
# 4 0.0000 0.0000 0.0000 32.5891 0.0000 0.7006
# 5 -22.8631 -11.0766 -14.9605 0.0000 32.7453 0.0000
# 6 0.0000 0.0000 0.0000 0.7006 0.0000 36.7602
#
#
#
# Elastic Compliance Matrix: (Units=1/GPa)
#
#
# Indices 1 2 3 4 5 6 
#
# 1 0.011840 -0.005550 -0.002720 0.000000 0.005147 0.000000
# 2 -0.005550 0.017971 -0.005453 0.000000 -0.000287 0.000000
# 3 -0.002720 -0.005453 0.010268 0.000000 0.000948 0.000000
# 4 0.000000 0.000000 0.000000 0.030698 0.000000 -0.000585
# 5 0.005147 -0.000287 0.000948 0.000000 0.034468 0.000000
# 6 0.000000 0.000000 0.000000 -0.000585 0.000000 0.027214
#
#
# Mechanical properties :
#
#
# Convention : Reuss Voigt Hill
#
# Bulk Modulus (GPa) = 79.14637 91.25793 85.20215
# Shear Modulus (GPa) = 30.46639 32.69007 31.57823
#
# Velocity S-wave (km/s) = 4.00153 4.14499 4.07389
# Velocity P-wave (km/s) = 7.93390 8.41846 8.17977
#
# Compressibility (1/GPa) = 0.01263482
#
# Stress axis : x y z
#
# Youngs Moduli (GPa) = 84.45947 55.64403 97.39337
#
# Poissons Ratio (x) = 0.30881 0.26487
# Poissons Ratio (y) = 0.46872 0.53107
# Poissons Ratio (z) = 0.22969 0.30342
#
# Static dielectric constant tensor:
#      x y z
#    x 3.502150 0.000000 -0.099010 
#    y 0.000000 3.584610 0.000000 
#    z -0.099010 0.000000 3.642960 
# 
# 
# High freq. dielectric constant tensor:
#      x y z
#    x 1.748040 0.000000 -0.009020 
#    y 0.000000 1.747550 0.000000 
#    z -0.009020 0.000000 1.752230 
# 
# From -- ./inp_files/26049.got.cif
#   From: 2010.06.25/outbox.cif.g09.slc.cpg/sg11_14_cif.got.tgz:26049.got - 2010.06.27 23:14:04.
