data_PCOD8075637
_publ_section_title
;
Structure prediction by ZEFSAII (Michael W. Deem and Ramdas Pophale) SiO2 
 PCOD8075637
Probable space group: P 21/M
;
_chemical_formula_sum "Si O2"
_cell_formula_units_Z 22
_cell_length_a 10.582354
_cell_length_b 9.674711
_cell_length_c 11.407521
_cell_angle_alpha 90.000000
_cell_angle_beta 77.719141
_cell_angle_gamma 90.000000
_cell_volume 1141.190095
_symmetry_space_group_name_H-M "P 21/M"
_symmetry_group_IT_number 11
_symmetry_cell_setting 'monoclinic'
loop_
_space_group_symop_operation_xyz
x,y,z
-x,1/2+y,-z
-x,-y,-z
x,1/2-y,z
loop_
_atom_site_type_symbol
_atom_site_label
_atom_site_fract_x
_atom_site_fract_y
_atom_site_fract_z
Si Si1 0.739148 0.965507 0.201049
Si Si2 0.371542 0.090582 0.532786
Si Si3 0.103176 0.250000 0.201169
Si Si4 0.151082 0.750000 0.868375
Si Si5 0.514659 0.093567 0.883997
Si Si6 0.700577 0.901881 0.708891
Si Si7 0.090030 0.250000 0.942648
O O1 0.753779 0.121219 0.154650
O O2 0.719591 0.960276 0.344075
O O3 0.617699 0.897255 0.161528
O O4 0.869329 0.884582 0.139265
O O5 0.411841 0.250000 0.543631
O O6 0.287204 0.069444 0.431910
O O7 0.500000 0.000000 0.500000
O O8 0.156926 0.387044 0.258770
O O9 0.946947 0.250000 0.225115
O O10 0.160304 0.250000 0.056627
O O11 0.065505 0.750000 0.005396
O O12 0.555787 0.250000 0.909609
O O13 0.623575 0.027005 0.780941
O O14 0.500000 0.000000 0.000000
O O15 0.630852 0.750000 0.741217
#
# Coordination Sequence:
#
# PCOD8075637 Si02
#       7
#     4   4   2   2   4   4   2
#     4  12  23  41  62  97 121 168 210 257 315 370
#     4  11  22  37  62  92 128 160 201 256 309 383
#     4   8  20  42  64  84 119 163 206 259 311 350
#     4  10  26  39  68  87 121 167 220 260 304 365
#     4  12  24  37  59  95 131 159 199 250 318 386
#     4   9  20  39  63  86 125 163 194 257 319 364
#     4  10  20  43  62  83 126 158 208 267 307 353
#
# _framework density 19.278119
#
# number of rings (size 3 to 8) (size 9 to 14) (size 15 to 20)
#    1.091    0.364    3.636    2.182    3.818    0.000 
#    0.000    0.909    0.000    0.000    0.000    0.000 
#    0.000    0.000    0.000    0.000    0.000    0.000 
#
# Total GULP energy -272670.681748 kJ/mol
# GULP energy per Si atom -12394.121898 kJ/mol
# Density = 1.923424 g / cm^3
# Si number density = 19.278119 Si / 1000 Ang^3
#
#
#
# Elastic Constant Matrix: (Units=GPa)
#
#
# Indices 1 2 3 4 5 6 
#
# 1 36.1918 0.5709 8.1422 0.0000 1.4887 0.0000
# 2 0.5709 122.0611 28.1358 0.0000 -8.3654 0.0000
# 3 8.1422 28.1358 120.2469 0.0000 5.4718 0.0000
# 4 0.0000 0.0000 0.0000 23.3330 0.0000 -9.7933
# 5 1.4887 -8.3654 5.4718 0.0000 16.4970 0.0000
# 6 0.0000 0.0000 0.0000 -9.7933 0.0000 24.0520
#
#
#
# Elastic Compliance Matrix: (Units=1/GPa)
#
#
# Indices 1 2 3 4 5 6 
#
# 1 0.028122 0.000172 -0.001861 0.000000 -0.001833 0.000000
# 2 0.000172 0.009113 -0.002389 0.000000 0.005398 0.000000
# 3 -0.001861 -0.002389 0.009187 0.000000 -0.004091 0.000000
# 4 0.000000 0.000000 0.000000 0.051692 0.000000 0.021047
# 5 -0.001833 0.005398 -0.004091 0.000000 0.064877 0.000000
# 6 0.000000 0.000000 0.000000 0.021047 0.000000 0.050147
#
#
# Mechanical properties :
#
#
# Convention : Reuss Voigt Hill
#
# Bulk Modulus (GPa) = 26.13376 39.13307 32.63342
# Shear Modulus (GPa) = 21.36305 28.88646 25.12476
#
# Velocity S-wave (km/s) = 3.33250 3.87513 3.61401
# Velocity P-wave (km/s) = 5.32851 6.35338 5.86338
#
# Compressibility (1/GPa) = 0.03826468
#
# Stress axis : x y z
#
# Youngs Moduli (GPa) = 35.55944 109.73892 108.84363
#
# Poissons Ratio (x) = -0.01885 0.20256
# Poissons Ratio (y) = -0.00611 0.26008
# Poissons Ratio (z) = 0.06618 0.26222
#
# Static dielectric constant tensor:
#      x y z
#    x 3.203710 0.000000 0.156360 
#    y 0.000000 3.540720 0.000000 
#    z 0.156360 0.000000 3.650800 
# 
# 
# High freq. dielectric constant tensor:
#      x y z
#    x 1.719160 0.000000 0.010000 
#    y 0.000000 1.754840 0.000000 
#    z 0.010000 0.000000 1.754870 
# 
# From -- ./inp_files/33751.got.cif
#   From: 2010.06.25/outbox.cif.g09.slc.cpg/sg11_17_cif.got.tgz:33751.got - 2010.06.27 23:14:04.
