data_PCOD8075640
_publ_section_title
;
Structure prediction by ZEFSAII (Michael W. Deem and Ramdas Pophale) SiO2 
 PCOD8075640
Probable space group: P 21/M
;
_chemical_formula_sum "Si O2"
_cell_formula_units_Z 20
_cell_length_a 18.382228
_cell_length_b 10.781676
_cell_length_c 9.744869
_cell_angle_alpha 90.000000
_cell_angle_beta 151.311645
_cell_angle_gamma 90.000000
_cell_volume 927.134141
_symmetry_space_group_name_H-M "P 21/M"
_symmetry_group_IT_number 11
_symmetry_cell_setting 'monoclinic'
loop_
_space_group_symop_operation_xyz
x,y,z
-x,1/2+y,-z
-x,-y,-z
x,1/2-y,z
loop_
_atom_site_type_symbol
_atom_site_label
_atom_site_fract_x
_atom_site_fract_y
_atom_site_fract_z
Si Si1 0.516860 0.750000 0.113838
Si Si2 0.429944 0.383941 0.262110
Si Si3 0.149142 0.006375 0.658045
Si Si4 0.182773 0.250000 0.537278
Si Si5 0.104705 0.250000 0.100417
Si Si6 0.818182 0.250000 0.447474
Si Si7 0.631383 0.917931 0.532662
O O1 0.636212 0.750000 0.187406
O O2 0.539110 0.868603 0.248740
O O3 0.351381 0.750000 0.772030
O O4 0.401135 0.250000 0.146049
O O5 0.436443 0.366746 0.436742
O O6 0.592998 0.435123 0.475274
O O7 0.294333 0.476373 0.996471
O O8 0.134678 0.123858 0.533092
O O9 0.159831 0.874567 0.601985
O O10 0.000000 0.000000 0.500000
O O11 0.095339 0.250000 0.247929
O O12 0.935183 0.250000 0.766132
O O13 0.193846 0.374096 0.193801
#
# Coordination Sequence:
#
# PCOD8075640 Si02
#       7
#     2   4   4   2   2   2   4
#     4  10  20  43  67  97 136 178 238 272 339 411
#     4  11  19  35  66 100 139 180 232 281 347 398
#     4  12  25  41  69 105 143 176 227 286 353 413
#     4  10  25  47  72  94 134 186 229 282 339 415
#     4  10  22  46  70  88 143 182 229 281 349 394
#     4  12  25  42  69 101 139 192 226 287 345 396
#     4   9  19  37  64  97 131 181 226 283 331 404
#
# _framework density 21.571850999999999
#
# number of rings (size 3 to 8) (size 9 to 14) (size 15 to 20)
#    0.000    1.600    5.000    1.800    0.000    1.600 
#    0.000    0.000    6.600    0.000    0.000    0.000 
#    0.000    0.000    0.000    0.000    0.000    0.000 
#
# Total GULP energy -247780.920277 kJ/mol
# GULP energy per Si atom -12389.046014 kJ/mol
# Density = 2.152275 g / cm^3
# Si number density = 21.571851 Si / 1000 Ang^3
#
#
#
# Elastic Constant Matrix: (Units=GPa)
#
#
# Indices 1 2 3 4 5 6 
#
# 1 132.5509 64.5581 53.6109 0.0000 5.0220 0.0000
# 2 64.5581 162.5992 43.3893 0.0000 4.1554 0.0000
# 3 53.6109 43.3893 147.7840 0.0000 21.4757 0.0000
# 4 0.0000 0.0000 0.0000-1012.9429 0.0000 -383.7392
# 5 5.0220 4.1554 21.4757 0.0000 24.6293 0.0000
# 6 0.0000 0.0000 0.0000 -383.7392 0.0000 -108.7519
#
#
#
# Elastic Compliance Matrix: (Units=1/GPa)
#
#
# Indices 1 2 3 4 5 6 
#
# 1 0.010309 -0.003344 -0.002902 0.000000 0.000993 0.000000
# 2 -0.003344 0.007767 -0.001118 0.000000 0.000346 0.000000
# 3 -0.002902 -0.001118 0.009200 0.000000 -0.007242 0.000000
# 4 0.000000 0.000000 0.000000 0.002932 0.000000 -0.010344
# 5 0.000993 0.000346 -0.007242 0.000000 0.046656 0.000000
# 6 0.000000 0.000000 0.000000 -0.010344 0.000000 0.027306
#
#
# Mechanical properties :
#
#
# Convention : Reuss Voigt Hill
#
# Bulk Modulus (GPa) = 79.69096 85.11674 82.40385
# Shear Modulus (GPa) = 40.62397 -200.65471 -80.01537
#
# Velocity S-wave (km/s) = 4.34429 -9.65499 -6.09697
# Velocity P-wave (km/s) = 7.88581 9.20591 3.35878
#
# Compressibility (1/GPa) = 0.01254848
#
# Stress axis : x y z
#
# Youngs Moduli (GPa) = 97.00077 128.74657 108.69625
#
# Poissons Ratio (x) = 0.43053 0.31547
# Poissons Ratio (y) = 0.32438 0.12148
# Poissons Ratio (z) = 0.28152 0.14389
#
# Static dielectric constant tensor:
#      x y z
#    x 3.785770 0.000000 -0.003420 
#    y 0.000000 3.966440 0.000000 
#    z -0.003420 0.000000 3.894340 
# 
# 
# High freq. dielectric constant tensor:
#      x y z
#    x 1.840290 0.000000 -0.010970 
#    y 0.000000 1.852300 0.000000 
#    z -0.010970 0.000000 1.846190 
# 
# From -- ./inp_files/24688.got.cif
#   From: 2010.06.25/outbox.cif.g09.slc.cpg/sg11_13_cif.got.tgz:24688.got - 2010.06.27 23:14:04.
