data_PCOD8075368
_publ_section_title
;
Structure prediction by ZEFSAII (Michael W. Deem and Ramdas Pophale) SiO2 
 PCOD8075368
Probable space group: P 21/M
;
_chemical_formula_sum "Si O2"
_cell_formula_units_Z 32
_cell_length_a 22.696710
_cell_length_b 8.985221
_cell_length_c 24.135105
_cell_angle_alpha 90.000000
_cell_angle_beta 160.289534
_cell_angle_gamma 90.000000
_cell_volume 1660.026448
_symmetry_space_group_name_H-M "P 21/M"
_symmetry_group_IT_number 11
_symmetry_cell_setting 'monoclinic'
loop_
_space_group_symop_operation_xyz
x,y,z
-x,1/2+y,-z
-x,-y,-z
x,1/2-y,z
loop_
_atom_site_type_symbol
_atom_site_label
_atom_site_fract_x
_atom_site_fract_y
_atom_site_fract_z
Si Si1 0.328359 0.587587 0.344725
Si Si2 0.971673 0.074461 0.838928
Si Si3 0.114091 0.915219 0.055954
Si Si4 0.026547 0.575254 0.582244
Si Si5 0.244646 0.078685 0.565159
Si Si6 0.002593 0.926523 0.750935
Si Si7 0.397331 0.926424 0.068240
Si Si8 0.371016 0.071688 0.929861
O O1 0.500000 0.500000 0.500000
O O2 0.358421 0.750000 0.396449
O O3 0.179714 0.517898 0.252989
O O4 0.295267 0.595853 0.249324
O O5 0.993019 0.250000 0.852392
O O6 0.940262 0.003821 0.751712
O O7 0.139173 0.004675 0.019871
O O8 0.039667 0.750000 0.977731
O O9 0.000000 0.000000 0.000000
O O10 0.071368 0.750000 0.615468
O O11 0.178683 0.493180 0.750177
O O12 0.000000 0.500000 0.500000
O O13 0.848817 0.550658 0.458875
O O14 0.245883 0.250000 0.551154
O O15 0.447861 0.025882 0.751154
O O16 0.127625 0.006875 0.411961
O O17 0.987183 0.750000 0.742633
O O18 0.205393 0.970396 0.920406
O O19 0.408675 0.750000 0.065165
O O20 0.435572 0.020695 0.047152
O O21 0.371231 0.250000 0.924937
O O22 0.500000 0.000000 0.000000
#
# Coordination Sequence:
#
# PCOD8075368 Si02
#       8
#     4   4   4   4   4   4   4   4
#     4   9  19  34  54  82 116 148 185 231 283 335
#     4  10  21  37  56  82 115 152 192 236 283 339
#     4   9  17  32  54  80 108 142 182 224 273 330
#     4  11  21  37  59  88 122 155 196 246 304 367
#     4   9  19  37  61  86 114 151 193 240 297 355
#     4  10  20  38  61  85 117 159 199 240 294 354
#     4  10  20  39  64  87 116 151 195 248 299 362
#     4  12  24  38  58  86 119 156 200 250 306 366
#
# _framework density 19.276800999999999
#
# number of rings (size 3 to 8) (size 9 to 14) (size 15 to 20)
#    0.000    2.000    1.250    3.750    0.000    4.500 
#    2.250    1.250    0.000    0.000    0.000    0.000 
#    0.000    0.000    0.000    0.000    0.000    0.000 
#
# Total GULP energy -396463.217335 kJ/mol
# GULP energy per Si atom -12389.475542 kJ/mol
# Density = 1.923293 g / cm^3
# Si number density = 19.276801 Si / 1000 Ang^3
#
#
#
# Elastic Constant Matrix: (Units=GPa)
#
#
# Indices 1 2 3 4 5 6 
#
# 1 103.2575 36.3133 59.2039 0.0000 -26.1357 0.0000
# 2 36.3133 85.5308 43.8665 0.0000 -11.0671 0.0000
# 3 59.2039 43.8665 145.0108 0.0000 -13.7340 0.0000
# 4 0.0000 0.0000 0.0000 28.2552 0.0000 -6.3751
# 5 -26.1357 -11.0671 -13.7340 0.0000 30.4743 0.0000
# 6 0.0000 0.0000 0.0000 -6.3751 0.0000 31.7961
#
#
#
# Elastic Compliance Matrix: (Units=1/GPa)
#
#
# Indices 1 2 3 4 5 6 
#
# 1 0.016117 -0.003090 -0.004641 0.000000 0.010609 0.000000
# 2 -0.003090 0.014752 -0.003076 0.000000 0.001321 0.000000
# 3 -0.004641 -0.003076 0.009650 0.000000 -0.000748 0.000000
# 4 0.000000 0.000000 0.000000 0.037069 0.000000 0.007432
# 5 0.010609 0.001321 -0.000748 0.000000 0.042056 0.000000
# 6 0.000000 0.000000 0.000000 0.007432 0.000000 0.032941
#
#
# Mechanical properties :
#
#
# Convention : Reuss Voigt Hill
#
# Bulk Modulus (GPa) = 52.89186 68.06297 60.47742
# Shear Modulus (GPa) = 27.70079 31.06615 29.38347
#
# Velocity S-wave (km/s) = 3.79489 4.01881 3.90845
# Velocity P-wave (km/s) = 6.83369 7.54449 7.19787
#
# Compressibility (1/GPa) = 0.01890650
#
# Stress axis : x y z
#
# Youngs Moduli (GPa) = 62.04519 67.78705 103.62311
#
# Poissons Ratio (x) = 0.20946 0.48089
# Poissons Ratio (y) = 0.19172 0.31874
# Poissons Ratio (z) = 0.28793 0.20851
#
# Static dielectric constant tensor:
#      x y z
#    x 3.347920 0.000000 -0.285370 
#    y 0.000000 3.638720 0.000000 
#    z -0.285370 0.000000 4.014940 
# 
# 
# High freq. dielectric constant tensor:
#      x y z
#    x 1.736730 0.000000 -0.016010 
#    y 0.000000 1.742820 0.000000 
#    z -0.016010 0.000000 1.758680 
# 
# From -- ./inp_files/70020.got.cif
#   From: 2010.06.25/outbox.cif.g09.slc.cpg/sg11_36_cif.got.tgz:70020.got - 2010.06.27 23:14:04.
