data_PCOD8075007
_publ_section_title
;
Structure prediction by ZEFSAII (Michael W. Deem and Ramdas Pophale) SiO2 
 PCOD8075007
Probable space group: P 21/M
;
_chemical_formula_sum "Si O2"
_cell_formula_units_Z 28
_cell_length_a 14.889532
_cell_length_b 9.211062
_cell_length_c 11.539743
_cell_angle_alpha 90.000000
_cell_angle_beta 115.278492
_cell_angle_gamma 90.000000
_cell_volume 1431.106657
_symmetry_space_group_name_H-M "P 21/M"
_symmetry_group_IT_number 11
_symmetry_cell_setting 'monoclinic'
loop_
_space_group_symop_operation_xyz
x,y,z
-x,1/2+y,-z
-x,-y,-z
x,1/2-y,z
loop_
_atom_site_type_symbol
_atom_site_label
_atom_site_fract_x
_atom_site_fract_y
_atom_site_fract_z
Si Si1 0.976576 0.580826 0.369967
Si Si2 0.632619 0.415914 0.513610
Si Si3 0.104196 0.079905 0.058034
Si Si4 0.212743 0.418396 0.879599
Si Si5 0.587716 0.077470 0.980220
Si Si6 0.530498 0.419232 0.692679
Si Si7 0.153126 0.582469 0.302820
O O1 0.989977 0.750000 0.400764
O O2 0.866153 0.544139 0.264803
O O3 0.000000 0.500000 0.500000
O O4 0.055801 0.530427 0.317353
O O5 0.601513 0.250000 0.478718
O O6 0.602121 0.466773 0.626722
O O7 0.576848 0.506402 0.383844
O O8 0.750312 0.438787 0.563054
O O9 0.085459 0.250000 0.061889
O O10 0.168327 0.017945 0.199313
O O11 0.163233 0.043993 0.974441
O O12 0.000000 0.000000 0.000000
O O13 0.244397 0.250000 0.891402
O O14 0.308332 0.518697 0.912807
O O15 0.582092 0.250000 0.995622
O O16 0.579449 0.032469 0.840574
O O17 0.500000 0.000000 0.000000
O O18 0.509934 0.250000 0.682897
O O19 0.143487 0.750000 0.257485
#
# Coordination Sequence:
#
# PCOD8075007 Si02
#       7
#     4   4   4   4   4   4   4
#     4  10  22  40  58  80 115 154 194 243 292 345
#     4   9  18  33  58  85 112 147 185 233 289 346
#     4  11  21  35  59  89 121 154 191 238 293 350
#     4  10  22  41  61  86 121 155 190 244 300 347
#     4  11  24  41  62  87 116 154 199 246 293 348
#     4   9  19  36  55  81 115 147 184 235 291 343
#     4  10  20  37  57  83 118 151 191 242 292 345
#
# _framework density 19.565277999999999
#
# number of rings (size 3 to 8) (size 9 to 14) (size 15 to 20)
#    0.000    2.000    1.429    1.714    0.000    6.286 
#    0.000    5.714    0.000    0.000    0.000    0.000 
#    0.000    0.000    0.000    0.000    0.000    0.000 
#
# Total GULP energy -347265.737979 kJ/mol
# GULP energy per Si atom -12402.347785 kJ/mol
# Density = 1.952075 g / cm^3
# Si number density = 19.565278 Si / 1000 Ang^3
#
#
#
# Elastic Constant Matrix: (Units=GPa)
#
#
# Indices 1 2 3 4 5 6 
#
# 1 101.0381 51.9747 46.8887 0.0000 19.0837 0.0000
# 2 51.9747 67.7306 49.7335 0.0000 1.8869 0.0000
# 3 46.8887 49.7335 121.0951 0.0000 7.8625 0.0000
# 4 0.0000 0.0000 0.0000 39.8343 0.0000 3.3426
# 5 19.0837 1.8869 7.8625 0.0000 29.5659 0.0000
# 6 0.0000 0.0000 0.0000 3.3426 0.0000 31.7378
#
#
#
# Elastic Compliance Matrix: (Units=1/GPa)
#
#
# Indices 1 2 3 4 5 6 
#
# 1 0.019868 -0.014071 -0.001160 0.000000 -0.011618 0.000000
# 2 -0.014071 0.031132 -0.007935 0.000000 0.009206 0.000000
# 3 -0.001160 -0.007935 0.012093 0.000000 -0.001961 0.000000
# 4 0.000000 0.000000 0.000000 0.025328 0.000000 -0.002667
# 5 -0.011618 0.009206 -0.001961 0.000000 0.041255 0.000000
# 6 0.000000 0.000000 0.000000 -0.002667 0.000000 0.031789
#
#
# Mechanical properties :
#
#
# Convention : Reuss Voigt Hill
#
# Bulk Modulus (GPa) = 59.66007 65.22864 62.44436
# Shear Modulus (GPa) = 23.43176 29.64537 26.53857
#
# Velocity S-wave (km/s) = 3.46442 3.89678 3.68694
# Velocity P-wave (km/s) = 6.82363 7.32516 7.07884
#
# Compressibility (1/GPa) = 0.01676163
#
# Stress axis : x y z
#
# Youngs Moduli (GPa) = 50.33237 32.12086 82.68955
#
# Poissons Ratio (x) = 0.45197 0.09590
# Poissons Ratio (y) = 0.70822 0.65617
# Poissons Ratio (z) = 0.05837 0.25489
#
# Static dielectric constant tensor:
#      x y z
#    x 3.554810 0.000000 0.135430 
#    y 0.000000 3.553770 0.000000 
#    z 0.135430 0.000000 3.610840 
# 
# 
# High freq. dielectric constant tensor:
#      x y z
#    x 1.760560 0.000000 0.011820 
#    y 0.000000 1.757760 0.000000 
#    z 0.011820 0.000000 1.766350 
# 
# From -- ./inp_files/38436.got.cif
#   From: 2010.06.25/outbox.cif.g09.slc.cpg/sg11_20_cif.got.tgz:38436.got - 2010.06.27 23:14:04.
