data_PCOD8075476
_publ_section_title
;
Structure prediction by ZEFSAII (Michael W. Deem and Ramdas Pophale) SiO2 
 PCOD8075476
Probable space group: P 21/M
;
_chemical_formula_sum "Si O2"
_cell_formula_units_Z 26
_cell_length_a 6.407656
_cell_length_b 24.517519
_cell_length_c 7.836157
_cell_angle_alpha 90.000000
_cell_angle_beta 79.471557
_cell_angle_gamma 90.000000
_cell_volume 1210.333201
_symmetry_space_group_name_H-M "P 21/M"
_symmetry_group_IT_number 11
_symmetry_cell_setting 'monoclinic'
loop_
_space_group_symop_operation_xyz
x,y,z
-x,1/2+y,-z
-x,-y,-z
x,1/2-y,z
loop_
_atom_site_type_symbol
_atom_site_label
_atom_site_fract_x
_atom_site_fract_y
_atom_site_fract_z
Si Si1 0.422617 0.521635 0.772948
Si Si2 0.305244 0.750000 0.801216
Si Si3 0.798427 0.463042 0.525476
Si Si4 0.261731 0.858962 0.260992
Si Si5 0.619512 0.250000 0.592440
Si Si6 0.641174 0.915838 0.020778
Si Si7 0.004151 0.162051 0.032752
Si Si8 0.650777 0.750000 0.052143
O O1 0.621590 0.496375 0.649575
O O2 0.262557 0.548152 0.661684
O O3 0.308581 0.473598 0.896026
O O4 0.493494 0.572355 0.879281
O O5 0.433061 0.750000 0.603163
O O6 0.452643 0.750000 0.947908
O O7 0.161654 0.694526 0.822055
O O8 0.842667 0.405859 0.609221
O O9 0.000000 0.500000 0.500000
O O10 0.254147 0.804733 0.376952
O O11 0.500560 0.875149 0.162582
O O12 0.103549 0.848557 0.130483
O O13 0.411730 0.250000 0.739700
O O14 0.875961 0.893904 0.927386
O O15 0.215455 0.196930 0.993704
#
# Coordination Sequence:
#
# PCOD8075476 Si02
#       8
#     4   2   4   4   2   4   4   2
#     4   9  21  38  59  92 128 163 216 261 319 390
#     4  11  25  41  66  96 126 163 217 277 320 388
#     4  10  21  39  61  93 130 167 215 274 321 384
#     4  11  23  40  66  89 131 171 211 274 327 383
#     4  12  23  46  65  95 130 168 213 273 338 379
#     4  10  20  38  65  89 122 177 209 261 329 379
#     4  11  21  41  66  90 124 170 216 259 327 393
#     4  11  22  47  65  87 134 169 206 278 320 395
#
# _framework density 21.481688999999999
#
# number of rings (size 3 to 8) (size 9 to 14) (size 15 to 20)
#    0.000    1.538    3.077    1.385    0.000    4.923 
#    5.538    4.615    0.000    0.000    0.000    0.000 
#    0.000    0.000    0.000    0.000    0.000    0.000 
#
# Total GULP energy -322140.772741 kJ/mol
# GULP energy per Si atom -12390.029721 kJ/mol
# Density = 2.143280 g / cm^3
# Si number density = 21.481689 Si / 1000 Ang^3
#
#
#
# Elastic Constant Matrix: (Units=GPa)
#
#
# Indices 1 2 3 4 5 6 
#
# 1 49.6041 12.5511 16.7877 0.0000 8.6697 0.0000
# 2 12.5511 84.8757 26.4142 0.0000 8.2060 0.0000
# 3 16.7877 26.4142 116.5875 0.0000 13.2017 0.0000
# 4 0.0000 0.0000 0.0000 36.3230 0.0000 -4.9251
# 5 8.6697 8.2060 13.2017 0.0000 20.6055 0.0000
# 6 0.0000 0.0000 0.0000 -4.9251 0.0000 56.4858
#
#
#
# Elastic Compliance Matrix: (Units=1/GPa)
#
#
# Indices 1 2 3 4 5 6 
#
# 1 0.022637 -0.002016 -0.001957 0.000000 -0.007468 0.000000
# 2 -0.002016 0.013088 -0.002351 0.000000 -0.002857 0.000000
# 3 -0.001957 -0.002351 0.009912 0.000000 -0.004590 0.000000
# 4 0.000000 0.000000 0.000000 0.027860 0.000000 0.002429
# 5 -0.007468 -0.002857 -0.004590 0.000000 0.055752 0.000000
# 6 0.000000 0.000000 0.000000 0.002429 0.000000 0.017915
#
#
# Mechanical properties :
#
#
# Convention : Reuss Voigt Hill
#
# Bulk Modulus (GPa) = 30.31484 40.28592 35.30038
# Shear Modulus (GPa) = 29.27232 35.70382 32.48807
#
# Velocity S-wave (km/s) = 3.69543 4.08126 3.89313
# Velocity P-wave (km/s) = 5.68778 6.40338 6.05616
#
# Compressibility (1/GPa) = 0.03298715
#
# Stress axis : x y z
#
# Youngs Moduli (GPa) = 44.17473 76.40496 100.89212
#
# Poissons Ratio (x) = 0.15407 0.19746
# Poissons Ratio (y) = 0.08908 0.23723
# Poissons Ratio (z) = 0.08646 0.17966
#
# Static dielectric constant tensor:
#      x y z
#    x 3.875120 0.000000 -0.087980 
#    y 0.000000 4.546710 0.000000 
#    z -0.087980 0.000000 4.152690 
# 
# 
# High freq. dielectric constant tensor:
#      x y z
#    x 1.836210 0.000000 0.005480 
#    y 0.000000 1.863440 0.000000 
#    z 0.005480 0.000000 1.833840 
# 
# From -- ./inp_files/10589.got.cif
#   From: 2010.06.25/outbox.cif.g09.slc.cpg/sg11_6_cif.got.tgz:10589.got - 2010.06.27 23:14:04.
