data_PCOD8075799
_publ_section_title
;
Structure prediction by ZEFSAII (Michael W. Deem and Ramdas Pophale) SiO2 
 PCOD8075799
Probable space group: P 21/M
;
_chemical_formula_sum "Si O2"
_cell_formula_units_Z 20
_cell_length_a 5.175990
_cell_length_b 8.773617
_cell_length_c 22.263981
_cell_angle_alpha 90.000000
_cell_angle_beta 83.286237
_cell_angle_gamma 90.000000
_cell_volume 1004.122115
_symmetry_space_group_name_H-M "P 21/M"
_symmetry_group_IT_number 11
_symmetry_cell_setting 'monoclinic'
loop_
_space_group_symop_operation_xyz
x,y,z
-x,1/2+y,-z
-x,-y,-z
x,1/2-y,z
loop_
_atom_site_type_symbol
_atom_site_label
_atom_site_fract_x
_atom_site_fract_y
_atom_site_fract_z
Si Si1 0.064382 0.929836 0.864057
Si Si2 0.360183 0.573118 0.341211
Si Si3 0.265255 0.429697 0.469401
Si Si4 0.898845 0.574207 0.264823
Si Si5 0.470646 0.068575 0.066061
O O1 0.062997 0.750000 0.866856
O O2 0.793958 0.994429 0.897085
O O3 0.296166 0.994205 0.898961
O O4 0.107643 0.976413 0.794725
O O5 0.335335 0.750000 0.360950
O O6 0.297813 0.466225 0.398717
O O7 0.648915 0.533115 0.311501
O O8 0.157409 0.532577 0.294416
O O9 0.500000 0.500000 0.500000
O O10 0.260272 0.250000 0.479780
O O11 0.000000 0.500000 0.500000
O O12 0.894519 0.750000 0.246195
O O13 0.471802 0.250000 0.061480
O O14 0.500000 0.000000 0.000000
#
# Coordination Sequence:
#
# PCOD8075799 Si02
#       5
#     4   4   4   4   4
#     4  10  21  36  54  78 109 141 179 226 277 331
#     4  10  21  38  58  84 117 151 191 240 288 342
#     4  12  25  42  65  93 124 162 205 250 303 361
#     4  10  21  36  57  83 112 148 189 232 283 339
#     4  10  21  36  54  78 106 140 179 224 275 329
#
# _framework density 19.917895999999999
#
# number of rings (size 3 to 8) (size 9 to 14) (size 15 to 20)
#    0.000    1.600    0.000    4.800    0.000    4.800 
#    0.000    0.000    0.000    0.000    0.000    0.000 
#    0.000    0.000    0.000    0.000    0.000    0.000 
#
# Total GULP energy -248110.007635 kJ/mol
# GULP energy per Si atom -12405.500382 kJ/mol
# Density = 1.987256 g / cm^3
# Si number density = 19.917896 Si / 1000 Ang^3
#
#
#
# Elastic Constant Matrix: (Units=GPa)
#
#
# Indices 1 2 3 4 5 6 
#
# 1 145.7293 38.2903 36.2317 0.0000 1.3403 0.0000
# 2 38.2903 64.0399 32.7052 0.0000 0.1629 0.0000
# 3 36.2317 32.7052 104.6204 0.0000 2.3806 0.0000
# 4 0.0000 0.0000 0.0000 43.5794 0.0000 0.3264
# 5 1.3403 0.1629 2.3806 0.0000 33.5971 0.0000
# 6 0.0000 0.0000 0.0000 0.3264 0.0000 17.2343
#
#
#
# Elastic Compliance Matrix: (Units=1/GPa)
#
#
# Indices 1 2 3 4 5 6 
#
# 1 0.008358 -0.004190 -0.001580 0.000000 -0.000201 0.000000
# 2 -0.004190 0.020686 -0.005025 0.000000 0.000423 0.000000
# 3 -0.001580 -0.005025 0.011693 0.000000 -0.000741 0.000000
# 4 0.000000 0.000000 0.000000 0.022950 0.000000 -0.000435
# 5 -0.000201 0.000423 -0.000741 0.000000 0.029823 0.000000
# 6 0.000000 0.000000 0.000000 -0.000435 0.000000 0.058032
#
#
# Mechanical properties :
#
#
# Convention : Reuss Voigt Hill
#
# Bulk Modulus (GPa) = 52.22823 58.76045 55.49434
# Shear Modulus (GPa) = 27.85308 32.69299 30.27303
#
# Velocity S-wave (km/s) = 3.74357 4.05580 3.90281
# Velocity P-wave (km/s) = 6.70555 7.17621 6.94487
#
# Compressibility (1/GPa) = 0.01914673
#
# Stress axis : x y z
#
# Youngs Moduli (GPa) = 119.65219 48.34279 85.51877
#
# Poissons Ratio (x) = 0.20254 0.13512
# Poissons Ratio (y) = 0.50130 0.42975
# Poissons Ratio (z) = 0.18906 0.24293
#
# Static dielectric constant tensor:
#      x y z
#    x 4.562380 0.000000 -0.011360 
#    y 0.000000 3.573160 0.000000 
#    z -0.011360 0.000000 3.592850 
# 
# 
# High freq. dielectric constant tensor:
#      x y z
#    x 1.802820 0.000000 0.000260 
#    y 0.000000 1.764150 0.000000 
#    z 0.000260 0.000000 1.789800 
# 
# From -- ./inp_files/8473.got.cif
#   From: 2010.06.25/outbox.cif.g09.slc.cpg/sg11_5_cif.got.tgz:8473.got - 2010.06.27 23:14:04.
