data_PCOD8075302
_publ_section_title
;
Structure prediction by ZEFSAII (Michael W. Deem and Ramdas Pophale) SiO2 
 PCOD8075302
Probable space group: P 21/M
;
_chemical_formula_sum "Si O2"
_cell_formula_units_Z 32
_cell_length_a 14.552195
_cell_length_b 18.223092
_cell_length_c 11.249757
_cell_angle_alpha 90.000000
_cell_angle_beta 31.804191
_cell_angle_gamma 90.000000
_cell_volume 1572.241051
_symmetry_space_group_name_H-M "P 21/M"
_symmetry_group_IT_number 11
_symmetry_cell_setting 'monoclinic'
loop_
_space_group_symop_operation_xyz
x,y,z
-x,1/2+y,-z
-x,-y,-z
x,1/2-y,z
loop_
_atom_site_type_symbol
_atom_site_label
_atom_site_fract_x
_atom_site_fract_y
_atom_site_fract_z
Si Si1 0.175053 0.094234 0.148660
Si Si2 0.992110 0.081338 0.956780
Si Si3 0.722132 0.836393 0.207581
Si Si4 0.084857 0.666899 0.406743
Si Si5 0.645192 0.558526 0.818287
Si Si6 0.352942 0.663632 0.729625
Si Si7 0.436710 0.832503 0.905023
Si Si8 0.019347 0.050171 0.664838
O O1 0.310863 0.100626 0.107731
O O2 0.993005 0.134456 0.384487
O O3 0.267631 0.130590 0.935178
O O4 0.137079 0.008559 0.163631
O O5 0.796750 0.115411 0.169861
O O6 0.117237 0.133938 0.893018
O O7 0.067696 0.076547 0.742182
O O8 0.000000 0.000000 0.000000
O O9 0.742118 0.750000 0.177812
O O10 0.537206 0.858473 0.468181
O O11 0.019173 0.750000 0.466540
O O12 0.017419 0.623391 0.367401
O O13 0.294675 0.662991 0.167950
O O14 0.594504 0.616411 0.771848
O O15 0.812406 0.513988 0.584491
O O16 0.500000 0.500000 0.000000
O O17 0.312408 0.750000 0.757087
O O18 0.357639 0.642385 0.864496
O O19 0.508478 0.750000 0.811144
#
# Coordination Sequence:
#
# PCOD8075302 Si02
#       8
#     4   4   4   4   4   4   4   4
#     4  11  23  42  60  90 133 169 207 259 324 395
#     4  12  24  41  68  98 130 173 225 274 329 394
#     4  11  25  45  67  95 132 178 223 268 329 406
#     4  10  20  37  65  89 118 165 206 258 316 378
#     4  11  23  36  62  91 125 166 205 262 324 387
#     4  10  23  44  69  95 131 170 217 283 333 376
#     4  10  20  38  62  92 121 154 212 269 322 378
#     4  11  22  40  62  89 125 164 215 264 323 382
#
# _framework density 20.353113
#
# number of rings (size 3 to 8) (size 9 to 14) (size 15 to 20)
#    0.000    1.250    2.500    4.500    0.000    4.500 
#    2.250    0.000    0.000    0.000    0.000    0.000 
#    0.000    0.000    0.000    0.000    0.000    0.000 
#
# Total GULP energy -396779.984262 kJ/mol
# GULP energy per Si atom -12399.374508 kJ/mol
# Density = 2.030679 g / cm^3
# Si number density = 20.353113 Si / 1000 Ang^3
#
#
#
# Elastic Constant Matrix: (Units=GPa)
#
#
# Indices 1 2 3 4 5 6 
#
# 1 111.2012 42.0523 44.8120 0.0000 -4.6892 0.0000
# 2 42.0523 102.3162 36.0983 0.0000 -8.7001 0.0000
# 3 44.8120 36.0983 107.8951 0.0000 3.1239 0.0000
# 4 0.0000 0.0000 0.0000 34.8260 0.0000 -2.6902
# 5 -4.6892 -8.7001 3.1239 0.0000 37.3772 0.0000
# 6 0.0000 0.0000 0.0000 -2.6902 0.0000 33.4093
#
#
#
# Elastic Compliance Matrix: (Units=1/GPa)
#
#
# Indices 1 2 3 4 5 6 
#
# 1 0.011874 -0.003452 -0.003806 0.000000 0.001004 0.000000
# 2 -0.003452 0.012407 -0.002795 0.000000 0.002688 0.000000
# 3 -0.003806 -0.002795 0.011845 0.000000 -0.002118 0.000000
# 4 0.000000 0.000000 0.000000 0.028894 0.000000 0.002327
# 5 0.001004 0.002688 -0.002118 0.000000 0.027683 0.000000
# 6 0.000000 0.000000 0.000000 0.002327 0.000000 0.030119
#
#
# Mechanical properties :
#
#
# Convention : Reuss Voigt Hill
#
# Bulk Modulus (GPa) = 62.41950 63.03753 62.72852
# Shear Modulus (GPa) = 33.72241 34.35250 34.03745
#
# Velocity S-wave (km/s) = 4.07488 4.11277 4.09387
# Velocity P-wave (km/s) = 7.27148 7.32068 7.29612
#
# Compressibility (1/GPa) = 0.01602063
#
# Stress axis : x y z
#
# Youngs Moduli (GPa) = 84.21604 80.59802 84.42104
#
# Poissons Ratio (x) = 0.27824 0.32129
# Poissons Ratio (y) = 0.29073 0.23597
# Poissons Ratio (z) = 0.32051 0.22528
#
# Static dielectric constant tensor:
#      x y z
#    x 3.577350 0.000000 0.087150 
#    y 0.000000 3.668200 0.000000 
#    z 0.087150 0.000000 4.007750 
# 
# 
# High freq. dielectric constant tensor:
#      x y z
#    x 1.788640 0.000000 0.004930 
#    y 0.000000 1.802810 0.000000 
#    z 0.004930 0.000000 1.804740 
# 
# From -- ./inp_files/39947.got.cif
#   From: 2010.06.25/outbox.cif.g09.slc.cpg/sg11_20_cif.got.tgz:39947.got - 2010.06.27 23:14:04.
