data_PCOD8075671
_publ_section_title
;
Structure prediction by ZEFSAII (Michael W. Deem and Ramdas Pophale) SiO2 
 PCOD8075671
Probable space group: P 21/M
;
_chemical_formula_sum "Si O2"
_cell_formula_units_Z 24
_cell_length_a 5.235313
_cell_length_b 12.938313
_cell_length_c 15.877905
_cell_angle_alpha 90.000000
_cell_angle_beta 90.004638
_cell_angle_gamma 90.000000
_cell_volume 1075.507647
_symmetry_space_group_name_H-M "P 21/M"
_symmetry_group_IT_number 11
_symmetry_cell_setting 'monoclinic'
loop_
_space_group_symop_operation_xyz
x,y,z
-x,1/2+y,-z
-x,-y,-z
x,1/2-y,z
loop_
_atom_site_type_symbol
_atom_site_label
_atom_site_fract_x
_atom_site_fract_y
_atom_site_fract_z
Si Si1 0.751113 0.750000 0.235281
Si Si2 0.785084 0.864258 0.738939
Si Si3 0.753675 0.935355 0.912715
Si Si4 0.715255 0.135098 0.331084
Si Si5 0.250731 0.750000 0.352576
Si Si6 0.744964 0.571657 0.098118
Si Si7 0.250208 0.570513 0.490039
O O1 0.501849 0.750000 0.294255
O O2 0.752546 0.652552 0.173308
O O3 0.000594 0.750000 0.293982
O O4 0.803312 0.750000 0.697956
O O5 0.756545 0.851057 0.838980
O O6 0.544261 0.924483 0.696870
O O7 0.042894 0.924630 0.710802
O O8 0.510985 0.006452 0.894727
O O9 0.743081 0.878535 0.003387
O O10 0.006872 0.001541 0.898888
O O11 0.696605 0.250000 0.290926
O O12 0.746385 0.145975 0.430300
O O13 0.249556 0.644667 0.408233
O O14 0.500000 0.500000 0.500000
O O15 0.000000 0.500000 0.500000
#
# Coordination Sequence:
#
# PCOD8075671 Si02
#       7
#     2   4   4   4   2   4   4
#     4  12  26  44  70  94 138 182 222 282 342 392
#     4  10  21  34  62  91 116 157 197 248 315 370
#     4  10  21  40  61  92 130 161 215 266 307 389
#     4  10  21  40  58  87 126 153 194 263 315 374
#     4  12  28  48  66 102 140 172 240 288 330 424
#     4  10  23  40  62  89 126 175 208 261 326 372
#     4  12  26  44  70  96 128 178 220 273 346 402
#
# _framework density 22.315045000000001
#
# number of rings (size 3 to 8) (size 9 to 14) (size 15 to 20)
#    0.000    1.333    0.833    4.000    1.167    8.000 
#    0.000    0.000    0.000    0.000    0.000    0.000 
#    0.000    0.000    0.000    0.000    0.000    0.000 
#
# Total GULP energy -297328.710582 kJ/mol
# GULP energy per Si atom -12388.696274 kJ/mol
# Density = 2.226425 g / cm^3
# Si number density = 22.315045 Si / 1000 Ang^3
#
#
#
# Elastic Constant Matrix: (Units=GPa)
#
#
# Indices 1 2 3 4 5 6 
#
# 1 211.9467 44.0461 39.7908 0.0000 -7.9593 0.0000
# 2 44.0461 74.9645 43.9093 0.0000 -0.5357 0.0000
# 3 39.7908 43.9093 140.7912 0.0000 0.6851 0.0000
# 4 0.0000 0.0000 0.0000 47.9692 0.0000 2.7546
# 5 -7.9593 -0.5357 0.6851 0.0000 44.8687 0.0000
# 6 0.0000 0.0000 0.0000 2.7546 0.0000 13.5913
#
#
#
# Elastic Compliance Matrix: (Units=1/GPa)
#
#
# Indices 1 2 3 4 5 6 
#
# 1 0.005464 -0.002810 -0.000673 0.000000 0.000946 0.000000
# 2 -0.002810 0.017769 -0.004747 0.000000 -0.000214 0.000000
# 3 -0.000673 -0.004747 0.008775 0.000000 -0.000310 0.000000
# 4 0.000000 0.000000 0.000000 0.021092 0.000000 -0.004275
# 5 0.000946 -0.000214 -0.000310 0.000000 0.022457 0.000000
# 6 0.000000 0.000000 0.000000 -0.004275 0.000000 0.074443
#
#
# Mechanical properties :
#
#
# Convention : Reuss Voigt Hill
#
# Bulk Modulus (GPa) = 64.30859 75.91053 70.10956
# Shear Modulus (GPa) = 29.13053 41.28292 35.20673
#
# Velocity S-wave (km/s) = 3.61698 4.30583 3.97635
# Velocity P-wave (km/s) = 6.80621 7.66888 7.25039
#
# Compressibility (1/GPa) = 0.01555002
#
# Stress axis : x y z
#
# Youngs Moduli (GPa) = 183.02132 56.27699 113.96424
#
# Poissons Ratio (x) = 0.15812 0.07665
# Poissons Ratio (y) = 0.51422 0.54095
# Poissons Ratio (z) = 0.12309 0.26713
#
# Static dielectric constant tensor:
#      x y z
#    x 4.808090 0.000000 -0.014430 
#    y 0.000000 3.555690 0.000000 
#    z -0.014430 0.000000 4.406310 
# 
# 
# High freq. dielectric constant tensor:
#      x y z
#    x 1.913160 0.000000 -0.000910 
#    y 0.000000 1.843620 0.000000 
#    z -0.000910 0.000000 1.900810 
# 
# From -- ./inp_files/45735.got.cif
#   From: 2010.06.25/outbox.cif.g09.slc.cpg/sg11_23_cif.got.tgz:45735.got - 2010.06.27 23:14:04.
