data_PCOD8075650
_publ_section_title
;
Structure prediction by ZEFSAII (Michael W. Deem and Ramdas Pophale) SiO2 
 PCOD8075650
Probable space group: P 21/M
;
_chemical_formula_sum "Si O2"
_cell_formula_units_Z 28
_cell_length_a 26.089927
_cell_length_b 9.026713
_cell_length_c 9.521964
_cell_angle_alpha 90.000000
_cell_angle_beta 140.308163
_cell_angle_gamma 90.000000
_cell_volume 1432.179728
_symmetry_space_group_name_H-M "P 21/M"
_symmetry_group_IT_number 11
_symmetry_cell_setting 'monoclinic'
loop_
_space_group_symop_operation_xyz
x,y,z
-x,1/2+y,-z
-x,-y,-z
x,1/2-y,z
loop_
_atom_site_type_symbol
_atom_site_label
_atom_site_fract_x
_atom_site_fract_y
_atom_site_fract_z
Si Si1 0.426162 0.426494 0.424939
Si Si2 0.740858 0.074914 0.901193
Si Si3 0.771199 0.576654 0.671909
Si Si4 0.507374 0.082732 0.873240
Si Si5 0.315833 0.581529 0.742648
Si Si6 0.172499 0.920151 0.639975
Si Si7 0.919400 0.923014 0.782772
O O1 0.500000 0.500000 0.500000
O O2 0.425192 0.250000 0.394249
O O3 0.340085 0.497941 0.210701
O O4 0.442010 0.465447 0.621488
O O5 0.724753 0.250000 0.853760
O O6 0.771722 0.008921 0.820065
O O7 0.812477 0.043270 0.164329
O O8 0.762015 0.750000 0.683619
O O9 0.696639 0.523206 0.419473
O O10 0.852059 0.538257 0.756717
O O11 0.493082 0.250000 0.883613
O O12 0.597311 0.055252 0.004697
O O13 0.500000 0.000000 0.000000
O O14 0.304767 0.750000 0.666769
O O15 0.255559 0.541774 0.739037
O O16 0.147092 0.750000 0.566083
O O17 0.104023 0.019389 0.422647
O O18 0.934262 0.750000 0.802525
O O19 0.000000 0.000000 0.000000
#
# Coordination Sequence:
#
# PCOD8075650 Si02
#       7
#     4   4   4   4   4   4   4
#     4  11  23  38  55  78 110 148 190 237 285 333
#     4  11  22  37  57  82 112 148 188 229 276 331
#     4  10  21  36  55  83 114 144 180 225 273 326
#     4  10  21  34  49  72 102 137 181 230 278 324
#     4   9  17  33  54  73  98 137 182 227 273 324
#     4   9  19  36  58  81 107 140 181 225 269 321
#     4  10  21  38  62  89 116 144 179 221 269 327
#
# _framework density 19.550618
#
# number of rings (size 3 to 8) (size 9 to 14) (size 15 to 20)
#    0.000    2.000    0.000    3.429    0.000    9.143 
#    0.000    3.571    0.000    0.000    0.000    0.000 
#    0.000    0.000    0.000    0.000    0.000    0.000 
#
# Total GULP energy -347134.698310 kJ/mol
# GULP energy per Si atom -12397.667797 kJ/mol
# Density = 1.950612 g / cm^3
# Si number density = 19.550618 Si / 1000 Ang^3
#
#
#
# Elastic Constant Matrix: (Units=GPa)
#
#
# Indices 1 2 3 4 5 6 
#
# 1 45.4670 34.9409 23.6601 0.0000 -11.4213 0.0000
# 2 34.9409 101.3733 58.4277 0.0000 -7.0043 0.0000
# 3 23.6601 58.4277 115.5600 0.0000 -5.0955 0.0000
# 4 0.0000 0.0000 0.0000 33.6900 0.0000 -0.8535
# 5 -11.4213 -7.0043 -5.0955 0.0000 28.9170 0.0000
# 6 0.0000 0.0000 0.0000 -0.8535 0.0000 34.0585
#
#
#
# Elastic Compliance Matrix: (Units=1/GPa)
#
#
# Indices 1 2 3 4 5 6 
#
# 1 0.032845 -0.009868 -0.001279 0.000000 0.010357 0.000000
# 2 -0.009868 0.017020 -0.006627 0.000000 -0.000943 0.000000
# 3 -0.001279 -0.006627 0.012268 0.000000 0.000052 0.000000
# 4 0.000000 0.000000 0.000000 0.029701 0.000000 0.000744
# 5 0.010357 -0.000943 0.000052 0.000000 0.038453 0.000000
# 6 0.000000 0.000000 0.000000 0.000744 0.000000 0.029380
#
#
# Mechanical properties :
#
#
# Convention : Reuss Voigt Hill
#
# Bulk Modulus (GPa) = 37.61382 55.16197 46.38789
# Shear Modulus (GPa) = 24.50072 29.02453 26.76263
#
# Velocity S-wave (km/s) = 3.54389 3.85721 3.70386
# Velocity P-wave (km/s) = 6.00221 6.93640 6.48614
#
# Compressibility (1/GPa) = 0.02658597
#
# Stress axis : x y z
#
# Youngs Moduli (GPa) = 30.44636 58.75447 81.51310
#
# Poissons Ratio (x) = 0.57980 0.10422
# Poissons Ratio (y) = 0.30045 0.54015
# Poissons Ratio (z) = 0.03893 0.38934
#
# Static dielectric constant tensor:
#      x y z
#    x 2.889880 0.000000 -0.261410 
#    y 0.000000 3.570170 0.000000 
#    z -0.261410 0.000000 3.698950 
# 
# 
# High freq. dielectric constant tensor:
#      x y z
#    x 1.748440 0.000000 -0.007480 
#    y 0.000000 1.767060 0.000000 
#    z -0.007480 0.000000 1.768090 
# 
# From -- ./inp_files/28416.got.cif
#   From: 2010.06.25/outbox.cif.g09.slc.cpg/sg11_15_cif.got.tgz:28416.got - 2010.06.27 23:14:04.
