data_PCOD8075187
_publ_section_title
;
Structure prediction by ZEFSAII (Michael W. Deem and Ramdas Pophale) SiO2 
 PCOD8075187
Probable space group: P 21/M
;
_chemical_formula_sum "Si O2"
_cell_formula_units_Z 28
_cell_length_a 28.307631
_cell_length_b 8.980127
_cell_length_c 7.917324
_cell_angle_alpha 90.000000
_cell_angle_beta 135.541344
_cell_angle_gamma 90.000000
_cell_volume 1409.636357
_symmetry_space_group_name_H-M "P 21/M"
_symmetry_group_IT_number 11
_symmetry_cell_setting 'monoclinic'
loop_
_space_group_symop_operation_xyz
x,y,z
-x,1/2+y,-z
-x,-y,-z
x,1/2-y,z
loop_
_atom_site_type_symbol
_atom_site_label
_atom_site_fract_x
_atom_site_fract_y
_atom_site_fract_z
Si Si1 0.064497 0.911779 0.609888
Si Si2 0.653295 0.076037 0.552218
Si Si3 0.797245 0.572898 0.426999
Si Si4 0.791754 0.072661 0.053300
Si Si5 0.667001 0.074883 0.214363
Si Si6 0.428273 0.573510 0.338353
Si Si7 0.067608 0.583891 0.219669
O O1 0.053582 0.750000 0.662037
O O2 0.137406 0.975753 0.856760
O O3 0.070905 0.904481 0.427233
O O4 0.000000 0.000000 0.500000
O O5 0.650146 0.250000 0.575622
O O6 0.631661 0.035748 0.305219
O O7 0.604130 0.007746 0.570417
O O8 0.730598 0.024163 0.776595
O O9 0.802309 0.750000 0.441242
O O10 0.781537 0.514311 0.200580
O O11 0.736051 0.517529 0.387163
O O12 0.867205 0.506446 0.679596
O O13 0.792962 0.250000 0.095278
O O14 0.684174 0.250000 0.247330
O O15 0.617849 0.025534 0.938071
O O16 0.500000 0.500000 0.500000
O O17 0.437108 0.750000 0.365624
O O18 0.067668 0.750000 0.139949
O O19 0.000000 0.500000 0.000000
#
# Coordination Sequence:
#
# PCOD8075187 Si02
#       7
#     4   4   4   4   4   4   4
#     4   9  19  32  50  75 107 144 184 232 283 338
#     4   9  18  35  61  87 110 147 198 240 283 345
#     4  11  21  34  55  83 113 148 190 239 294 348
#     4   9  17  35  57  77 105 147 194 236 283 345
#     4  10  20  37  61  86 114 153 197 239 286 342
#     4  10  21  38  60  86 119 155 192 237 290 350
#     4  10  21  37  55  78 110 150 194 240 290 344
#
# _framework density 19.863278000000001
#
# number of rings (size 3 to 8) (size 9 to 14) (size 15 to 20)
#    0.000    2.286    1.429    2.571    0.000    5.143 
#    0.000    2.857    0.000    0.000    0.000    0.000 
#    0.000    0.000    0.000    0.000    0.000    0.000 
#
# Total GULP energy -347019.997955 kJ/mol
# GULP energy per Si atom -12393.571356 kJ/mol
# Density = 1.981807 g / cm^3
# Si number density = 19.863278 Si / 1000 Ang^3
#
#
#
# Elastic Constant Matrix: (Units=GPa)
#
#
# Indices 1 2 3 4 5 6 
#
# 1 144.9999 37.7176 68.1542 0.0000 18.3732 0.0000
# 2 37.7176 78.1112 37.6369 0.0000 9.3243 0.0000
# 3 68.1542 37.6369 107.5331 0.0000 18.1902 0.0000
# 4 0.0000 0.0000 0.0000 24.1519 0.0000 10.6256
# 5 18.3732 9.3243 18.1902 0.0000 36.3760 0.0000
# 6 0.0000 0.0000 0.0000 10.6256 0.0000 28.8113
#
#
#
# Elastic Compliance Matrix: (Units=1/GPa)
#
#
# Indices 1 2 3 4 5 6 
#
# 1 0.010237 -0.002098 -0.005430 0.000000 -0.001918 0.000000
# 2 -0.002098 0.015892 -0.004067 0.000000 -0.000980 0.000000
# 3 -0.005430 -0.004067 0.014774 0.000000 -0.003603 0.000000
# 4 0.000000 0.000000 0.000000 0.049424 0.000000 -0.018227
# 5 -0.001918 -0.000980 -0.003603 0.000000 0.030512 0.000000
# 6 0.000000 0.000000 0.000000 -0.018227 0.000000 0.041431
#
#
# Mechanical properties :
#
#
# Convention : Reuss Voigt Hill
#
# Bulk Modulus (GPa) = 56.45248 68.62904 62.54076
# Shear Modulus (GPa) = 26.12832 30.34353 28.23592
#
# Velocity S-wave (km/s) = 3.63079 3.91272 3.77439
# Velocity P-wave (km/s) = 6.78668 7.41877 7.10976
#
# Compressibility (1/GPa) = 0.01771401
#
# Stress axis : x y z
#
# Youngs Moduli (GPa) = 97.68047 62.92532 67.68867
#
# Poissons Ratio (x) = 0.13203 0.36753
# Poissons Ratio (y) = 0.20495 0.27526
# Poissons Ratio (z) = 0.53037 0.25589
#
# Static dielectric constant tensor:
#      x y z
#    x 3.622460 0.000000 -0.107200 
#    y 0.000000 3.400000 0.000000 
#    z -0.107200 0.000000 3.489100 
# 
# 
# High freq. dielectric constant tensor:
#      x y z
#    x 1.776730 0.000000 0.008780 
#    y 0.000000 1.748230 0.000000 
#    z 0.008780 0.000000 1.775750 
# 
# From -- ./inp_files/29113.got.cif
#   From: 2010.06.25/outbox.cif.g09.slc.cpg/sg11_15_cif.got.tgz:29113.got - 2010.06.27 23:14:04.
