data_PCOD8075233
_publ_section_title
;
Structure prediction by ZEFSAII (Michael W. Deem and Ramdas Pophale) SiO2 
 PCOD8075233
Probable space group: P 21/M
;
_chemical_formula_sum "Si O2"
_cell_formula_units_Z 28
_cell_length_a 14.835999
_cell_length_b 18.592710
_cell_length_c 5.546754
_cell_angle_alpha 90.000000
_cell_angle_beta 115.687667
_cell_angle_gamma 90.000000
_cell_volume 1378.812743
_symmetry_space_group_name_H-M "P 21/M"
_symmetry_group_IT_number 11
_symmetry_cell_setting 'monoclinic'
loop_
_space_group_symop_operation_xyz
x,y,z
-x,1/2+y,-z
-x,-y,-z
x,1/2-y,z
loop_
_atom_site_type_symbol
_atom_site_label
_atom_site_fract_x
_atom_site_fract_y
_atom_site_fract_z
Si Si1 0.426165 0.169294 0.844183
Si Si2 0.293897 0.059402 0.421743
Si Si3 0.748468 0.828456 0.004995
Si Si4 0.657297 0.166578 0.156851
Si Si5 0.727866 0.405249 0.736430
Si Si6 0.124491 0.073534 0.580884
Si Si7 0.066840 0.541123 0.889621
O O1 0.414723 0.250000 0.711121
O O2 0.388916 0.103789 0.632863
O O3 0.362886 0.168007 0.016073
O O4 0.539323 0.154043 0.046015
O O5 0.237062 0.112662 0.179335
O O6 0.206168 0.036431 0.502136
O O7 0.326418 0.983970 0.337781
O O8 0.771717 0.750000 0.926660
O O9 0.831732 0.847990 0.301671
O O10 0.685791 0.250000 0.175524
O O11 0.704611 0.136067 0.459345
O O12 0.691472 0.131593 0.942774
O O13 0.848883 0.409353 0.890393
O O14 0.012599 0.088278 0.354674
O O15 0.123651 0.017310 0.796738
O O16 0.000000 0.500000 0.000000
#
# Coordination Sequence:
#
# PCOD8075233 Si02
#       7
#     4   4   4   4   4   4   4
#     4   9  22  41  64  90 133 182 217 259 329 402
#     4  11  21  37  64 102 129 161 217 276 332 390
#     4  10  20  37  62  93 130 170 212 269 328 396
#     4  11  27  49  67  93 133 182 224 269 332 396
#     4  12  25  42  72  99 130 171 223 285 323 388
#     4  10  20  37  61  93 130 164 215 265 324 405
#     4  11  21  38  67  94 121 172 213 268 332 401
#
# _framework density 20.307324999999999
#
# number of rings (size 3 to 8) (size 9 to 14) (size 15 to 20)
#    0.000    1.429    2.857    1.714    6.000    1.714 
#    0.000    1.429    0.000    0.000    0.000    0.000 
#    0.000    0.000    0.000    0.000    0.000    0.000 
#
# Total GULP energy -346931.773050 kJ/mol
# GULP energy per Si atom -12390.420466 kJ/mol
# Density = 2.026111 g / cm^3
# Si number density = 20.307325 Si / 1000 Ang^3
#
#
#
# Elastic Constant Matrix: (Units=GPa)
#
#
# Indices 1 2 3 4 5 6 
#
# 1 119.9329 56.4404 66.9831 0.0000 5.6026 0.0000
# 2 56.4404 144.6415 75.7554 0.0000 -2.3627 0.0000
# 3 66.9831 75.7554 133.3130 0.0000 2.2840 0.0000
# 4 0.0000 0.0000 0.0000 29.0574 0.0000 -6.3858
# 5 5.6026 -2.3627 2.2840 0.0000 43.1564 0.0000
# 6 0.0000 0.0000 0.0000 -6.3858 0.0000 25.4722
#
#
#
# Elastic Compliance Matrix: (Units=1/GPa)
#
#
# Indices 1 2 3 4 5 6 
#
# 1 0.012144 -0.002249 -0.004799 0.000000 -0.001446 0.000000
# 2 -0.002249 0.010290 -0.004736 0.000000 0.001106 0.000000
# 3 -0.004799 -0.004736 0.012609 0.000000 -0.000304 0.000000
# 4 0.000000 0.000000 0.000000 0.036421 0.000000 0.009131
# 5 -0.001446 0.001106 -0.000304 0.000000 0.023436 0.000000
# 6 0.000000 0.000000 0.000000 0.009131 0.000000 0.041548
#
#
# Mechanical properties :
#
#
# Convention : Reuss Voigt Hill
#
# Bulk Modulus (GPa) = 87.14911 88.47169 87.81040
# Shear Modulus (GPa) = 30.51739 32.78444 31.65092
#
# Velocity S-wave (km/s) = 3.88077 4.02234 3.95219
# Velocity P-wave (km/s) = 7.94285 8.07671 8.01006
#
# Compressibility (1/GPa) = 0.01147459
#
# Stress axis : x y z
#
# Youngs Moduli (GPa) = 82.34381 97.18363 79.30804
#
# Poissons Ratio (x) = 0.21855 0.38061
# Poissons Ratio (y) = 0.18518 0.37562
# Poissons Ratio (z) = 0.39518 0.46028
#
# Static dielectric constant tensor:
#      x y z
#    x 3.869070 0.000000 -0.015280 
#    y 0.000000 4.092180 0.000000 
#    z -0.015280 0.000000 4.129400 
# 
# 
# High freq. dielectric constant tensor:
#      x y z
#    x 1.791190 0.000000 -0.000400 
#    y 0.000000 1.787210 0.000000 
#    z -0.000400 0.000000 1.807400 
# 
# From -- ./inp_files/6883.got.cif
#   From: 2010.06.25/outbox.cif.g09.slc.cpg/sg11_4_cif.got.tgz:6883.got - 2010.06.27 23:14:04.
