data_PCOD8075818
_publ_section_title
;
Structure prediction by ZEFSAII (Michael W. Deem and Ramdas Pophale) SiO2 
 PCOD8075818
Probable space group: P 21/M
;
_chemical_formula_sum "Si O2"
_cell_formula_units_Z 32
_cell_length_a 13.924364
_cell_length_b 26.419433
_cell_length_c 8.539918
_cell_angle_alpha 90.000000
_cell_angle_beta 34.969478
_cell_angle_gamma 90.000000
_cell_volume 1800.583513
_symmetry_space_group_name_H-M "P 21/M"
_symmetry_group_IT_number 11
_symmetry_cell_setting 'monoclinic'
loop_
_space_group_symop_operation_xyz
x,y,z
-x,1/2+y,-z
-x,-y,-z
x,1/2-y,z
loop_
_atom_site_type_symbol
_atom_site_label
_atom_site_fract_x
_atom_site_fract_y
_atom_site_fract_z
Si Si1 0.567139 0.108219 0.568405
Si Si2 0.880605 0.117250 0.941667
Si Si3 0.884396 0.532823 0.266064
Si Si4 0.964481 0.808748 0.035501
Si Si5 0.663595 0.883316 0.408674
Si Si6 0.659450 0.370840 0.947999
Si Si7 0.293406 0.807862 0.410270
Si Si8 0.632168 0.462384 0.756400
O O1 0.405609 0.109343 0.673835
O O2 0.584666 0.161071 0.637510
O O3 0.549056 0.062688 0.714735
O O4 0.730483 0.096725 0.248413
O O5 0.816081 0.130878 0.856050
O O6 0.015373 0.072159 0.758621
O O7 0.960249 0.168474 0.904937
O O8 0.749250 0.564170 0.344913
O O9 0.798990 0.493074 0.495169
O O10 0.000000 0.500000 0.000000
O O11 0.924581 0.750000 0.116259
O O12 0.794172 0.837475 0.221051
O O13 0.098725 0.817029 0.716300
O O14 0.517479 0.868315 0.725651
O O15 0.676237 0.323060 0.810319
O O16 0.679966 0.421491 0.821413
O O17 0.344873 0.750000 0.363853
O O18 0.500000 0.500000 0.000000
#
# Coordination Sequence:
#
# PCOD8075818 Si02
#       8
#     4   4   4   4   4   4   4   4
#     4   9  19  36  57  78 107 141 180 221 260 317
#     4   9  19  36  56  80 105 140 184 217 259 320
#     4  11  21  36  57  78 107 146 183 216 263 320
#     4   9  19  37  58  79 107 140 176 219 265 318
#     4  10  21  36  56  82 106 140 184 222 259 314
#     4  10  21  36  55  81 111 138 177 224 267 315
#     4   9  19  37  58  80 108 140 172 217 274 321
#     4  11  21  36  53  80 113 142 175 222 272 310
#
# _framework density 17.772016000000001
#
# number of rings (size 3 to 8) (size 9 to 14) (size 15 to 20)
#    0.000    2.250    2.500    0.000    1.750    3.500 
#    2.250    2.500    0.000    0.000    0.000    0.000 
#    0.000    0.000    0.000    0.000    0.000    0.000 
#
# Total GULP energy -396829.955831 kJ/mol
# GULP energy per Si atom -12400.936120 kJ/mol
# Density = 1.773157 g / cm^3
# Si number density = 17.772016 Si / 1000 Ang^3
#
#
#
# Elastic Constant Matrix: (Units=GPa)
#
#
# Indices 1 2 3 4 5 6 
#
# 1 137.6629 43.3778 45.5947 0.0000 -2.1693 0.0000
# 2 43.3778 104.6247 43.8853 0.0000 -1.0780 0.0000
# 3 45.5947 43.8853 89.1351 0.0000 1.3328 0.0000
# 4 0.0000 0.0000 0.0000 36.4992 0.0000 -0.1595
# 5 -2.1693 -1.0780 1.3328 0.0000 27.9850 0.0000
# 6 0.0000 0.0000 0.0000 -0.1595 0.0000 12.9710
#
#
#
# Elastic Compliance Matrix: (Units=1/GPa)
#
#
# Indices 1 2 3 4 5 6 
#
# 1 0.009187 -0.002299 -0.003579 0.000000 0.000794 0.000000
# 2 -0.002299 0.012637 -0.005054 0.000000 0.000549 0.000000
# 3 -0.003579 -0.005054 0.015556 0.000000 -0.001213 0.000000
# 4 0.000000 0.000000 0.000000 0.027399 0.000000 0.000337
# 5 0.000794 0.000549 -0.001213 0.000000 0.035874 0.000000
# 6 0.000000 0.000000 0.000000 0.000337 0.000000 0.077099
#
#
# Mechanical properties :
#
#
# Convention : Reuss Voigt Hill
#
# Bulk Modulus (GPa) = 64.45272 66.34871 65.40072
# Shear Modulus (GPa) = 24.41556 28.72870 26.57213
#
# Velocity S-wave (km/s) = 3.71053 4.02495 3.87093
# Velocity P-wave (km/s) = 7.39611 7.68210 7.54046
#
# Compressibility (1/GPa) = 0.01551525
#
# Stress axis : x y z
#
# Youngs Moduli (GPa) = 108.85513 79.13424 64.28429
#
# Poissons Ratio (x) = 0.18196 0.23007
# Poissons Ratio (y) = 0.25030 0.32487
# Poissons Ratio (z) = 0.38958 0.39992
#
# Static dielectric constant tensor:
#      x y z
#    x 3.322710 0.000000 0.062630 
#    y 0.000000 2.953400 0.000000 
#    z 0.062630 0.000000 3.160720 
# 
# 
# High freq. dielectric constant tensor:
#      x y z
#    x 1.682890 0.000000 0.001170 
#    y 0.000000 1.695910 0.000000 
#    z 0.001170 0.000000 1.688790 
# 
# From -- ./inp_files/15086.got.cif
#   From: 2010.06.25/outbox.cif.g09.slc.cpg/sg11_8_cif.got.tgz:15086.got - 2010.06.27 23:14:04.
