data_PCOD8075795
_publ_section_title
;
Structure prediction by ZEFSAII (Michael W. Deem and Ramdas Pophale) SiO2 
 PCOD8075795
Probable space group: P 21/M
;
_chemical_formula_sum "Si O2"
_cell_formula_units_Z 32
_cell_length_a 21.540905
_cell_length_b 9.186719
_cell_length_c 26.035256
_cell_angle_alpha 90.000000
_cell_angle_beta 18.975938
_cell_angle_gamma 90.000000
_cell_volume 1675.321248
_symmetry_space_group_name_H-M "P 21/M"
_symmetry_group_IT_number 11
_symmetry_cell_setting 'monoclinic'
loop_
_space_group_symop_operation_xyz
x,y,z
-x,1/2+y,-z
-x,-y,-z
x,1/2-y,z
loop_
_atom_site_type_symbol
_atom_site_label
_atom_site_fract_x
_atom_site_fract_y
_atom_site_fract_z
Si Si1 0.232386 0.919398 0.065186
Si Si2 0.944087 0.583000 0.380176
Si Si3 0.791449 0.080223 0.260587
Si Si4 0.501249 0.919661 0.420795
Si Si5 0.485429 0.585604 0.089825
Si Si6 0.454355 0.416852 0.354114
Si Si7 0.787564 0.914064 0.761884
Si Si8 0.843314 0.418551 0.990850
O O1 0.287010 0.750000 0.023195
O O2 0.055575 0.955575 0.240564
O O3 0.171786 0.970534 0.056073
O O4 0.420946 0.006806 0.934493
O O5 0.981306 0.750000 0.365962
O O6 0.721935 0.549177 0.545622
O O7 0.017585 0.486468 0.370119
O O8 0.807334 0.250000 0.235871
O O9 0.674306 0.048305 0.403956
O O10 0.689313 0.004225 0.292306
O O11 0.001102 0.014505 0.101799
O O12 0.550345 0.750000 0.379738
O O13 0.440026 0.976852 0.413432
O O14 0.432031 0.750000 0.146751
O O15 0.292336 0.502171 0.224565
O O16 0.632887 0.581859 0.927807
O O17 0.444204 0.250000 0.381480
O O18 0.643692 0.448350 0.174284
O O19 0.831794 0.750000 0.709839
O O20 0.903968 0.250000 0.946455
#
# Coordination Sequence:
#
# PCOD8075795 Si02
#       8
#     4   4   4   4   4   4   4   4
#     4   9  17  30  49  72  99 132 168 207 252 301
#     4   9  17  30  49  72  99 132 168 207 252 301
#     4  10  21  37  58  82 106 134 170 212 257 305
#     4  10  21  37  58  82 106 134 170 212 257 305
#     4   9  16  26  43  69  99 128 161 205 255 304
#     4  10  21  36  54  77 106 140 175 211 254 305
#     4   9  16  26  43  69  99 128 161 205 255 304
#     4  10  21  36  54  77 106 140 175 211 254 305
#
# _framework density 19.100815000000001
#
# number of rings (size 3 to 8) (size 9 to 14) (size 15 to 20)
#    0.000    2.500    0.000    2.250    0.000    7.500 
#    0.000    2.500    0.000    0.750    0.000    0.000 
#    0.000    0.000    0.000    0.000    0.000    0.000 
#
# Total GULP energy -396907.210702 kJ/mol
# GULP energy per Si atom -12403.350334 kJ/mol
# Density = 1.905734 g / cm^3
# Si number density = 19.100815 Si / 1000 Ang^3
#
#
#
# Elastic Constant Matrix: (Units=GPa)
#
#
# Indices 1 2 3 4 5 6 
#
# 1 45.7758 38.4864 38.6610 0.0000 -30.0980 0.0000
# 2 38.4864 105.6774 51.4646 0.0000 -24.5170 0.0000
# 3 38.6610 51.4646 90.4360 0.0000 -31.0021 0.0000
# 4 0.0000 0.0000 0.0000 25.9518 0.0000 -11.2322
# 5 -30.0980 -24.5170 -31.0021 0.0000 29.0433 0.0000
# 6 0.0000 0.0000 0.0000 -11.2322 0.0000 35.0945
#
#
#
# Elastic Compliance Matrix: (Units=1/GPa)
#
#
# Indices 1 2 3 4 5 6 
#
# 1 0.080438 -0.011111 -0.004263 0.000000 0.069429 0.000000
# 2 -0.011111 0.015080 -0.005386 0.000000 -0.004534 0.000000
# 3 -0.004263 -0.005386 0.020300 0.000000 0.012705 0.000000
# 4 0.000000 0.000000 0.000000 0.044729 0.000000 0.014316
# 5 0.069429 -0.004534 0.012705 0.000000 0.116117 0.000000
# 6 0.000000 0.000000 0.000000 0.014316 0.000000 0.033076
#
#
# Mechanical properties :
#
#
# Convention : Reuss Voigt Hill
#
# Bulk Modulus (GPa) = 13.45921 55.45702 34.45812
# Shear Modulus (GPa) = 13.29689 25.56973 19.43331
#
# Velocity S-wave (km/s) = 2.64131 3.66276 3.19314
# Velocity P-wave (km/s) = 4.04521 6.85453 5.62798
#
# Compressibility (1/GPa) = 0.07429855
#
# Stress axis : x y z
#
# Youngs Moduli (GPa) = 12.43191 66.31085 49.25989
#
# Poissons Ratio (x) = 0.73678 0.21000
# Poissons Ratio (y) = 0.13813 0.26532
# Poissons Ratio (z) = 0.05300 0.35716
#
# Static dielectric constant tensor:
#      x y z
#    x 3.415840 0.000000 -0.225510 
#    y 0.000000 3.540360 0.000000 
#    z -0.225510 0.000000 3.281420 
# 
# 
# High freq. dielectric constant tensor:
#      x y z
#    x 1.737400 0.000000 -0.025140 
#    y 0.000000 1.745380 0.000000 
#    z -0.025140 0.000000 1.722760 
# 
# From -- ./inp_files/72070.got.cif
#   From: 2010.06.25/outbox.cif.g09.slc.cpg/sg11_37_cif.got.tgz:72070.got - 2010.06.27 23:14:04.
