data_PCOD8075518
_publ_section_title
;
Structure prediction by ZEFSAII (Michael W. Deem and Ramdas Pophale) SiO2 
 PCOD8075518
Probable space group: P 21/M
;
_chemical_formula_sum "Si O2"
_cell_formula_units_Z 28
_cell_length_a 14.072200
_cell_length_b 8.438008
_cell_length_c 17.617410
_cell_angle_alpha 90.000000
_cell_angle_beta 136.779571
_cell_angle_gamma 90.000000
_cell_volume 1432.557856
_symmetry_space_group_name_H-M "P 21/M"
_symmetry_group_IT_number 11
_symmetry_cell_setting 'monoclinic'
loop_
_space_group_symop_operation_xyz
x,y,z
-x,1/2+y,-z
-x,-y,-z
x,1/2-y,z
loop_
_atom_site_type_symbol
_atom_site_label
_atom_site_fract_x
_atom_site_fract_y
_atom_site_fract_z
Si Si1 0.631891 0.065593 0.933787
Si Si2 0.184059 0.068908 0.831318
Si Si3 0.421623 0.563568 0.262436
Si Si4 0.646938 0.061922 0.613648
Si Si5 0.333829 0.567787 0.778125
Si Si6 0.273546 0.062795 0.589159
Si Si7 0.111315 0.064987 0.348294
O O1 0.666118 0.250000 0.965605
O O2 0.655498 0.010485 0.859937
O O3 0.472162 0.037812 0.864191
O O4 0.734575 0.961816 0.043596
O O5 0.204318 0.250000 0.818927
O O6 0.241077 0.957254 0.798271
O O7 0.023075 0.034299 0.752403
O O8 0.437980 0.750000 0.271324
O O9 0.338234 0.511436 0.288905
O O10 0.578647 0.495845 0.355062
O O11 0.657725 0.250000 0.608253
O O12 0.500000 0.000000 0.500000
O O13 0.768078 0.973081 0.640659
O O14 0.378000 0.750000 0.799182
O O15 0.241559 0.519947 0.651144
O O16 0.277517 0.250000 0.604266
O O17 0.157602 0.015613 0.460225
O O18 0.077175 0.250000 0.324186
#
# Coordination Sequence:
#
# PCOD8075518 Si02
#       7
#     4   4   4   4   4   4   4
#     4  10  20  39  63  86 114 152 194 240 286 335
#     4  12  25  41  58  82 115 154 195 240 290 346
#     4   8  16  33  58  86 115 147 186 235 285 330
#     4  11  20  35  59  90 120 153 191 235 286 343
#     4  11  22  37  60  89 116 149 193 239 286 342
#     4   9  18  36  58  83 116 152 190 237 287 339
#     4  11  23  40  59  84 118 156 194 238 291 347
#
# _framework density 19.545458
#
# number of rings (size 3 to 8) (size 9 to 14) (size 15 to 20)
#    0.000    1.714    1.429    5.143    0.000    1.714 
#    0.000    2.857    0.000    0.000    0.000    0.000 
#    0.000    0.000    0.000    0.000    0.000    0.000 
#
# Total GULP energy -347231.720882 kJ/mol
# GULP energy per Si atom -12401.132889 kJ/mol
# Density = 1.950097 g / cm^3
# Si number density = 19.545458 Si / 1000 Ang^3
#
#
#
# Elastic Constant Matrix: (Units=GPa)
#
#
# Indices 1 2 3 4 5 6 
#
# 1 81.5564 11.0455 71.4094 0.0000 -14.9400 0.0000
# 2 11.0455 62.7457 26.5175 0.0000 -6.5445 0.0000
# 3 71.4094 26.5175 101.1603 0.0000 -9.1562 0.0000
# 4 0.0000 0.0000 0.0000 25.3651 0.0000 -3.4019
# 5 -14.9400 -6.5445 -9.1562 0.0000 30.0985 0.0000
# 6 0.0000 0.0000 0.0000 -3.4019 0.0000 28.4583
#
#
#
# Elastic Compliance Matrix: (Units=1/GPa)
#
#
# Indices 1 2 3 4 5 6 
#
# 1 0.036674 0.005895 -0.026397 0.000000 0.011456 0.000000
# 2 0.005895 0.019061 -0.008759 0.000000 0.004406 0.000000
# 3 -0.026397 -0.008759 0.030291 0.000000 -0.005792 0.000000
# 4 0.000000 0.000000 0.000000 0.040067 0.000000 0.004790
# 5 0.011456 0.004406 -0.005792 0.000000 0.038106 0.000000
# 6 0.000000 0.000000 0.000000 0.004790 0.000000 0.035712
#
#
# Mechanical properties :
#
#
# Convention : Reuss Voigt Hill
#
# Bulk Modulus (GPa) = 36.35860 51.48969 43.92414
# Shear Modulus (GPa) = 18.68461 25.88370 22.28415
#
# Velocity S-wave (km/s) = 3.09521 3.64302 3.38023
# Velocity P-wave (km/s) = 5.60502 6.64050 6.14461
#
# Compressibility (1/GPa) = 0.02750381
#
# Stress axis : x y z
#
# Youngs Moduli (GPa) = 27.26715 52.46368 33.01364
#
# Poissons Ratio (x) = -0.30925 0.87145
# Poissons Ratio (y) = -0.16073 0.28916
# Poissons Ratio (z) = 0.71976 0.45951
#
# Static dielectric constant tensor:
#      x y z
#    x 3.539280 0.000000 -0.222340 
#    y 0.000000 3.439640 0.000000 
#    z -0.222340 0.000000 3.587350 
# 
# 
# High freq. dielectric constant tensor:
#      x y z
#    x 1.753610 0.000000 -0.019290 
#    y 0.000000 1.757330 0.000000 
#    z -0.019290 0.000000 1.760330 
# 
# From -- ./inp_files/60120.got.cif
#   From: 2010.06.25/outbox.cif.g09.slc.cpg/sg11_31_cif.got.tgz:60120.got - 2010.06.27 23:14:04.
