data_PCOD8075144
_publ_section_title
;
Structure prediction by ZEFSAII (Michael W. Deem and Ramdas Pophale) SiO2 
 PCOD8075144
Probable space group: P 21/M
;
_chemical_formula_sum "Si O2"
_cell_formula_units_Z 32
_cell_length_a 29.965825
_cell_length_b 9.041146
_cell_length_c 12.562453
_cell_angle_alpha 90.000000
_cell_angle_beta 151.656935
_cell_angle_gamma 90.000000
_cell_volume 1615.805273
_symmetry_space_group_name_H-M "P 21/M"
_symmetry_group_IT_number 11
_symmetry_cell_setting 'monoclinic'
loop_
_space_group_symop_operation_xyz
x,y,z
-x,1/2+y,-z
-x,-y,-z
x,1/2-y,z
loop_
_atom_site_type_symbol
_atom_site_label
_atom_site_fract_x
_atom_site_fract_y
_atom_site_fract_z
Si Si1 0.034565 0.075632 0.466529
Si Si2 0.127007 0.581081 0.029396
Si Si3 0.751897 0.926452 0.134669
Si Si4 0.665950 0.418015 0.580363
Si Si5 0.267620 0.080852 0.670719
Si Si6 0.595897 0.075604 0.664657
Si Si7 0.093431 0.081579 0.167362
Si Si8 0.402132 0.426483 0.770868
O O1 0.026653 0.250000 0.465275
O O2 0.140488 0.026904 0.661589
O O3 0.963363 0.022159 0.224595
O O4 0.000000 0.000000 0.500000
O O5 0.109755 0.750000 0.027365
O O6 0.222586 0.563929 0.161524
O O7 0.142868 0.486408 0.168292
O O8 0.740232 0.750000 0.101241
O O9 0.723192 0.987189 0.191830
O O10 0.684567 0.006223 0.910539
O O11 0.643981 0.250000 0.498535
O O12 0.608837 0.457176 0.566875
O O13 0.634202 0.527492 0.421118
O O14 0.297722 0.250000 0.742541
O O15 0.160143 0.065045 0.409182
O O16 0.334630 0.008389 0.722287
O O17 0.591507 0.250000 0.678675
O O18 0.500000 0.000000 0.500000
O O19 0.070404 0.250000 0.093414
O O20 0.000000 0.000000 0.000000
O O21 0.408254 0.250000 0.786124
O O22 0.500000 0.500000 0.000000
#
# Coordination Sequence:
#
# PCOD8075144 Si02
#       8
#     4   4   4   4   4   4   4   4
#     4  10  21  37  60  88 122 163 205 252 302 358
#     4  10  20  37  60  87 119 157 199 246 299 356
#     4  10  21  40  63  88 121 163 205 248 304 363
#     4  10  22  41  64  89 123 161 200 250 306 363
#     4   9  20  39  61  85 121 161 197 243 301 358
#     4  11  25  44  65  91 121 158 203 255 310 363
#     4  11  21  36  57  86 121 161 202 243 293 352
#     4  11  23  40  63  92 123 158 201 251 304 363
#
# _framework density 19.804366999999999
#
# number of rings (size 3 to 8) (size 9 to 14) (size 15 to 20)
#    0.000    1.750    1.250    2.625    1.750    5.000 
#    0.000    3.125    0.000    0.000    0.000    0.000 
#    0.000    0.000    0.000    0.000    0.000    0.000 
#
# Total GULP energy -396807.318402 kJ/mol
# GULP energy per Si atom -12400.228700 kJ/mol
# Density = 1.975929 g / cm^3
# Si number density = 19.804367 Si / 1000 Ang^3
#
#
#
# Elastic Constant Matrix: (Units=GPa)
#
#
# Indices 1 2 3 4 5 6 
#
# 1 143.9521 46.9356 54.5691 0.0000 4.0482 0.0000
# 2 46.9356 72.2720 43.7803 0.0000 0.6955 0.0000
# 3 54.5691 43.7803 119.0558 0.0000 6.2579 0.0000
# 4 0.0000 0.0000 0.0000 35.7726 0.0000 -0.9664
# 5 4.0482 0.6955 6.2579 0.0000 37.4680 0.0000
# 6 0.0000 0.0000 0.0000 -0.9664 0.0000 33.8229
#
#
#
# Elastic Compliance Matrix: (Units=1/GPa)
#
#
# Indices 1 2 3 4 5 6 
#
# 1 0.009435 -0.004527 -0.002634 0.000000 -0.000495 0.000000
# 2 -0.004527 0.019997 -0.005331 0.000000 0.001008 0.000000
# 3 -0.002634 -0.005331 0.011649 0.000000 -0.001562 0.000000
# 4 0.000000 0.000000 0.000000 0.027976 0.000000 0.000799
# 5 -0.000495 0.001008 -0.001562 0.000000 0.026985 0.000000
# 6 0.000000 0.000000 0.000000 0.000799 0.000000 0.029589
#
#
# Mechanical properties :
#
#
# Convention : Reuss Voigt Hill
#
# Bulk Modulus (GPa) = 62.12579 69.53887 65.83233
# Shear Modulus (GPa) = 32.05522 34.07902 33.06712
#
# Velocity S-wave (km/s) = 4.02754 4.15273 4.09061
# Velocity P-wave (km/s) = 7.28464 7.62776 7.45817
#
# Compressibility (1/GPa) = 0.01609638
#
# Stress axis : x y z
#
# Youngs Moduli (GPa) = 105.98602 50.00849 85.84298
#
# Poissons Ratio (x) = 0.22640 0.22609
# Poissons Ratio (y) = 0.47983 0.45765
# Poissons Ratio (z) = 0.27914 0.26661
#
# Static dielectric constant tensor:
#      x y z
#    x 3.877200 0.000000 -0.011630 
#    y 0.000000 3.214740 0.000000 
#    z -0.011630 0.000000 3.708690 
# 
# 
# High freq. dielectric constant tensor:
#      x y z
#    x 1.787450 0.000000 0.004530 
#    y 0.000000 1.757460 0.000000 
#    z 0.004530 0.000000 1.782250 
# 
# From -- ./inp_files/45371.got.cif
#   From: 2010.06.25/outbox.cif.g09.slc.cpg/sg11_23_cif.got.tgz:45371.got - 2010.06.27 23:14:04.
