data_PCOD8075935
_publ_section_title
;
Structure prediction by ZEFSAII (Michael W. Deem and Ramdas Pophale) SiO2 
 PCOD8075935
Probable space group: P 21/M
;
_chemical_formula_sum "Si O2"
_cell_formula_units_Z 32
_cell_length_a 11.520688
_cell_length_b 14.563916
_cell_length_c 13.518299
_cell_angle_alpha 90.000000
_cell_angle_beta 133.269313
_cell_angle_gamma 90.000000
_cell_volume 1651.556747
_symmetry_space_group_name_H-M "P 21/M"
_symmetry_group_IT_number 11
_symmetry_cell_setting 'monoclinic'
loop_
_space_group_symop_operation_xyz
x,y,z
-x,1/2+y,-z
-x,-y,-z
x,1/2-y,z
loop_
_atom_site_type_symbol
_atom_site_label
_atom_site_fract_x
_atom_site_fract_y
_atom_site_fract_z
Si Si1 0.300521 0.084512 0.097090
Si Si2 0.464322 0.353391 0.007474
Si Si3 0.183787 0.351386 0.231250
Si Si4 0.553395 0.852866 0.461489
Si Si5 0.757756 0.357838 0.609338
Si Si6 0.627215 0.014975 0.366712
Si Si7 0.273517 0.504919 0.788414
Si Si8 0.033212 0.007350 0.809162
O O1 0.372815 0.154714 0.059204
O O2 0.202873 0.135501 0.125224
O O3 0.444488 0.025897 0.226886
O O4 0.179570 0.017030 0.970182
O O5 0.494611 0.250000 0.986043
O O6 0.630667 0.405990 0.117799
O O7 0.359380 0.409467 0.867537
O O8 0.114244 0.250000 0.208882
O O9 0.357410 0.362441 0.381444
O O10 0.063158 0.420044 0.211656
O O11 0.569451 0.750000 0.427870
O O12 0.369519 0.876583 0.377370
O O13 0.635263 0.920911 0.432405
O O14 0.783950 0.250000 0.606414
O O15 0.693684 0.401040 0.470026
O O16 0.922471 0.402426 0.742034
O O17 0.742787 0.006583 0.339461
O O18 0.099498 0.509446 0.736987
#
# Coordination Sequence:
#
# PCOD8075935 Si02
#       8
#     4   4   4   4   4   4   4   4
#     4  10  21  36  63  90 115 150 195 247 297 342
#     4   9  18  37  60  84 116 154 195 244 288 337
#     4  11  21  36  60  88 119 157 196 239 295 353
#     4  10  21  38  61  89 117 151 198 243 290 346
#     4  11  23  39  62  86 114 153 197 245 295 347
#     4  11  20  40  64  84 116 156 198 241 285 340
#     4   9  22  36  57  87 118 156 199 234 283 351
#     4  11  23  41  56  87 129 156 188 240 300 345
#
# _framework density 19.375658999999999
#
# number of rings (size 3 to 8) (size 9 to 14) (size 15 to 20)
#    0.000    1.750    2.500    2.625    0.000    6.000 
#    0.000    1.875    0.000    0.000    0.000    0.000 
#    0.000    0.000    0.000    0.000    0.000    0.000 
#
# Total GULP energy -396811.703344 kJ/mol
# GULP energy per Si atom -12400.365729 kJ/mol
# Density = 1.933156 g / cm^3
# Si number density = 19.375659 Si / 1000 Ang^3
#
#
#
# Elastic Constant Matrix: (Units=GPa)
#
#
# Indices 1 2 3 4 5 6 
#
# 1 93.8090 47.9383 24.4130 0.0000 2.1116 0.0000
# 2 47.9383 135.8959 27.7755 0.0000 -0.3521 0.0000
# 3 24.4130 27.7755 63.2533 0.0000 -2.9843 0.0000
# 4 0.0000 0.0000 0.0000 17.4279 0.0000 -0.4103
# 5 2.1116 -0.3521 -2.9843 0.0000 30.3424 0.0000
# 6 0.0000 0.0000 0.0000 -0.4103 0.0000 18.2221
#
#
#
# Elastic Compliance Matrix: (Units=1/GPa)
#
#
# Indices 1 2 3 4 5 6 
#
# 1 0.013718 -0.004117 -0.003551 0.000000 -0.001352 0.000000
# 2 -0.004117 0.009322 -0.002497 0.000000 0.000149 0.000000
# 3 -0.003551 -0.002497 0.018372 0.000000 0.002025 0.000000
# 4 0.000000 0.000000 0.000000 0.057410 0.000000 0.001293
# 5 -0.001352 0.000149 0.002025 0.000000 0.033252 0.000000
# 6 0.000000 0.000000 0.000000 0.001293 0.000000 0.054908
#
#
# Mechanical properties :
#
#
# Convention : Reuss Voigt Hill
#
# Bulk Modulus (GPa) = 47.43346 54.80131 51.11739
# Shear Modulus (GPa) = 23.32760 26.05390 24.69075
#
# Velocity S-wave (km/s) = 3.47358 3.67095 3.57363
# Velocity P-wave (km/s) = 6.37352 6.80536 6.59298
#
# Compressibility (1/GPa) = 0.02108216
#
# Stress axis : x y z
#
# Youngs Moduli (GPa) = 72.89547 107.27680 54.43077
#
# Poissons Ratio (x) = 0.44166 0.19326
# Poissons Ratio (y) = 0.30011 0.13593
# Poissons Ratio (z) = 0.25882 0.26790
#
# Static dielectric constant tensor:
#      x y z
#    x 3.605160 0.000000 -0.036230 
#    y 0.000000 3.444640 0.000000 
#    z -0.036230 0.000000 3.526660 
# 
# 
# High freq. dielectric constant tensor:
#      x y z
#    x 1.754640 0.000000 -0.002550 
#    y 0.000000 1.753040 0.000000 
#    z -0.002550 0.000000 1.747020 
# 
# From -- ./inp_files/50415.got.cif
#   From: 2010.06.25/outbox.cif.g09.slc.cpg/sg11_26_cif.got.tgz:50415.got - 2010.06.27 23:14:04.
