data_PCOD8075480
_publ_section_title
;
Structure prediction by ZEFSAII (Michael W. Deem and Ramdas Pophale) SiO2 
 PCOD8075480
Probable space group: P 21/M
;
_chemical_formula_sum "Si O2"
_cell_formula_units_Z 24
_cell_length_a 13.694250
_cell_length_b 14.044747
_cell_length_c 11.457596
_cell_angle_alpha 90.000000
_cell_angle_beta 146.790431
_cell_angle_gamma 90.000000
_cell_volume 1206.954139
_symmetry_space_group_name_H-M "P 21/M"
_symmetry_group_IT_number 11
_symmetry_cell_setting 'monoclinic'
loop_
_space_group_symop_operation_xyz
x,y,z
-x,1/2+y,-z
-x,-y,-z
x,1/2-y,z
loop_
_atom_site_type_symbol
_atom_site_label
_atom_site_fract_x
_atom_site_fract_y
_atom_site_fract_z
Si Si1 0.544818 0.015056 0.411066
Si Si2 0.044819 0.984944 0.178570
Si Si3 0.046388 0.640093 0.730735
Si Si4 0.250002 0.362502 0.742241
Si Si5 0.250000 0.137217 0.003830
Si Si6 0.453609 0.859907 0.137957
O O1 0.498719 0.917087 0.299820
O O2 0.500000 0.000000 0.500000
O O3 0.749999 0.043139 0.598687
O O4 0.427630 0.101308 0.244743
O O5 0.998721 0.082913 0.197620
O O6 0.927630 0.898692 0.110519
O O7 0.000000 0.000000 0.000000
O O8 0.004998 0.750000 0.718213
O O9 0.925685 0.603246 0.502799
O O10 0.249998 0.624693 0.896277
O O11 0.250001 0.250000 0.755034
O O12 0.425689 0.396753 0.848576
O O13 0.250001 0.405804 0.872290
O O14 0.250000 0.250000 0.007189
O O15 0.494999 0.750000 0.208213
#
# Coordination Sequence:
#
# PCOD8075480 Si02
#       6
#     4   4   4   4   4   4
#     4  12  24  43  66  93 129 165 218 265 309 382
#     4  12  24  43  66  93 129 165 218 265 309 382
#     4  10  20  38  65  96 127 165 211 263 316 368
#     4   9  20  39  63  94 131 167 210 256 312 384
#     4  11  26  45  64  94 133 169 207 262 321 372
#     4  10  20  38  65  96 127 165 211 263 316 368
#
# _framework density 19.884765999999999
#
# number of rings (size 3 to 8) (size 9 to 14) (size 15 to 20)
#    0.000    1.333    5.000    0.000    0.000    4.667 
#    0.000    3.333    0.000    0.000    0.000    0.000 
#    0.000    0.000    0.000    0.000    0.000    0.000 
#
# Total GULP energy -297693.207943 kJ/mol
# GULP energy per Si atom -12403.883664 kJ/mol
# Density = 1.983951 g / cm^3
# Si number density = 19.884766 Si / 1000 Ang^3
#
#
#
# Elastic Constant Matrix: (Units=GPa)
#
#
# Indices 1 2 3 4 5 6 
#
# 1 165.3248 56.2092 95.0105 0.0000 -2.7120 0.0000
# 2 56.2092 88.4355 54.5150 0.0000 -2.0316 0.0000
# 3 95.0105 54.5150 173.3654 0.0000 12.3642 0.0000
# 4 0.0000 0.0000 0.0000 32.8953 0.0000 0.3219
# 5 -2.7120 -2.0316 12.3642 0.0000 52.1180 0.0000
# 6 0.0000 0.0000 0.0000 0.3219 0.0000 32.6266
#
#
#
# Elastic Compliance Matrix: (Units=1/GPa)
#
#
# Indices 1 2 3 4 5 6 
#
# 1 0.009758 -0.003488 -0.004351 0.000000 0.001404 0.000000
# 2 -0.003488 0.015409 -0.003015 0.000000 0.001134 0.000000
# 3 -0.004351 -0.003015 0.009282 0.000000 -0.002546 0.000000
# 4 0.000000 0.000000 0.000000 0.030402 0.000000 -0.000300
# 5 0.001404 0.001134 -0.002546 0.000000 0.019909 0.000000
# 6 0.000000 0.000000 0.000000 -0.000300 0.000000 0.030653
#
#
# Mechanical properties :
#
#
# Convention : Reuss Voigt Hill
#
# Bulk Modulus (GPa) = 78.48136 93.17725 85.82930
# Shear Modulus (GPa) = 35.36862 38.28739 36.82800
#
# Velocity S-wave (km/s) = 4.22201 4.39277 4.30824
# Velocity P-wave (km/s) = 7.95745 8.52578 8.24651
#
# Compressibility (1/GPa) = 0.01274188
#
# Stress axis : x y z
#
# Youngs Moduli (GPa) = 102.47862 64.89708 107.73052
#
# Poissons Ratio (x) = 0.22634 0.46876
# Poissons Ratio (y) = 0.35742 0.32480
# Poissons Ratio (z) = 0.44591 0.19566
#
# Static dielectric constant tensor:
#      x y z
#    x 3.929310 0.000000 0.203570 
#    y 0.000000 3.485690 0.000000 
#    z 0.203570 0.000000 4.098910 
# 
# 
# High freq. dielectric constant tensor:
#      x y z
#    x 1.785710 0.000000 0.006700 
#    y 0.000000 1.769110 0.000000 
#    z 0.006700 0.000000 1.791290 
# 
# From -- ./inp_files/39719.got.cif
#   From: 2010.06.25/outbox.cif.g09.slc.cpg/sg11_20_cif.got.tgz:39719.got - 2010.06.27 23:14:04.
