data_PCOD8075557
_publ_section_title
;
Structure prediction by ZEFSAII (Michael W. Deem and Ramdas Pophale) SiO2 
 PCOD8075557
Probable space group: P 21/M
;
_chemical_formula_sum "Si O2"
_cell_formula_units_Z 32
_cell_length_a 10.317789
_cell_length_b 13.833320
_cell_length_c 11.187478
_cell_angle_alpha 90.000000
_cell_angle_beta 82.170147
_cell_angle_gamma 90.000000
_cell_volume 1581.893850
_symmetry_space_group_name_H-M "P 21/M"
_symmetry_group_IT_number 11
_symmetry_cell_setting 'monoclinic'
loop_
_space_group_symop_operation_xyz
x,y,z
-x,1/2+y,-z
-x,-y,-z
x,1/2-y,z
loop_
_atom_site_type_symbol
_atom_site_label
_atom_site_fract_x
_atom_site_fract_y
_atom_site_fract_z
Si Si1 0.183289 0.359605 0.246661
Si Si2 0.279287 0.636924 0.291140
Si Si3 0.845610 0.502842 0.530992
Si Si4 0.926863 0.362965 0.136347
Si Si5 0.200323 0.029882 0.730642
Si Si6 0.455335 0.140664 0.085154
Si Si7 0.947937 0.137017 0.860026
Si Si8 0.457459 0.445745 0.829511
O O1 0.162317 0.250000 0.290766
O O2 0.198992 0.420405 0.364606
O O3 0.308379 0.371660 0.147982
O O4 0.062197 0.394574 0.181648
O O5 0.306212 0.750000 0.297047
O O6 0.207738 0.602029 0.421443
O O7 0.186128 0.609435 0.190918
O O8 0.414562 0.579490 0.262793
O O9 0.781099 0.531072 0.413836
O O10 0.000000 0.500000 0.500000
O O11 0.896898 0.250000 0.151831
O O12 0.812151 0.420331 0.218529
O O13 0.932914 0.396675 0.998310
O O14 0.329391 0.078878 0.768691
O O15 0.071143 0.087477 0.783278
O O16 0.508129 0.250000 0.104077
O O17 0.545361 0.060049 0.137101
O O18 0.456663 0.123515 0.943848
O O19 0.974906 0.250000 0.848415
#
# Coordination Sequence:
#
# PCOD8075557 Si02
#       8
#     4   4   4   4   4   4   4   4
#     4  10  20  39  65  92 124 165 215 265 317 375
#     4  11  24  44  67  93 129 172 217 261 316 383
#     4  12  23  42  65  91 125 169 220 264 305 369
#     4  10  21  36  61  96 127 158 207 266 321 375
#     4  12  25  39  64  92 129 166 211 267 312 375
#     4  10  22  42  68  96 130 167 206 259 328 395
#     4  10  22  39  64  94 125 162 208 263 323 381
#     4  11  25  41  67  97 130 167 208 262 325 385
#
# _framework density 20.228916999999999
#
# number of rings (size 3 to 8) (size 9 to 14) (size 15 to 20)
#    0.000    1.250    3.750    1.500    3.500    4.500 
#    0.000    0.000    0.000    0.000    0.000    0.000 
#    0.000    0.000    0.000    0.000    0.000    0.000 
#
# Total GULP energy -396915.665817 kJ/mol
# GULP energy per Si atom -12403.614557 kJ/mol
# Density = 2.018287 g / cm^3
# Si number density = 20.228917 Si / 1000 Ang^3
#
#
#
# Elastic Constant Matrix: (Units=GPa)
#
#
# Indices 1 2 3 4 5 6 
#
# 1 77.9244 32.6633 26.5520 0.0000 -2.0433 0.0000
# 2 32.6633 60.5029 15.3996 0.0000 -6.6104 0.0000
# 3 26.5520 15.3996 99.0098 0.0000 -6.4159 0.0000
# 4 0.0000 0.0000 0.0000 21.8499 0.0000 -1.1821
# 5 -2.0433 -6.6104 -6.4159 0.0000 32.1061 0.0000
# 6 0.0000 0.0000 0.0000 -1.1821 0.0000 23.8997
#
#
#
# Elastic Compliance Matrix: (Units=1/GPa)
#
#
# Indices 1 2 3 4 5 6 
#
# 1 0.017667 -0.008809 -0.003457 0.000000 -0.001380 0.000000
# 2 -0.008809 0.021901 -0.000799 0.000000 0.003789 0.000000
# 3 -0.003457 -0.000799 0.011272 0.000000 0.001868 0.000000
# 4 0.000000 0.000000 0.000000 0.045890 0.000000 0.002270
# 5 -0.001380 0.003789 0.001868 0.000000 0.032212 0.000000
# 6 0.000000 0.000000 0.000000 0.002270 0.000000 0.041954
#
#
# Mechanical properties :
#
#
# Convention : Reuss Voigt Hill
#
# Bulk Modulus (GPa) = 40.46716 42.96302 41.71509
# Shear Modulus (GPa) = 24.35909 26.42595 25.39252
#
# Velocity S-wave (km/s) = 3.47388 3.61826 3.54681
# Velocity P-wave (km/s) = 6.01153 6.22417 6.11877
#
# Compressibility (1/GPa) = 0.02471139
#
# Stress axis : x y z
#
# Youngs Moduli (GPa) = 56.60243 45.66035 88.71206
#
# Poissons Ratio (x) = 0.40221 0.30670
# Poissons Ratio (y) = 0.49859 0.07084
# Poissons Ratio (z) = 0.19569 0.03646
#
# Static dielectric constant tensor:
#      x y z
#    x 3.617330 0.000000 -0.051860 
#    y 0.000000 3.910570 0.000000 
#    z -0.051860 0.000000 3.906170 
# 
# 
# High freq. dielectric constant tensor:
#      x y z
#    x 1.787170 0.000000 -0.005250 
#    y 0.000000 1.803420 0.000000 
#    z -0.005250 0.000000 1.786190 
# 
# From -- ./inp_files/31906.got.cif
#   From: 2010.06.25/outbox.cif.g09.slc.cpg/sg11_16_cif.got.tgz:31906.got - 2010.06.27 23:14:04.
