data_PCOD8075997
_publ_section_title
;
Structure prediction by ZEFSAII (Michael W. Deem and Ramdas Pophale) SiO2 
 PCOD8075997
Probable space group: P 21/M
;
_chemical_formula_sum "Si O2"
_cell_formula_units_Z 28
_cell_length_a 9.620939
_cell_length_b 9.139361
_cell_length_c 25.911812
_cell_angle_alpha 90.000000
_cell_angle_beta 36.367802
_cell_angle_gamma 90.000000
_cell_volume 1351.018252
_symmetry_space_group_name_H-M "P 21/M"
_symmetry_group_IT_number 11
_symmetry_cell_setting 'monoclinic'
loop_
_space_group_symop_operation_xyz
x,y,z
-x,1/2+y,-z
-x,-y,-z
x,1/2-y,z
loop_
_atom_site_type_symbol
_atom_site_label
_atom_site_fract_x
_atom_site_fract_y
_atom_site_fract_z
Si Si1 0.039728 0.421551 0.933956
Si Si2 0.247754 0.424272 0.071704
Si Si3 0.691835 0.912358 0.568607
Si Si4 0.862602 0.921228 0.780164
Si Si5 0.170637 0.921163 0.379752
Si Si6 0.433432 0.917600 0.204398
Si Si7 0.666357 0.085645 0.410788
O O1 0.965991 0.250000 0.957777
O O2 0.317002 0.439767 0.842957
O O3 0.901643 0.503544 0.929703
O O4 0.000000 0.500000 0.000000
O O5 0.274841 0.250000 0.053617
O O6 0.113549 0.455179 0.165994
O O7 0.500000 0.500000 0.000000
O O8 0.759882 0.750000 0.567216
O O9 0.453809 0.911799 0.608882
O O10 0.903471 0.971848 0.469086
O O11 0.658368 0.012933 0.628171
O O12 0.847442 0.750000 0.775899
O O13 0.080926 0.983926 0.680158
O O14 0.618493 0.991353 0.832282
O O15 0.209356 0.750000 0.369874
O O16 0.244172 0.978474 0.301897
O O17 0.395175 0.750000 0.200344
O O18 0.691864 0.250000 0.425144
O O19 0.500000 0.000000 0.500000
#
# Coordination Sequence:
#
# PCOD8075997 Si02
#       7
#     4   4   4   4   4   4   4
#     4  11  24  42  65  94 125 160 204 253 308 372
#     4  11  24  43  67  95 128 165 205 255 313 375
#     4   9  18  32  52  76 108 148 191 238 291 349
#     4  10  23  40  60  89 124 162 207 254 307 370
#     4   9  18  33  52  78 110 146 190 240 291 345
#     4  10  22  39  60  86 118 155 200 249 299 358
#     4  10  21  37  56  82 117 158 205 252 303 362
#
# _framework density 20.725110000000001
#
# number of rings (size 3 to 8) (size 9 to 14) (size 15 to 20)
#    0.000    2.000    0.000    2.571    2.000    7.429 
#    0.000    2.857    0.000    0.000    0.000    0.000 
#    0.000    0.000    0.000    0.000    0.000    0.000 
#
# Total GULP energy -347014.326531 kJ/mol
# GULP energy per Si atom -12393.368805 kJ/mol
# Density = 2.067794 g / cm^3
# Si number density = 20.725110 Si / 1000 Ang^3
#
#
#
# Elastic Constant Matrix: (Units=GPa)
#
#
# Indices 1 2 3 4 5 6 
#
# 1 141.1532 59.1773 52.6723 0.0000 3.9761 0.0000
# 2 59.1773 79.7554 54.6684 0.0000 6.8628 0.0000
# 3 52.6723 54.6684 95.4452 0.0000 7.8966 0.0000
# 4 0.0000 0.0000 0.0000 27.9227 0.0000 0.8834
# 5 3.9761 6.8628 7.8966 0.0000 27.9805 0.0000
# 6 0.0000 0.0000 0.0000 0.8834 0.0000 41.6749
#
#
#
# Elastic Compliance Matrix: (Units=1/GPa)
#
#
# Indices 1 2 3 4 5 6 
#
# 1 0.010571 -0.006363 -0.002246 0.000000 0.000693 0.000000
# 2 -0.006363 0.024559 -0.010374 0.000000 -0.002192 0.000000
# 3 -0.002246 -0.010374 0.017838 0.000000 -0.002171 0.000000
# 4 0.000000 0.000000 0.000000 0.035837 0.000000 -0.000760
# 5 0.000693 -0.002192 -0.002171 0.000000 0.036791 0.000000
# 6 0.000000 0.000000 0.000000 -0.000760 0.000000 0.024011
#
#
# Mechanical properties :
#
#
# Convention : Reuss Voigt Hill
#
# Bulk Modulus (GPa) = 66.65969 72.15443 69.40706
# Shear Modulus (GPa) = 25.96385 29.50468 27.73427
#
# Velocity S-wave (km/s) = 3.54329 3.77718 3.66211
# Velocity P-wave (km/s) = 6.99810 7.34257 7.17241
#
# Compressibility (1/GPa) = 0.01500157
#
# Stress axis : x y z
#
# Youngs Moduli (GPa) = 94.59838 40.71780 56.05944
#
# Poissons Ratio (x) = 0.25911 0.12592
# Poissons Ratio (y) = 0.60198 0.58155
# Poissons Ratio (z) = 0.21248 0.42240
#
# Static dielectric constant tensor:
#      x y z
#    x 3.887800 0.000000 -0.073120 
#    y 0.000000 3.760060 0.000000 
#    z -0.073120 0.000000 4.049840 
# 
# 
# High freq. dielectric constant tensor:
#      x y z
#    x 1.818660 0.000000 0.000780 
#    y 0.000000 1.804560 0.000000 
#    z 0.000780 0.000000 1.816000 
# 
# From -- ./inp_files/70843.got.cif
#   From: 2010.06.25/outbox.cif.g09.slc.cpg/sg11_36_cif.got.tgz:70843.got - 2010.06.27 23:14:04.
