data_PCOD8075111
_publ_section_title
;
Structure prediction by ZEFSAII (Michael W. Deem and Ramdas Pophale) SiO2 
 PCOD8075111
Probable space group: P 21/M
;
_chemical_formula_sum "Si O2"
_cell_formula_units_Z 32
_cell_length_a 27.433875
_cell_length_b 8.829565
_cell_length_c 22.462394
_cell_angle_alpha 90.000000
_cell_angle_beta 162.360088
_cell_angle_gamma 90.000000
_cell_volume 1648.821283
_symmetry_space_group_name_H-M "P 21/M"
_symmetry_group_IT_number 11
_symmetry_cell_setting 'monoclinic'
loop_
_space_group_symop_operation_xyz
x,y,z
-x,1/2+y,-z
-x,-y,-z
x,1/2-y,z
loop_
_atom_site_type_symbol
_atom_site_label
_atom_site_fract_x
_atom_site_fract_y
_atom_site_fract_z
Si Si1 0.524107 0.427717 0.464328
Si Si2 0.518983 0.922153 0.959445
Si Si3 0.137570 0.425155 0.698700
Si Si4 0.727401 0.428697 0.031367
Si Si5 0.857927 0.429507 0.796892
Si Si6 0.782740 0.928777 0.969399
Si Si7 0.394863 0.073966 0.703221
Si Si8 0.907068 0.928455 0.727134
O O1 0.500000 0.500000 0.500000
O O2 0.528262 0.250000 0.478345
O O3 0.690167 0.486436 0.629343
O O4 0.381397 0.476205 0.254254
O O5 0.469277 0.750000 0.909561
O O6 0.700311 0.943684 0.149540
O O7 0.500000 0.000000 0.000000
O O8 0.397551 0.990985 0.769636
O O9 0.098365 0.250000 0.666343
O O10 0.150459 0.516295 0.775443
O O11 0.000000 0.500000 0.500000
O O12 0.748077 0.250000 0.045074
O O13 0.773362 0.518914 0.026121
O O14 0.545327 0.473766 0.837033
O O15 0.873069 0.250000 0.815999
O O16 0.866599 0.485180 0.740003
O O17 0.000000 0.500000 0.000000
O O18 0.814556 0.750000 0.003242
O O19 0.923657 0.017269 0.100560
O O20 0.404094 0.250000 0.727993
O O21 0.230794 0.027530 0.480160
O O22 0.912264 0.750000 0.745582
#
# Coordination Sequence:
#
# PCOD8075111 Si02
#       8
#     4   4   4   4   4   4   4   4
#     4  10  23  40  60  85 115 150 189 232 279 331
#     4  10  21  36  57  83 112 146 187 232 281 335
#     4  10  21  37  57  83 113 148 188 233 282 337
#     4  10  20  37  60  84 110 146 188 233 283 337
#     4  11  23  40  61  87 117 151 190 234 282 335
#     4  11  23  39  58  84 116 151 189 232 280 334
#     4   9  20  38  59  82 111 146 187 232 282 336
#     4  11  23  39  59  86 117 150 188 234 283 335
#
# _framework density 19.407803999999999
#
# number of rings (size 3 to 8) (size 9 to 14) (size 15 to 20)
#    0.000    1.750    0.000    3.750    0.000    8.000 
#    0.000    1.250    0.000    0.000    0.000    0.000 
#    0.000    0.000    0.000    0.000    0.000    0.000 
#
# Total GULP energy -396960.280020 kJ/mol
# GULP energy per Si atom -12405.008751 kJ/mol
# Density = 1.936363 g / cm^3
# Si number density = 19.407804 Si / 1000 Ang^3
#
#
#
# Elastic Constant Matrix: (Units=GPa)
#
#
# Indices 1 2 3 4 5 6 
#
# 1 137.2941 37.4395 60.3559 0.0000 -10.6700 0.0000
# 2 37.4395 62.5042 47.1434 0.0000 -6.5083 0.0000
# 3 60.3559 47.1434 147.3131 0.0000 -3.7592 0.0000
# 4 0.0000 0.0000 0.0000 35.1105 0.0000 -4.9329
# 5 -10.6700 -6.5083 -3.7592 0.0000 29.3260 0.0000
# 6 0.0000 0.0000 0.0000 -4.9329 0.0000 41.9756
#
#
#
# Elastic Compliance Matrix: (Units=1/GPa)
#
#
# Indices 1 2 3 4 5 6 
#
# 1 0.009627 -0.003413 -0.002791 0.000000 0.002387 0.000000
# 2 -0.003413 0.022736 -0.005800 0.000000 0.003061 0.000000
# 3 -0.002791 -0.005800 0.009761 0.000000 -0.001051 0.000000
# 4 0.000000 0.000000 0.000000 0.028960 0.000000 0.003403
# 5 0.002387 0.003061 -0.001051 0.000000 0.035513 0.000000
# 6 0.000000 0.000000 0.000000 0.003403 0.000000 0.024223
#
#
# Mechanical properties :
#
#
# Convention : Reuss Voigt Hill
#
# Bulk Modulus (GPa) = 55.19688 70.77657 62.98672
# Shear Modulus (GPa) = 31.08182 34.76060 32.92121
#
# Velocity S-wave (km/s) = 4.00623 4.23669 4.12307
# Velocity P-wave (km/s) = 7.06414 7.77689 7.42907
#
# Compressibility (1/GPa) = 0.01811697
#
# Stress axis : x y z
#
# Youngs Moduli (GPa) = 103.87664 43.98273 102.44760
#
# Poissons Ratio (x) = 0.15009 0.28595
# Poissons Ratio (y) = 0.35448 0.59418
# Poissons Ratio (z) = 0.28994 0.25509
#
# Static dielectric constant tensor:
#      x y z
#    x 3.531920 0.000000 -0.099290 
#    y 0.000000 3.641170 0.000000 
#    z -0.099290 0.000000 3.583860 
# 
# 
# High freq. dielectric constant tensor:
#      x y z
#    x 1.765380 0.000000 -0.006620 
#    y 0.000000 1.766280 0.000000 
#    z -0.006620 0.000000 1.767370 
# 
# From -- ./inp_files/67181.got.cif
#   From: 2010.06.25/outbox.cif.g09.slc.cpg/sg11_34_cif.got.tgz:67181.got - 2010.06.27 23:14:04.
