data_PCOD8075968
_publ_section_title
;
Structure prediction by ZEFSAII (Michael W. Deem and Ramdas Pophale) SiO2 
 PCOD8075968
Probable space group: P 21/M
;
_chemical_formula_sum "Si O2"
_cell_formula_units_Z 32
_cell_length_a 16.458082
_cell_length_b 8.793183
_cell_length_c 24.489590
_cell_angle_alpha 90.000000
_cell_angle_beta 27.104889
_cell_angle_gamma 90.000000
_cell_volume 1614.769187
_symmetry_space_group_name_H-M "P 21/M"
_symmetry_group_IT_number 11
_symmetry_cell_setting 'monoclinic'
loop_
_space_group_symop_operation_xyz
x,y,z
-x,1/2+y,-z
-x,-y,-z
x,1/2-y,z
loop_
_atom_site_type_symbol
_atom_site_label
_atom_site_fract_x
_atom_site_fract_y
_atom_site_fract_z
Si Si1 0.689148 0.924866 0.377174
Si Si2 0.955183 0.929307 0.801952
Si Si3 0.843135 0.070708 0.666792
Si Si4 0.835784 0.573639 0.994232
Si Si5 0.398414 0.575917 0.783686
Si Si6 0.308184 0.568842 0.128015
Si Si7 0.820334 0.577019 0.177656
Si Si8 0.224056 0.075106 0.402250
O O1 0.685791 0.750000 0.397997
O O2 0.723434 0.942667 0.292898
O O3 0.500000 0.000000 0.500000
O O4 0.841990 0.009991 0.320650
O O5 0.955928 0.750000 0.790607
O O6 0.866657 0.969911 0.912986
O O7 0.839804 0.013894 0.825893
O O8 0.833581 0.250000 0.674501
O O9 0.753072 0.007598 0.775872
O O10 0.048450 0.013450 0.538614
O O11 0.736809 0.013590 0.677390
O O12 0.792870 0.750000 0.027241
O O13 0.008106 0.531818 0.927693
O O14 0.671768 0.474645 0.114700
O O15 0.346835 0.750000 0.803026
O O16 0.318589 0.468366 0.785453
O O17 0.610890 0.552680 0.655730
O O18 0.321450 0.750000 0.118063
O O19 0.500000 0.500000 0.000000
O O20 0.882799 0.750000 0.130986
O O21 0.197862 0.250000 0.401643
#
# Coordination Sequence:
#
# PCOD8075968 Si02
#       8
#     4   4   4   4   4   4   4   4
#     4  10  21  38  61  87 117 155 196 241 292 350
#     4  10  22  40  60  86 117 154 199 244 297 355
#     4   9  20  40  61  82 113 148 188 236 290 346
#     4  10  21  37  57  79 112 152 189 233 285 340
#     4  11  22  34  54  84 114 146 187 233 285 344
#     4  11  24  40  61  89 121 158 199 248 303 360
#     4  10  21  37  55  80 113 148 189 233 283 338
#     4   9  20  38  59  84 111 147 189 234 288 344
#
# _framework density 19.817073000000001
#
# number of rings (size 3 to 8) (size 9 to 14) (size 15 to 20)
#    0.000    2.000    0.000    2.625    1.750    6.000 
#    0.000    1.250    0.000    0.000    0.000    0.000 
#    0.000    0.000    0.000    0.000    0.000    0.000 
#
# Total GULP energy -396873.151319 kJ/mol
# GULP energy per Si atom -12402.285979 kJ/mol
# Density = 1.977197 g / cm^3
# Si number density = 19.817073 Si / 1000 Ang^3
#
#
#
# Elastic Constant Matrix: (Units=GPa)
#
#
# Indices 1 2 3 4 5 6 
#
# 1 101.5367 24.9264 48.9254 0.0000 0.8390 0.0000
# 2 24.9264 60.2997 36.5065 0.0000 4.9127 0.0000
# 3 48.9254 36.5065 110.3513 0.0000 -3.6326 0.0000
# 4 0.0000 0.0000 0.0000 33.1456 0.0000 -2.8085
# 5 0.8390 4.9127 -3.6326 0.0000 25.0304 0.0000
# 6 0.0000 0.0000 0.0000 -2.8085 0.0000 35.4787
#
#
#
# Elastic Compliance Matrix: (Units=1/GPa)
#
#
# Indices 1 2 3 4 5 6 
#
# 1 0.012790 -0.002228 -0.004957 0.000000 -0.000711 0.000000
# 2 -0.002228 0.021791 -0.006390 0.000000 -0.005130 0.000000
# 3 -0.004957 -0.006390 0.013485 0.000000 0.003377 0.000000
# 4 0.000000 0.000000 0.000000 0.030374 0.000000 0.002404
# 5 -0.000711 -0.005130 0.003377 0.000000 0.041472 0.000000
# 6 0.000000 0.000000 0.000000 0.002404 0.000000 0.028376
#
#
# Mechanical properties :
#
#
# Convention : Reuss Voigt Hill
#
# Bulk Modulus (GPa) = 47.81008 54.76712 51.28860
# Shear Modulus (GPa) = 27.41072 29.51958 28.46515
#
# Velocity S-wave (km/s) = 3.72316 3.86373 3.79409
# Velocity P-wave (km/s) = 6.53151 6.89934 6.71794
#
# Compressibility (1/GPa) = 0.02091609
#
# Stress axis : x y z
#
# Youngs Moduli (GPa) = 78.18626 45.88948 74.15776
#
# Poissons Ratio (x) = 0.10225 0.36759
# Poissons Ratio (y) = 0.17421 0.47387
# Poissons Ratio (z) = 0.38756 0.29324
#
# Static dielectric constant tensor:
#      x y z
#    x 3.578090 0.000000 0.049080 
#    y 0.000000 3.690730 0.000000 
#    z 0.049080 0.000000 3.815450 
# 
# 
# High freq. dielectric constant tensor:
#      x y z
#    x 1.770930 0.000000 -0.003000 
#    y 0.000000 1.778860 0.000000 
#    z -0.003000 0.000000 1.778730 
# 
# From -- ./inp_files/68998.got.cif
#   From: 2010.06.25/outbox.cif.g09.slc.cpg/sg11_35_cif.got.tgz:68998.got - 2010.06.27 23:14:04.
