data_PCOD8075953
_publ_section_title
;
Structure prediction by ZEFSAII (Michael W. Deem and Ramdas Pophale) SiO2 
 PCOD8075953
Probable space group: P 21/M
;
_chemical_formula_sum "Si O2"
_cell_formula_units_Z 28
_cell_length_a 13.981776
_cell_length_b 8.825011
_cell_length_c 12.447324
_cell_angle_alpha 90.000000
_cell_angle_beta 75.099904
_cell_angle_gamma 90.000000
_cell_volume 1484.224402
_symmetry_space_group_name_H-M "P 21/M"
_symmetry_group_IT_number 11
_symmetry_cell_setting 'monoclinic'
loop_
_space_group_symop_operation_xyz
x,y,z
-x,1/2+y,-z
-x,-y,-z
x,1/2-y,z
loop_
_atom_site_type_symbol
_atom_site_label
_atom_site_fract_x
_atom_site_fract_y
_atom_site_fract_z
Si Si1 0.445878 0.579062 0.611625
Si Si2 0.078996 0.928910 0.618232
Si Si3 0.291910 0.928724 0.159150
Si Si4 0.701486 0.929833 0.060578
Si Si5 0.507561 0.924637 0.828332
Si Si6 0.764228 0.430712 0.252622
Si Si7 0.121792 0.572103 0.368050
O O1 0.500000 0.500000 0.500000
O O2 0.431069 0.750000 0.579440
O O3 0.512718 0.564200 0.698224
O O4 0.337372 0.509649 0.664050
O O5 0.071228 0.750000 0.622572
O O6 0.146916 0.985441 0.696803
O O7 0.126133 0.983300 0.490870
O O8 0.970424 0.996572 0.666221
O O9 0.289077 0.750000 0.139637
O O10 0.222433 0.976208 0.279277
O O11 0.403174 0.979553 0.150058
O O12 0.251525 0.015588 0.065547
O O13 0.692600 0.750000 0.067999
O O14 0.593747 0.005327 0.099344
O O15 0.773829 0.989097 0.134129
O O16 0.514446 0.750000 0.864359
O O17 0.761212 0.250000 0.236395
O O18 0.105233 0.750000 0.367106
#
# Coordination Sequence:
#
# PCOD8075953 Si02
#       7
#     4   4   4   4   4   4   4
#     4   9  19  32  49  75 109 142 176 219 261 316
#     4   9  18  36  60  82 109 143 177 220 275 326
#     4  11  22  36  57  81 110 145 183 226 272 322
#     4  11  22  37  56  80 110 144 185 227 269 323
#     4  10  21  37  54  77 110 147 185 223 269 319
#     4   9  19  36  57  78 107 145 181 221 272 324
#     4   9  20  36  56  84 112 140 177 223 272 325
#
# _framework density 18.865072000000001
#
# number of rings (size 3 to 8) (size 9 to 14) (size 15 to 20)
#    0.000    2.286    0.000    3.429    2.000    4.571 
#    0.000    0.714    0.000    0.000    0.000    0.000 
#    0.000    0.000    0.000    0.000    0.000    0.000 
#
# Total GULP energy -347213.948134 kJ/mol
# GULP energy per Si atom -12400.498148 kJ/mol
# Density = 1.882213 g / cm^3
# Si number density = 18.865072 Si / 1000 Ang^3
#
#
#
# Elastic Constant Matrix: (Units=GPa)
#
#
# Indices 1 2 3 4 5 6 
#
# 1 96.3821 20.8408 37.7566 0.0000 22.8198 0.0000
# 2 20.8408 54.7626 31.1290 0.0000 4.3306 0.0000
# 3 37.7566 31.1290 84.6202 0.0000 9.7608 0.0000
# 4 0.0000 0.0000 0.0000 32.1297 0.0000 2.3532
# 5 22.8198 4.3306 9.7608 0.0000 23.7764 0.0000
# 6 0.0000 0.0000 0.0000 2.3532 0.0000 31.4823
#
#
#
# Elastic Compliance Matrix: (Units=1/GPa)
#
#
# Indices 1 2 3 4 5 6 
#
# 1 0.015735 -0.002308 -0.004701 0.000000 -0.012752 0.000000
# 2 -0.002308 0.023440 -0.007722 0.000000 0.001115 0.000000
# 3 -0.004701 -0.007722 0.016872 0.000000 -0.001008 0.000000
# 4 0.000000 0.000000 0.000000 0.031295 0.000000 -0.002339
# 5 -0.012752 0.001115 -0.001008 0.000000 0.054508 0.000000
# 6 0.000000 0.000000 0.000000 -0.002339 0.000000 0.031939
#
#
# Mechanical properties :
#
#
# Convention : Reuss Voigt Hill
#
# Bulk Modulus (GPa) = 37.61365 46.13527 41.87446
# Shear Modulus (GPa) = 23.57246 27.21358 25.39302
#
# Velocity S-wave (km/s) = 3.53870 3.80220 3.67281
# Velocity P-wave (km/s) = 6.05624 6.61695 6.34280
#
# Compressibility (1/GPa) = 0.02658609
#
# Stress axis : x y z
#
# Youngs Moduli (GPa) = 63.55218 42.66210 59.27000
#
# Poissons Ratio (x) = 0.09845 0.27863
# Poissons Ratio (y) = 0.14665 0.45767
# Poissons Ratio (z) = 0.29876 0.32943
#
# Static dielectric constant tensor:
#      x y z
#    x 3.529070 0.000000 0.094310 
#    y 0.000000 3.392540 0.000000 
#    z 0.094310 0.000000 3.757370 
# 
# 
# High freq. dielectric constant tensor:
#      x y z
#    x 1.720880 0.000000 0.011760 
#    y 0.000000 1.730130 0.000000 
#    z 0.011760 0.000000 1.738880 
# 
# From -- ./inp_files/37396.got.cif
#   From: 2010.06.25/outbox.cif.g09.slc.cpg/sg11_19_cif.got.tgz:37396.got - 2010.06.27 23:14:04.
