data_PCOD8075566
_publ_section_title
;
Structure prediction by ZEFSAII (Michael W. Deem and Ramdas Pophale) SiO2 
 PCOD8075566
Probable space group: P 21/M
;
_chemical_formula_sum "Si O2"
_cell_formula_units_Z 32
_cell_length_a 12.444404
_cell_length_b 19.178936
_cell_length_c 9.199919
_cell_angle_alpha 90.000000
_cell_angle_beta 135.136452
_cell_angle_gamma 90.000000
_cell_volume 1548.926686
_symmetry_space_group_name_H-M "P 21/M"
_symmetry_group_IT_number 11
_symmetry_cell_setting 'monoclinic'
loop_
_space_group_symop_operation_xyz
x,y,z
-x,1/2+y,-z
-x,-y,-z
x,1/2-y,z
loop_
_atom_site_type_symbol
_atom_site_label
_atom_site_fract_x
_atom_site_fract_y
_atom_site_fract_z
Si Si1 0.228168 0.582560 0.954458
Si Si2 0.014316 0.671405 0.942542
Si Si3 0.573252 0.073469 0.586098
Si Si4 0.079891 0.048400 0.695058
Si Si5 0.705120 0.830316 0.101807
Si Si6 0.354075 0.671358 0.816991
Si Si7 0.822357 0.123994 0.625933
Si Si8 0.697039 0.670225 0.755057
O O1 0.084594 0.621244 0.888718
O O2 0.372205 0.586898 0.197811
O O3 0.191283 0.501260 0.894715
O O4 0.268910 0.618564 0.841532
O O5 0.013415 0.750000 0.880341
O O6 0.104978 0.674084 0.182526
O O7 0.843615 0.643175 0.806748
O O8 0.709636 0.072171 0.601576
O O9 0.454205 0.133294 0.440423
O O10 0.500000 0.000000 0.500000
O O11 0.178067 0.112542 0.716648
O O12 0.951388 0.078222 0.675808
O O13 0.000000 0.000000 0.500000
O O14 0.745775 0.750000 0.186225
O O15 0.532047 0.848772 0.977759
O O16 0.729337 0.840897 0.954747
O O17 0.338326 0.750000 0.861117
O O18 0.273598 0.668300 0.582814
O O19 0.667388 0.750000 0.690936
#
# Coordination Sequence:
#
# PCOD8075566 Si02
#       8
#     4   4   4   4   4   4   4   4
#     4  11  26  42  63  95 138 175 209 273 333 393
#     4  10  22  41  67  97 131 172 216 271 323 383
#     4  11  25  40  64  96 128 174 217 265 321 386
#     4  12  25  44  64  97 133 175 217 272 335 394
#     4  10  22  42  69  95 125 168 226 277 319 386
#     4  11  23  43  67  98 131 172 220 272 328 392
#     4  11  23  39  67  94 127 173 222 268 316 390
#     4  10  20  39  66  94 125 166 220 269 315 379
#
# _framework density 20.659469000000001
#
# number of rings (size 3 to 8) (size 9 to 14) (size 15 to 20)
#    0.000    1.250    3.750    1.500    1.750    5.500 
#    0.000    0.000    0.000    0.000    0.000    0.000 
#    0.000    0.000    0.000    0.000    0.000    0.000 
#
# Total GULP energy -396816.690751 kJ/mol
# GULP energy per Si atom -12400.521586 kJ/mol
# Density = 2.061245 g / cm^3
# Si number density = 20.659469 Si / 1000 Ang^3
#
#
#
# Elastic Constant Matrix: (Units=GPa)
#
#
# Indices 1 2 3 4 5 6 
#
# 1 111.5339 51.1101 23.0248 0.0000 15.8397 0.0000
# 2 51.1101 105.5843 29.7869 0.0000 15.1999 0.0000
# 3 23.0248 29.7869 65.4625 0.0000 10.3994 0.0000
# 4 0.0000 0.0000 0.0000 34.5743 0.0000 9.9205
# 5 15.8397 15.1999 10.3994 0.0000 31.8885 0.0000
# 6 0.0000 0.0000 0.0000 9.9205 0.0000 26.6672
#
#
#
# Elastic Compliance Matrix: (Units=1/GPa)
#
#
# Indices 1 2 3 4 5 6 
#
# 1 0.011972 -0.004931 -0.001472 0.000000 -0.003116 0.000000
# 2 -0.004931 0.013343 -0.003919 0.000000 -0.002632 0.000000
# 3 -0.001472 -0.003919 0.018102 0.000000 -0.003304 0.000000
# 4 0.000000 0.000000 0.000000 0.032379 0.000000 -0.012046
# 5 -0.003116 -0.002632 -0.003304 0.000000 0.035239 0.000000
# 6 0.000000 0.000000 0.000000 -0.012046 0.000000 0.041980
#
#
# Mechanical properties :
#
#
# Convention : Reuss Voigt Hill
#
# Bulk Modulus (GPa) = 43.91252 54.49159 49.20205
# Shear Modulus (GPa) = 27.58615 30.53661 29.06138
#
# Velocity S-wave (km/s) = 3.65811 3.84877 3.75465
# Velocity P-wave (km/s) = 6.25651 6.79588 6.53177
#
# Compressibility (1/GPa) = 0.02277255
#
# Stress axis : x y z
#
# Youngs Moduli (GPa) = 83.52733 74.94718 55.24383
#
# Poissons Ratio (x) = 0.36960 0.08131
# Poissons Ratio (y) = 0.41191 0.21647
# Poissons Ratio (z) = 0.12295 0.29368
#
# Static dielectric constant tensor:
#      x y z
#    x 3.970130 0.000000 0.164920 
#    y 0.000000 4.283560 0.000000 
#    z 0.164920 0.000000 3.727830 
# 
# 
# High freq. dielectric constant tensor:
#      x y z
#    x 1.817140 0.000000 0.014400 
#    y 0.000000 1.814390 0.000000 
#    z 0.014400 0.000000 1.804270 
# 
# From -- ./inp_files/19413.got.cif
#   From: 2010.06.25/outbox.cif.g09.slc.cpg/sg11_10_cif.got.tgz:19413.got - 2010.06.27 23:14:04.
