data_PCOD8075500
_publ_section_title
;
Structure prediction by ZEFSAII (Michael W. Deem and Ramdas Pophale) SiO2 
 PCOD8075500
Probable space group: P 21/M
;
_chemical_formula_sum "Si O2"
_cell_formula_units_Z 20
_cell_length_a 8.424481
_cell_length_b 13.219042
_cell_length_c 9.024627
_cell_angle_alpha 90.000000
_cell_angle_beta 85.692004
_cell_angle_gamma 90.000000
_cell_volume 1002.175156
_symmetry_space_group_name_H-M "P 21/M"
_symmetry_group_IT_number 11
_symmetry_cell_setting 'monoclinic'
loop_
_space_group_symop_operation_xyz
x,y,z
-x,1/2+y,-z
-x,-y,-z
x,1/2-y,z
loop_
_atom_site_type_symbol
_atom_site_label
_atom_site_fract_x
_atom_site_fract_y
_atom_site_fract_z
Si Si1 0.863682 0.953451 0.108800
Si Si2 0.602781 0.135124 0.584603
Si Si3 0.918012 0.465449 0.654617
Si Si4 0.734388 0.635221 0.841213
Si Si5 0.425526 0.548648 0.731022
O O1 0.950342 0.910102 0.250198
O O2 0.738284 0.039986 0.166713
O O3 0.773093 0.870583 0.014635
O O4 0.000000 0.000000 0.000000
O O5 0.556441 0.250000 0.625265
O O6 0.778810 0.113674 0.633349
O O7 0.599133 0.120039 0.408577
O O8 0.475132 0.063540 0.673765
O O9 0.852189 0.566938 0.736066
O O10 0.000000 0.500000 0.500000
O O11 0.754442 0.750000 0.785902
O O12 0.553949 0.598357 0.830826
#
# Coordination Sequence:
#
# PCOD8075500 Si02
#       5
#     4   4   4   4   4
#     4  10  21  39  60  83 119 161 195 242 303 354
#     4  10  21  36  61  90 115 156 205 248 303 358
#     4  10  20  39  60  86 123 157 196 255 300 349
#     4  10  22  38  59  88 119 160 201 241 301 363
#     4  10  20  39  60  84 124 157 197 254 298 353
#
# _framework density 19.956591
#
# number of rings (size 3 to 8) (size 9 to 14) (size 15 to 20)
#    0.000    2.000    2.000    1.200    0.000    2.400 
#    0.000    1.000    0.000    1.200    0.000    0.000 
#    0.000    0.000    0.000    0.000    0.000    0.000 
#
# Total GULP energy -247963.829441 kJ/mol
# GULP energy per Si atom -12398.191472 kJ/mol
# Density = 1.991117 g / cm^3
# Si number density = 19.956591 Si / 1000 Ang^3
#
#
#
# Elastic Constant Matrix: (Units=GPa)
#
#
# Indices 1 2 3 4 5 6 
#
# 1 130.4427 29.4383 61.3275 0.0000 20.5821 0.0000
# 2 29.4383 114.7100 27.2207 0.0000 10.8987 0.0000
# 3 61.3275 27.2207 111.8718 0.0000 17.1303 0.0000
# 4 0.0000 0.0000 0.0000 20.5660 0.0000 3.8497
# 5 20.5821 10.8987 17.1303 0.0000 46.5969 0.0000
# 6 0.0000 0.0000 0.0000 3.8497 0.0000 14.2049
#
#
#
# Elastic Compliance Matrix: (Units=1/GPa)
#
#
# Indices 1 2 3 4 5 6 
#
# 1 0.010817 -0.001294 -0.005224 0.000000 -0.002555 0.000000
# 2 -0.001294 0.009496 -0.001429 0.000000 -0.001124 0.000000
# 3 -0.005224 -0.001429 0.012446 0.000000 -0.001934 0.000000
# 4 0.000000 0.000000 0.000000 0.051222 0.000000 -0.013882
# 5 -0.002555 -0.001124 -0.001934 0.000000 0.023563 0.000000
# 6 0.000000 0.000000 0.000000 -0.013882 0.000000 0.074160
#
#
# Mechanical properties :
#
#
# Convention : Reuss Voigt Hill
#
# Bulk Modulus (GPa) = 59.29185 65.88861 62.59023
# Shear Modulus (GPa) = 24.60375 32.20942 28.40658
#
# Velocity S-wave (km/s) = 3.51502 4.02179 3.77692
# Velocity P-wave (km/s) = 6.80065 7.39284 7.10291
#
# Compressibility (1/GPa) = 0.01686572
#
# Stress axis : x y z
#
# Youngs Moduli (GPa) = 92.44394 105.31220 80.34423
#
# Poissons Ratio (x) = 0.13624 0.41972
# Poissons Ratio (y) = 0.11959 0.11482
# Poissons Ratio (z) = 0.48293 0.15051
#
# Static dielectric constant tensor:
#      x y z
#    x 4.815450 0.000000 0.904680 
#    y 0.000000 3.237920 0.000000 
#    z 0.904680 0.000000 4.218310 
# 
# 
# High freq. dielectric constant tensor:
#      x y z
#    x 1.798380 0.000000 0.015960 
#    y 0.000000 1.743570 0.000000 
#    z 0.015960 0.000000 1.789810 
# 
# From -- ./inp_files/11727.got.cif
#   From: 2010.06.25/outbox.cif.g09.slc.cpg/sg11_6_cif.got.tgz:11727.got - 2010.06.27 23:14:04.
