data_PCOD8075819
_publ_section_title
;
Structure prediction by ZEFSAII (Michael W. Deem and Ramdas Pophale) SiO2 
 PCOD8075819
Probable space group: P 21/M
;
_chemical_formula_sum "Si O2"
_cell_formula_units_Z 24
_cell_length_a 15.328819
_cell_length_b 10.613076
_cell_length_c 21.736021
_cell_angle_alpha 90.000000
_cell_angle_beta 160.582146
_cell_angle_gamma 90.000000
_cell_volume 1175.609073
_symmetry_space_group_name_H-M "P 21/M"
_symmetry_group_IT_number 11
_symmetry_cell_setting 'monoclinic'
loop_
_space_group_symop_operation_xyz
x,y,z
-x,1/2+y,-z
-x,-y,-z
x,1/2-y,z
loop_
_atom_site_type_symbol
_atom_site_label
_atom_site_fract_x
_atom_site_fract_y
_atom_site_fract_z
Si Si1 0.528263 0.889110 0.066385
Si Si2 0.077010 0.612409 0.860559
Si Si3 0.454307 0.048186 0.538579
Si Si4 0.490046 0.606628 0.681176
Si Si5 0.061298 0.605796 0.490214
Si Si6 0.981474 0.612395 0.082929
O O1 0.463097 0.750000 0.994845
O O2 0.823255 0.889322 0.285094
O O3 0.333167 0.918794 0.992223
O O4 0.500000 0.000000 0.000000
O O5 0.107262 0.750000 0.913239
O O6 0.052781 0.501032 0.892840
O O7 0.819372 0.623456 0.645382
O O8 0.711360 0.125995 0.731065
O O9 0.500000 0.000000 0.500000
O O10 0.418448 0.941911 0.566069
O O11 0.411708 0.750000 0.623965
O O12 0.312965 0.553041 0.619518
O O13 0.798112 0.584113 0.901743
O O14 0.106074 0.750000 0.546711
O O15 0.000000 0.500000 0.500000
O O16 0.897240 0.750000 0.054514
#
# Coordination Sequence:
#
# PCOD8075819 Si02
#       6
#     4   4   4   4   4   4
#     4  10  21  36  55  81 112 146 187 232 281 336
#     4  10  21  37  56  81 113 148 186 231 282 336
#     4  10  21  36  56  82 112 149 189 232 279 330
#     4  10  21  38  60  85 115 151 191 234 283 338
#     4  10  21  38  60  87 116 149 189 233 283 339
#     4  10  21  37  58  84 111 145 189 232 278 335
#
# _framework density 20.414949
#
# number of rings (size 3 to 8) (size 9 to 14) (size 15 to 20)
#    0.000    2.000    0.000    3.000    0.000    6.667 
#    0.000    3.333    0.000    0.000    0.000    0.000 
#    0.000    0.000    0.000    0.000    0.000    0.000 
#
# Total GULP energy -297315.583222 kJ/mol
# GULP energy per Si atom -12388.149301 kJ/mol
# Density = 2.036848 g / cm^3
# Si number density = 20.414949 Si / 1000 Ang^3
#
#
#
# Elastic Constant Matrix: (Units=GPa)
#
#
# Indices 1 2 3 4 5 6 
#
# 1 83.4599 50.3685 15.5459 0.0000 -7.6666 0.0000
# 2 50.3685 120.4316 10.7933 0.0000 -13.6257 0.0000
# 3 15.5459 10.7933 76.7100 0.0000 5.9051 0.0000
# 4 0.0000 0.0000 0.0000 26.9017 0.0000 -8.8815
# 5 -7.6666 -13.6257 5.9051 0.0000 28.8523 0.0000
# 6 0.0000 0.0000 0.0000 -8.8815 0.0000 25.2002
#
#
#
# Elastic Compliance Matrix: (Units=1/GPa)
#
#
# Indices 1 2 3 4 5 6 
#
# 1 0.016543 -0.006476 -0.002585 0.000000 0.001867 0.000000
# 2 -0.006476 0.011499 -0.000601 0.000000 0.003833 0.000000
# 3 -0.002585 -0.000601 0.013939 0.000000 -0.003823 0.000000
# 4 0.000000 0.000000 0.000000 0.042067 0.000000 0.014826
# 5 0.001867 0.003833 -0.003823 0.000000 0.037748 0.000000
# 6 0.000000 0.000000 0.000000 0.014826 0.000000 0.044907
#
#
# Mechanical properties :
#
#
# Convention : Reuss Voigt Hill
#
# Bulk Modulus (GPa) = 44.13474 48.22411 46.17942
# Shear Modulus (GPa) = 25.82914 29.78375 27.80645
#
# Velocity S-wave (km/s) = 3.56083 3.82372 3.69462
# Velocity P-wave (km/s) = 6.21062 6.57021 6.39295
#
# Compressibility (1/GPa) = 0.02265789
#
# Stress axis : x y z
#
# Youngs Moduli (GPa) = 60.44826 86.96084 71.74196
#
# Poissons Ratio (x) = 0.56316 0.18546
# Poissons Ratio (y) = 0.39146 0.04309
# Poissons Ratio (z) = 0.15626 0.05223
#
# Static dielectric constant tensor:
#      x y z
#    x 3.506080 0.000000 0.331820 
#    y 0.000000 3.875470 0.000000 
#    z 0.331820 0.000000 4.343360 
# 
# 
# High freq. dielectric constant tensor:
#      x y z
#    x 1.773440 0.000000 0.018360 
#    y 0.000000 1.804110 0.000000 
#    z 0.018360 0.000000 1.820350 
# 
# From -- ./inp_files/65612.got.cif
#   From: 2010.06.25/outbox.cif.g09.slc.cpg/sg11_33_cif.got.tgz:65612.got - 2010.06.27 23:14:04.
