data_PCOD8075446
_publ_section_title
;
Structure prediction by ZEFSAII (Michael W. Deem and Ramdas Pophale) SiO2 
 PCOD8075446
Probable space group: P 21/M
;
_chemical_formula_sum "Si O2"
_cell_formula_units_Z 32
_cell_length_a 24.052942
_cell_length_b 9.012114
_cell_length_c 15.154044
_cell_angle_alpha 90.000000
_cell_angle_beta 150.745963
_cell_angle_gamma 90.000000
_cell_volume 1605.278552
_symmetry_space_group_name_H-M "P 21/M"
_symmetry_group_IT_number 11
_symmetry_cell_setting 'monoclinic'
loop_
_space_group_symop_operation_xyz
x,y,z
-x,1/2+y,-z
-x,-y,-z
x,1/2-y,z
loop_
_atom_site_type_symbol
_atom_site_label
_atom_site_fract_x
_atom_site_fract_y
_atom_site_fract_z
Si Si1 0.991287 0.926664 0.721131
Si Si2 0.637653 0.075006 0.006616
Si Si3 0.706766 0.589020 0.621542
Si Si4 0.230189 0.574200 0.980834
Si Si5 0.616357 0.421686 0.648347
Si Si6 0.244542 0.574172 0.649407
Si Si7 0.618972 0.922524 0.314763
Si Si8 0.040219 0.085662 0.970884
O O1 0.978250 0.750000 0.709835
O O2 0.097138 0.972750 0.803991
O O3 0.877384 0.996278 0.524283
O O4 0.011766 0.988061 0.846892
O O5 0.635952 0.250000 0.993965
O O6 0.706063 0.006390 0.017146
O O7 0.703883 0.026147 0.185646
O O8 0.506753 0.019385 0.831182
O O9 0.643466 0.750000 0.545286
O O10 0.648157 0.455358 0.591715
O O11 0.705850 0.550880 0.516404
O O12 0.827737 0.606832 0.832730
O O13 0.237203 0.750000 0.986716
O O14 0.292584 0.514720 0.155306
O O15 0.500000 0.500000 0.500000
O O16 0.600698 0.250000 0.641019
O O17 0.229380 0.750000 0.619459
O O18 0.333030 0.518972 0.698597
O O19 0.615149 0.750000 0.280672
O O20 0.983357 0.250000 0.883684
O O21 0.000000 0.000000 0.000000
#
# Coordination Sequence:
#
# PCOD8075446 Si02
#       8
#     4   4   4   4   4   4   4   4
#     4  11  22  39  61  85 117 159 206 249 297 361
#     4   9  19  37  61  87 117 154 199 250 307 364
#     4  10  21  36  56  84 115 150 190 232 285 346
#     4   9  19  37  60  85 116 156 199 243 297 362
#     4  11  21  35  57  85 117 155 194 236 284 344
#     4  11  23  38  59  88 119 154 199 256 311 358
#     4  10  20  38  63  88 119 158 198 244 300 371
#     4  11  22  36  57  86 122 157 195 242 292 349
#
# _framework density 19.934235000000001
#
# number of rings (size 3 to 8) (size 9 to 14) (size 15 to 20)
#    0.000    1.750    1.250    3.375    0.000    4.500 
#    0.000    0.625    0.000    6.750    0.000    0.000 
#    0.000    0.000    0.000    0.000    0.000    0.000 
#
# Total GULP energy -396655.506866 kJ/mol
# GULP energy per Si atom -12395.484590 kJ/mol
# Density = 1.988886 g / cm^3
# Si number density = 19.934235 Si / 1000 Ang^3
#
#
#
# Elastic Constant Matrix: (Units=GPa)
#
#
# Indices 1 2 3 4 5 6 
#
# 1 116.6001 36.5691 28.3433 0.0000 -0.0357 0.0000
# 2 36.5691 74.5980 31.4744 0.0000 -1.0224 0.0000
# 3 28.3433 31.4744 97.7749 0.0000 -1.1813 0.0000
# 4 0.0000 0.0000 0.0000 24.5543 0.0000 1.0094
# 5 -0.0357 -1.0224 -1.1813 0.0000 36.8362 0.0000
# 6 0.0000 0.0000 0.0000 1.0094 0.0000 30.0631
#
#
#
# Elastic Compliance Matrix: (Units=1/GPa)
#
#
# Indices 1 2 3 4 5 6 
#
# 1 0.010342 -0.004405 -0.001582 0.000000 -0.000163 0.000000
# 2 -0.004405 0.017391 -0.004317 0.000000 0.000340 0.000000
# 3 -0.001582 -0.004317 0.012079 0.000000 0.000266 0.000000
# 4 0.000000 0.000000 0.000000 0.040782 0.000000 -0.001369
# 5 -0.000163 0.000340 0.000266 0.000000 0.027165 0.000000
# 6 0.000000 0.000000 0.000000 -0.001369 0.000000 0.033309
#
#
# Mechanical properties :
#
#
# Convention : Reuss Voigt Hill
#
# Bulk Modulus (GPa) = 52.07234 53.52740 52.79987
# Shear Modulus (GPa) = 29.74810 31.12981 30.43895
#
# Velocity S-wave (km/s) = 3.86724 3.95603 3.91188
# Velocity P-wave (km/s) = 6.79113 6.91210 6.85188
#
# Compressibility (1/GPa) = 0.01920405
#
# Stress axis : x y z
#
# Youngs Moduli (GPa) = 96.69046 57.50235 82.78718
#
# Poissons Ratio (x) = 0.25328 0.13098
# Poissons Ratio (y) = 0.42589 0.35741
# Poissons Ratio (z) = 0.15298 0.24825
#
# Static dielectric constant tensor:
#      x y z
#    x 3.830940 0.000000 -0.029870 
#    y 0.000000 4.199280 0.000000 
#    z -0.029870 0.000000 3.778210 
# 
# 
# High freq. dielectric constant tensor:
#      x y z
#    x 1.785060 0.000000 0.001980 
#    y 0.000000 1.758130 0.000000 
#    z 0.001980 0.000000 1.787480 
# 
# From -- ./inp_files/55776.got.cif
#   From: 2010.06.25/outbox.cif.g09.slc.cpg/sg11_28_cif.got.tgz:55776.got - 2010.06.27 23:14:04.
