data_PCOD8075682
_publ_section_title
;
Structure prediction by ZEFSAII (Michael W. Deem and Ramdas Pophale) SiO2 
 PCOD8075682
Probable space group: P 21/M
;
_chemical_formula_sum "Si O2"
_cell_formula_units_Z 32
_cell_length_a 20.752062
_cell_length_b 9.312368
_cell_length_c 28.491652
_cell_angle_alpha 90.000000
_cell_angle_beta 159.718483
_cell_angle_gamma 90.000000
_cell_volume 1908.574092
_symmetry_space_group_name_H-M "P 21/M"
_symmetry_group_IT_number 11
_symmetry_cell_setting 'monoclinic'
loop_
_space_group_symop_operation_xyz
x,y,z
-x,1/2+y,-z
-x,-y,-z
x,1/2-y,z
loop_
_atom_site_type_symbol
_atom_site_label
_atom_site_fract_x
_atom_site_fract_y
_atom_site_fract_z
Si Si1 0.971989 0.408569 0.050484
Si Si2 0.920737 0.417767 0.401501
Si Si3 0.390012 0.420007 0.613719
Si Si4 0.970432 0.080443 0.616927
Si Si5 0.349596 0.084261 0.926798
Si Si6 0.509770 0.586627 0.878151
Si Si7 0.381604 0.919885 0.139433
Si Si8 0.258637 0.907821 0.202085
O O1 0.029525 0.250000 0.106356
O O2 0.163403 0.497401 0.177688
O O3 0.824285 0.476579 0.986458
O O4 0.872681 0.400763 0.932658
O O5 0.979357 0.250000 0.442634
O O6 0.700614 0.436405 0.249219
O O7 0.000000 0.500000 0.500000
O O8 0.008684 0.493882 0.416797
O O9 0.346882 0.250000 0.581592
O O10 0.209605 0.516043 0.480103
O O11 0.468226 0.461983 0.718506
O O12 0.539624 0.465545 0.676132
O O13 0.947507 0.250000 0.591170
O O14 0.143204 0.048077 0.768760
O O15 0.399442 0.250000 0.953717
O O16 0.361424 0.043328 0.989802
O O17 0.500000 0.000000 0.000000
O O18 0.543947 0.750000 0.885583
O O19 0.558571 0.485373 0.868647
O O20 0.373183 0.750000 0.128745
O O21 0.281391 0.750000 0.239320
#
# Coordination Sequence:
#
# PCOD8075682 Si02
#       8
#     4   4   4   4   4   4   4   4
#     4   8  14  25  41  64  95 127 158 191 228 274
#     4  11  22  35  51  71  98 128 159 194 238 291
#     4   9  18  32  48  69 102 135 161 194 237 287
#     4  11  22  34  51  73  95 123 162 203 245 290
#     4  10  21  38  55  71  91 119 161 209 249 289
#     4  10  21  35  50  69  93 123 159 200 243 284
#     4   9  18  31  47  70 100 132 161 192 235 287
#     4   8  14  25  42  65  93 128 163 190 225 277
#
# _framework density 16.766442999999999
#
# number of rings (size 3 to 8) (size 9 to 14) (size 15 to 20)
#    0.000    2.500    1.250    3.000    0.000    5.500 
#    0.000    2.500    0.000    0.000    0.000    0.875 
#    0.000    0.000    0.000    0.000    0.000    0.000 
#
# Total GULP energy -396698.159288 kJ/mol
# GULP energy per Si atom -12396.817478 kJ/mol
# Density = 1.672828 g / cm^3
# Si number density = 16.766443 Si / 1000 Ang^3
#
#
#
# Elastic Constant Matrix: (Units=GPa)
#
#
# Indices 1 2 3 4 5 6 
#
# 1 33.7332 27.2917 41.0226 0.0000 18.7457 0.0000
# 2 27.2917 69.6047 51.6564 0.0000 12.6337 0.0000
# 3 41.0226 51.6564 101.3170 0.0000 13.7162 0.0000
# 4 0.0000 0.0000 0.0000 25.9156 0.0000 7.3416
# 5 18.7457 12.6337 13.7162 0.0000 29.9242 0.0000
# 6 0.0000 0.0000 0.0000 7.3416 0.0000 29.9213
#
#
#
# Elastic Compliance Matrix: (Units=1/GPa)
#
#
# Indices 1 2 3 4 5 6 
#
# 1 0.094397 -0.008346 -0.028186 0.000000 -0.042691 0.000000
# 2 -0.008346 0.024472 -0.008963 0.000000 -0.000995 0.000000
# 3 -0.028186 -0.008963 0.024468 0.000000 0.010226 0.000000
# 4 0.000000 0.000000 0.000000 0.041469 0.000000 -0.010175
# 5 -0.042691 -0.000995 0.010226 0.000000 0.055894 0.000000
# 6 0.000000 0.000000 0.000000 -0.010175 0.000000 0.035918
#
#
# Mechanical properties :
#
#
# Convention : Reuss Voigt Hill
#
# Bulk Modulus (GPa) = 19.10341 49.39958 34.25150
# Shear Modulus (GPa) = 12.98510 22.79783 17.89146
#
# Velocity S-wave (km/s) = 2.78595 3.69145 3.27019
# Velocity P-wave (km/s) = 4.66554 6.90626 5.89337
#
# Compressibility (1/GPa) = 0.05234667
#
# Stress axis : x y z
#
# Youngs Moduli (GPa) = 10.59352 40.86369 40.87010
#
# Poissons Ratio (x) = 0.34105 1.15197
# Poissons Ratio (y) = 0.08841 0.36631
# Poissons Ratio (z) = 0.29859 0.36626
#
# Static dielectric constant tensor:
#      x y z
#    x 3.153850 0.000000 0.200800 
#    y 0.000000 3.285430 0.000000 
#    z 0.200800 0.000000 3.213480 
# 
# 
# High freq. dielectric constant tensor:
#      x y z
#    x 1.629550 0.000000 0.024100 
#    y 0.000000 1.648890 0.000000 
#    z 0.024100 0.000000 1.632820 
# 
# From -- ./inp_files/40697.got.cif
#   From: 2010.06.25/outbox.cif.g09.slc.cpg/sg11_21_cif.got.tgz:40697.got - 2010.06.27 23:14:04.
