data_PCOD8075747
_publ_section_title
;
Structure prediction by ZEFSAII (Michael W. Deem and Ramdas Pophale) SiO2 
 PCOD8075747
Probable space group: P 21/M
;
_chemical_formula_sum "Si O2"
_cell_formula_units_Z 32
_cell_length_a 9.278307
_cell_length_b 14.270121
_cell_length_c 14.989400
_cell_angle_alpha 90.000000
_cell_angle_beta 120.157734
_cell_angle_gamma 90.000000
_cell_volume 1716.005978
_symmetry_space_group_name_H-M "P 21/M"
_symmetry_group_IT_number 11
_symmetry_cell_setting 'monoclinic'
loop_
_space_group_symop_operation_xyz
x,y,z
-x,1/2+y,-z
-x,-y,-z
x,1/2-y,z
loop_
_atom_site_type_symbol
_atom_site_label
_atom_site_fract_x
_atom_site_fract_y
_atom_site_fract_z
Si Si1 0.429719 0.649153 0.323813
Si Si2 0.505169 0.556868 0.652656
Si Si3 0.144830 0.361406 0.303882
Si Si4 0.368661 0.525961 0.792287
Si Si5 0.597825 0.144898 0.883152
Si Si6 0.763550 0.148084 0.559889
Si Si7 0.799011 0.357502 0.113630
Si Si8 0.993644 0.492792 0.393383
O O1 0.531508 0.750000 0.356835
O O2 0.535523 0.554613 0.373993
O O3 0.339013 0.638810 0.199447
O O4 0.293070 0.655554 0.356612
O O5 0.691642 0.586404 0.682576
O O6 0.479529 0.578765 0.750278
O O7 0.376952 0.609076 0.549638
O O8 0.178376 0.250000 0.322028
O O9 0.093025 0.402163 0.385049
O O10 0.991083 0.387134 0.190006
O O11 0.450670 0.429755 0.852437
O O12 0.337845 0.590863 0.867853
O O13 0.195828 0.503411 0.692485
O O14 0.530384 0.250000 0.883755
O O15 0.753661 0.121860 0.996462
O O16 0.811748 0.250000 0.537329
O O17 0.926277 0.086659 0.618746
O O18 0.780547 0.250000 0.134254
O O19 0.000000 0.500000 0.500000
#
# Coordination Sequence:
#
# PCOD8075747 Si02
#       8
#     4   4   4   4   4   4   4   4
#     4   9  19  34  55  82 107 143 185 229 278 326
#     4  11  20  37  57  83 114 145 187 235 270 332
#     4  10  22  37  57  82 112 149 188 231 277 333
#     4  10  21  35  59  83 113 145 187 232 277 330
#     4   9  18  35  60  83 108 144 187 231 282 334
#     4  11  22  35  56  81 113 149 183 228 282 328
#     4   9  19  37  58  81 113 147 182 228 283 336
#     4  11  22  39  54  80 116 151 187 229 277 335
#
# _framework density 18.647953999999999
#
# number of rings (size 3 to 8) (size 9 to 14) (size 15 to 20)
#    0.000    2.000    2.500    1.125    0.000    2.000 
#    0.000    2.500    2.750    0.000    0.000    0.000 
#    0.000    0.000    0.000    0.000    0.000    0.000 
#
# Total GULP energy -396468.724079 kJ/mol
# GULP energy per Si atom -12389.647627 kJ/mol
# Density = 1.860551 g / cm^3
# Si number density = 18.647954 Si / 1000 Ang^3
#
#
#
# Elastic Constant Matrix: (Units=GPa)
#
#
# Indices 1 2 3 4 5 6 
#
# 1 58.8061 26.1039 18.3268 0.0000 3.0817 0.0000
# 2 26.1039 108.0644 29.8138 0.0000 -0.3288 0.0000
# 3 18.3268 29.8138 77.2104 0.0000 -6.0864 0.0000
# 4 0.0000 0.0000 0.0000 23.8572 0.0000 -0.0810
# 5 3.0817 -0.3288 -6.0864 0.0000 22.4542 0.0000
# 6 0.0000 0.0000 0.0000 -0.0810 0.0000 23.5837
#
#
#
# Elastic Compliance Matrix: (Units=1/GPa)
#
#
# Indices 1 2 3 4 5 6 
#
# 1 0.020028 -0.003868 -0.003558 0.000000 -0.003770 0.000000
# 2 -0.003868 0.011124 -0.003395 0.000000 -0.000227 0.000000
# 3 -0.003558 -0.003395 0.015472 0.000000 0.004632 0.000000
# 4 0.000000 0.000000 0.000000 0.041917 0.000000 0.000144
# 5 -0.003770 -0.000227 0.004632 0.000000 0.046305 0.000000
# 6 0.000000 0.000000 0.000000 0.000144 0.000000 0.042403
#
#
# Mechanical properties :
#
#
# Convention : Reuss Voigt Hill
#
# Bulk Modulus (GPa) = 40.02691 43.61888 41.82290
# Shear Modulus (GPa) = 24.12921 25.30145 24.71533
#
# Velocity S-wave (km/s) = 3.60103 3.68747 3.64450
# Velocity P-wave (km/s) = 6.22905 6.44759 6.33926
#
# Compressibility (1/GPa) = 0.02498319
#
# Stress axis : x y z
#
# Youngs Moduli (GPa) = 49.92943 89.89504 64.63201
#
# Poissons Ratio (x) = 0.34771 0.22993
# Poissons Ratio (y) = 0.19313 0.21944
# Poissons Ratio (z) = 0.17763 0.30521
#
# Static dielectric constant tensor:
#      x y z
#    x 3.445120 0.000000 -0.221480 
#    y 0.000000 3.824110 0.000000 
#    z -0.221480 0.000000 3.554500 
# 
# 
# High freq. dielectric constant tensor:
#      x y z
#    x 1.709820 0.000000 -0.014440 
#    y 0.000000 1.737930 0.000000 
#    z -0.014440 0.000000 1.724430 
# 
# From -- ./inp_files/18040.got.cif
#   From: 2010.06.25/outbox.cif.g09.slc.cpg/sg11_10_cif.got.tgz:18040.got - 2010.06.27 23:14:04.
