data_PCOD8075847
_publ_section_title
;
Structure prediction by ZEFSAII (Michael W. Deem and Ramdas Pophale) SiO2 
 PCOD8075847
Probable space group: P 21/M
;
_chemical_formula_sum "Si O2"
_cell_formula_units_Z 32
_cell_length_a 17.705881
_cell_length_b 15.121479
_cell_length_c 11.141601
_cell_angle_alpha 90.000000
_cell_angle_beta 32.403237
_cell_angle_gamma 90.000000
_cell_volume 1598.536293
_symmetry_space_group_name_H-M "P 21/M"
_symmetry_group_IT_number 11
_symmetry_cell_setting 'monoclinic'
loop_
_space_group_symop_operation_xyz
x,y,z
-x,1/2+y,-z
-x,-y,-z
x,1/2-y,z
loop_
_atom_site_type_symbol
_atom_site_label
_atom_site_fract_x
_atom_site_fract_y
_atom_site_fract_z
Si Si1 0.754851 0.150037 0.999257
Si Si2 0.130757 0.650503 0.404852
Si Si3 0.832076 0.847909 0.199520
Si Si4 0.666041 0.009830 0.787197
Si Si5 0.369933 0.026623 0.909150
Si Si6 0.131021 0.648742 0.892224
Si Si7 0.692376 0.008641 0.486770
Si Si8 0.852054 0.850372 0.898906
O O1 0.688849 0.250000 0.091135
O O2 0.871651 0.145538 0.736901
O O3 0.639296 0.075324 0.124009
O O4 0.826045 0.125561 0.029688
O O5 0.135480 0.750000 0.446616
O O6 0.271772 0.607497 0.271752
O O7 0.984695 0.607598 0.648846
O O8 0.769145 0.750000 0.308191
O O9 0.710490 0.919658 0.385221
O O10 0.890239 0.854652 0.987021
O O11 0.963959 0.867410 0.109257
O O12 0.730348 0.979810 0.573406
O O13 0.701557 0.956766 0.862689
O O14 0.500000 0.000000 0.000000
O O15 0.535391 0.047994 0.686809
O O16 0.289045 0.092630 0.930127
O O17 0.168829 0.750000 0.808805
O O18 0.206632 0.585628 0.695580
O O19 0.821264 0.750000 0.897949
#
# Coordination Sequence:
#
# PCOD8075847 Si02
#       8
#     4   4   4   4   4   4   4   4
#     4   9  19  35  56  83 111 140 179 223 269 323
#     4   9  18  35  59  81 107 146 183 222 274 321
#     4  10  22  38  56  81 110 140 180 226 269 324
#     4   9  20  37  55  81 110 138 184 228 265 322
#     4  10  22  38  55  80 111 143 182 229 271 315
#     4  10  21  36  56  84 112 139 179 226 270 323
#     4  11  22  37  57  78 108 150 183 215 274 330
#     4  10  21  37  57  83 111 142 184 227 268 319
#
# _framework density 20.018312999999999
#
# number of rings (size 3 to 8) (size 9 to 14) (size 15 to 20)
#    0.000    2.250    0.000    1.875    0.000    8.500 
#    0.000    8.125    0.000    0.000    0.000    0.875 
#    0.000    0.000    0.000    0.000    0.000    0.000 
#
# Total GULP energy -396523.146442 kJ/mol
# GULP energy per Si atom -12391.348326 kJ/mol
# Density = 1.997275 g / cm^3
# Si number density = 20.018313 Si / 1000 Ang^3
#
#
#
# Elastic Constant Matrix: (Units=GPa)
#
#
# Indices 1 2 3 4 5 6 
#
# 1 82.9853 23.9745 28.8312 0.0000 5.9651 0.0000
# 2 23.9745 86.8616 43.2555 0.0000 -1.0900 0.0000
# 3 28.8312 43.2555 85.9439 0.0000 5.9165 0.0000
# 4 0.0000 0.0000 0.0000 24.6746 0.0000 -1.5883
# 5 5.9651 -1.0900 5.9165 0.0000 31.5739 0.0000
# 6 0.0000 0.0000 0.0000 -1.5883 0.0000 26.1514
#
#
#
# Elastic Compliance Matrix: (Units=1/GPa)
#
#
# Indices 1 2 3 4 5 6 
#
# 1 0.014033 -0.002170 -0.003473 0.000000 -0.002075 0.000000
# 2 -0.002170 0.015825 -0.007398 0.000000 0.002343 0.000000
# 3 -0.003473 -0.007398 0.016712 0.000000 -0.002731 0.000000
# 4 0.000000 0.000000 0.000000 0.040687 0.000000 0.002471
# 5 -0.002075 0.002343 -0.002731 0.000000 0.032656 0.000000
# 6 0.000000 0.000000 0.000000 0.002471 0.000000 0.038389
#
#
# Mechanical properties :
#
#
# Convention : Reuss Voigt Hill
#
# Bulk Modulus (GPa) = 48.80752 49.76813 49.28783
# Shear Modulus (GPa) = 26.14895 27.12860 26.63878
#
# Velocity S-wave (km/s) = 3.61813 3.68528 3.65186
# Velocity P-wave (km/s) = 6.47216 6.55924 6.51585
#
# Compressibility (1/GPa) = 0.02048864
#
# Stress axis : x y z
#
# Youngs Moduli (GPa) = 71.26133 63.19127 59.83785
#
# Poissons Ratio (x) = 0.13712 0.20779
# Poissons Ratio (y) = 0.15463 0.44268
# Poissons Ratio (z) = 0.24746 0.46749
#
# Static dielectric constant tensor:
#      x y z
#    x 3.826140 0.000000 0.273410 
#    y 0.000000 3.631160 0.000000 
#    z 0.273410 0.000000 3.507510 
# 
# 
# High freq. dielectric constant tensor:
#      x y z
#    x 1.789860 0.000000 0.016760 
#    y 0.000000 1.773420 0.000000 
#    z 0.016760 0.000000 1.770030 
# 
# From -- ./inp_files/41643.got.cif
#   From: 2010.06.25/outbox.cif.g09.slc.cpg/sg11_21_cif.got.tgz:41643.got - 2010.06.27 23:14:04.
