data_PCOD8075639
_publ_section_title
;
Structure prediction by ZEFSAII (Michael W. Deem and Ramdas Pophale) SiO2 
 PCOD8075639
Probable space group: P 21/M
;
_chemical_formula_sum "Si O2"
_cell_formula_units_Z 24
_cell_length_a 7.992148
_cell_length_b 15.167308
_cell_length_c 17.354479
_cell_angle_alpha 90.000000
_cell_angle_beta 34.839687
_cell_angle_gamma 90.000000
_cell_volume 1201.805834
_symmetry_space_group_name_H-M "P 21/M"
_symmetry_group_IT_number 11
_symmetry_cell_setting 'monoclinic'
loop_
_space_group_symop_operation_xyz
x,y,z
-x,1/2+y,-z
-x,-y,-z
x,1/2-y,z
loop_
_atom_site_type_symbol
_atom_site_label
_atom_site_fract_x
_atom_site_fract_y
_atom_site_fract_z
Si Si1 0.764866 0.145730 0.550439
Si Si2 0.743637 0.412474 0.731086
Si Si3 0.343453 0.390541 0.237211
Si Si4 0.369689 0.750000 0.613891
Si Si5 0.298125 0.750000 0.816467
Si Si6 0.622065 0.750000 0.072598
Si Si7 0.358986 0.408760 0.576141
Si Si8 0.699942 0.750000 0.865643
O O1 0.758122 0.250000 0.565486
O O2 0.828725 0.099944 0.608724
O O3 0.454469 0.114673 0.628631
O O4 0.015443 0.118702 0.395068
O O5 0.582259 0.506597 0.800559
O O6 0.518387 0.336781 0.838662
O O7 0.011039 0.411127 0.691365
O O8 0.570693 0.342498 0.206429
O O9 0.404030 0.341265 0.133295
O O10 0.395954 0.750000 0.693348
O O11 0.524198 0.835794 0.524865
O O12 0.037021 0.750000 0.716737
O O13 0.960365 0.750000 0.965982
O O14 0.586576 0.750000 0.994619
O O15 0.500000 0.500000 0.500000
#
# Coordination Sequence:
#
# PCOD8075639 Si02
#       8
#     4   4   4   2   2   2   4   2
#     4  12  22  41  68 102 137 170 207 268 339 400
#     4  12  26  43  65 100 141 168 208 275 335 396
#     4  11  21  43  69  97 122 170 223 269 323 387
#     4  11  19  37  60  89 127 164 211 263 314 386
#     4  10  24  40  68  87 118 177 229 272 311 373
#     4  11  27  46  60  95 131 176 225 272 327 371
#     4  12  23  38  64 103 133 166 206 260 340 398
#     4  10  20  43  66  85 126 171 229 267 302 378
#
# _framework density 19.969949
#
# number of rings (size 3 to 8) (size 9 to 14) (size 15 to 20)
#    0.000    0.667    6.667    2.000    2.333    1.333 
#    6.000    0.000    0.000    0.000    0.000    0.000 
#    0.000    0.000    0.000    0.000    0.000    0.000 
#
# Total GULP energy -297447.989077 kJ/mol
# GULP energy per Si atom -12393.666212 kJ/mol
# Density = 1.992450 g / cm^3
# Si number density = 19.969949 Si / 1000 Ang^3
#
#
#
# Elastic Constant Matrix: (Units=GPa)
#
#
# Indices 1 2 3 4 5 6 
#
# 1 126.1484 36.4133 29.1447 0.0000 1.9890 0.0000
# 2 36.4133 189.6752 37.7671 0.0000 -0.4371 0.0000
# 3 29.1447 37.7671 66.1367 0.0000 5.1303 0.0000
# 4 0.0000 0.0000 0.0000 40.0798 0.0000 -105.4891
# 5 1.9890 -0.4371 5.1303 0.0000 38.6564 0.0000
# 6 0.0000 0.0000 0.0000 -105.4891 0.0000 510.6679
#
#
#
# Elastic Compliance Matrix: (Units=1/GPa)
#
#
# Indices 1 2 3 4 5 6 
#
# 1 0.009011 -0.001060 -0.003363 0.000000 -0.000029 0.000000
# 2 -0.001060 0.006084 -0.003048 0.000000 0.000528 0.000000
# 3 -0.003363 -0.003048 0.018523 0.000000 -0.002320 0.000000
# 4 0.000000 0.000000 0.000000 0.054678 0.000000 0.011295
# 5 -0.000029 0.000528 -0.002320 0.000000 0.026184 0.000000
# 6 0.000000 0.000000 0.000000 0.011295 0.000000 0.004291
#
#
# Mechanical properties :
#
#
# Convention : Reuss Voigt Hill
#
# Bulk Modulus (GPa) = 53.54818 65.40115 59.47466
# Shear Modulus (GPa) = 35.73009 136.45651 86.09330
#
# Velocity S-wave (km/s) = 4.23447 8.27522 6.57305
# Velocity P-wave (km/s) = 7.12603 11.14121 9.35165
#
# Compressibility (1/GPa) = 0.01867477
#
# Stress axis : x y z
#
# Youngs Moduli (GPa) = 110.97965 164.37080 53.98818
#
# Poissons Ratio (x) = 0.17428 0.18156
# Poissons Ratio (y) = 0.11767 0.16455
# Poissons Ratio (z) = 0.37323 0.50098
#
# Static dielectric constant tensor:
#      x y z
#    x 4.079900 0.000000 0.017170 
#    y 0.000000 3.838990 0.000000 
#    z 0.017170 0.000000 3.431270 
# 
# 
# High freq. dielectric constant tensor:
#      x y z
#    x 1.799280 0.000000 0.002680 
#    y 0.000000 1.800360 0.000000 
#    z 0.002680 0.000000 1.746390 
# 
# From -- ./inp_files/22077.got.cif
#   From: 2010.06.25/outbox.cif.g09.slc.cpg/sg11_12_cif.got.tgz:22077.got - 2010.06.27 23:14:04.
