data_PCOD8075895
_publ_section_title
;
Structure prediction by ZEFSAII (Michael W. Deem and Ramdas Pophale) SiO2 
 PCOD8075895
Probable space group: P 21/M
;
_chemical_formula_sum "Si O2"
_cell_formula_units_Z 32
_cell_length_a 23.971624
_cell_length_b 8.803358
_cell_length_c 14.253952
_cell_angle_alpha 90.000000
_cell_angle_beta 33.087327
_cell_angle_gamma 90.000000
_cell_volume 1642.129706
_symmetry_space_group_name_H-M "P 21/M"
_symmetry_group_IT_number 11
_symmetry_cell_setting 'monoclinic'
loop_
_space_group_symop_operation_xyz
x,y,z
-x,1/2+y,-z
-x,-y,-z
x,1/2-y,z
loop_
_atom_site_type_symbol
_atom_site_label
_atom_site_fract_x
_atom_site_fract_y
_atom_site_fract_z
Si Si1 0.673999 0.930293 0.649032
Si Si2 0.777006 0.929052 0.021609
Si Si3 0.703225 0.930015 0.818885
Si Si4 0.891045 0.928538 0.672077
Si Si5 0.879509 0.928321 0.257463
Si Si6 0.084571 0.428774 0.002765
Si Si7 0.507656 0.570090 0.209022
Si Si8 0.444752 0.929908 0.667067
O O1 0.654676 0.750000 0.670122
O O2 0.684892 0.989968 0.739915
O O3 0.775545 0.980633 0.451857
O O4 0.581806 0.021066 0.733866
O O5 0.752038 0.750000 0.056890
O O6 0.833813 0.983807 0.035708
O O7 0.672101 0.019022 0.162504
O O8 0.849799 0.973284 0.832699
O O9 0.705032 0.750000 0.815214
O O10 0.810805 0.991182 0.707718
O O11 0.613186 0.986091 0.013788
O O12 0.903242 0.750000 0.645833
O O13 0.000000 0.000000 0.500000
O O14 0.894038 0.750000 0.242912
O O15 0.876831 0.984618 0.153415
O O16 0.973762 0.001505 0.180768
O O17 0.072677 0.250000 0.024298
O O18 0.505891 0.750000 0.226948
O O19 0.494600 0.487271 0.326822
O O20 0.452164 0.750000 0.650805
O O21 0.500000 0.000000 0.500000
#
# Coordination Sequence:
#
# PCOD8075895 Si02
#       8
#     4   4   4   4   4   4   4   4
#     4  10  21  36  58  88 117 153 200 249 302 355
#     4  10  21  40  63  87 121 159 200 253 310 362
#     4   9  19  38  60  82 119 159 195 246 306 358
#     4  10  21  38  59  86 120 160 202 252 308 364
#     4   9  19  35  54  81 114 150 192 240 291 350
#     4   9  19  35  56  80 112 152 191 236 292 349
#     4  11  22  41  63  86 118 157 198 246 304 361
#     4  12  26  43  65  93 123 158 202 250 302 368
#
# _framework density 19.486891
#
# number of rings (size 3 to 8) (size 9 to 14) (size 15 to 20)
#    0.000    2.000    1.250    1.875    3.500    1.500 
#    0.000    1.250    0.000    0.000    0.000    0.000 
#    0.000    0.000    0.000    0.000    0.000    0.000 
#
# Total GULP energy -396879.811696 kJ/mol
# GULP energy per Si atom -12402.494116 kJ/mol
# Density = 1.944254 g / cm^3
# Si number density = 19.486891 Si / 1000 Ang^3
#
#
#
# Elastic Constant Matrix: (Units=GPa)
#
#
# Indices 1 2 3 4 5 6 
#
# 1 153.6828 41.8000 58.6011 0.0000 4.4539 0.0000
# 2 41.8000 60.0202 45.8164 0.0000 1.2277 0.0000
# 3 58.6011 45.8164 130.5417 0.0000 5.9929 0.0000
# 4 0.0000 0.0000 0.0000 27.4226 0.0000 -9.1779
# 5 4.4539 1.2277 5.9929 0.0000 30.4693 0.0000
# 6 0.0000 0.0000 0.0000 -9.1779 0.0000 28.9183
#
#
#
# Elastic Compliance Matrix: (Units=1/GPa)
#
#
# Indices 1 2 3 4 5 6 
#
# 1 0.008550 -0.004144 -0.002355 0.000000 -0.000620 0.000000
# 2 -0.004144 0.024780 -0.006881 0.000000 0.000961 0.000000
# 3 -0.002355 -0.006881 0.011205 0.000000 -0.001582 0.000000
# 4 0.000000 0.000000 0.000000 0.040800 0.000000 0.012949
# 5 -0.000620 0.000961 -0.001582 0.000000 0.033183 0.000000
# 6 0.000000 0.000000 0.000000 0.012949 0.000000 0.038690
#
#
# Mechanical properties :
#
#
# Convention : Reuss Voigt Hill
#
# Bulk Modulus (GPa) = 56.25882 70.74219 63.50050
# Shear Modulus (GPa) = 26.33056 30.56385 28.44721
#
# Velocity S-wave (km/s) = 3.67985 3.96464 3.82489
# Velocity P-wave (km/s) = 6.85476 7.57226 7.22243
#
# Compressibility (1/GPa) = 0.01777499
#
# Stress axis : x y z
#
# Youngs Moduli (GPa) = 116.95773 40.35534 89.24307
#
# Poissons Ratio (x) = 0.16723 0.21020
# Poissons Ratio (y) = 0.48467 0.61407
# Poissons Ratio (z) = 0.27548 0.27768
#
# Static dielectric constant tensor:
#      x y z
#    x 3.911760 0.000000 0.093820 
#    y 0.000000 3.239940 0.000000 
#    z 0.093820 0.000000 3.820810 
# 
# 
# High freq. dielectric constant tensor:
#      x y z
#    x 1.776610 0.000000 0.000440 
#    y 0.000000 1.738300 0.000000 
#    z 0.000440 0.000000 1.767570 
# 
# From -- ./inp_files/55583.got.cif
#   From: 2010.06.25/outbox.cif.g09.slc.cpg/sg11_28_cif.got.tgz:55583.got - 2010.06.27 23:14:04.
