data_PCOD8075064
_publ_section_title
;
Structure prediction by ZEFSAII (Michael W. Deem and Ramdas Pophale) SiO2 
 PCOD8075064
Probable space group: P 21/M
;
_chemical_formula_sum "Si O2"
_cell_formula_units_Z 24
_cell_length_a 9.100469
_cell_length_b 8.664729
_cell_length_c 20.690057
_cell_angle_alpha 90.000000
_cell_angle_beta 48.600803
_cell_angle_gamma 90.000000
_cell_volume 1223.802642
_symmetry_space_group_name_H-M "P 21/M"
_symmetry_group_IT_number 11
_symmetry_cell_setting 'monoclinic'
loop_
_space_group_symop_operation_xyz
x,y,z
-x,1/2+y,-z
-x,-y,-z
x,1/2-y,z
loop_
_atom_site_type_symbol
_atom_site_label
_atom_site_fract_x
_atom_site_fract_y
_atom_site_fract_z
Si Si1 0.532299 0.566604 0.420278
Si Si2 0.963905 0.432547 0.911166
Si Si3 0.703764 0.568814 0.088327
Si Si4 0.791898 0.932156 0.579266
Si Si5 0.957432 0.933076 0.253636
Si Si6 0.280628 0.567374 0.261168
O O1 0.500000 0.500000 0.500000
O O2 0.523381 0.750000 0.425220
O O3 0.368233 0.505085 0.420525
O O4 0.741886 0.506677 0.333979
O O5 0.957278 0.250000 0.910506
O O6 0.153047 0.490492 0.896369
O O7 0.979856 0.501312 0.834253
O O8 0.765413 0.492414 0.002466
O O9 0.722150 0.750000 0.074440
O O10 0.484124 0.519500 0.168895
O O11 0.795362 0.750000 0.568480
O O12 0.739720 0.973875 0.667352
O O13 0.000000 0.000000 0.500000
O O14 0.958795 0.750000 0.249941
O O15 0.108828 0.989481 0.263867
O O16 0.271361 0.750000 0.278308
#
# Coordination Sequence:
#
# PCOD8075064 Si02
#       6
#     4   4   4   4   4   4
#     4  11  22  39  62  88 118 151 190 235 286 342
#     4   9  17  32  52  75 106 146 190 231 275 332
#     4   9  18  32  52  78 109 146 186 231 283 335
#     4  12  25  41  61  86 115 149 190 235 287 342
#     4   9  19  35  57  82 110 147 187 230 282 338
#     4  10  20  37  59  83 113 148 188 233 284 341
#
# _framework density 19.611004999999999
#
# number of rings (size 3 to 8) (size 9 to 14) (size 15 to 20)
#    0.000    2.000    0.000    4.000    0.000    5.333 
#    0.000    6.667    0.000    0.000    0.000    0.000 
#    0.000    0.000    0.000    0.000    0.000    0.000 
#
# Total GULP energy -297658.502394 kJ/mol
# GULP energy per Si atom -12402.437600 kJ/mol
# Density = 1.956637 g / cm^3
# Si number density = 19.611005 Si / 1000 Ang^3
#
#
#
# Elastic Constant Matrix: (Units=GPa)
#
#
# Indices 1 2 3 4 5 6 
#
# 1 159.0966 32.8642 96.0374 0.0000 -0.7403 0.0000
# 2 32.8642 53.9435 42.0878 0.0000 -1.2513 0.0000
# 3 96.0374 42.0878 178.5427 0.0000 4.2227 0.0000
# 4 0.0000 0.0000 0.0000 34.7225 0.0000 2.7979
# 5 -0.7403 -1.2513 4.2227 0.0000 44.4627 0.0000
# 6 0.0000 0.0000 0.0000 2.7979 0.0000 25.9341
#
#
#
# Elastic Compliance Matrix: (Units=1/GPa)
#
#
# Indices 1 2 3 4 5 6 
#
# 1 0.009531 -0.002186 -0.004624 0.000000 0.000536 0.000000
# 2 -0.002186 0.023276 -0.004335 0.000000 0.001030 0.000000
# 3 -0.004624 -0.004335 0.009135 0.000000 -0.001067 0.000000
# 4 0.000000 0.000000 0.000000 0.029052 0.000000 -0.003134
# 5 0.000536 0.001030 -0.001067 0.000000 0.022630 0.000000
# 6 0.000000 0.000000 0.000000 -0.003134 0.000000 0.038897
#
#
# Mechanical properties :
#
#
# Convention : Reuss Voigt Hill
#
# Bulk Modulus (GPa) = 50.88719 81.50685 66.19702
# Shear Modulus (GPa) = 30.98596 35.73009 33.35802
#
# Velocity S-wave (km/s) = 3.97927 4.27305 4.12877
# Velocity P-wave (km/s) = 6.86421 8.12387 7.52046
#
# Compressibility (1/GPa) = 0.01965131
#
# Stress axis : x y z
#
# Youngs Moduli (GPa) = 104.92324 42.96221 109.46649
#
# Poissons Ratio (x) = 0.09393 0.50616
# Poissons Ratio (y) = 0.22941 0.47456
# Poissons Ratio (z) = 0.48515 0.18625
#
# Static dielectric constant tensor:
#      x y z
#    x 8.868810 0.000000 0.040890 
#    y 0.000000 3.465820 0.000000 
#    z 0.040890 0.000000 3.882090 
# 
# 
# High freq. dielectric constant tensor:
#      x y z
#    x 1.772820 0.000000 0.000540 
#    y 0.000000 1.742430 0.000000 
#    z 0.000540 0.000000 1.784010 
# 
# From -- ./inp_files/20638.got.cif
#   From: 2010.06.25/outbox.cif.g09.slc.cpg/sg11_11_cif.got.tgz:20638.got - 2010.06.27 23:14:04.
