data_PCOD8075205
_publ_section_title
;
Structure prediction by ZEFSAII (Michael W. Deem and Ramdas Pophale) SiO2 
 PCOD8075205
Probable space group: P 21/M
;
_chemical_formula_sum "Si O2"
_cell_formula_units_Z 28
_cell_length_a 21.104913
_cell_length_b 8.777126
_cell_length_c 15.746292
_cell_angle_alpha 90.000000
_cell_angle_beta 151.266816
_cell_angle_gamma 90.000000
_cell_volume 1402.221818
_symmetry_space_group_name_H-M "P 21/M"
_symmetry_group_IT_number 11
_symmetry_cell_setting 'monoclinic'
loop_
_space_group_symop_operation_xyz
x,y,z
-x,1/2+y,-z
-x,-y,-z
x,1/2-y,z
loop_
_atom_site_type_symbol
_atom_site_label
_atom_site_fract_x
_atom_site_fract_y
_atom_site_fract_z
Si Si1 0.608866 0.068757 0.065775
Si Si2 0.933111 0.079683 0.211370
Si Si3 0.887430 0.923063 0.422815
Si Si4 0.044476 0.424531 0.932838
Si Si5 0.209779 0.573999 0.261625
Si Si6 0.521470 0.929120 0.432599
Si Si7 0.355498 0.572117 0.079807
O O1 0.602507 0.250000 0.063925
O O2 0.752896 0.016556 0.264275
O O3 0.584657 0.011759 0.939640
O O4 0.500000 0.000000 0.000000
O O5 0.916151 0.250000 0.152771
O O6 0.060396 0.075684 0.419975
O O7 0.957311 0.954638 0.168491
O O8 0.800001 0.034072 0.105217
O O9 0.863239 0.750000 0.363040
O O10 0.000000 0.000000 0.500000
O O11 0.079698 0.250000 0.993924
O O12 0.900819 0.465981 0.799482
O O13 0.155823 0.530910 0.105130
O O14 0.251435 0.750000 0.310712
O O15 0.333747 0.470309 0.430580
O O16 0.503135 0.750000 0.420835
O O17 0.422761 0.997632 0.244163
O O18 0.500000 0.000000 0.500000
O O19 0.382605 0.750000 0.115000
#
# Coordination Sequence:
#
# PCOD8075205 Si02
#       7
#     4   4   4   4   4   4   4
#     4  11  23  43  65  91 127 166 210 260 316 379
#     4  10  20  37  61  87 117 155 198 244 304 365
#     4  11  22  39  64  92 121 160 203 252 307 364
#     4  10  21  36  57  86 114 149 198 250 297 349
#     4  10  21  38  56  78 117 157 192 241 301 358
#     4  11  22  37  60  87 116 155 201 245 296 359
#     4   9  20  39  60  83 117 159 199 245 302 365
#
# _framework density 19.968309999999999
#
# number of rings (size 3 to 8) (size 9 to 14) (size 15 to 20)
#    0.000    1.714    1.429    3.000    0.000    5.143 
#    0.000    7.857    0.000    0.000    0.000    0.000 
#    0.000    0.000    0.000    0.000    0.000    0.000 
#
# Total GULP energy -347186.215944 kJ/mol
# GULP energy per Si atom -12399.507712 kJ/mol
# Density = 1.992286 g / cm^3
# Si number density = 19.968310 Si / 1000 Ang^3
#
#
#
# Elastic Constant Matrix: (Units=GPa)
#
#
# Indices 1 2 3 4 5 6 
#
# 1 125.3502 38.3102 62.3606 0.0000 -8.1580 0.0000
# 2 38.3102 67.3520 32.7879 0.0000 0.9859 0.0000
# 3 62.3606 32.7879 122.7130 0.0000 1.0536 0.0000
# 4 0.0000 0.0000 0.0000 32.4257 0.0000 2.8912
# 5 -8.1580 0.9859 1.0536 0.0000 33.1957 0.0000
# 6 0.0000 0.0000 0.0000 2.8912 0.0000 36.1707
#
#
#
# Elastic Compliance Matrix: (Units=1/GPa)
#
#
# Indices 1 2 3 4 5 6 
#
# 1 0.012013 -0.004477 -0.004936 0.000000 0.003242 0.000000
# 2 -0.004477 0.018741 -0.002719 0.000000 -0.001571 0.000000
# 3 -0.004936 -0.002719 0.011397 0.000000 -0.001494 0.000000
# 4 0.000000 0.000000 0.000000 0.031061 0.000000 -0.002483
# 5 0.003242 -0.001571 -0.001494 0.000000 0.031015 0.000000
# 6 0.000000 0.000000 0.000000 -0.002483 0.000000 0.027845
#
#
# Mechanical properties :
#
#
# Convention : Reuss Voigt Hill
#
# Bulk Modulus (GPa) = 55.90993 64.70362 60.30678
# Shear Modulus (GPa) = 30.80761 32.48884 31.64823
#
# Velocity S-wave (km/s) = 3.93214 4.03801 3.98543
# Velocity P-wave (km/s) = 6.97680 7.36303 7.17252
#
# Compressibility (1/GPa) = 0.01788591
#
# Stress axis : x y z
#
# Youngs Moduli (GPa) = 83.24494 53.36034 87.74418
#
# Poissons Ratio (x) = 0.23891 0.43312
# Poissons Ratio (y) = 0.37272 0.23853
# Poissons Ratio (z) = 0.41091 0.14506
#
# Static dielectric constant tensor:
#      x y z
#    x 3.654040 0.000000 -0.071640 
#    y 0.000000 3.571480 0.000000 
#    z -0.071640 0.000000 3.763640 
# 
# 
# High freq. dielectric constant tensor:
#      x y z
#    x 1.782630 0.000000 -0.000870 
#    y 0.000000 1.772650 0.000000 
#    z -0.000870 0.000000 1.783380 
# 
# From -- ./inp_files/54640.got.cif
#   From: 2010.06.25/outbox.cif.g09.slc.cpg/sg11_28_cif.got.tgz:54640.got - 2010.06.27 23:14:04.
