data_PCOD8075675
_publ_section_title
;
Structure prediction by ZEFSAII (Michael W. Deem and Ramdas Pophale) SiO2 
 PCOD8075675
Probable space group: P 21/M
;
_chemical_formula_sum "Si O2"
_cell_formula_units_Z 32
_cell_length_a 11.505898
_cell_length_b 9.289757
_cell_length_c 21.152898
_cell_angle_alpha 90.000000
_cell_angle_beta 50.756176
_cell_angle_gamma 90.000000
_cell_volume 1751.032519
_symmetry_space_group_name_H-M "P 21/M"
_symmetry_group_IT_number 11
_symmetry_cell_setting 'monoclinic'
loop_
_space_group_symop_operation_xyz
x,y,z
-x,1/2+y,-z
-x,-y,-z
x,1/2-y,z
loop_
_atom_site_type_symbol
_atom_site_label
_atom_site_fract_x
_atom_site_fract_y
_atom_site_fract_z
Si Si1 0.380233 0.419904 0.584201
Si Si2 0.152787 0.414937 0.452312
Si Si3 0.221337 0.917375 0.316121
Si Si4 0.685719 0.916371 0.253950
Si Si5 0.795414 0.412229 0.028286
Si Si6 0.542502 0.586091 0.170828
Si Si7 0.051121 0.912694 0.888504
Si Si8 0.101195 0.086659 0.608492
O O1 0.500000 0.500000 0.500000
O O2 0.394271 0.250000 0.565500
O O3 0.402626 0.454710 0.650824
O O4 0.212066 0.477587 0.623531
O O5 0.134278 0.250000 0.437423
O O6 0.264226 0.495546 0.365547
O O7 0.198647 0.425785 0.510014
O O8 0.000000 0.500000 0.500000
O O9 0.198560 0.750000 0.342451
O O10 0.364158 0.936471 0.220760
O O11 0.067112 0.983011 0.338344
O O12 0.735262 0.750000 0.237162
O O13 0.578895 0.951218 0.231434
O O14 0.837219 0.010071 0.198643
O O15 0.775021 0.250000 0.010175
O O16 0.631726 0.484320 0.091898
O O17 0.876952 0.414197 0.067197
O O18 0.893587 0.501645 0.944115
O O19 0.590416 0.750000 0.140050
O O20 0.021220 0.750000 0.875982
O O21 0.067248 0.250000 0.637869
#
# Coordination Sequence:
#
# PCOD8075675 Si02
#       8
#     4   4   4   4   4   4   4   4
#     4  10  21  35  49  65  89 121 158 196 233 270
#     4   9  16  27  43  62  83 109 144 186 229 272
#     4   9  17  29  46  65  89 118 149 186 229 275
#     4   9  18  31  45  64  90 121 154 189 227 269
#     4   9  16  26  42  67  96 124 149 178 220 271
#     4   9  17  28  43  66  95 122 149 183 225 273
#     4   9  16  27  45  66  91 122 153 184 219 268
#     4   8  16  31  46  62  84 115 152 189 230 274
#
# _framework density 18.274933000000001
#
# number of rings (size 3 to 8) (size 9 to 14) (size 15 to 20)
#    0.000    3.000    0.000    1.875    1.750    4.000 
#    0.000    2.500    0.000    0.000    0.000    0.875 
#    0.000    0.000    0.000    0.000    0.000    0.000 
#
# Total GULP energy -396476.636120 kJ/mol
# GULP energy per Si atom -12389.894879 kJ/mol
# Density = 1.823334 g / cm^3
# Si number density = 18.274933 Si / 1000 Ang^3
#
#
#
# Elastic Constant Matrix: (Units=GPa)
#
#
# Indices 1 2 3 4 5 6 
#
# 1 54.3380 14.7751 22.6313 0.0000 -16.6386 0.0000
# 2 14.7751 83.8039 43.7500 0.0000 -13.8988 0.0000
# 3 22.6313 43.7500 89.6250 0.0000 -24.9983 0.0000
# 4 0.0000 0.0000 0.0000 33.3037 0.0000 -6.6582
# 5 -16.6386 -13.8988 -24.9983 0.0000 25.4022 0.0000
# 6 0.0000 0.0000 0.0000 -6.6582 0.0000 13.3439
#
#
#
# Elastic Compliance Matrix: (Units=1/GPa)
#
#
# Indices 1 2 3 4 5 6 
#
# 1 0.023412 -0.001044 -0.001770 0.000000 0.013022 0.000000
# 2 -0.001044 0.016100 -0.007345 0.000000 0.000897 0.000000
# 3 -0.001770 -0.007345 0.018946 0.000000 0.013467 0.000000
# 4 0.000000 0.000000 0.000000 0.033354 0.000000 0.016643
# 5 0.013022 0.000897 0.013467 0.000000 0.061639 0.000000
# 6 0.000000 0.000000 0.000000 0.016643 0.000000 0.083245
#
#
# Mechanical properties :
#
#
# Convention : Reuss Voigt Hill
#
# Bulk Modulus (GPa) = 26.21970 43.34221 34.78096
# Shear Modulus (GPa) = 18.53718 24.18398 21.36058
#
# Velocity S-wave (km/s) = 3.18834 3.64172 3.42255
# Velocity P-wave (km/s) = 5.28512 6.43825 5.88998
#
# Compressibility (1/GPa) = 0.03813926
#
# Stress axis : x y z
#
# Youngs Moduli (GPa) = 42.71360 62.11136 52.78062
#
# Poissons Ratio (x) = 0.06484 0.09343
# Poissons Ratio (y) = 0.04459 0.38770
# Poissons Ratio (z) = 0.07561 0.45624
#
# Static dielectric constant tensor:
#      x y z
#    x 3.149480 0.000000 0.045350 
#    y 0.000000 3.527890 0.000000 
#    z 0.045350 0.000000 3.031130 
# 
# 
# High freq. dielectric constant tensor:
#      x y z
#    x 1.668580 0.000000 -0.024340 
#    y 0.000000 1.699580 0.000000 
#    z -0.024340 0.000000 1.696470 
# 
# From -- ./inp_files/64402.got.cif
#   From: 2010.06.25/outbox.cif.g09.slc.cpg/sg11_33_cif.got.tgz:64402.got - 2010.06.27 23:14:04.
