data_PCOD8075459
_publ_section_title
;
Structure prediction by ZEFSAII (Michael W. Deem and Ramdas Pophale) SiO2 
 PCOD8075459
Probable space group: P 21/M
;
_chemical_formula_sum "Si O2"
_cell_formula_units_Z 20
_cell_length_a 8.932157
_cell_length_b 14.398874
_cell_length_c 10.362724
_cell_angle_alpha 90.000000
_cell_angle_beta 135.738338
_cell_angle_gamma 90.000000
_cell_volume 930.196200
_symmetry_space_group_name_H-M "P 21/M"
_symmetry_group_IT_number 11
_symmetry_cell_setting 'monoclinic'
loop_
_space_group_symop_operation_xyz
x,y,z
-x,1/2+y,-z
-x,-y,-z
x,1/2-y,z
loop_
_atom_site_type_symbol
_atom_site_label
_atom_site_fract_x
_atom_site_fract_y
_atom_site_fract_z
Si Si1 0.942247 0.072059 0.352737
Si Si2 0.469981 0.551296 0.773063
Si Si3 0.053749 0.455282 0.896830
Si Si4 0.620580 0.851715 0.355987
Si Si5 0.650575 0.354223 0.560092
O O1 0.696097 0.101938 0.231011
O O2 0.119564 0.152732 0.473310
O O3 0.959017 0.033028 0.219906
O O4 0.000000 0.000000 0.500000
O O5 0.459610 0.437958 0.781989
O O6 0.405858 0.573941 0.587060
O O7 0.706847 0.587871 0.952314
O O8 0.886148 0.373880 0.763500
O O9 0.000000 0.500000 0.000000
O O10 0.546901 0.750000 0.255987
O O11 0.527081 0.866648 0.440573
O O12 0.651047 0.250000 0.504564
#
# Coordination Sequence:
#
# PCOD8075459 Si02
#       5
#     4   4   4   4   4
#     4  10  21  40  63  94 128 172 212 262 327 389
#     4  11  22  41  67  92 131 172 218 264 333 377
#     4  12  22  39  69  95 130 170 219 269 326 384
#     4  10  20  38  63  92 128 172 213 258 320 387
#     4  11  23  41  65  96 131 171 220 269 323 392
#
# _framework density 21.50084
#
# number of rings (size 3 to 8) (size 9 to 14) (size 15 to 20)
#    0.000    1.200    6.000    2.400    0.000    1.600 
#    0.000    2.000    0.000    2.400    0.000    0.000 
#    0.000    0.000    0.000    0.000    0.000    0.000 
#
# Total GULP energy -247892.584693 kJ/mol
# GULP energy per Si atom -12394.629235 kJ/mol
# Density = 2.145190 g / cm^3
# Si number density = 21.500840 Si / 1000 Ang^3
#
#
#
# Elastic Constant Matrix: (Units=GPa)
#
#
# Indices 1 2 3 4 5 6 
#
# 1 123.7682 18.0401 23.6151 0.0000 29.5255 0.0000
# 2 18.0401 73.7689 15.9126 0.0000 14.7255 0.0000
# 3 23.6151 15.9126 86.9315 0.0000 16.5405 0.0000
# 4 0.0000 0.0000 0.0000 16.6412 0.0000 5.3447
# 5 29.5255 14.7255 16.5405 0.0000 44.5617 0.0000
# 6 0.0000 0.0000 0.0000 5.3447 0.0000 18.5952
#
#
#
# Elastic Compliance Matrix: (Units=1/GPa)
#
#
# Indices 1 2 3 4 5 6 
#
# 1 0.009846 -0.000969 -0.001417 0.000000 -0.005677 0.000000
# 2 -0.000969 0.014899 -0.001775 0.000000 -0.003623 0.000000
# 3 -0.001417 -0.001775 0.012829 0.000000 -0.003237 0.000000
# 4 0.000000 0.000000 0.000000 0.066203 0.000000 -0.019028
# 5 -0.005677 -0.003623 -0.003237 0.000000 0.028601 0.000000
# 6 0.000000 0.000000 0.000000 -0.019028 0.000000 0.059246
#
#
# Mechanical properties :
#
#
# Convention : Reuss Voigt Hill
#
# Bulk Modulus (GPa) = 34.18544 44.40046 39.29295
# Shear Modulus (GPa) = 23.84413 31.08635 27.46524
#
# Velocity S-wave (km/s) = 3.33376 3.80652 3.57795
# Velocity P-wave (km/s) = 5.54551 6.32573 5.94843
#
# Compressibility (1/GPa) = 0.02925222
#
# Stress axis : x y z
#
# Youngs Moduli (GPa) = 101.56878 67.11982 77.94887
#
# Poissons Ratio (x) = 0.06502 0.11045
# Poissons Ratio (y) = 0.09840 0.13834
# Poissons Ratio (z) = 0.14392 0.11912
#
# Static dielectric constant tensor:
#      x y z
#    x 4.728240 0.000000 0.351340 
#    y 0.000000 3.655020 0.000000 
#    z 0.351340 0.000000 3.839730 
# 
# 
# High freq. dielectric constant tensor:
#      x y z
#    x 1.875890 0.000000 0.010800 
#    y 0.000000 1.810660 0.000000 
#    z 0.010800 0.000000 1.829840 
# 
# From -- ./inp_files/13630.got.cif
#   From: 2010.06.25/outbox.cif.g09.slc.cpg/sg11_7_cif.got.tgz:13630.got - 2010.06.27 23:14:04.
