data_PCOD8075469
_publ_section_title
;
Structure prediction by ZEFSAII (Michael W. Deem and Ramdas Pophale) SiO2 
 PCOD8075469
Probable space group: P 21/M
;
_chemical_formula_sum "Si O2"
_cell_formula_units_Z 32
_cell_length_a 12.103825
_cell_length_b 8.458249
_cell_length_c 15.499778
_cell_angle_alpha 90.000000
_cell_angle_beta 90.389568
_cell_angle_gamma 90.000000
_cell_volume 1586.786662
_symmetry_space_group_name_H-M "P 21/M"
_symmetry_group_IT_number 11
_symmetry_cell_setting 'monoclinic'
loop_
_space_group_symop_operation_xyz
x,y,z
-x,1/2+y,-z
-x,-y,-z
x,1/2-y,z
loop_
_atom_site_type_symbol
_atom_site_label
_atom_site_fract_x
_atom_site_fract_y
_atom_site_fract_z
Si Si1 0.735851 0.065746 0.652815
Si Si2 0.624656 0.436285 0.993960
Si Si3 0.876980 0.935835 0.499069
Si Si4 0.231785 0.067784 0.850012
Si Si5 0.768775 0.933023 0.837872
Si Si6 0.271746 0.061579 0.659197
Si Si7 0.501620 0.436681 0.594394
Si Si8 0.014154 0.931864 0.092856
O O1 0.746460 0.250000 0.632066
O O2 0.612124 0.000325 0.639734
O O3 0.818589 0.977845 0.588745
O O4 0.759753 0.035553 0.752134
O O5 0.620014 0.250000 0.980837
O O6 0.695200 0.473638 0.080185
O O7 0.500000 0.500000 0.000000
O O8 0.684263 0.511113 0.911250
O O9 0.882021 0.750000 0.490626
O O10 0.810722 0.005510 0.415458
O O11 0.000000 0.000000 0.500000
O O12 0.269408 0.250000 0.857190
O O13 0.246890 0.996617 0.754444
O O14 0.101769 0.050065 0.860986
O O15 0.745718 0.750000 0.818717
O O16 0.895227 0.956494 0.864301
O O17 0.264889 0.250000 0.658345
O O18 0.394525 0.996979 0.642241
O O19 0.500000 0.500000 0.500000
O O20 0.498029 0.250000 0.593705
O O21 0.054763 0.750000 0.091857
O O22 0.000000 0.000000 0.000000
#
# Coordination Sequence:
#
# PCOD8075469 Si02
#       8
#     4   4   4   4   4   4   4   4
#     4  11  24  41  64  95 128 168 214 264 321 385
#     4  12  26  45  67  94 130 170 213 265 322 386
#     4  11  23  41  64  91 128 171 213 264 318 380
#     4  10  22  41  66  94 126 168 214 262 317 378
#     4  12  26  44  66  95 129 169 217 268 322 384
#     4   9  20  39  63  91 123 164 208 256 314 371
#     4  10  20  38  64  91 122 161 207 261 315 373
#     4  11  22  39  66  95 128 166 211 266 322 379
#
# _framework density 20.166543000000001
#
# number of rings (size 3 to 8) (size 9 to 14) (size 15 to 20)
#    0.000    1.250    2.500    3.375    3.500    1.000 
#    0.000    1.875    0.000    0.000    0.000    0.000 
#    0.000    0.000    0.000    0.000    0.000    0.000 
#
# Total GULP energy -396762.600135 kJ/mol
# GULP energy per Si atom -12398.831254 kJ/mol
# Density = 2.012064 g / cm^3
# Si number density = 20.166543 Si / 1000 Ang^3
#
#
#
# Elastic Constant Matrix: (Units=GPa)
#
#
# Indices 1 2 3 4 5 6 
#
# 1 144.9198 28.5488 56.2612 0.0000 -4.4123 0.0000
# 2 28.5488 53.5080 4.8133 0.0000 -5.8843 0.0000
# 3 56.2612 4.8133 146.6357 0.0000 -9.0378 0.0000
# 4 0.0000 0.0000 0.0000 27.9508 0.0000 2.9463
# 5 -4.4123 -5.8843 -9.0378 0.0000 38.3046 0.0000
# 6 0.0000 0.0000 0.0000 2.9463 0.0000 30.5647
#
#
#
# Elastic Compliance Matrix: (Units=1/GPa)
#
#
# Indices 1 2 3 4 5 6 
#
# 1 0.009101 -0.004603 -0.003369 0.000000 -0.000454 0.000000
# 2 -0.004603 0.021367 0.001252 0.000000 0.003048 0.000000
# 3 -0.003369 0.001252 0.008178 0.000000 0.001734 0.000000
# 4 0.000000 0.000000 0.000000 0.036144 0.000000 -0.003484
# 5 -0.000454 0.003048 0.001734 0.000000 0.026932 0.000000
# 6 0.000000 0.000000 0.000000 -0.003484 0.000000 0.033053
#
#
# Mechanical properties :
#
#
# Convention : Reuss Voigt Hill
#
# Bulk Modulus (GPa) = 39.66996 58.25666 48.96331
# Shear Modulus (GPa) = 31.92520 36.39337 34.15929
#
# Velocity S-wave (km/s) = 3.98311 4.25272 4.12012
# Velocity P-wave (km/s) = 6.39276 7.28455 6.85317
#
# Compressibility (1/GPa) = 0.02520799
#
# Stress axis : x y z
#
# Youngs Moduli (GPa) = 109.87666 46.80109 122.28056
#
# Poissons Ratio (x) = 0.21541 0.41194
# Poissons Ratio (y) = 0.50573 -0.15315
# Poissons Ratio (z) = 0.37015 -0.05862
#
# Static dielectric constant tensor:
#      x y z
#    x 4.044680 0.000000 0.207870 
#    y 0.000000 3.618890 0.000000 
#    z 0.207870 0.000000 4.248690 
# 
# 
# High freq. dielectric constant tensor:
#      x y z
#    x 1.806600 0.000000 -0.000680 
#    y 0.000000 1.778570 0.000000 
#    z -0.000680 0.000000 1.801040 
# 
# From -- ./inp_files/49370.got.cif
#   From: 2010.06.25/outbox.cif.g09.slc.cpg/sg11_25_cif.got.tgz:49370.got - 2010.06.27 23:14:04.
