data_PCOD8075886
_publ_section_title
;
Structure prediction by ZEFSAII (Michael W. Deem and Ramdas Pophale) SiO2 
 PCOD8075886
Probable space group: P 21/M
;
_chemical_formula_sum "Si O2"
_cell_formula_units_Z 28
_cell_length_a 20.360783
_cell_length_b 12.119133
_cell_length_c 6.783302
_cell_angle_alpha 90.000000
_cell_angle_beta 56.470987
_cell_angle_gamma 90.000000
_cell_volume 1395.301725
_symmetry_space_group_name_H-M "P 21/M"
_symmetry_group_IT_number 11
_symmetry_cell_setting 'monoclinic'
loop_
_space_group_symop_operation_xyz
x,y,z
-x,1/2+y,-z
-x,-y,-z
x,1/2-y,z
loop_
_atom_site_type_symbol
_atom_site_label
_atom_site_fract_x
_atom_site_fract_y
_atom_site_fract_z
Si Si1 0.510363 0.620517 0.099856
Si Si2 0.037823 0.454149 0.241987
Si Si3 0.333470 0.464215 0.039385
Si Si4 0.208575 0.374456 0.952646
Si Si5 0.085140 0.628441 0.843563
Si Si6 0.253042 0.544604 0.560086
Si Si7 0.379272 0.871509 0.633925
O O1 0.493410 0.750000 0.040486
O O2 0.456004 0.602166 0.378878
O O3 0.500000 0.500000 0.000000
O O4 0.601756 0.627540 0.012201
O O5 0.000000 0.500000 0.500000
O O6 0.973948 0.377223 0.242510
O O7 0.116839 0.387127 0.159980
O O8 0.058867 0.555010 0.067796
O O9 0.305991 0.524734 0.282237
O O10 0.257798 0.412570 0.060183
O O11 0.377077 0.549631 0.824522
O O12 0.229254 0.250000 0.873344
O O13 0.232039 0.432988 0.710705
O O14 0.083407 0.750000 0.934022
O O15 0.172641 0.601307 0.622446
O O16 0.301178 0.621707 0.629061
O O17 0.383564 0.750000 0.716720
#
# Coordination Sequence:
#
# PCOD8075886 Si02
#       7
#     4   4   4   4   4   4   4
#     4  11  23  42  65  93 126 164 210 259 314 375
#     4  10  21  39  58  84 118 152 195 247 294 357
#     4  11  22  40  62  89 120 161 205 251 307 369
#     4  10  22  38  58  86 119 157 198 248 300 362
#     4  10  21  36  58  86 116 154 196 243 296 355
#     4  10  21  39  59  85 124 153 202 248 304 360
#     4  10  22  39  61  90 124 160 205 257 309 367
#
# _framework density 20.067346000000001
#
# number of rings (size 3 to 8) (size 9 to 14) (size 15 to 20)
#    0.000    1.714    1.429    2.571    0.000    4.000 
#    0.000    0.714    0.000    0.000    0.000    0.000 
#    0.000    0.000    0.000    0.000    0.000    0.000 
#
# Total GULP energy -346948.721056 kJ/mol
# GULP energy per Si atom -12391.025752 kJ/mol
# Density = 2.002167 g / cm^3
# Si number density = 20.067346 Si / 1000 Ang^3
#
#
#
# Elastic Constant Matrix: (Units=GPa)
#
#
# Indices 1 2 3 4 5 6 
#
# 1 92.5942 11.6421 14.1495 0.0000 -7.8265 0.0000
# 2 11.6421 111.5710 21.9089 0.0000 4.2542 0.0000
# 3 14.1495 21.9089 100.7718 0.0000 -7.8233 0.0000
# 4 0.0000 0.0000 0.0000 11.0443 0.0000 -1.9285
# 5 -7.8265 4.2542 -7.8233 0.0000 29.1106 0.0000
# 6 0.0000 0.0000 0.0000 -1.9285 0.0000 18.1061
#
#
#
# Elastic Compliance Matrix: (Units=1/GPa)
#
#
# Indices 1 2 3 4 5 6 
#
# 1 0.011354 -0.001072 -0.001136 0.000000 0.002904 0.000000
# 2 -0.001072 0.009574 -0.002106 0.000000 -0.002253 0.000000
# 3 -0.001136 -0.002106 0.010766 0.000000 0.002896 0.000000
# 4 0.000000 0.000000 0.000000 0.092260 0.000000 0.009827
# 5 0.002904 -0.002253 0.002896 0.000000 0.036240 0.000000
# 6 0.000000 0.000000 0.000000 0.009827 0.000000 0.056277
#
#
# Mechanical properties :
#
#
# Convention : Reuss Voigt Hill
#
# Bulk Modulus (GPa) = 43.35469 44.48198 43.91834
# Shear Modulus (GPa) = 21.47887 28.80131 25.14009
#
# Velocity S-wave (km/s) = 3.27515 3.79256 3.54331
# Velocity P-wave (km/s) = 5.99614 6.43370 6.21877
#
# Compressibility (1/GPa) = 0.02306556
#
# Stress axis : x y z
#
# Youngs Moduli (GPa) = 88.07750 104.44670 92.88929
#
# Poissons Ratio (x) = 0.11201 0.10548
# Poissons Ratio (y) = 0.09446 0.19562
# Poissons Ratio (z) = 0.10002 0.21996
#
# Static dielectric constant tensor:
#      x y z
#    x 3.714380 0.000000 -0.223090 
#    y 0.000000 4.226610 0.000000 
#    z -0.223090 0.000000 3.515020 
# 
# 
# High freq. dielectric constant tensor:
#      x y z
#    x 1.798890 0.000000 -0.014310 
#    y 0.000000 1.787910 0.000000 
#    z -0.014310 0.000000 1.778170 
# 
# From -- ./inp_files/8694.got.cif
#   From: 2010.06.25/outbox.cif.g09.slc.cpg/sg11_5_cif.got.tgz:8694.got - 2010.06.27 23:14:04.
