data_PCOD8075140
_publ_section_title
;
Structure prediction by ZEFSAII (Michael W. Deem and Ramdas Pophale) SiO2 
 PCOD8075140
Probable space group: P 21/M
;
_chemical_formula_sum "Si O2"
_cell_formula_units_Z 20
_cell_length_a 9.046870
_cell_length_b 17.292292
_cell_length_c 9.138125
_cell_angle_alpha 90.000000
_cell_angle_beta 135.857879
_cell_angle_gamma 90.000000
_cell_volume 995.616414
_symmetry_space_group_name_H-M "P 21/M"
_symmetry_group_IT_number 11
_symmetry_cell_setting 'monoclinic'
loop_
_space_group_symop_operation_xyz
x,y,z
-x,1/2+y,-z
-x,-y,-z
x,1/2-y,z
loop_
_atom_site_type_symbol
_atom_site_label
_atom_site_fract_x
_atom_site_fract_y
_atom_site_fract_z
Si Si1 0.167573 0.582184 0.483812
Si Si2 0.707668 0.067945 0.094575
Si Si3 0.087395 0.049482 0.197234
Si Si4 0.414805 0.163524 0.291931
Si Si5 0.294565 0.107690 0.905910
O O1 0.224526 0.559695 0.688366
O O2 0.163149 0.505817 0.381816
O O3 0.337988 0.640091 0.534112
O O4 0.936403 0.623403 0.325796
O O5 0.893511 0.102771 0.123813
O O6 0.675190 0.980251 0.012970
O O7 0.490383 0.118820 0.928501
O O8 0.281254 0.104963 0.296594
O O9 0.000000 0.000000 0.000000
O O10 0.396205 0.250000 0.342752
O O11 0.322605 0.164474 0.062301
#
# Coordination Sequence:
#
# PCOD8075140 Si02
#       5
#     4   4   4   4   4
#     4  10  20  37  60  87 113 151 197 236 284 349
#     4   9  18  33  61  90 111 140 194 238 283 335
#     4  11  19  37  59  91 115 149 192 245 291 337
#     4  11  23  37  56  85 121 156 191 240 298 350
#     4   9  17  35  57  82 112 146 187 234 281 338
#
# _framework density 20.088058
#
# number of rings (size 3 to 8) (size 9 to 14) (size 15 to 20)
#    0.000    2.000    4.000    3.000    0.000    0.800 
#    3.600    4.000    0.000    3.600    0.000    0.000 
#    0.000    0.000    0.000    0.000    0.000    0.000 
#
# Total GULP energy -247827.044984 kJ/mol
# GULP energy per Si atom -12391.352249 kJ/mol
# Density = 2.004234 g / cm^3
# Si number density = 20.088058 Si / 1000 Ang^3
#
#
#
# Elastic Constant Matrix: (Units=GPa)
#
#
# Indices 1 2 3 4 5 6 
#
# 1 171.1555 45.1405 68.8335 0.0000 26.8369 0.0000
# 2 45.1405 65.7365 30.6364 0.0000 7.3567 0.0000
# 3 68.8335 30.6364 84.2507 0.0000 30.8551 0.0000
# 4 0.0000 0.0000 0.0000 13.8611 0.0000 -1.6102
# 5 26.8369 7.3567 30.8551 0.0000 39.3237 0.0000
# 6 0.0000 0.0000 0.0000 -1.6102 0.0000 14.1634
#
#
#
# Elastic Compliance Matrix: (Units=1/GPa)
#
#
# Indices 1 2 3 4 5 6 
#
# 1 0.009331 -0.003509 -0.005971 0.000000 -0.001026 0.000000
# 2 -0.003509 0.019817 -0.005414 0.000000 0.002936 0.000000
# 3 -0.005971 -0.005414 0.023649 0.000000 -0.013468 0.000000
# 4 0.000000 0.000000 0.000000 0.073110 0.000000 0.008311
# 5 -0.001026 0.002936 -0.013468 0.000000 0.036148 0.000000
# 6 0.000000 0.000000 0.000000 0.008311 0.000000 0.071550
#
#
# Mechanical properties :
#
#
# Convention : Reuss Voigt Hill
#
# Bulk Modulus (GPa) = 43.46517 67.81817 55.64167
# Shear Modulus (GPa) = 18.44595 25.23847 21.84221
#
# Velocity S-wave (km/s) = 3.03356 3.54841 3.30104
# Velocity P-wave (km/s) = 5.82703 7.11491 6.50293
#
# Compressibility (1/GPa) = 0.02300693
#
# Stress axis : x y z
#
# Youngs Moduli (GPa) = 107.17489 50.46228 42.28514
#
# Poissons Ratio (x) = 0.17710 0.25250
# Poissons Ratio (y) = 0.37613 0.22893
# Poissons Ratio (z) = 0.63997 0.27320
#
# Static dielectric constant tensor:
#      x y z
#    x 4.470990 0.000000 0.426970 
#    y 0.000000 3.134520 0.000000 
#    z 0.426970 0.000000 3.629310 
# 
# 
# High freq. dielectric constant tensor:
#      x y z
#    x 1.811740 0.000000 0.023290 
#    y 0.000000 1.725220 0.000000 
#    z 0.023290 0.000000 1.778510 
# 
# From -- ./inp_files/13360.got.cif
#   From: 2010.06.25/outbox.cif.g09.slc.cpg/sg11_7_cif.got.tgz:13360.got - 2010.06.27 23:14:04.
