data_PCOD8075269
_publ_section_title
;
Structure prediction by ZEFSAII (Michael W. Deem and Ramdas Pophale) SiO2 
 PCOD8075269
Probable space group: P 21/M
;
_chemical_formula_sum "Si O2"
_cell_formula_units_Z 28
_cell_length_a 21.610549
_cell_length_b 8.618682
_cell_length_c 14.627139
_cell_angle_alpha 90.000000
_cell_angle_beta 30.694169
_cell_angle_gamma 90.000000
_cell_volume 1390.669259
_symmetry_space_group_name_H-M "P 21/M"
_symmetry_group_IT_number 11
_symmetry_cell_setting 'monoclinic'
loop_
_space_group_symop_operation_xyz
x,y,z
-x,1/2+y,-z
-x,-y,-z
x,1/2-y,z
loop_
_atom_site_type_symbol
_atom_site_label
_atom_site_fract_x
_atom_site_fract_y
_atom_site_fract_z
Si Si1 0.470019 0.069022 0.940603
Si Si2 0.286982 0.572326 0.474682
Si Si3 0.781058 0.431489 0.755106
Si Si4 0.396097 0.928769 0.522096
Si Si5 0.892323 0.930256 0.433095
Si Si6 0.349678 0.571342 0.785827
Si Si7 0.137340 0.069854 0.168506
O O1 0.439913 0.250000 0.987798
O O2 0.580957 0.036287 0.733041
O O3 0.500000 0.000000 0.000000
O O4 0.354750 0.980784 0.044734
O O5 0.250540 0.750000 0.501411
O O6 0.295771 0.536358 0.571766
O O7 0.186265 0.463565 0.557534
O O8 0.789915 0.250000 0.724161
O O9 0.817585 0.519626 0.616905
O O10 0.866833 0.476468 0.730628
O O11 0.438806 0.750000 0.463058
O O12 0.334623 0.965773 0.697344
O O13 0.514093 0.033707 0.355874
O O14 0.922092 0.750000 0.400246
O O15 0.017851 0.022853 0.264468
O O16 0.321386 0.750000 0.844150
O O17 0.255407 0.465495 0.959149
O O18 0.134719 0.250000 0.195804
#
# Coordination Sequence:
#
# PCOD8075269 Si02
#       7
#     4   4   4   4   4   4   4
#     4  11  21  34  56  86 122 157 194 238 288 343
#     4  10  21  38  59  85 119 159 198 238 291 348
#     4  12  24  40  61  87 119 155 199 245 295 351
#     4   9  19  37  63  92 123 156 192 239 295 351
#     4  12  25  41  60  84 117 155 199 245 294 351
#     4  10  20  37  62  93 123 151 193 245 295 348
#     4  12  25  42  62  84 115 155 200 245 296 352
#
# _framework density 20.13419
#
# number of rings (size 3 to 8) (size 9 to 14) (size 15 to 20)
#    0.000    1.143    1.429    6.000    0.000    2.857 
#    0.000    0.714    0.000    0.000    0.000    0.000 
#    0.000    0.000    0.000    0.000    0.000    0.000 
#
# Total GULP energy -347382.215736 kJ/mol
# GULP energy per Si atom -12406.507705 kJ/mol
# Density = 2.008836 g / cm^3
# Si number density = 20.134190 Si / 1000 Ang^3
#
#
#
# Elastic Constant Matrix: (Units=GPa)
#
#
# Indices 1 2 3 4 5 6 
#
# 1 118.2391 23.7807 28.1503 0.0000 0.2431 0.0000
# 2 23.7807 71.8547 19.4105 0.0000 -3.5296 0.0000
# 3 28.1503 19.4105 49.7010 0.0000 -6.6840 0.0000
# 4 0.0000 0.0000 0.0000 30.5501 0.0000 -6.2612
# 5 0.2431 -3.5296 -6.6840 0.0000 26.2130 0.0000
# 6 0.0000 0.0000 0.0000 -6.2612 0.0000 32.5444
#
#
#
# Elastic Compliance Matrix: (Units=1/GPa)
#
#
# Indices 1 2 3 4 5 6 
#
# 1 0.010096 -0.002033 -0.005150 0.000000 -0.001681 0.000000
# 2 -0.002033 0.015976 -0.004966 0.000000 0.000904 0.000000
# 3 -0.005150 -0.004966 0.025778 0.000000 0.005952 0.000000
# 4 0.000000 0.000000 0.000000 0.034077 0.000000 0.006556
# 5 -0.001681 0.000904 0.005952 0.000000 0.039804 0.000000
# 6 0.000000 0.000000 0.000000 0.006556 0.000000 0.031989
#
#
# Mechanical properties :
#
#
# Convention : Reuss Voigt Hill
#
# Bulk Modulus (GPa) = 36.29741 42.49754 39.39747
# Shear Modulus (GPa) = 26.15052 29.09172 27.62112
#
# Velocity S-wave (km/s) = 3.60781 3.80530 3.70787
# Velocity P-wave (km/s) = 5.95164 6.36082 6.15963
#
# Compressibility (1/GPa) = 0.02755017
#
# Stress axis : x y z
#
# Youngs Moduli (GPa) = 99.05003 62.59528 38.79337
#
# Poissons Ratio (x) = 0.12723 0.19980
# Poissons Ratio (y) = 0.20132 0.19267
# Poissons Ratio (z) = 0.51016 0.31088
#
# Static dielectric constant tensor:
#      x y z
#    x 3.817900 0.000000 0.002900 
#    y 0.000000 3.691090 0.000000 
#    z 0.002900 0.000000 3.673260 
# 
# 
# High freq. dielectric constant tensor:
#      x y z
#    x 1.795620 0.000000 -0.001340 
#    y 0.000000 1.793360 0.000000 
#    z -0.001340 0.000000 1.772090 
# 
# From -- ./inp_files/37418.got.cif
#   From: 2010.06.25/outbox.cif.g09.slc.cpg/sg11_19_cif.got.tgz:37418.got - 2010.06.27 23:14:04.
