data_PCOD8075655
_publ_section_title
;
Structure prediction by ZEFSAII (Michael W. Deem and Ramdas Pophale) SiO2 
 PCOD8075655
Probable space group: P 21/M
;
_chemical_formula_sum "Si O2"
_cell_formula_units_Z 28
_cell_length_a 9.407780
_cell_length_b 9.055881
_cell_length_c 29.368616
_cell_angle_alpha 90.000000
_cell_angle_beta 143.210062
_cell_angle_gamma 90.000000
_cell_volume 1498.453614
_symmetry_space_group_name_H-M "P 21/M"
_symmetry_group_IT_number 11
_symmetry_cell_setting 'monoclinic'
loop_
_space_group_symop_operation_xyz
x,y,z
-x,1/2+y,-z
-x,-y,-z
x,1/2-y,z
loop_
_atom_site_type_symbol
_atom_site_label
_atom_site_fract_x
_atom_site_fract_y
_atom_site_fract_z
Si Si1 0.399281 0.921098 0.802760
Si Si2 0.754201 0.924782 0.062769
Si Si3 0.114520 0.421098 0.802760
Si Si4 0.684504 0.423500 0.631275
Si Si5 0.940358 0.575219 0.937231
Si Si6 0.149381 0.423718 0.500000
Si Si7 0.028132 0.423500 0.368726
O O1 0.367991 0.750000 0.805055
O O2 0.665511 0.958229 0.855755
O O3 0.225480 0.972567 0.717349
O O4 0.332309 0.000001 0.832923
O O5 0.728860 0.750000 0.047061
O O6 0.886734 0.958229 0.144245
O O7 0.904525 1.000000 0.061810
O O8 0.500000 0.000000 0.000000
O O9 0.157280 0.250000 0.805054
O O10 0.861264 0.472570 0.717349
O O11 0.692618 0.250000 0.624927
O O12 0.420615 0.476157 0.575625
O O13 0.759006 0.499999 0.603602
O O14 0.993558 0.750000 0.952940
O O15 0.000000 0.500000 0.000000
O O16 0.126943 0.250000 0.499999
O O17 0.000000 0.500000 0.500000
O O18 0.042490 0.476159 0.424375
O O19 0.067988 0.250000 0.375075
#
# Coordination Sequence:
#
# PCOD8075655 Si02
#       7
#     4   4   4   4   4   4   4
#     4   9  19  35  55  78 105 135 170 212 259 308
#     4  11  23  38  56  79 107 140 176 217 262 311
#     4   9  19  35  55  78 105 135 170 212 259 308
#     4   9  18  34  54  77 103 134 172 213 255 305
#     4  11  23  38  56  79 107 140 176 217 262 311
#     4  10  21  34  50  74 106 138 171 212 256 302
#     4   9  18  34  54  77 103 134 172 213 255 305
#
# _framework density 18.685929999999999
#
# number of rings (size 3 to 8) (size 9 to 14) (size 15 to 20)
#    0.000    2.286    0.000    2.143    0.000    6.857 
#    0.000    0.000    0.000    0.000    0.000    0.000 
#    0.000    0.000    0.000    0.000    0.000    0.000 
#
# Total GULP energy -347234.782466 kJ/mol
# GULP energy per Si atom -12401.242231 kJ/mol
# Density = 1.864340 g / cm^3
# Si number density = 18.685930 Si / 1000 Ang^3
#
#
#
# Elastic Constant Matrix: (Units=GPa)
#
#
# Indices 1 2 3 4 5 6 
#
# 1 186.7344 69.3319 95.1916 0.0000 -1.3663 0.0000
# 2 69.3319 63.6917 53.2129 0.0000 -0.8590 0.0000
# 3 95.1916 53.2129 119.8151 0.0000 -2.2015 0.0000
# 4 0.0000 0.0000 0.0000 24.4661 0.0000 -0.8493
# 5 -1.3663 -0.8590 -2.2015 0.0000 32.9141 0.0000
# 6 0.0000 0.0000 0.0000 -0.8493 0.0000 40.3992
#
#
#
# Elastic Compliance Matrix: (Units=1/GPa)
#
#
# Indices 1 2 3 4 5 6 
#
# 1 0.010772 -0.007275 -0.005329 0.000000 -0.000099 0.000000
# 2 -0.007275 0.029877 -0.007490 0.000000 -0.000023 0.000000
# 3 -0.005329 -0.007490 0.015918 0.000000 0.000648 0.000000
# 4 0.000000 0.000000 0.000000 0.040903 0.000000 0.000860
# 5 -0.000099 -0.000023 0.000648 0.000000 0.030421 0.000000
# 6 0.000000 0.000000 0.000000 0.000860 0.000000 0.024771
#
#
# Mechanical properties :
#
#
# Convention : Reuss Voigt Hill
#
# Bulk Modulus (GPa) = 61.05032 89.52379 75.28705
# Shear Modulus (GPa) = 25.21302 29.72287 27.46794
#
# Velocity S-wave (km/s) = 3.67727 3.99263 3.83819
# Velocity P-wave (km/s) = 7.12548 8.32277 7.74729
#
# Compressibility (1/GPa) = 0.01637993
#
# Stress axis : x y z
#
# Youngs Moduli (GPa) = 92.83046 33.47039 62.82032
#
# Poissons Ratio (x) = 0.24350 0.33478
# Poissons Ratio (y) = 0.67536 0.47050
# Poissons Ratio (z) = 0.49471 0.25068
#
# Static dielectric constant tensor:
#      x y z
#    x 3.724540 0.000000 0.010010 
#    y 0.000000 3.426810 0.000000 
#    z 0.010010 0.000000 3.913110 
# 
# 
# High freq. dielectric constant tensor:
#      x y z
#    x 1.723190 0.000000 0.000950 
#    y 0.000000 1.724220 0.000000 
#    z 0.000950 0.000000 1.741100 
# 
# From -- ./inp_files/29037.got.cif
#   From: 2010.06.25/outbox.cif.g09.slc.cpg/sg11_15_cif.got.tgz:29037.got - 2010.06.27 23:14:04.
