data_PCOD8075596
_publ_section_title
;
Structure prediction by ZEFSAII (Michael W. Deem and Ramdas Pophale) SiO2 
 PCOD8075596
Probable space group: P 21/M
;
_chemical_formula_sum "Si O2"
_cell_formula_units_Z 32
_cell_length_a 16.170226
_cell_length_b 9.031764
_cell_length_c 24.641662
_cell_angle_alpha 90.000000
_cell_angle_beta 153.333410
_cell_angle_gamma 90.000000
_cell_volume 1615.137739
_symmetry_space_group_name_H-M "P 21/M"
_symmetry_group_IT_number 11
_symmetry_cell_setting 'monoclinic'
loop_
_space_group_symop_operation_xyz
x,y,z
-x,1/2+y,-z
-x,-y,-z
x,1/2-y,z
loop_
_atom_site_type_symbol
_atom_site_label
_atom_site_fract_x
_atom_site_fract_y
_atom_site_fract_z
Si Si1 0.551885 0.422767 0.085908
Si Si2 0.969970 0.420552 0.332200
Si Si3 0.742366 0.578212 0.997597
Si Si4 0.773594 0.425664 0.595902
Si Si5 0.476712 0.077576 0.236554
Si Si6 0.148037 0.078107 0.550044
Si Si7 0.581612 0.924640 0.677212
Si Si8 0.126694 0.425242 0.237832
O O1 0.529309 0.250000 0.063110
O O2 0.760878 0.463885 0.224640
O O3 0.420312 0.475086 0.057701
O O4 0.500000 0.500000 0.000000
O O5 0.982018 0.250000 0.320730
O O6 0.038523 0.523018 0.323240
O O7 0.099547 0.452255 0.459242
O O8 0.790798 0.750000 0.035786
O O9 0.683844 0.550251 0.901141
O O10 0.918620 0.479867 0.113213
O O11 0.774531 0.250000 0.602883
O O12 0.599186 0.486155 0.459466
O O13 0.763368 0.499427 0.648693
O O14 0.530941 0.250000 0.271069
O O15 0.409072 0.016487 0.255437
O O16 0.653867 0.988695 0.320636
O O17 0.147882 0.250000 0.564185
O O18 0.000000 0.000000 0.500000
O O19 0.565963 0.750000 0.668813
O O20 0.766603 0.973767 0.754439
O O21 0.129433 0.250000 0.247789
#
# Coordination Sequence:
#
# PCOD8075596 Si02
#       8
#     4   4   4   4   4   4   4   4
#     4  10  21  37  55  79 112 151 192 234 285 341
#     4  10  21  37  57  84 116 151 190 238 295 349
#     4  10  22  40  61  85 116 156 200 245 296 356
#     4  11  21  37  61  89 119 152 196 244 297 363
#     4  10  20  40  64  85 117 156 195 247 304 354
#     4  11  22  36  57  86 118 154 197 241 291 350
#     4   9  20  38  61  88 118 154 194 243 306 359
#     4  11  23  39  59  85 119 157 198 247 298 355
#
# _framework density 19.812550000000002
#
# number of rings (size 3 to 8) (size 9 to 14) (size 15 to 20)
#    0.000    1.750    1.250    3.000    0.000    6.500 
#    0.000    4.375    0.000    0.000    0.000    0.000 
#    0.000    0.000    0.000    0.000    0.000    0.000 
#
# Total GULP energy -396913.372474 kJ/mol
# GULP energy per Si atom -12403.542890 kJ/mol
# Density = 1.976746 g / cm^3
# Si number density = 19.812550 Si / 1000 Ang^3
#
#
#
# Elastic Constant Matrix: (Units=GPa)
#
#
# Indices 1 2 3 4 5 6 
#
# 1 128.3055 38.0941 36.1180 0.0000 1.0783 0.0000
# 2 38.0941 64.2882 27.4869 0.0000 -1.9886 0.0000
# 3 36.1180 27.4869 86.5128 0.0000 -0.5344 0.0000
# 4 0.0000 0.0000 0.0000 30.2547 0.0000 -1.0421
# 5 1.0783 -1.9886 -0.5344 0.0000 37.2908 0.0000
# 6 0.0000 0.0000 0.0000 -1.0421 0.0000 29.0375
#
#
#
# Elastic Compliance Matrix: (Units=1/GPa)
#
#
# Indices 1 2 3 4 5 6 
#
# 1 0.009966 -0.004794 -0.002641 0.000000 -0.000582 0.000000
# 2 -0.004794 0.020335 -0.004452 0.000000 0.001159 0.000000
# 3 -0.002641 -0.004452 0.014076 0.000000 0.000041 0.000000
# 4 0.000000 0.000000 0.000000 0.033094 0.000000 0.001188
# 5 -0.000582 0.001159 0.000041 0.000000 0.026895 0.000000
# 6 0.000000 0.000000 0.000000 0.001188 0.000000 0.034481
#
#
# Mechanical properties :
#
#
# Convention : Reuss Voigt Hill
#
# Bulk Modulus (GPa) = 48.53752 53.61163 51.07457
# Shear Modulus (GPa) = 29.50046 31.14377 30.32212
#
# Velocity S-wave (km/s) = 3.86291 3.96905 3.91634
# Velocity P-wave (km/s) = 6.66691 6.93705 6.80332
#
# Compressibility (1/GPa) = 0.02060262
#
# Stress axis : x y z
#
# Youngs Moduli (GPa) = 100.34581 49.17610 71.04102
#
# Poissons Ratio (x) = 0.23575 0.18761
# Poissons Ratio (y) = 0.48105 0.31630
# Poissons Ratio (z) = 0.26501 0.21895
#
# Static dielectric constant tensor:
#      x y z
#    x 3.479310 0.000000 0.167220 
#    y 0.000000 3.457440 0.000000 
#    z 0.167220 0.000000 3.630430 
# 
# 
# High freq. dielectric constant tensor:
#      x y z
#    x 1.786300 0.000000 -0.001020 
#    y 0.000000 1.758610 0.000000 
#    z -0.001020 0.000000 1.775910 
# 
# From -- ./inp_files/55646.got.cif
#   From: 2010.06.25/outbox.cif.g09.slc.cpg/sg11_28_cif.got.tgz:55646.got - 2010.06.27 23:14:04.
