data_PCOD8075036
_publ_section_title
;
Structure prediction by ZEFSAII (Michael W. Deem and Ramdas Pophale) SiO2 
 PCOD8075036
Probable space group: P 21/M
;
_chemical_formula_sum "Si O2"
_cell_formula_units_Z 32
_cell_length_a 9.008965
_cell_length_b 16.476530
_cell_length_c 11.708804
_cell_angle_alpha 90.000000
_cell_angle_beta 85.264096
_cell_angle_gamma 90.000000
_cell_volume 1732.079827
_symmetry_space_group_name_H-M "P 21/M"
_symmetry_group_IT_number 11
_symmetry_cell_setting 'monoclinic'
loop_
_space_group_symop_operation_xyz
x,y,z
-x,1/2+y,-z
-x,-y,-z
x,1/2-y,z
loop_
_atom_site_type_symbol
_atom_site_label
_atom_site_fract_x
_atom_site_fract_y
_atom_site_fract_z
Si Si1 0.623625 0.842321 0.898082
Si Si2 0.708046 0.843965 0.147583
Si Si3 0.134369 0.659419 0.621993
Si Si4 0.348136 0.905807 0.791720
Si Si5 0.735332 0.022783 0.528863
Si Si6 0.083066 0.014038 0.878788
Si Si7 0.131659 0.071404 0.268637
Si Si8 0.564730 0.554116 0.345928
O O1 0.671145 0.750000 0.871380
O O2 0.453618 0.854639 0.868500
O O3 0.739165 0.899588 0.824567
O O4 0.625622 0.861365 0.032863
O O5 0.747325 0.750000 0.161159
O O6 0.862908 0.893372 0.138965
O O7 0.602959 0.871882 0.258935
O O8 0.139330 0.750000 0.569855
O O9 0.267936 0.652337 0.705440
O O10 0.151279 0.591939 0.521784
O O11 0.973774 0.647038 0.691666
O O12 0.224727 0.954353 0.871231
O O13 0.454568 0.970337 0.721950
O O14 0.589196 0.071900 0.579926
O O15 0.803938 0.969511 0.623441
O O16 0.697161 0.959817 0.429203
O O17 0.970788 0.996732 0.783169
O O18 0.000000 0.000000 0.000000
#
# Coordination Sequence:
#
# PCOD8075036 Si02
#       8
#     4   4   4   4   4   4   4   4
#     4  11  21  35  58  88 117 148 192 246 292 335
#     4  10  22  38  57  86 122 151 188 242 293 344
#     4  10  21  36  54  81 118 152 185 238 297 339
#     4   9  19  35  56  82 112 145 192 236 278 346
#     4  10  20  37  60  83 110 149 197 239 276 345
#     4  10  20  37  58  85 112 158 192 220 285 347
#     4  11  21  37  59  85 115 150 197 240 278 346
#     4   9  19  37  59  82 111 148 191 233 291 339
#
# _framework density 18.474900000000002
#
# number of rings (size 3 to 8) (size 9 to 14) (size 15 to 20)
#    0.000    2.000    2.500    1.875    0.000    3.500 
#    0.000    3.750    0.000    0.000    0.000    0.000 
#    0.000    0.000    0.000    0.000    0.000    0.000 
#
# Total GULP energy -396790.410344 kJ/mol
# GULP energy per Si atom -12399.700323 kJ/mol
# Density = 1.843285 g / cm^3
# Si number density = 18.474900 Si / 1000 Ang^3
#
#
#
# Elastic Constant Matrix: (Units=GPa)
#
#
# Indices 1 2 3 4 5 6 
#
# 1 76.4497 33.3992 39.1155 0.0000 1.8734 0.0000
# 2 33.3992 102.8075 50.9928 0.0000 8.8969 0.0000
# 3 39.1155 50.9928 112.5621 0.0000 2.2203 0.0000
# 4 0.0000 0.0000 0.0000 27.0881 0.0000 0.0747
# 5 1.8734 8.8969 2.2203 0.0000 35.7032 0.0000
# 6 0.0000 0.0000 0.0000 0.0747 0.0000 17.5634
#
#
#
# Elastic Compliance Matrix: (Units=1/GPa)
#
#
# Indices 1 2 3 4 5 6 
#
# 1 0.016732 -0.003313 -0.004318 0.000000 0.000216 0.000000
# 2 -0.003313 0.013483 -0.004900 0.000000 -0.002881 0.000000
# 3 -0.004318 -0.004900 0.012591 0.000000 0.000665 0.000000
# 4 0.000000 0.000000 0.000000 0.036917 0.000000 -0.000157
# 5 0.000216 -0.002881 0.000665 0.000000 0.028674 0.000000
# 6 0.000000 0.000000 0.000000 -0.000157 0.000000 0.056937
#
#
# Mechanical properties :
#
#
# Convention : Reuss Voigt Hill
#
# Bulk Modulus (GPa) = 56.35511 59.87048 58.11279
# Shear Modulus (GPa) = 25.46994 27.29173 26.38083
#
# Velocity S-wave (km/s) = 3.71701 3.84765 3.78289
# Velocity P-wave (km/s) = 6.99938 7.22606 7.11362
#
# Compressibility (1/GPa) = 0.01774462
#
# Stress axis : x y z
#
# Youngs Moduli (GPa) = 59.76693 74.16817 79.42099
#
# Poissons Ratio (x) = 0.24570 0.34293
# Poissons Ratio (y) = 0.19799 0.38916
# Poissons Ratio (z) = 0.25806 0.36342
#
# Static dielectric constant tensor:
#      x y z
#    x 3.448780 0.000000 -0.001600 
#    y 0.000000 2.993490 0.000000 
#    z -0.001600 0.000000 3.586600 
# 
# 
# High freq. dielectric constant tensor:
#      x y z
#    x 1.718600 0.000000 -0.004450 
#    y 0.000000 1.700940 0.000000 
#    z -0.004450 0.000000 1.724010 
# 
# From -- ./inp_files/22167.got.cif
#   From: 2010.06.25/outbox.cif.g09.slc.cpg/sg11_12_cif.got.tgz:22167.got - 2010.06.27 23:14:04.
