data_PCOD8075353
_publ_section_title
;
Structure prediction by ZEFSAII (Michael W. Deem and Ramdas Pophale) SiO2 
 PCOD8075353
Probable space group: P 21/M
;
_chemical_formula_sum "Si O2"
_cell_formula_units_Z 32
_cell_length_a 12.323614
_cell_length_b 8.896596
_cell_length_c 14.638978
_cell_angle_alpha 90.000000
_cell_angle_beta 91.180677
_cell_angle_gamma 90.000000
_cell_volume 1604.650661
_symmetry_space_group_name_H-M "P 21/M"
_symmetry_group_IT_number 11
_symmetry_cell_setting 'monoclinic'
loop_
_space_group_symop_operation_xyz
x,y,z
-x,1/2+y,-z
-x,-y,-z
x,1/2-y,z
loop_
_atom_site_type_symbol
_atom_site_label
_atom_site_fract_x
_atom_site_fract_y
_atom_site_fract_z
Si Si1 0.120148 0.926571 0.489685
Si Si2 0.914159 0.589642 0.051454
Si Si3 0.041342 0.413936 0.747075
Si Si4 0.323499 0.428256 0.977445
Si Si5 0.337776 0.923838 0.172736
Si Si6 0.239788 0.574902 0.678596
Si Si7 0.420291 0.076960 0.788688
Si Si8 0.829688 0.927546 0.691042
O O1 0.102002 0.750000 0.475194
O O2 0.200919 0.959435 0.575086
O O3 0.190178 0.995960 0.407507
O O4 0.000000 0.000000 0.500000
O O5 0.898199 0.750000 0.001901
O O6 0.972668 0.613822 0.147644
O O7 0.796574 0.513506 0.051362
O O8 0.000000 0.500000 0.000000
O O9 0.028056 0.250000 0.696849
O O10 0.160629 0.480963 0.741085
O O11 0.955373 0.535530 0.711666
O O12 0.333780 0.250000 0.991964
O O13 0.396283 0.480244 0.892121
O O14 0.355190 0.509255 0.072017
O O15 0.303705 0.750000 0.163536
O O16 0.451699 0.941298 0.227660
O O17 0.246459 0.007951 0.230425
O O18 0.232574 0.750000 0.700531
O O19 0.360075 0.517056 0.707600
O O20 0.382793 0.250000 0.779990
O O21 0.812700 0.750000 0.684794
#
# Coordination Sequence:
#
# PCOD8075353 Si02
#       8
#     4   4   4   4   4   4   4   4
#     4  11  23  40  64  95 127 160 199 250 305 370
#     4  10  21  34  51  79 117 159 199 241 297 359
#     4  11  21  37  60  85 121 162 199 246 305 363
#     4  10  20  38  60  86 120 161 207 255 302 362
#     4  11  24  41  62  90 121 162 210 258 310 365
#     4  11  23  38  62  95 124 153 199 249 302 364
#     4  10  22  42  65  88 122 164 210 256 306 362
#     4  12  25  41  62  91 125 163 206 253 307 371
#
# _framework density 19.942036000000002
#
# number of rings (size 3 to 8) (size 9 to 14) (size 15 to 20)
#    0.000    1.250    2.500    3.750    0.000    6.500 
#    0.000    0.625    0.000    0.000    0.000    0.000 
#    0.000    0.000    0.000    0.000    0.000    0.000 
#
# Total GULP energy -396588.055245 kJ/mol
# GULP energy per Si atom -12393.376726 kJ/mol
# Density = 1.989665 g / cm^3
# Si number density = 19.942036 Si / 1000 Ang^3
#
#
#
# Elastic Constant Matrix: (Units=GPa)
#
#
# Indices 1 2 3 4 5 6 
#
# 1 62.5349 29.8175 22.5011 0.0000 8.5326 0.0000
# 2 29.8175 110.3482 41.4845 0.0000 9.5094 0.0000
# 3 22.5011 41.4845 86.4356 0.0000 19.2843 0.0000
# 4 0.0000 0.0000 0.0000 30.1244 0.0000 5.2597
# 5 8.5326 9.5094 19.2843 0.0000 27.3192 0.0000
# 6 0.0000 0.0000 0.0000 5.2597 0.0000 28.3498
#
#
#
# Elastic Compliance Matrix: (Units=1/GPa)
#
#
# Indices 1 2 3 4 5 6 
#
# 1 0.019172 -0.004024 -0.002417 0.000000 -0.002881 0.000000
# 2 -0.004024 0.011902 -0.004773 0.000000 0.000483 0.000000
# 3 -0.002417 -0.004773 0.016558 0.000000 -0.009272 0.000000
# 4 0.000000 0.000000 0.000000 0.034307 0.000000 -0.006365
# 5 -0.002881 0.000483 -0.009272 0.000000 0.043881 0.000000
# 6 0.000000 0.000000 0.000000 -0.006365 0.000000 0.036454
#
#
# Mechanical properties :
#
#
# Convention : Reuss Voigt Hill
#
# Bulk Modulus (GPa) = 39.67370 49.65833 44.66602
# Shear Modulus (GPa) = 25.89288 28.19305 27.04296
#
# Velocity S-wave (km/s) = 3.60725 3.76407 3.68649
# Velocity P-wave (km/s) = 6.10634 6.62165 6.36921
#
# Compressibility (1/GPa) = 0.02520561
#
# Stress axis : x y z
#
# Youngs Moduli (GPa) = 52.15812 84.01873 60.39489
#
# Poissons Ratio (x) = 0.33807 0.14598
# Poissons Ratio (y) = 0.20987 0.28824
# Poissons Ratio (z) = 0.12607 0.40099
#
# Static dielectric constant tensor:
#      x y z
#    x 3.511690 0.000000 0.029080 
#    y 0.000000 3.611980 0.000000 
#    z 0.029080 0.000000 3.647050 
# 
# 
# High freq. dielectric constant tensor:
#      x y z
#    x 1.773800 0.000000 0.008800 
#    y 0.000000 1.784150 0.000000 
#    z 0.008800 0.000000 1.778720 
# 
# From -- ./inp_files/49337.got.cif
#   From: 2010.06.25/outbox.cif.g09.slc.cpg/sg11_25_cif.got.tgz:49337.got - 2010.06.27 23:14:04.
