data_PCOD8075538
_publ_section_title
;
Structure prediction by ZEFSAII (Michael W. Deem and Ramdas Pophale) SiO2 
 PCOD8075538
Probable space group: P 21/M
;
_chemical_formula_sum "Si O2"
_cell_formula_units_Z 28
_cell_length_a 29.395768
_cell_length_b 8.603083
_cell_length_c 9.806902
_cell_angle_alpha 90.000000
_cell_angle_beta 146.558563
_cell_angle_gamma 90.000000
_cell_volume 1366.749273
_symmetry_space_group_name_H-M "P 21/M"
_symmetry_group_IT_number 11
_symmetry_cell_setting 'monoclinic'
loop_
_space_group_symop_operation_xyz
x,y,z
-x,1/2+y,-z
-x,-y,-z
x,1/2-y,z
loop_
_atom_site_type_symbol
_atom_site_label
_atom_site_fract_x
_atom_site_fract_y
_atom_site_fract_z
Si Si1 0.890433 0.432539 0.981759
Si Si2 0.639657 0.566785 0.992353
Si Si3 0.641340 0.434383 0.707200
Si Si4 0.932933 0.432549 0.624378
Si Si5 0.822528 0.066121 0.098095
Si Si6 0.814995 0.931938 0.542510
Si Si7 0.500218 0.433673 0.152059
O O1 0.910336 0.250000 0.035131
O O2 0.820308 0.471834 0.695917
O O3 0.856363 0.496143 0.039595
O O4 0.971473 0.528981 0.147760
O O5 0.633339 0.750000 0.958790
O O6 0.732610 0.512570 0.258958
O O7 0.610836 0.491481 0.778488
O O8 0.580635 0.509935 0.967409
O O9 0.642363 0.250000 0.713025
O O10 0.579836 0.494193 0.435272
O O11 0.732025 0.504135 0.901846
O O12 0.920500 0.250000 0.619684
O O13 0.886588 0.489576 0.372546
O O14 0.895350 0.528118 0.655242
O O15 0.815731 0.250000 0.076664
O O16 0.812162 0.750000 0.568317
O O17 0.501683 0.250000 0.143441
O O18 0.500000 0.500000 0.000000
#
# Coordination Sequence:
#
# PCOD8075538 Si02
#       7
#     4   4   4   4   4   4   4
#     4  11  23  38  58  85 119 155 196 245 297 348
#     4  10  22  40  60  88 122 155 194 243 291 343
#     4  10  20  39  64  89 117 155 199 239 284 346
#     4  11  21  39  62  85 115 152 198 246 296 350
#     4   9  20  37  59  87 117 149 194 244 287 343
#     4  11  23  39  58  84 119 157 198 241 291 348
#     4  10  23  40  62  92 126 156 190 238 290 348
#
# _framework density 20.486567999999998
#
# number of rings (size 3 to 8) (size 9 to 14) (size 15 to 20)
#    0.000    1.714    1.429    2.571    2.000    1.714 
#    0.000    3.571    0.000    0.000    0.000    0.000 
#    0.000    0.000    0.000    0.000    0.000    0.000 
#
# Total GULP energy -347308.830324 kJ/mol
# GULP energy per Si atom -12403.886797 kJ/mol
# Density = 2.043994 g / cm^3
# Si number density = 20.486568 Si / 1000 Ang^3
#
#
#
# Elastic Constant Matrix: (Units=GPa)
#
#
# Indices 1 2 3 4 5 6 
#
# 1 124.3211 17.8652 50.4089 0.0000 -12.8735 0.0000
# 2 17.8652 30.8828 22.9819 0.0000 -2.8936 0.0000
# 3 50.4089 22.9819 124.5442 0.0000 -12.7632 0.0000
# 4 0.0000 0.0000 0.0000 25.2061 0.0000 -9.1005
# 5 -12.8735 -2.8936 -12.7632 0.0000 42.1468 0.0000
# 6 0.0000 0.0000 0.0000 -9.1005 0.0000 21.9069
#
#
#
# Elastic Compliance Matrix: (Units=1/GPa)
#
#
# Indices 1 2 3 4 5 6 
#
# 1 0.010023 -0.003184 -0.003279 0.000000 0.001850 0.000000
# 2 -0.003184 0.038556 -0.005835 0.000000 -0.000093 0.000000
# 3 -0.003279 -0.005835 0.010619 0.000000 0.001813 0.000000
# 4 0.000000 0.000000 0.000000 0.046673 0.000000 0.019389
# 5 0.001850 -0.000093 0.001813 0.000000 0.024834 0.000000
# 6 0.000000 0.000000 0.000000 0.019389 0.000000 0.053702
#
#
# Mechanical properties :
#
#
# Convention : Reuss Voigt Hill
#
# Bulk Modulus (GPa) = 28.90167 51.36224 40.13195
# Shear Modulus (GPa) = 22.67172 30.41809 26.54490
#
# Velocity S-wave (km/s) = 3.33026 3.85747 3.60352
# Velocity P-wave (km/s) = 5.37827 6.70565 6.07830
#
# Compressibility (1/GPa) = 0.03460008
#
# Stress axis : x y z
#
# Youngs Moduli (GPa) = 99.77537 25.93607 94.16822
#
# Poissons Ratio (x) = 0.08258 0.30882
# Poissons Ratio (y) = 0.31769 0.54952
# Poissons Ratio (z) = 0.32721 0.15135
#
# Static dielectric constant tensor:
#      x y z
#    x 3.887970 0.000000 -0.016330 
#    y 0.000000 3.391980 0.000000 
#    z -0.016330 0.000000 3.977910 
# 
# 
# High freq. dielectric constant tensor:
#      x y z
#    x 1.811140 0.000000 -0.003350 
#    y 0.000000 1.779100 0.000000 
#    z -0.003350 0.000000 1.816040 
# 
# From -- ./inp_files/26168.got.cif
#   From: 2010.06.25/outbox.cif.g09.slc.cpg/sg11_14_cif.got.tgz:26168.got - 2010.06.27 23:14:04.
