data_PCOD8075839
_publ_section_title
;
Structure prediction by ZEFSAII (Michael W. Deem and Ramdas Pophale) SiO2 
 PCOD8075839
Probable space group: P 21/M
;
_chemical_formula_sum "Si O2"
_cell_formula_units_Z 24
_cell_length_a 23.111749
_cell_length_b 9.354222
_cell_length_c 11.461811
_cell_angle_alpha 90.000000
_cell_angle_beta 149.649291
_cell_angle_gamma 90.000000
_cell_volume 1252.090661
_symmetry_space_group_name_H-M "P 21/M"
_symmetry_group_IT_number 11
_symmetry_cell_setting 'monoclinic'
loop_
_space_group_symop_operation_xyz
x,y,z
-x,1/2+y,-z
-x,-y,-z
x,1/2-y,z
loop_
_atom_site_type_symbol
_atom_site_label
_atom_site_fract_x
_atom_site_fract_y
_atom_site_fract_z
Si Si1 0.267557 0.419180 0.370672
Si Si2 0.601728 0.592774 0.632378
Si Si3 0.379120 0.579408 0.777479
Si Si4 0.826259 0.910136 0.165924
Si Si5 0.058640 0.083373 0.862341
Si Si6 0.813225 0.084994 0.377092
O O1 0.273098 0.250000 0.412245
O O2 0.350481 0.459670 0.408355
O O3 0.307591 0.516681 0.546240
O O4 0.138742 0.469958 0.108674
O O5 0.500000 0.500000 0.500000
O O6 0.551368 0.750000 0.527342
O O7 0.697194 0.591017 0.897061
O O8 0.397075 0.750000 0.793986
O O9 0.303461 0.543435 0.760041
O O10 0.500000 0.500000 0.000000
O O11 0.867133 0.750000 0.268609
O O12 0.905961 0.980839 0.203187
O O13 0.830220 0.001672 0.288441
O O14 0.089245 0.250000 0.903563
O O15 0.924584 0.052500 0.653416
O O16 0.811868 0.250000 0.341012
#
# Coordination Sequence:
#
# PCOD8075839 Si02
#       6
#     4   4   4   4   4   4
#     4   9  19  38  60  80 108 144 181 224 277 330
#     4   9  19  33  52  79 108 141 180 222 270 322
#     4  11  25  41  56  78 110 147 190 233 273 322
#     4   9  18  33  54  83 114 143 176 218 272 332
#     4   8  16  35  60  84 113 143 174 221 280 331
#     4  10  21  36  56  82 111 147 185 224 271 324
#
# _framework density 19.167940000000002
#
# number of rings (size 3 to 8) (size 9 to 14) (size 15 to 20)
#    0.000    2.667    0.000    3.000    2.333    3.333 
#    0.000    3.333    0.000    0.000    0.000    0.000 
#    0.000    0.000    0.000    0.000    0.000    0.000 
#
# Total GULP energy -297431.455323 kJ/mol
# GULP energy per Si atom -12392.977305 kJ/mol
# Density = 1.912431 g / cm^3
# Si number density = 19.167940 Si / 1000 Ang^3
#
#
#
# Elastic Constant Matrix: (Units=GPa)
#
#
# Indices 1 2 3 4 5 6 
#
# 1 61.7072 37.8148 63.8825 0.0000 3.3560 0.0000
# 2 37.8148 62.2659 48.5904 0.0000 0.2824 0.0000
# 3 63.8825 48.5904 103.5117 0.0000 2.2592 0.0000
# 4 0.0000 0.0000 0.0000 31.8710 0.0000 -4.8898
# 5 3.3560 0.2824 2.2592 0.0000 38.0865 0.0000
# 6 0.0000 0.0000 0.0000 -4.8898 0.0000 28.7455
#
#
#
# Elastic Compliance Matrix: (Units=1/GPa)
#
#
# Indices 1 2 3 4 5 6 
#
# 1 0.048517 -0.009678 -0.025340 0.000000 -0.002700 0.000000
# 2 -0.009678 0.027285 -0.006859 0.000000 0.001057 0.000000
# 3 -0.025340 -0.006859 0.028506 0.000000 0.000593 0.000000
# 4 0.000000 0.000000 0.000000 0.032217 0.000000 0.005480
# 5 -0.002700 0.001057 0.000593 0.000000 0.026451 0.000000
# 6 0.000000 0.000000 0.000000 0.005480 0.000000 0.035720
#
#
# Mechanical properties :
#
#
# Convention : Reuss Voigt Hill
#
# Bulk Modulus (GPa) = 48.65085 58.67338 53.66211
# Shear Modulus (GPa) = 17.28305 24.88706 21.08505
#
# Velocity S-wave (km/s) = 3.00603 3.60720 3.32025
# Velocity P-wave (km/s) = 6.12248 6.93006 6.53875
#
# Compressibility (1/GPa) = 0.02055463
#
# Stress axis : x y z
#
# Youngs Moduli (GPa) = 20.61152 36.65028 35.08013
#
# Poissons Ratio (x) = 0.35469 0.88894
# Poissons Ratio (y) = 0.19947 0.24060
# Poissons Ratio (z) = 0.52230 0.25137
#
# Static dielectric constant tensor:
#      x y z
#    x 3.440570 0.000000 0.094930 
#    y 0.000000 3.359610 0.000000 
#    z 0.094930 0.000000 3.688990 
# 
# 
# High freq. dielectric constant tensor:
#      x y z
#    x 1.741960 0.000000 0.006030 
#    y 0.000000 1.725060 0.000000 
#    z 0.006030 0.000000 1.757950 
# 
# From -- ./inp_files/44027.got.cif
#   From: 2010.06.25/outbox.cif.g09.slc.cpg/sg11_23_cif.got.tgz:44027.got - 2010.06.27 23:14:04.
