data_PCOD8075938
_publ_section_title
;
Structure prediction by ZEFSAII (Michael W. Deem and Ramdas Pophale) SiO2 
 PCOD8075938
Probable space group: P 21/M
;
_chemical_formula_sum "Si O2"
_cell_formula_units_Z 24
_cell_length_a 16.510024
_cell_length_b 16.879723
_cell_length_c 9.273137
_cell_angle_alpha 90.000000
_cell_angle_beta 153.440388
_cell_angle_gamma 90.000000
_cell_volume 1155.506060
_symmetry_space_group_name_H-M "P 21/M"
_symmetry_group_IT_number 11
_symmetry_cell_setting 'monoclinic'
loop_
_space_group_symop_operation_xyz
x,y,z
-x,1/2+y,-z
-x,-y,-z
x,1/2-y,z
loop_
_atom_site_type_symbol
_atom_site_label
_atom_site_fract_x
_atom_site_fract_y
_atom_site_fract_z
Si Si1 0.529764 0.250000 0.490474
Si Si2 0.747376 0.660781 0.119446
Si Si3 0.864912 0.882684 0.798956
Si Si4 0.962320 0.403644 0.628738
Si Si5 0.303377 0.465753 0.726720
Si Si6 0.740281 0.250000 0.339447
Si Si7 0.579201 0.750000 0.372625
Si Si8 0.863497 0.250000 0.842932
O O1 0.547199 0.250000 0.689368
O O2 0.740127 0.250000 0.786363
O O3 0.423847 0.171946 0.261671
O O4 0.819280 0.750000 0.275896
O O5 0.679500 0.615471 0.154899
O O6 0.899734 0.606847 0.284643
O O7 0.802755 0.951260 0.591733
O O8 0.695879 0.828435 0.567938
O O9 0.931967 0.921623 0.054202
O O10 0.017894 0.829286 0.967114
O O11 0.816083 0.473049 0.368993
O O12 0.851926 0.323701 0.462427
O O13 0.500000 0.500000 0.000000
O O14 0.725530 0.250000 0.488208
O O15 0.536968 0.250000 0.957704
#
# Coordination Sequence:
#
# PCOD8075938 Si02
#       8
#     2   4   4   4   4   2   2   2
#     4  10  21  39  65  99 126 166 225 270 315 389
#     4  10  23  43  67  94 131 173 216 268 326 388
#     4  10  22  41  63  95 130 172 213 261 328 386
#     4  11  21  46  65  93 133 174 211 266 334 386
#     4  12  27  41  67 101 134 168 224 272 324 383
#     4  10  21  36  72  96 123 167 220 265 321 387
#     4  11  20  37  65  94 127 165 221 264 312 388
#     4   9  22  36  68  97 128 168 218 265 320 382
#
# _framework density 20.770119999999999
#
# number of rings (size 3 to 8) (size 9 to 14) (size 15 to 20)
#    0.500    1.000    2.500    2.500    9.333    1.333 
#    0.000    2.500    0.000    0.000    0.000    0.000 
#    0.000    0.000    0.000    0.000    0.000    0.000 
#
# Total GULP energy -297568.337511 kJ/mol
# GULP energy per Si atom -12398.680730 kJ/mol
# Density = 2.072285 g / cm^3
# Si number density = 20.770120 Si / 1000 Ang^3
#
#
#
# Elastic Constant Matrix: (Units=GPa)
#
#
# Indices 1 2 3 4 5 6 
#
# 1 118.0051 46.9886 39.3714 0.0000 26.4633 0.0000
# 2 46.9886 93.1732 34.1969 0.0000 -0.1839 0.0000
# 3 39.3714 34.1969 105.4581 0.0000 8.1118 0.0000
# 4 0.0000 0.0000 0.0000 -266.0660 0.0000 -160.1322
# 5 26.4633 -0.1839 8.1118 0.0000 31.6121 0.0000
# 6 0.0000 0.0000 0.0000 -160.1322 0.0000 -47.9966
#
#
#
# Elastic Compliance Matrix: (Units=1/GPa)
#
#
# Indices 1 2 3 4 5 6 
#
# 1 0.014402 -0.006398 -0.002420 0.000000 -0.011472 0.000000
# 2 -0.006398 0.015063 -0.002973 0.000000 0.006206 0.000000
# 3 -0.002420 -0.002973 0.011421 0.000000 -0.000922 0.000000
# 4 0.000000 0.000000 0.000000 0.003729 0.000000 -0.012440
# 5 -0.011472 0.006206 -0.000922 0.000000 0.041510 0.000000
# 6 0.000000 0.000000 0.000000 -0.012440 0.000000 0.020670
#
#
# Mechanical properties :
#
#
# Convention : Reuss Voigt Hill
#
# Bulk Modulus (GPa) = 57.78965 61.97224 59.88094
# Shear Modulus (GPa) = 36.72608 -43.41813 -3.34602
#
# Velocity S-wave (km/s) = 4.20958 -4.57706 -1.27062
# Velocity P-wave (km/s) = 7.17713 1.40332 5.17110
#
# Compressibility (1/GPa) = 0.01730414
#
# Stress axis : x y z
#
# Youngs Moduli (GPa) = 69.43636 66.38972 87.55879
#
# Poissons Ratio (x) = 0.42473 0.21187
# Poissons Ratio (y) = 0.44422 0.26034
# Poissons Ratio (z) = 0.16802 0.19740
#
# Static dielectric constant tensor:
#      x y z
#    x 3.618630 0.000000 -0.004540 
#    y 0.000000 3.661420 0.000000 
#    z -0.004540 0.000000 3.744500 
# 
# 
# High freq. dielectric constant tensor:
#      x y z
#    x 1.814110 0.000000 0.005650 
#    y 0.000000 1.805120 0.000000 
#    z 0.005650 0.000000 1.810900 
# 
# From -- ./inp_files/22680.got.cif
#   From: 2010.06.25/outbox.cif.g09.slc.cpg/sg11_12_cif.got.tgz:22680.got - 2010.06.27 23:14:04.
