data_PCOD8075044
_publ_section_title
;
Structure prediction by ZEFSAII (Michael W. Deem and Ramdas Pophale) SiO2 
 PCOD8075044
Probable space group: P 21/M
;
_chemical_formula_sum "Si O2"
_cell_formula_units_Z 28
_cell_length_a 11.374518
_cell_length_b 14.737454
_cell_length_c 9.482097
_cell_angle_alpha 90.000000
_cell_angle_beta 122.182043
_cell_angle_gamma 90.000000
_cell_volume 1345.287344
_symmetry_space_group_name_H-M "P 21/M"
_symmetry_group_IT_number 11
_symmetry_cell_setting 'monoclinic'
loop_
_space_group_symop_operation_xyz
x,y,z
-x,1/2+y,-z
-x,-y,-z
x,1/2-y,z
loop_
_atom_site_type_symbol
_atom_site_label
_atom_site_fract_x
_atom_site_fract_y
_atom_site_fract_z
Si Si1 0.948008 0.606057 0.620273
Si Si2 0.035655 0.398784 0.054823
Si Si3 0.787749 0.152330 0.728616
Si Si4 0.835605 0.083606 0.464760
Si Si5 0.667948 0.541943 0.730537
Si Si6 0.553550 0.000560 0.191885
Si Si7 0.357985 0.149296 0.564664
O O1 0.007527 0.627994 0.813319
O O2 0.917142 0.498839 0.591546
O O3 0.805342 0.659992 0.506357
O O4 0.062315 0.635478 0.578369
O O5 0.202805 0.392672 0.144340
O O6 0.000000 0.500000 0.000000
O O7 0.945810 0.339425 0.889484
O O8 0.715975 0.250000 0.720794
O O9 0.791713 0.149981 0.561701
O O10 0.706429 0.065409 0.739651
O O11 0.702131 0.049646 0.292856
O O12 0.554642 0.554917 0.779100
O O13 0.610284 0.580477 0.545143
O O14 0.567265 0.896476 0.253370
O O15 0.500000 0.000000 0.000000
O O16 0.418715 0.250000 0.576209
#
# Coordination Sequence:
#
# PCOD8075044 Si02
#       7
#     4   4   4   4   4   4   4
#     4   9  18  35  63  86 122 153 196 253 315 357
#     4   9  17  33  58  87 115 154 196 250 300 358
#     4  11  22  37  61  93 123 160 208 258 311 364
#     4  10  20  37  58  90 118 161 198 249 308 369
#     4  10  21  42  62  89 127 164 207 253 309 370
#     4  11  24  40  64  89 124 170 209 251 314 373
#     4  10  21  41  68  93 119 165 215 256 306 368
#
# _framework density 20.813397999999999
#
# number of rings (size 3 to 8) (size 9 to 14) (size 15 to 20)
#    0.000    2.000    5.714    0.429    4.000    4.571 
#    0.000    1.429    0.000    0.000    0.000    0.000 
#    0.000    0.000    0.000    0.000    0.000    0.000 
#
# Total GULP energy -347009.633885 kJ/mol
# GULP energy per Si atom -12393.201210 kJ/mol
# Density = 2.076603 g / cm^3
# Si number density = 20.813398 Si / 1000 Ang^3
#
#
#
# Elastic Constant Matrix: (Units=GPa)
#
#
# Indices 1 2 3 4 5 6 
#
# 1 113.0488 8.5884 36.3452 0.0000 -16.2694 0.0000
# 2 8.5884 100.4095 30.3334 0.0000 -2.6636 0.0000
# 3 36.3452 30.3334 149.1846 0.0000 -3.1616 0.0000
# 4 0.0000 0.0000 0.0000 9.1775 0.0000 -1.2460
# 5 -16.2694 -2.6636 -3.1616 0.0000 19.2412 0.0000
# 6 0.0000 0.0000 0.0000 -1.2460 0.0000 3.8603
#
#
#
# Elastic Compliance Matrix: (Units=1/GPa)
#
#
# Indices 1 2 3 4 5 6 
#
# 1 0.010909 0.000050 -0.002481 0.000000 0.008824 0.000000
# 2 0.000050 0.010635 -0.002150 0.000000 0.001162 0.000000
# 3 -0.002481 -0.002150 0.007721 0.000000 -0.001127 0.000000
# 4 0.000000 0.000000 0.000000 0.113956 0.000000 0.036781
# 5 0.008824 0.001162 -0.001127 0.000000 0.059408 0.000000
# 6 0.000000 0.000000 0.000000 0.036781 0.000000 0.270920
#
#
# Mechanical properties :
#
#
# Convention : Reuss Voigt Hill
#
# Bulk Modulus (GPa) = 49.74111 57.01965 53.38038
# Shear Modulus (GPa) = 10.21633 25.61419 17.91526
#
# Velocity S-wave (km/s) = 2.21793 3.51188 2.93705
# Velocity P-wave (km/s) = 5.52353 6.62567 6.09955
#
# Compressibility (1/GPa) = 0.02010410
#
# Stress axis : x y z
#
# Youngs Moduli (GPa) = 91.66371 94.02687 129.51921
#
# Poissons Ratio (x) = -0.00475 0.32135
# Poissons Ratio (y) = -0.00463 0.27848
# Poissons Ratio (z) = 0.22743 0.20217
#
# Static dielectric constant tensor:
#      x y z
#    x 3.947510 0.000000 0.406700 
#    y 0.000000 3.016670 0.000000 
#    z 0.406700 0.000000 4.410600 
# 
# 
# High freq. dielectric constant tensor:
#      x y z
#    x 1.808520 0.000000 0.008360 
#    y 0.000000 1.792120 0.000000 
#    z 0.008360 0.000000 1.814560 
# 
# From -- ./inp_files/18155.got.cif
#   From: 2010.06.25/outbox.cif.g09.slc.cpg/sg11_10_cif.got.tgz:18155.got - 2010.06.27 23:14:04.
