data_PCOD8075317
_publ_section_title
;
Structure prediction by ZEFSAII (Michael W. Deem and Ramdas Pophale) SiO2 
 PCOD8075317
Probable space group: P 21/M
;
_chemical_formula_sum "Si O2"
_cell_formula_units_Z 32
_cell_length_a 12.131675
_cell_length_b 8.900293
_cell_length_c 31.633336
_cell_angle_alpha 90.000000
_cell_angle_beta 28.535128
_cell_angle_gamma 90.000000
_cell_volume 1631.634987
_symmetry_space_group_name_H-M "P 21/M"
_symmetry_group_IT_number 11
_symmetry_cell_setting 'monoclinic'
loop_
_space_group_symop_operation_xyz
x,y,z
-x,1/2+y,-z
-x,-y,-z
x,1/2-y,z
loop_
_atom_site_type_symbol
_atom_site_label
_atom_site_fract_x
_atom_site_fract_y
_atom_site_fract_z
Si Si1 0.289949 0.575444 0.013805
Si Si2 0.458322 0.072849 0.262225
Si Si3 0.037081 0.072621 0.346768
Si Si4 0.891842 0.923221 0.313499
Si Si5 0.398079 0.571906 0.455328
Si Si6 0.956256 0.072659 0.059931
Si Si7 0.250378 0.578698 0.122664
Si Si8 0.749303 0.072216 0.586417
O O1 0.265859 0.750000 0.010249
O O2 0.195471 0.538305 0.092522
O O3 0.149680 0.479486 0.027417
O O4 0.557822 0.529429 0.921786
O O5 0.443534 0.250000 0.275689
O O6 0.271484 0.021091 0.290446
O O7 0.707118 0.022392 0.161415
O O8 0.405850 0.988287 0.323301
O O9 0.021773 0.250000 0.350142
O O10 0.818650 0.005008 0.445902
O O11 0.037785 0.010384 0.299307
O O12 0.883082 0.750000 0.329774
O O13 0.634628 0.991902 0.395696
O O14 0.013999 0.944877 0.227315
O O15 0.398404 0.750000 0.458458
O O16 0.382514 0.524255 0.411793
O O17 0.969035 0.250000 0.050251
O O18 0.000000 0.000000 0.000000
O O19 0.340812 0.750000 0.095337
O O20 0.778829 0.250000 0.580407
O O21 0.000000 0.000000 0.500000
#
# Coordination Sequence:
#
# PCOD8075317 Si02
#       8
#     4   4   4   4   4   4   4   4
#     4  10  21  39  63  87 117 154 197 243 301 363
#     4  10  23  42  61  87 122 158 198 249 303 359
#     4  10  20  38  58  80 117 157 192 234 293 350
#     4  10  21  36  57  86 114 147 197 243 286 342
#     4   9  19  36  58  82 117 156 188 235 291 343
#     4  11  25  43  64  91 125 159 200 253 309 369
#     4   9  20  38  60  86 117 153 195 247 298 354
#     4  11  21  37  63  90 121 162 204 247 298 357
#
# _framework density 19.61223
#
# number of rings (size 3 to 8) (size 9 to 14) (size 15 to 20)
#    0.000    2.000    1.250    1.500    3.500    2.500 
#    0.000    1.250    0.000    0.000    0.000    0.000 
#    0.000    0.000    0.000    0.000    0.000    0.000 
#
# Total GULP energy -396885.533799 kJ/mol
# GULP energy per Si atom -12402.672931 kJ/mol
# Density = 1.956759 g / cm^3
# Si number density = 19.612230 Si / 1000 Ang^3
#
#
#
# Elastic Constant Matrix: (Units=GPa)
#
#
# Indices 1 2 3 4 5 6 
#
# 1 119.5015 26.9805 38.7137 0.0000 8.2835 0.0000
# 2 26.9805 42.7005 32.1728 0.0000 5.7857 0.0000
# 3 38.7137 32.1728 103.2518 0.0000 8.4818 0.0000
# 4 0.0000 0.0000 0.0000 27.4973 0.0000 5.8633
# 5 8.2835 5.7857 8.4818 0.0000 28.9392 0.0000
# 6 0.0000 0.0000 0.0000 5.8633 0.0000 30.2371
#
#
#
# Elastic Compliance Matrix: (Units=1/GPa)
#
#
# Indices 1 2 3 4 5 6 
#
# 1 0.010236 -0.004544 -0.002312 0.000000 -0.001344 0.000000
# 2 -0.004544 0.032952 -0.008330 0.000000 -0.002846 0.000000
# 3 -0.002312 -0.008330 0.013276 0.000000 -0.001564 0.000000
# 4 0.000000 0.000000 0.000000 0.037936 0.000000 -0.007356
# 5 -0.001344 -0.002846 -0.001564 0.000000 0.035967 0.000000
# 6 0.000000 0.000000 0.000000 -0.007356 0.000000 0.034498
#
#
# Mechanical properties :
#
#
# Convention : Reuss Voigt Hill
#
# Bulk Modulus (GPa) = 38.32524 51.24307 44.78416
# Shear Modulus (GPa) = 24.51771 28.50719 26.51245
#
# Velocity S-wave (km/s) = 3.53954 3.81667 3.68072
# Velocity P-wave (km/s) = 6.02399 6.75333 6.39906
#
# Compressibility (1/GPa) = 0.02609246
#
# Stress axis : x y z
#
# Youngs Moduli (GPa) = 97.69403 30.34722 75.32421
#
# Poissons Ratio (x) = 0.13789 0.17413
# Poissons Ratio (y) = 0.44390 0.62747
# Poissons Ratio (z) = 0.22584 0.25280
#
# Static dielectric constant tensor:
#      x y z
#    x 3.676890 0.000000 -0.007050 
#    y 0.000000 3.448440 0.000000 
#    z -0.007050 0.000000 3.714030 
# 
# 
# High freq. dielectric constant tensor:
#      x y z
#    x 1.774760 0.000000 0.002320 
#    y 0.000000 1.749570 0.000000 
#    z 0.002320 0.000000 1.771940 
# 
# From -- ./inp_files/73029.got.cif
#   From: 2010.06.25/outbox.cif.g09.slc.cpg/sg11_37_cif.got.tgz:73029.got - 2010.06.27 23:14:04.
