data_PCOD8075359
_publ_section_title
;
Structure prediction by ZEFSAII (Michael W. Deem and Ramdas Pophale) SiO2 
 PCOD8075359
Probable space group: P 21/M
;
_chemical_formula_sum "Si O2"
_cell_formula_units_Z 20
_cell_length_a 9.003810
_cell_length_b 9.695420
_cell_length_c 11.208676
_cell_angle_alpha 90.000000
_cell_angle_beta 86.375772
_cell_angle_gamma 90.000000
_cell_volume 976.512584
_symmetry_space_group_name_H-M "P 21/M"
_symmetry_group_IT_number 11
_symmetry_cell_setting 'monoclinic'
loop_
_space_group_symop_operation_xyz
x,y,z
-x,1/2+y,-z
-x,-y,-z
x,1/2-y,z
loop_
_atom_site_type_symbol
_atom_site_label
_atom_site_fract_x
_atom_site_fract_y
_atom_site_fract_z
Si Si1 0.039671 0.250000 0.258580
Si Si2 0.312138 0.750000 0.040667
Si Si3 0.854747 0.526047 0.928221
Si Si4 0.599007 0.750000 0.317124
Si Si5 0.335889 0.250000 0.936136
Si Si6 0.511846 0.529770 0.637139
Si Si7 0.270417 0.250000 0.425001
Si Si8 0.699902 0.250000 0.244107
O O1 0.094787 0.111187 0.190178
O O2 0.099261 0.250000 0.393460
O O3 0.865645 0.250000 0.283445
O O4 0.301228 0.750000 0.898081
O O5 0.225740 0.617812 0.099726
O O6 0.485354 0.750000 0.064601
O O7 0.730398 0.612804 0.003949
O O8 0.000000 0.500000 0.000000
O O9 0.713070 0.750000 0.200921
O O10 0.488342 0.620526 0.303786
O O11 0.695969 0.750000 0.434966
O O12 0.500000 0.500000 0.500000
O O13 0.661166 0.617076 0.647097
O O14 0.373760 0.613532 0.697953
#
# Coordination Sequence:
#
# PCOD8075359 Si02
#       8
#     2   2   4   2   2   4   2   2
#     4  11  24  40  65  90 127 180 204 249 328 387
#     4  12  23  39  63 100 124 167 219 266 307 385
#     4  11  23  43  61  92 136 167 206 260 327 379
#     4  10  20  38  60  94 121 153 210 267 307 352
#     4  11  25  36  66  93 126 166 214 260 319 371
#     4   9  20  38  64  87 118 160 205 263 308 358
#     4   9  21  40  64  86 124 164 210 250 315 378
#     4  11  21  39  66  87 132 166 207 254 326 387
#
# _framework density 20.481047
#
# number of rings (size 3 to 8) (size 9 to 14) (size 15 to 20)
#    0.000    1.600    2.000    3.000    8.400    0.000 
#    0.000    4.000    0.000    0.000    0.000    0.000 
#    0.000    0.000    0.000    0.000    0.000    0.000 
#
# Total GULP energy -247812.971740 kJ/mol
# GULP energy per Si atom -12390.648587 kJ/mol
# Density = 2.043443 g / cm^3
# Si number density = 20.481047 Si / 1000 Ang^3
#
#
#
# Elastic Constant Matrix: (Units=GPa)
#
#
# Indices 1 2 3 4 5 6 
#
# 1 129.5333 31.5759 12.2410 0.0000 14.0374 0.0000
# 2 31.5759 158.5913 6.4351 0.0000 -5.3833 0.0000
# 3 12.2410 6.4351 37.5030 0.0000 8.6260 0.0000
# 4 0.0000 0.0000 0.0000 11.9660 0.0000 -4.4891
# 5 14.0374 -5.3833 8.6260 0.0000 30.7187 0.0000
# 6 0.0000 0.0000 0.0000 -4.4891 0.0000 -0.4757
#
#
#
# Elastic Compliance Matrix: (Units=1/GPa)
#
#
# Indices 1 2 3 4 5 6 
#
# 1 0.008732 -0.001802 -0.001658 0.000000 -0.003841 0.000000
# 2 -0.001802 0.006788 -0.001111 0.000000 0.002325 0.000000
# 3 -0.001658 -0.001111 0.029150 0.000000 -0.007623 0.000000
# 4 0.000000 0.000000 0.000000 0.018406 0.000000 -0.173699
# 5 -0.003841 0.002325 -0.007623 0.000000 0.036856 0.000000
# 6 0.000000 0.000000 0.000000 -0.173699 0.000000 -0.463002
#
#
# Mechanical properties :
#
#
# Convention : Reuss Voigt Hill
#
# Bulk Modulus (GPa) = 28.14658 47.34794 37.74726
# Shear Modulus (GPa) = -14.61621 26.80018 6.09199
#
# Velocity S-wave (km/s) = -2.67431 3.62129 1.72653
# Velocity P-wave (km/s) = 2.05831 6.37598 4.73760
#
# Compressibility (1/GPa) = 0.03552829
#
# Stress axis : x y z
#
# Youngs Moduli (GPa) = 114.52059 147.31328 34.30576
#
# Poissons Ratio (x) = 0.26541 0.05687
# Poissons Ratio (y) = 0.20633 0.03813
# Poissons Ratio (z) = 0.18983 0.16374
#
# Static dielectric constant tensor:
#      x y z
#    x 3.649240 0.000000 -0.145600 
#    y 0.000000 2.287680 0.000000 
#    z -0.145600 0.000000 3.703440 
# 
# 
# High freq. dielectric constant tensor:
#      x y z
#    x 1.788400 0.000000 -0.000590 
#    y 0.000000 1.824340 0.000000 
#    z -0.000590 0.000000 1.798300 
# 
# From -- ./inp_files/16052.got.cif
#   From: 2010.06.25/outbox.cif.g09.slc.cpg/sg11_9_cif.got.tgz:16052.got - 2010.06.27 23:14:04.
