data_PCOD8075634
_publ_section_title
;
Structure prediction by ZEFSAII (Michael W. Deem and Ramdas Pophale) SiO2 
 PCOD8075634
Probable space group: P 21/M
;
_chemical_formula_sum "Si O2"
_cell_formula_units_Z 24
_cell_length_a 11.455467
_cell_length_b 10.459413
_cell_length_c 9.676941
_cell_angle_alpha 90.000000
_cell_angle_beta 94.798724
_cell_angle_gamma 90.000000
_cell_volume 1155.402244
_symmetry_space_group_name_H-M "P 21/M"
_symmetry_group_IT_number 11
_symmetry_cell_setting 'monoclinic'
loop_
_space_group_symop_operation_xyz
x,y,z
-x,1/2+y,-z
-x,-y,-z
x,1/2-y,z
loop_
_atom_site_type_symbol
_atom_site_label
_atom_site_fract_x
_atom_site_fract_y
_atom_site_fract_z
Si Si1 0.734240 0.250000 0.324693
Si Si2 0.835824 0.989805 0.910807
Si Si3 0.945008 0.888198 0.174717
Si Si4 0.690990 0.968338 0.648577
Si Si5 0.482568 0.250000 0.443862
Si Si6 0.132544 0.000945 0.567387
Si Si7 0.727938 0.250000 0.998244
Si Si8 0.613605 0.250000 0.706773
O O1 0.613516 0.250000 0.396873
O O2 0.816377 0.367078 0.375185
O O3 0.695815 0.250000 0.157739
O O4 0.952562 0.007111 0.828876
O O5 0.737653 0.927399 0.803983
O O6 0.803742 0.125520 0.974840
O O7 0.858931 0.890622 0.034744
O O8 0.005357 0.750000 0.190362
O O9 0.864806 0.908008 0.300085
O O10 0.577180 0.881843 0.611035
O O11 0.785117 0.936851 0.540331
O O12 0.674346 0.121524 0.653230
O O13 0.487846 0.250000 0.614465
O O14 0.000000 0.000000 0.500000
O O15 0.616355 0.250000 0.876234
#
# Coordination Sequence:
#
# PCOD8075634 Si02
#       8
#     2   4   4   4   2   4   2   2
#     4  12  26  47  67  94 139 177 228 269 338 402
#     4  10  21  41  63  95 134 176 218 266 332 415
#     4  11  23  37  62  97 143 174 211 269 342 400
#     4  11  24  43  69 101 131 177 226 275 341 401
#     4  12  26  45  71  95 135 178 230 285 333 396
#     4  12  25  41  67 101 137 171 218 279 338 402
#     4  10  20  42  68  92 121 178 221 268 329 396
#     4  10  22  44  72  91 129 175 233 266 336 396
#
# _framework density 20.771985999999998
#
# number of rings (size 3 to 8) (size 9 to 14) (size 15 to 20)
#    0.000    1.000    5.833    0.500    3.500    0.000 
#    0.000    5.000    0.000    0.000    0.000    0.000 
#    0.000    0.000    0.000    0.000    0.000    0.000 
#
# Total GULP energy -297364.277718 kJ/mol
# GULP energy per Si atom -12390.178238 kJ/mol
# Density = 2.072471 g / cm^3
# Si number density = 20.771986 Si / 1000 Ang^3
#
#
#
# Elastic Constant Matrix: (Units=GPa)
#
#
# Indices 1 2 3 4 5 6 
#
# 1 99.2597 41.3437 59.3748 0.0000 20.7128 0.0000
# 2 41.3437 84.6010 38.7429 0.0000 4.7624 0.0000
# 3 59.3748 38.7429 132.5357 0.0000 14.1204 0.0000
# 4 0.0000 0.0000 0.0000 22.6451 0.0000 7.5818
# 5 20.7128 4.7624 14.1204 0.0000 35.7118 0.0000
# 6 0.0000 0.0000 0.0000 7.5818 0.0000 32.5236
#
#
#
# Elastic Compliance Matrix: (Units=1/GPa)
#
#
# Indices 1 2 3 4 5 6 
#
# 1 0.016969 -0.005494 -0.005247 0.000000 -0.007035 0.000000
# 2 -0.005494 0.015428 -0.002264 0.000000 0.002024 0.000000
# 3 -0.005247 -0.002264 0.010650 0.000000 -0.000866 0.000000
# 4 0.000000 0.000000 0.000000 0.047898 0.000000 -0.011166
# 5 -0.007035 0.002024 -0.000866 0.000000 0.032155 0.000000
# 6 0.000000 0.000000 0.000000 -0.011166 0.000000 0.033350
#
#
# Mechanical properties :
#
#
# Convention : Reuss Voigt Hill
#
# Bulk Modulus (GPa) = 58.69512 66.14659 62.42085
# Shear Modulus (GPa) = 26.57610 29.97177 28.27393
#
# Velocity S-wave (km/s) = 3.58078 3.80266 3.69339
# Velocity P-wave (km/s) = 6.73900 7.15497 6.95010
#
# Compressibility (1/GPa) = 0.01703719
#
# Stress axis : x y z
#
# Youngs Moduli (GPa) = 58.92966 64.81684 93.89922
#
# Poissons Ratio (x) = 0.35611 0.49265
# Poissons Ratio (y) = 0.32377 0.21262
# Poissons Ratio (z) = 0.30918 0.14677
#
# Static dielectric constant tensor:
#      x y z
#    x 3.581640 0.000000 0.281910 
#    y 0.000000 3.664550 0.000000 
#    z 0.281910 0.000000 4.282420 
# 
# 
# High freq. dielectric constant tensor:
#      x y z
#    x 1.787210 0.000000 0.020730 
#    y 0.000000 1.811330 0.000000 
#    z 0.020730 0.000000 1.837930 
# 
# From -- ./inp_files/16990.got.cif
#   From: 2010.06.25/outbox.cif.g09.slc.cpg/sg11_9_cif.got.tgz:16990.got - 2010.06.27 23:14:04.
