data_PCOD8076786
_publ_section_title
;
Structure prediction by ZEFSAII (Michael W. Deem and Ramdas Pophale) SiO2 
 PCOD8076786
Probable space group: P 21/M
;
_chemical_formula_sum "Si O2"
_cell_formula_units_Z 32
_cell_length_a 21.373968
_cell_length_b 15.092940
_cell_length_c 14.845063
_cell_angle_alpha 90.000000
_cell_angle_beta 160.570909
_cell_angle_gamma 90.000000
_cell_volume 1592.999028
_symmetry_space_group_name_H-M "P 21/M"
_symmetry_group_IT_number 11
_symmetry_cell_setting 'monoclinic'
loop_
_space_group_symop_operation_xyz
x,y,z
-x,1/2+y,-z
-x,-y,-z
x,1/2-y,z
loop_
_atom_site_type_symbol
_atom_site_label
_atom_site_fract_x
_atom_site_fract_y
_atom_site_fract_z
Si Si1 0.311518 0.849784 0.544185
Si Si2 0.378302 0.352381 0.364813
Si Si3 0.682352 0.849335 0.440654
Si Si4 0.652971 0.646616 0.882274
Si Si5 0.662710 0.147882 0.901625
Si Si6 0.943093 0.903001 0.951278
Si Si7 0.047998 0.002495 0.668861
Si Si8 0.305650 0.997855 0.684049
O O1 0.346382 0.750000 0.625676
O O2 0.486264 0.883433 0.721803
O O3 0.126725 0.850250 0.231611
O O4 0.291498 0.911341 0.603280
O O5 0.322468 0.250000 0.303662
O O6 0.414837 0.375626 0.310769
O O7 0.569047 0.373566 0.677841
O O8 0.204010 0.409465 0.165734
O O9 0.674241 0.750000 0.390649
O O10 0.486127 0.874448 0.221877
O O11 0.720295 0.914476 0.410188
O O12 0.850233 0.853199 0.740918
O O13 0.702482 0.750000 0.960100
O O14 0.837148 0.591441 0.155364
O O15 0.727866 0.250000 0.995563
O O16 0.842379 0.086191 0.155274
O O17 0.000000 0.000000 0.000000
O O18 0.856958 0.006456 0.464144
O O19 0.000000 0.000000 0.500000
O O20 0.500000 0.000000 0.000000
#
# Coordination Sequence:
#
# PCOD8076786 Si02
#       8
#     4   4   4   4   4   4   4   4
#     4  11  23  42  65  92 127 165 206 258 308 365
#     4   9  19  38  61  91 126 164 205 248 304 369
#     4  10  21  40  64  92 128 166 204 252 306 365
#     4  10  23  41  64  92 125 162 206 256 307 362
#     4   9  20  40  65  91 124 163 201 248 305 363
#     4  11  20  34  62  96 130 165 202 250 302 367
#     4  12  26  42  64  89 119 161 205 260 306 365
#     4  12  26  44  65  90 122 160 211 259 309 372
#
# _framework density 20.087897999999999
#
# number of rings (size 3 to 8) (size 9 to 14) (size 15 to 20)
#    0.000    1.500    1.250    4.875    1.750    4.500 
#    0.000    1.250    0.000    0.000    0.000    0.000 
#    0.000    0.000    0.000    0.000    0.000    0.000 
#
# Total GULP energy -396948.029532 kJ/mol
# GULP energy per Si atom -12404.625923 kJ/mol
# Density = 2.004218 g / cm^3
# Si number density = 20.087898 Si / 1000 Ang^3
#
#
#
# Elastic Constant Matrix: (Units=GPa)
#
#
# Indices 1 2 3 4 5 6 
#
# 1 161.3681 66.5249 75.6329 0.0000 5.3318 0.0000
# 2 66.5249 106.9173 52.5637 0.0000 4.3996 0.0000
# 3 75.6329 52.5637 146.2783 0.0000 5.8778 0.0000
# 4 0.0000 0.0000 0.0000 18.9888 0.0000 6.7795
# 5 5.3318 4.3996 5.8778 0.0000 34.5304 0.0000
# 6 0.0000 0.0000 0.0000 6.7795 0.0000 18.5427
#
#
#
# Elastic Compliance Matrix: (Units=1/GPa)
#
#
# Indices 1 2 3 4 5 6 
#
# 1 0.009558 -0.004263 -0.003396 0.000000 -0.000355 0.000000
# 2 -0.004263 0.013281 -0.002544 0.000000 -0.000601 0.000000
# 3 -0.003396 -0.002544 0.009537 0.000000 -0.000775 0.000000
# 4 0.000000 0.000000 0.000000 0.060569 0.000000 -0.022145
# 5 -0.000355 -0.000601 -0.000775 0.000000 0.029223 0.000000
# 6 0.000000 0.000000 0.000000 -0.022145 0.000000 0.062026
#
#
# Mechanical properties :
#
#
# Convention : Reuss Voigt Hill
#
# Bulk Modulus (GPa) = 83.53812 89.33408 86.43610
# Shear Modulus (GPa) = 23.97046 29.06851 26.51948
#
# Velocity S-wave (km/s) = 3.45813 3.80816 3.63736
# Velocity P-wave (km/s) = 7.59088 7.99401 7.79505
#
# Compressibility (1/GPa) = 0.01197058
#
# Stress axis : x y z
#
# Youngs Moduli (GPa) = 104.62789 75.29608 104.85058
#
# Poissons Ratio (x) = 0.32098 0.35604
# Poissons Ratio (y) = 0.44601 0.26675
# Poissons Ratio (z) = 0.35529 0.19156
#
# Static dielectric constant tensor:
#      x y z
#    x 3.743620 0.000000 -0.026780 
#    y 0.000000 3.376350 0.000000 
#    z -0.026780 0.000000 3.884510 
# 
# 
# High freq. dielectric constant tensor:
#      x y z
#    x 1.787060 0.000000 0.001230 
#    y 0.000000 1.794950 0.000000 
#    z 0.001230 0.000000 1.785180 
# 
# From -- ./inp_files/55021.got.cif
#   From: 2010.06.25/outbox.cif.g09.slc.cpg/sg11_28_cif.got.tgz:55021.got - 2010.06.27 23:14:04.
