data_PCOD8076383
_publ_section_title
;
Structure prediction by ZEFSAII (Michael W. Deem and Ramdas Pophale) SiO2 
 PCOD8076383
Probable space group: P 21/M
;
_chemical_formula_sum "Si O2"
_cell_formula_units_Z 32
_cell_length_a 28.952492
_cell_length_b 8.824369
_cell_length_c 12.266079
_cell_angle_alpha 90.000000
_cell_angle_beta 149.662687
_cell_angle_gamma 90.000000
_cell_volume 1582.865297
_symmetry_space_group_name_H-M "P 21/M"
_symmetry_group_IT_number 11
_symmetry_cell_setting 'monoclinic'
loop_
_space_group_symop_operation_xyz
x,y,z
-x,1/2+y,-z
-x,-y,-z
x,1/2-y,z
loop_
_atom_site_type_symbol
_atom_site_label
_atom_site_fract_x
_atom_site_fract_y
_atom_site_fract_z
Si Si1 0.703433 0.576432 0.536633
Si Si2 0.210098 0.929238 0.730545
Si Si3 0.973402 0.575911 0.559947
Si Si4 0.167007 0.922696 0.027285
Si Si5 0.728279 0.927042 0.934161
Si Si6 0.444405 0.579771 0.479400
Si Si7 0.312115 0.424622 0.741242
Si Si8 0.513528 0.079188 0.194642
O O1 0.708822 0.750000 0.586428
O O2 0.778141 0.482559 0.756435
O O3 0.731038 0.558691 0.466527
O O4 0.598891 0.523566 0.336103
O O5 0.205635 0.750000 0.726225
O O6 0.109647 0.994434 0.548254
O O7 0.248680 0.978915 0.692224
O O8 0.278348 0.991416 0.962566
O O9 0.945591 0.750000 0.479828
O O10 0.000000 0.500000 0.500000
O O11 0.057525 0.569012 0.818042
O O12 0.199285 0.750000 0.071935
O O13 0.181744 0.023782 0.948267
O O14 0.722563 0.750000 0.942004
O O15 0.648071 0.985019 0.691290
O O16 0.500000 0.500000 0.500000
O O17 0.420787 0.750000 0.395034
O O18 0.501367 0.577388 0.705946
O O19 0.312841 0.250000 0.781724
O O20 0.417729 0.484043 0.951679
O O21 0.532958 0.250000 0.192670
#
# Coordination Sequence:
#
# PCOD8076383 Si02
#       8
#     4   4   4   4   4   4   4   4
#     4  11  23  39  64  93 125 165 211 260 310 367
#     4  12  25  41  64  94 127 163 206 255 314 382
#     4  11  23  40  66  95 126 162 202 255 311 374
#     4  11  23  40  63  92 124 158 204 252 305 372
#     4  12  23  37  60  87 123 163 201 253 311 367
#     4  11  22  35  54  84 123 165 207 253 309 373
#     4  10  23  43  63  90 125 165 213 260 310 366
#     4  10  21  38  61  86 121 164 209 260 308 362
#
# _framework density 20.216501999999998
#
# number of rings (size 3 to 8) (size 9 to 14) (size 15 to 20)
#    0.000    1.000    2.500    4.875    0.000    4.500 
#    0.000    0.625    0.000    0.000    0.000    0.000 
#    0.000    0.000    0.000    0.000    0.000    0.000 
#
# Total GULP energy -396826.977518 kJ/mol
# GULP energy per Si atom -12400.843047 kJ/mol
# Density = 2.017049 g / cm^3
# Si number density = 20.216502 Si / 1000 Ang^3
#
#
#
# Elastic Constant Matrix: (Units=GPa)
#
#
# Indices 1 2 3 4 5 6 
#
# 1 77.9104 48.5503 34.8313 0.0000 -5.3133 0.0000
# 2 48.5503 153.0793 46.0536 0.0000 0.4905 0.0000
# 3 34.8313 46.0536 94.7370 0.0000 3.4742 0.0000
# 4 0.0000 0.0000 0.0000 29.5396 0.0000 2.5624
# 5 -5.3133 0.4905 3.4742 0.0000 27.4070 0.0000
# 6 0.0000 0.0000 0.0000 2.5624 0.0000 35.0379
#
#
#
# Elastic Compliance Matrix: (Units=1/GPa)
#
#
# Indices 1 2 3 4 5 6 
#
# 1 0.017857 -0.004282 -0.004635 0.000000 0.004126 0.000000
# 2 -0.004282 0.008682 -0.002622 0.000000 -0.000653 0.000000
# 3 -0.004635 -0.002622 0.013629 0.000000 -0.002579 0.000000
# 4 0.000000 0.000000 0.000000 0.034069 0.000000 -0.002492
# 5 0.004126 -0.000653 -0.002579 0.000000 0.037626 0.000000
# 6 0.000000 0.000000 0.000000 -0.002492 0.000000 0.028723
#
#
# Mechanical properties :
#
#
# Convention : Reuss Voigt Hill
#
# Bulk Modulus (GPa) = 58.51654 64.95524 61.73589
# Shear Modulus (GPa) = 29.52286 31.48302 30.50294
#
# Velocity S-wave (km/s) = 3.82558 3.95054 3.88856
# Velocity P-wave (km/s) = 6.96571 7.28070 7.12495
#
# Compressibility (1/GPa) = 0.01708918
#
# Stress axis : x y z
#
# Youngs Moduli (GPa) = 55.99902 115.18566 73.37384
#
# Poissons Ratio (x) = 0.49327 0.34009
# Poissons Ratio (y) = 0.23981 0.19238
# Poissons Ratio (z) = 0.25956 0.30200
#
# Static dielectric constant tensor:
#      x y z
#    x 3.544310 0.000000 0.096390 
#    y 0.000000 3.770050 0.000000 
#    z 0.096390 0.000000 4.059140 
# 
# 
# High freq. dielectric constant tensor:
#      x y z
#    x 1.778010 0.000000 -0.000580 
#    y 0.000000 1.799940 0.000000 
#    z -0.000580 0.000000 1.797500 
# 
# From -- ./inp_files/45331.got.cif
#   From: 2010.06.25/outbox.cif.g09.slc.cpg/sg11_23_cif.got.tgz:45331.got - 2010.06.27 23:14:04.
