data_PCOD8076906
_publ_section_title
;
Structure prediction by ZEFSAII (Michael W. Deem and Ramdas Pophale) SiO2 
 PCOD8076906
Probable space group: P 21/M
;
_chemical_formula_sum "Si O2"
_cell_formula_units_Z 18
_cell_length_a 7.400677
_cell_length_b 14.423795
_cell_length_c 8.107748
_cell_angle_alpha 90.000000
_cell_angle_beta 83.915888
_cell_angle_gamma 90.000000
_cell_volume 860.593574
_symmetry_space_group_name_H-M "P 21/M"
_symmetry_group_IT_number 11
_symmetry_cell_setting 'monoclinic'
loop_
_space_group_symop_operation_xyz
x,y,z
-x,1/2+y,-z
-x,-y,-z
x,1/2-y,z
loop_
_atom_site_type_symbol
_atom_site_label
_atom_site_fract_x
_atom_site_fract_y
_atom_site_fract_z
Si Si1 0.994072 0.750000 0.738641
Si Si2 0.982944 0.250000 0.641464
Si Si3 0.892609 0.450747 0.276922
Si Si4 0.419788 0.444469 0.859081
Si Si5 0.741997 0.750000 0.076871
Si Si6 0.784148 0.442004 0.650406
O O1 0.924549 0.750000 0.552505
O O2 0.116927 0.840949 0.757981
O O3 0.837329 0.750000 0.889431
O O4 0.855543 0.338601 0.674565
O O5 0.130754 0.250000 0.772785
O O6 0.770237 0.506663 0.162024
O O7 0.812614 0.475673 0.462335
O O8 0.100647 0.487613 0.243720
O O9 0.387239 0.338365 0.907508
O O10 0.569580 0.448755 0.700576
O O11 0.500000 0.500000 0.000000
#
# Coordination Sequence:
#
# PCOD8076906 Si02
#       6
#     2   2   4   4   2   4
#     4  10  24  41  68  95 129 176 218 269 329 384
#     4  10  21  43  71  94 125 180 216 264 334 380
#     4  10  22  43  66  95 126 175 214 269 324 379
#     4  12  26  40  64 102 130 171 216 266 332 388
#     4  12  25  44  67  97 134 170 218 273 321 392
#     4  10  21  42  69  91 131 166 221 267 320 391
#
# _framework density 20.915796
#
# number of rings (size 3 to 8) (size 9 to 14) (size 15 to 20)
#    0.000    1.333    2.222    2.667    3.111    2.667 
#    4.000    1.111    0.000    0.000    0.000    0.000 
#    0.000    0.000    0.000    0.000    0.000    0.000 
#
# Total GULP energy -223182.609247 kJ/mol
# GULP energy per Si atom -12399.033847 kJ/mol
# Density = 2.086819 g / cm^3
# Si number density = 20.915796 Si / 1000 Ang^3
#
#
#
# Elastic Constant Matrix: (Units=GPa)
#
#
# Indices 1 2 3 4 5 6 
#
# 1 86.1853 39.6810 30.0066 0.0000 -4.7833 0.0000
# 2 39.6810 156.7893 23.5971 0.0000 11.3909 0.0000
# 3 30.0066 23.5971 80.3586 0.0000 -5.0194 0.0000
# 4 0.0000 0.0000 0.0000 23.9746 0.0000 0.1204
# 5 -4.7833 11.3909 -5.0194 0.0000 36.2037 0.0000
# 6 0.0000 0.0000 0.0000 0.1204 0.0000 36.1395
#
#
#
# Elastic Compliance Matrix: (Units=1/GPa)
#
#
# Indices 1 2 3 4 5 6 
#
# 1 0.014764 -0.003244 -0.004413 0.000000 0.002359 0.000000
# 2 -0.003244 0.007597 -0.001206 0.000000 -0.002986 0.000000
# 3 -0.004413 -0.001206 0.014560 0.000000 0.001815 0.000000
# 4 0.000000 0.000000 0.000000 0.041712 0.000000 -0.000139
# 5 0.002359 -0.002986 0.001815 0.000000 0.029124 0.000000
# 6 0.000000 0.000000 0.000000 -0.000139 0.000000 0.027671
#
#
# Mechanical properties :
#
#
# Convention : Reuss Voigt Hill
#
# Bulk Modulus (GPa) = 52.09738 56.65584 54.37661
# Shear Modulus (GPa) = 31.33774 34.60014 32.96894
#
# Velocity S-wave (km/s) = 3.87496 4.07167 3.97453
# Velocity P-wave (km/s) = 6.70691 7.01791 6.86417
#
# Compressibility (1/GPa) = 0.01919482
#
# Stress axis : x y z
#
# Youngs Moduli (GPa) = 67.73338 131.62370 68.68289
#
# Poissons Ratio (x) = 0.42695 0.30310
# Poissons Ratio (y) = 0.21971 0.08285
# Poissons Ratio (z) = 0.29891 0.15877
#
# Static dielectric constant tensor:
#      x y z
#    x 3.992620 0.000000 -0.134440 
#    y 0.000000 4.049470 0.000000 
#    z -0.134440 0.000000 4.137640 
# 
# 
# High freq. dielectric constant tensor:
#      x y z
#    x 1.804110 0.000000 -0.003670 
#    y 0.000000 1.841290 0.000000 
#    z -0.003670 0.000000 1.825120 
# 
# From -- ./inp_files/2002.got.cif
#   From: 2010.06.25/outbox.cif.g09.slc.cpg/sg11_2_cif.got.tgz:2002.got - 2010.06.27 23:14:04.
