data_PCOD8076951
_publ_section_title
;
Structure prediction by ZEFSAII (Michael W. Deem and Ramdas Pophale) SiO2 
 PCOD8076951
Probable space group: P 21/M
;
_chemical_formula_sum "Si O2"
_cell_formula_units_Z 24
_cell_length_a 15.498501
_cell_length_b 13.791134
_cell_length_c 11.640176
_cell_angle_alpha 90.000000
_cell_angle_beta 27.407588
_cell_angle_gamma 90.000000
_cell_volume 1145.266543
_symmetry_space_group_name_H-M "P 21/M"
_symmetry_group_IT_number 11
_symmetry_cell_setting 'monoclinic'
loop_
_space_group_symop_operation_xyz
x,y,z
-x,1/2+y,-z
-x,-y,-z
x,1/2-y,z
loop_
_atom_site_type_symbol
_atom_site_label
_atom_site_fract_x
_atom_site_fract_y
_atom_site_fract_z
Si Si1 0.346846 0.364785 0.208519
Si Si2 0.018597 0.954198 0.261082
Si Si3 0.877007 0.358385 0.094256
Si Si4 0.508829 0.928287 0.384407
Si Si5 0.368218 0.517073 0.988262
Si Si6 0.917312 0.859015 0.924213
O O1 0.353360 0.250000 0.179723
O O2 0.531099 0.398215 0.059322
O O3 0.165783 0.392790 0.497804
O O4 0.336728 0.419847 0.099660
O O5 0.980002 0.069601 0.289089
O O6 0.114900 0.925763 0.026773
O O7 0.166769 0.939667 0.188967
O O8 0.916486 0.250000 0.004542
O O9 0.674637 0.361604 0.394898
O O10 0.032268 0.389564 0.004619
O O11 0.506422 0.989517 0.269401
O O12 0.500000 0.000000 0.500000
O O13 0.693783 0.862551 0.172774
O O14 0.988735 0.750000 0.814707
#
# Coordination Sequence:
#
# PCOD8076951 Si02
#       6
#     4   4   4   4   4   4
#     4  11  25  44  67  92 123 168 213 259 312 370
#     4  11  22  41  64  91 129 161 208 261 312 366
#     4  11  22  35  58  93 128 165 206 253 313 373
#     4  11  21  40  64  90 126 166 201 261 312 372
#     4  10  24  44  64  92 126 165 212 261 310 368
#     4  10  22  37  60  93 129 169 208 249 311 377
#
# _framework density 20.955821
#
# number of rings (size 3 to 8) (size 9 to 14) (size 15 to 20)
#    0.000    1.333    3.333    3.000    2.333    4.667 
#    0.000    5.000    0.000    0.000    0.000    0.000 
#    0.000    0.000    0.000    0.000    0.000    0.000 
#
# Total GULP energy -297638.676501 kJ/mol
# GULP energy per Si atom -12401.611521 kJ/mol
# Density = 2.090812 g / cm^3
# Si number density = 20.955821 Si / 1000 Ang^3
#
#
#
# Elastic Constant Matrix: (Units=GPa)
#
#
# Indices 1 2 3 4 5 6 
#
# 1 92.9433 26.2881 15.7754 0.0000 -12.8941 0.0000
# 2 26.2881 100.0572 29.2704 0.0000 -8.2763 0.0000
# 3 15.7754 29.2704 66.1853 0.0000 1.6559 0.0000
# 4 0.0000 0.0000 0.0000 28.9928 0.0000 0.8330
# 5 -12.8941 -8.2763 1.6559 0.0000 34.0802 0.0000
# 6 0.0000 0.0000 0.0000 0.8330 0.0000 23.9679
#
#
#
# Elastic Compliance Matrix: (Units=1/GPa)
#
#
# Indices 1 2 3 4 5 6 
#
# 1 0.012338 -0.002300 -0.002029 0.000000 0.004208 0.000000
# 2 -0.002300 0.012231 -0.004920 0.000000 0.002339 0.000000
# 3 -0.002029 -0.004920 0.017839 0.000000 -0.002829 0.000000
# 4 0.000000 0.000000 0.000000 0.034526 0.000000 -0.001200
# 5 0.004208 0.002339 -0.002829 0.000000 0.031640 0.000000
# 6 0.000000 0.000000 0.000000 -0.001200 0.000000 0.041764
#
#
# Mechanical properties :
#
#
# Convention : Reuss Voigt Hill
#
# Bulk Modulus (GPa) = 41.82102 44.65042 43.23572
# Shear Modulus (GPa) = 28.27963 29.93164 29.10564
#
# Velocity S-wave (km/s) = 3.67752 3.78341 3.73084
# Velocity P-wave (km/s) = 6.16703 6.35915 6.26383
#
# Compressibility (1/GPa) = 0.02391142
#
# Stress axis : x y z
#
# Youngs Moduli (GPa) = 81.05090 81.75812 56.05645
#
# Poissons Ratio (x) = 0.18804 0.11373
# Poissons Ratio (y) = 0.18641 0.27577
# Poissons Ratio (z) = 0.16444 0.40221
#
# Static dielectric constant tensor:
#      x y z
#    x 3.941530 0.000000 -0.140240 
#    y 0.000000 3.688950 0.000000 
#    z -0.140240 0.000000 3.815250 
# 
# 
# High freq. dielectric constant tensor:
#      x y z
#    x 1.835820 0.000000 -0.010000 
#    y 0.000000 1.819110 0.000000 
#    z -0.010000 0.000000 1.810880 
# 
# From -- ./inp_files/39550.got.cif
#   From: 2010.06.25/outbox.cif.g09.slc.cpg/sg11_20_cif.got.tgz:39550.got - 2010.06.27 23:14:04.
