data_PCOD8076577
_publ_section_title
;
Structure prediction by ZEFSAII (Michael W. Deem and Ramdas Pophale) SiO2 
 PCOD8076577
Probable space group: P 21/M
;
_chemical_formula_sum "Si O2"
_cell_formula_units_Z 32
_cell_length_a 10.876057
_cell_length_b 24.243068
_cell_length_c 6.492873
_cell_angle_alpha 90.000000
_cell_angle_beta 104.903784
_cell_angle_gamma 90.000000
_cell_volume 1654.377068
_symmetry_space_group_name_H-M "P 21/M"
_symmetry_group_IT_number 11
_symmetry_cell_setting 'monoclinic'
loop_
_space_group_symop_operation_xyz
x,y,z
-x,1/2+y,-z
-x,-y,-z
x,1/2-y,z
loop_
_atom_site_type_symbol
_atom_site_label
_atom_site_fract_x
_atom_site_fract_y
_atom_site_fract_z
Si Si1 0.408347 0.858620 0.165781
Si Si2 0.327450 0.812281 0.734549
Si Si3 0.428101 0.444098 0.975786
Si Si4 0.214887 0.022681 0.595774
Si Si5 0.756401 0.907590 0.778368
Si Si6 0.031973 0.449260 0.864403
Si Si7 0.576850 0.812532 0.586655
Si Si8 0.775002 0.094180 0.579382
O O1 0.473943 0.895642 0.020842
O O2 0.513657 0.824904 0.337828
O O3 0.325238 0.896457 0.280726
O O4 0.323011 0.819020 0.982264
O O5 0.284494 0.750000 0.661069
O O6 0.471315 0.822733 0.716512
O O7 0.229100 0.853640 0.577865
O O8 0.326668 0.443200 0.749259
O O9 0.500000 0.500000 0.000000
O O10 0.363615 0.438678 0.171382
O O11 0.183901 0.055243 0.374862
O O12 0.091206 0.022244 0.687246
O O13 0.259938 0.960455 0.564995
O O14 0.704663 0.848388 0.681048
O O15 0.871186 0.904612 0.993173
O O16 0.911472 0.413284 0.744574
O O17 0.000000 0.500000 0.000000
O O18 0.625472 0.750000 0.607969
#
# Coordination Sequence:
#
# PCOD8076577 Si02
#       8
#     4   4   4   4   4   4   4   4
#     4  11  21  36  61  92 122 156 198 248 305 364
#     4  10  22  40  62  88 123 160 201 255 305 354
#     4  11  22  32  55  91 127 156 195 241 311 368
#     4  11  23  38  61  88 126 159 199 250 301 364
#     4  11  22  39  59  89 123 161 202 250 301 358
#     4  11  25  41  61  89 120 165 208 242 300 367
#     4  10  21  39  61  89 121 161 205 247 304 364
#     4  11  24  38  62  90 121 165 205 245 302 365
#
# _framework density 19.342628000000001
#
# number of rings (size 3 to 8) (size 9 to 14) (size 15 to 20)
#    0.000    1.250    3.750    2.250    5.250    1.500 
#    0.000    0.625    0.000    2.250    0.000    0.000 
#    0.000    0.000    0.000    0.000    0.000    0.000 
#
# Total GULP energy -396737.576850 kJ/mol
# GULP energy per Si atom -12398.049277 kJ/mol
# Density = 1.929860 g / cm^3
# Si number density = 19.342628 Si / 1000 Ang^3
#
#
#
# Elastic Constant Matrix: (Units=GPa)
#
#
# Indices 1 2 3 4 5 6 
#
# 1 79.7221 43.8384 42.7434 0.0000 -4.0461 0.0000
# 2 43.8384 133.9684 57.5948 0.0000 5.2126 0.0000
# 3 42.7434 57.5948 116.6976 0.0000 -3.9072 0.0000
# 4 0.0000 0.0000 0.0000 26.0401 0.0000 2.4643
# 5 -4.0461 5.2126 -3.9072 0.0000 38.8878 0.0000
# 6 0.0000 0.0000 0.0000 2.4643 0.0000 20.2575
#
#
#
# Elastic Compliance Matrix: (Units=1/GPa)
#
#
# Indices 1 2 3 4 5 6 
#
# 1 0.017032 -0.003795 -0.004303 0.000000 0.001848 0.000000
# 2 -0.003795 0.010440 -0.003836 0.000000 -0.002180 0.000000
# 3 -0.004303 -0.003836 0.012081 0.000000 0.001280 0.000000
# 4 0.000000 0.000000 0.000000 0.038850 0.000000 -0.004726
# 5 0.001848 -0.002180 0.001280 0.000000 0.026328 0.000000
# 6 0.000000 0.000000 0.000000 -0.004726 0.000000 0.049939
#
#
# Mechanical properties :
#
#
# Convention : Reuss Voigt Hill
#
# Bulk Modulus (GPa) = 63.75535 68.74903 66.25219
# Shear Modulus (GPa) = 27.20854 29.45118 28.32986
#
# Velocity S-wave (km/s) = 3.75462 3.90629 3.83120
# Velocity P-wave (km/s) = 7.19922 7.48100 7.34146
#
# Compressibility (1/GPa) = 0.01568496
#
# Stress axis : x y z
#
# Youngs Moduli (GPa) = 58.71472 95.78490 82.77331
#
# Poissons Ratio (x) = 0.36351 0.35620
# Poissons Ratio (y) = 0.22283 0.31748
# Poissons Ratio (z) = 0.25267 0.36738
#
# Static dielectric constant tensor:
#      x y z
#    x 3.519650 0.000000 0.221500 
#    y 0.000000 3.341730 0.000000 
#    z 0.221500 0.000000 4.266470 
# 
# 
# High freq. dielectric constant tensor:
#      x y z
#    x 1.734110 0.000000 -0.004780 
#    y 0.000000 1.742630 0.000000 
#    z -0.004780 0.000000 1.774830 
# 
# From -- ./inp_files/5473.got.cif
#   From: 2010.06.25/outbox.cif.g09.slc.cpg/sg11_3_cif.got.tgz:5473.got - 2010.06.27 23:14:04.
