data_PCOD8076767
_publ_section_title
;
Structure prediction by ZEFSAII (Michael W. Deem and Ramdas Pophale) SiO2 
 PCOD8076767
Probable space group: P 21/M
;
_chemical_formula_sum "Si O2"
_cell_formula_units_Z 20
_cell_length_a 8.657854
_cell_length_b 18.273428
_cell_length_c 12.243794
_cell_angle_alpha 90.000000
_cell_angle_beta 148.096957
_cell_angle_gamma 90.000000
_cell_volume 1023.711702
_symmetry_space_group_name_H-M "P 21/M"
_symmetry_group_IT_number 11
_symmetry_cell_setting 'monoclinic'
loop_
_space_group_symop_operation_xyz
x,y,z
-x,1/2+y,-z
-x,-y,-z
x,1/2-y,z
loop_
_atom_site_type_symbol
_atom_site_label
_atom_site_fract_x
_atom_site_fract_y
_atom_site_fract_z
Si Si1 0.312562 0.539715 0.689237
Si Si2 0.521187 0.668447 0.394300
Si Si3 0.756314 0.086135 0.968871
Si Si4 0.428001 0.068246 0.383212
Si Si5 0.800502 0.167291 0.215972
O O1 0.559979 0.484065 0.879424
O O2 0.374157 0.568407 0.604983
O O3 0.336553 0.609921 0.782017
O O4 0.000000 0.500000 0.500000
O O5 0.394189 0.750000 0.314271
O O6 0.338500 0.618815 0.203267
O O7 0.493032 0.641024 0.501793
O O8 0.855046 0.665307 0.557186
O O9 0.720486 0.144761 0.044339
O O10 0.088270 0.062496 0.150207
O O11 0.500000 0.000000 0.500000
O O12 0.680970 0.250000 0.164101
#
# Coordination Sequence:
#
# PCOD8076767 Si02
#       5
#     4   4   4   4   4
#     4  12  22  40  65  93 124 160 206 256 308 361
#     4  10  21  40  64  89 122 165 206 249 305 367
#     4  11  21  41  66  88 120 167 209 249 302 370
#     4  11  23  40  64  91 122 158 208 256 299 363
#     4  10  22  39  60  91 128 161 202 253 312 369
#
# _framework density 19.536750000000001
#
# number of rings (size 3 to 8) (size 9 to 14) (size 15 to 20)
#    0.000    1.200    4.000    3.000    0.000    1.600 
#    0.000    0.000    0.000    0.000    0.000    0.000 
#    0.000    0.000    0.000    0.000    0.000    0.000 
#
# Total GULP energy -248052.366321 kJ/mol
# GULP energy per Si atom -12402.618316 kJ/mol
# Density = 1.949228 g / cm^3
# Si number density = 19.536750 Si / 1000 Ang^3
#
#
#
# Elastic Constant Matrix: (Units=GPa)
#
#
# Indices 1 2 3 4 5 6 
#
# 1 127.5322 56.0877 49.0239 0.0000 -1.5010 0.0000
# 2 56.0877 135.8309 50.1799 0.0000 3.4713 0.0000
# 3 49.0239 50.1799 116.9160 0.0000 -3.7919 0.0000
# 4 0.0000 0.0000 0.0000 24.0681 0.0000 -4.3449
# 5 -1.5010 3.4713 -3.7919 0.0000 22.0432 0.0000
# 6 0.0000 0.0000 0.0000 -4.3449 0.0000 33.4850
#
#
#
# Elastic Compliance Matrix: (Units=1/GPa)
#
#
# Indices 1 2 3 4 5 6 
#
# 1 0.010403 -0.003221 -0.002956 0.000000 0.000707 0.000000
# 2 -0.003221 0.009839 -0.002946 0.000000 -0.002275 0.000000
# 3 -0.002956 -0.002946 0.011128 0.000000 0.002177 0.000000
# 4 0.000000 0.000000 0.000000 0.042545 0.000000 0.005520
# 5 0.000707 -0.002275 0.002177 0.000000 0.046146 0.000000
# 6 0.000000 0.000000 0.000000 0.005520 0.000000 0.030580
#
#
# Mechanical properties :
#
#
# Convention : Reuss Voigt Hill
#
# Bulk Modulus (GPa) = 76.20816 76.76248 76.48532
# Shear Modulus (GPa) = 28.85799 30.91845 29.88822
#
# Velocity S-wave (km/s) = 3.84749 3.98248 3.91557
# Velocity P-wave (km/s) = 7.67006 7.77968 7.72507
#
# Compressibility (1/GPa) = 0.01312195
#
# Stress axis : x y z
#
# Youngs Moduli (GPa) = 96.12913 101.63953 89.86587
#
# Poissons Ratio (x) = 0.32742 0.26568
# Poissons Ratio (y) = 0.30967 0.26472
# Poissons Ratio (z) = 0.28419 0.29941
#
# Static dielectric constant tensor:
#      x y z
#    x 3.514300 0.000000 -0.192550 
#    y 0.000000 3.926570 0.000000 
#    z -0.192550 0.000000 3.750900 
# 
# 
# High freq. dielectric constant tensor:
#      x y z
#    x 1.754570 0.000000 -0.012460 
#    y 0.000000 1.771700 0.000000 
#    z -0.012460 0.000000 1.770240 
# 
# From -- ./inp_files/1874.got.cif
#   From: 2010.06.25/outbox.cif.g09.slc.cpg/sg11_1_cif.got.tgz:1874.got - 2010.06.27 23:14:04.
