data_PCOD8076334
_publ_section_title
;
Structure prediction by ZEFSAII (Michael W. Deem and Ramdas Pophale) SiO2 
 PCOD8076334
Probable space group: P 21/M
;
_chemical_formula_sum "Si O2"
_cell_formula_units_Z 32
_cell_length_a 29.137243
_cell_length_b 8.995004
_cell_length_c 12.671056
_cell_angle_alpha 90.000000
_cell_angle_beta 29.082466
_cell_angle_gamma 90.000000
_cell_volume 1614.208472
_symmetry_space_group_name_H-M "P 21/M"
_symmetry_group_IT_number 11
_symmetry_cell_setting 'monoclinic'
loop_
_space_group_symop_operation_xyz
x,y,z
-x,1/2+y,-z
-x,-y,-z
x,1/2-y,z
loop_
_atom_site_type_symbol
_atom_site_label
_atom_site_fract_x
_atom_site_fract_y
_atom_site_fract_z
Si Si1 0.712770 0.421268 0.544259
Si Si2 0.054204 0.077330 0.297334
Si Si3 0.435578 0.422173 0.044224
Si Si4 0.400020 0.577665 0.427871
Si Si5 0.083622 0.425031 0.562663
Si Si6 0.088364 0.922393 0.769967
Si Si7 0.225220 0.420125 0.088693
Si Si8 0.595643 0.073182 0.346657
O O1 0.682490 0.250000 0.613606
O O2 0.667544 0.503153 0.738102
O O3 0.671148 0.490428 0.518077
O O4 0.824993 0.441615 0.322747
O O5 0.026419 0.250000 0.347781
O O6 0.165434 0.058208 0.099878
O O7 0.000000 0.000000 0.500000
O O8 0.019077 0.995202 0.261599
O O9 0.424914 0.250000 0.091553
O O10 0.500000 0.500000 0.000000
O O11 0.488947 0.447268 0.825351
O O12 0.375918 0.750000 0.482615
O O13 0.383959 0.510047 0.576128
O O14 0.070055 0.250000 0.604216
O O15 0.116836 0.498197 0.604300
O O16 0.161817 0.463644 0.317290
O O17 0.066095 0.750000 0.793582
O O18 0.000000 0.000000 0.000000
O O19 0.258505 0.250000 0.032484
O O20 0.316984 0.524210 0.902281
O O21 0.584540 0.250000 0.365761
O O22 0.500000 0.000000 0.500000
#
# Coordination Sequence:
#
# PCOD8076334 Si02
#       8
#     4   4   4   4   4   4   4   4
#     4   9  19  37  58  81 109 142 185 233 279 335
#     4   9  17  32  56  85 115 145 184 236 287 338
#     4   9  16  30  54  81 108 138 177 225 273 327
#     4   8  17  35  56  78 106 142 180 220 275 335
#     4  10  21  38  60  84 115 154 192 234 285 341
#     4  11  24  40  58  83 117 151 188 237 289 345
#     4   9  20  38  58  83 113 146 188 236 283 336
#     4  11  23  38  56  79 111 150 189 231 281 339
#
# _framework density 19.823957
#
# number of rings (size 3 to 8) (size 9 to 14) (size 15 to 20)
#    0.000    2.500    0.000    3.375    0.000    6.000 
#    0.000   11.250    0.000    0.000    0.000    0.000 
#    0.000    0.000    0.000    0.000    0.000    0.000 
#
# Total GULP energy -396583.331952 kJ/mol
# GULP energy per Si atom -12393.229124 kJ/mol
# Density = 1.977884 g / cm^3
# Si number density = 19.823957 Si / 1000 Ang^3
#
#
#
# Elastic Constant Matrix: (Units=GPa)
#
#
# Indices 1 2 3 4 5 6 
#
# 1 108.8538 46.5992 53.8425 0.0000 -2.2366 0.0000
# 2 46.5992 105.9720 55.1300 0.0000 -7.3215 0.0000
# 3 53.8425 55.1300 109.1256 0.0000 -8.0420 0.0000
# 4 0.0000 0.0000 0.0000 34.0732 0.0000 -3.0077
# 5 -2.2366 -7.3215 -8.0420 0.0000 28.8232 0.0000
# 6 0.0000 0.0000 0.0000 -3.0077 0.0000 30.0632
#
#
#
# Elastic Compliance Matrix: (Units=1/GPa)
#
#
# Indices 1 2 3 4 5 6 
#
# 1 0.012946 -0.003264 -0.004825 0.000000 -0.001171 0.000000
# 2 -0.003264 0.013685 -0.005172 0.000000 0.001780 0.000000
# 3 -0.004825 -0.005172 0.014328 0.000000 0.002309 0.000000
# 4 0.000000 0.000000 0.000000 0.029610 0.000000 0.002962
# 5 -0.001171 0.001780 0.002309 0.000000 0.035700 0.000000
# 6 0.000000 0.000000 0.000000 0.002962 0.000000 0.033560
#
#
# Mechanical properties :
#
#
# Convention : Reuss Voigt Hill
#
# Bulk Modulus (GPa) = 69.26600 70.56606 69.91603
# Shear Modulus (GPa) = 29.21178 29.81726 29.51452
#
# Velocity S-wave (km/s) = 3.84286 3.88248 3.86272
# Velocity P-wave (km/s) = 7.39639 7.46806 7.43231
#
# Compressibility (1/GPa) = 0.01443710
#
# Stress axis : x y z
#
# Youngs Moduli (GPa) = 77.24153 73.07083 69.79432
#
# Poissons Ratio (x) = 0.23847 0.33678
# Poissons Ratio (y) = 0.25208 0.36100
# Poissons Ratio (z) = 0.37271 0.37795
#
# Static dielectric constant tensor:
#      x y z
#    x 3.858740 0.000000 -0.008420 
#    y 0.000000 3.780710 0.000000 
#    z -0.008420 0.000000 3.740820 
# 
# 
# High freq. dielectric constant tensor:
#      x y z
#    x 1.767170 0.000000 -0.005930 
#    y 0.000000 1.769050 0.000000 
#    z -0.005930 0.000000 1.764630 
# 
# From -- ./inp_files/45203.got.cif
#   From: 2010.06.25/outbox.cif.g09.slc.cpg/sg11_23_cif.got.tgz:45203.got - 2010.06.27 23:14:04.
