data_PCOD8076460
_publ_section_title
;
Structure prediction by ZEFSAII (Michael W. Deem and Ramdas Pophale) SiO2 
 PCOD8076460
Probable space group: P 21/M
;
_chemical_formula_sum "Si O2"
_cell_formula_units_Z 28
_cell_length_a 9.465889
_cell_length_b 8.753358
_cell_length_c 26.753846
_cell_angle_alpha 90.000000
_cell_angle_beta 41.178375
_cell_angle_gamma 90.000000
_cell_volume 1459.539073
_symmetry_space_group_name_H-M "P 21/M"
_symmetry_group_IT_number 11
_symmetry_cell_setting 'monoclinic'
loop_
_space_group_symop_operation_xyz
x,y,z
-x,1/2+y,-z
-x,-y,-z
x,1/2-y,z
loop_
_atom_site_type_symbol
_atom_site_label
_atom_site_fract_x
_atom_site_fract_y
_atom_site_fract_z
Si Si1 0.566278 0.431668 0.428719
Si Si2 0.868679 0.070431 0.079790
Si Si3 0.587574 0.415901 0.707112
Si Si4 0.220574 0.580403 0.450700
Si Si5 0.021593 0.069269 0.736868
Si Si6 0.371312 0.426226 0.210085
Si Si7 0.103781 0.427350 0.825935
O O1 0.500000 0.500000 0.500000
O O2 0.581945 0.250000 0.429162
O O3 0.377749 0.475851 0.441046
O O4 0.794530 0.492576 0.346716
O O5 0.887365 0.250000 0.072911
O O6 0.619513 0.019888 0.139211
O O7 0.978964 0.014822 0.102461
O O8 0.000000 0.000000 0.000000
O O9 0.589384 0.250000 0.733967
O O10 0.703925 0.400724 0.624945
O O11 0.697258 0.540621 0.714196
O O12 0.351147 0.467542 0.756679
O O13 0.199704 0.750000 0.480844
O O14 0.000000 0.500000 0.500000
O O15 0.063586 0.250000 0.723206
O O16 0.016996 0.012170 0.795784
O O17 0.783235 0.026980 0.782922
O O18 0.338814 0.250000 0.205333
O O19 0.049067 0.250000 0.847579
#
# Coordination Sequence:
#
# PCOD8076460 Si02
#       7
#     4   4   4   4   4   4   4
#     4  12  26  43  62  85 118 160 204 255 310 361
#     4  10  21  38  62  91 123 155 194 240 289 349
#     4   9  18  36  58  79 109 150 193 240 290 348
#     4  11  23  40  59  84 116 152 199 249 302 358
#     4  11  22  40  63  88 120 158 200 245 299 362
#     4  10  22  37  57  89 121 153 196 243 290 347
#     4   9  18  36  61  86 113 150 193 237 288 346
#
# _framework density 19.184138999999998
#
# number of rings (size 3 to 8) (size 9 to 14) (size 15 to 20)
#    0.000    1.714    1.429    3.000    2.000    4.000 
#    0.000    0.714    0.000    0.000    0.000    0.000 
#    0.000    0.000    0.000    0.000    0.000    0.000 
#
# Total GULP energy -346966.573911 kJ/mol
# GULP energy per Si atom -12391.663354 kJ/mol
# Density = 1.914048 g / cm^3
# Si number density = 19.184139 Si / 1000 Ang^3
#
#
#
# Elastic Constant Matrix: (Units=GPa)
#
#
# Indices 1 2 3 4 5 6 
#
# 1 133.4299 52.4224 66.8766 0.0000 7.3316 0.0000
# 2 52.4224 101.5376 46.3257 0.0000 7.0188 0.0000
# 3 66.8766 46.3257 84.3907 0.0000 22.3805 0.0000
# 4 0.0000 0.0000 0.0000 29.9903 0.0000 1.0465
# 5 7.3316 7.0188 22.3805 0.0000 25.8444 0.0000
# 6 0.0000 0.0000 0.0000 1.0465 0.0000 34.8498
#
#
#
# Elastic Compliance Matrix: (Units=1/GPa)
#
#
# Indices 1 2 3 4 5 6 
#
# 1 0.013746 -0.002384 -0.011322 0.000000 0.006553 0.000000
# 2 -0.002384 0.013798 -0.006323 0.000000 0.002404 0.000000
# 3 -0.011322 -0.006323 0.029838 0.000000 -0.020910 0.000000
# 4 0.000000 0.000000 0.000000 0.033379 0.000000 -0.001002
# 5 0.006553 0.002404 -0.020910 0.000000 0.054289 0.000000
# 6 0.000000 0.000000 0.000000 -0.001002 0.000000 0.028725
#
#
# Mechanical properties :
#
#
# Convention : Reuss Voigt Hill
#
# Bulk Modulus (GPa) = 57.72249 72.28973 65.00611
# Shear Modulus (GPa) = 22.76790 28.38579 25.57685
#
# Velocity S-wave (km/s) = 3.44875 3.85079 3.65530
# Velocity P-wave (km/s) = 6.78325 7.58520 7.19541
#
# Compressibility (1/GPa) = 0.01732427
#
# Stress axis : x y z
#
# Youngs Moduli (GPa) = 72.74804 72.47494 33.51402
#
# Poissons Ratio (x) = 0.17279 0.37946
# Poissons Ratio (y) = 0.17344 0.21189
# Poissons Ratio (z) = 0.82368 0.45822
#
# Static dielectric constant tensor:
#      x y z
#    x 3.608800 0.000000 0.237440 
#    y 0.000000 3.768240 0.000000 
#    z 0.237440 0.000000 3.436120 
# 
# 
# High freq. dielectric constant tensor:
#      x y z
#    x 1.754280 0.000000 0.009650 
#    y 0.000000 1.754690 0.000000 
#    z 0.009650 0.000000 1.736130 
# 
# From -- ./inp_files/29080.got.cif
#   From: 2010.06.25/outbox.cif.g09.slc.cpg/sg11_15_cif.got.tgz:29080.got - 2010.06.27 23:14:04.
