data_PCOD8076173
_publ_section_title
;
Structure prediction by ZEFSAII (Michael W. Deem and Ramdas Pophale) SiO2 
 PCOD8076173
Probable space group: P 21/M
;
_chemical_formula_sum "Si O2"
_cell_formula_units_Z 20
_cell_length_a 13.774418
_cell_length_b 8.779689
_cell_length_c 22.173389
_cell_angle_alpha 90.000000
_cell_angle_beta 159.150893
_cell_angle_gamma 90.000000
_cell_volume 954.382086
_symmetry_space_group_name_H-M "P 21/M"
_symmetry_group_IT_number 11
_symmetry_cell_setting 'monoclinic'
loop_
_space_group_symop_operation_xyz
x,y,z
-x,1/2+y,-z
-x,-y,-z
x,1/2-y,z
loop_
_atom_site_type_symbol
_atom_site_label
_atom_site_fract_x
_atom_site_fract_y
_atom_site_fract_z
Si Si1 0.276578 0.570668 0.185093
Si Si2 0.283208 0.569413 0.327235
Si Si3 0.164769 0.073658 0.541919
Si Si4 0.182422 0.078126 0.754573
Si Si5 0.202726 0.575685 0.892662
O O1 0.243003 0.750000 0.161258
O O2 0.351254 0.526083 0.297545
O O3 0.525374 0.513136 0.286855
O O4 0.000000 0.500000 0.000000
O O5 0.500000 0.500000 0.500000
O O6 0.270825 0.750000 0.329765
O O7 0.989353 0.492836 0.167440
O O8 0.172740 0.250000 0.560121
O O9 0.000000 0.000000 0.500000
O O10 0.006238 0.041672 0.388462
O O11 0.070208 0.250000 0.682251
O O12 0.173700 0.033566 0.818858
O O13 0.486962 0.068654 0.903937
O O14 0.120708 0.750000 0.829353
#
# Coordination Sequence:
#
# PCOD8076173 Si02
#       5
#     4   4   4   4   4
#     4  10  25  45  65  93 129 168 215 266 320 383
#     4  11  23  40  64  94 126 166 215 266 324 387
#     4  11  24  42  64  91 126 166 213 265 317 381
#     4  10  21  38  61  91 125 163 209 259 316 376
#     4  10  21  37  60  91 126 163 205 259 316 378
#
# _framework density 20.955967999999999
#
# number of rings (size 3 to 8) (size 9 to 14) (size 15 to 20)
#    0.000    1.600    0.000    3.600    2.800    7.200 
#    0.000    0.000    0.000    0.000    0.000    0.000 
#    0.000    0.000    0.000    0.000    0.000    0.000 
#
# Total GULP energy -247993.794303 kJ/mol
# GULP energy per Si atom -12399.689715 kJ/mol
# Density = 2.090827 g / cm^3
# Si number density = 20.955968 Si / 1000 Ang^3
#
#
#
# Elastic Constant Matrix: (Units=GPa)
#
#
# Indices 1 2 3 4 5 6 
#
# 1 128.5670 51.0222 69.8102 0.0000 27.3477 0.0000
# 2 51.0222 74.0621 44.7501 0.0000 16.0716 0.0000
# 3 69.8102 44.7501 127.5047 0.0000 12.5455 0.0000
# 4 0.0000 0.0000 0.0000 38.0130 0.0000 -1.2325
# 5 27.3477 16.0716 12.5455 0.0000 39.0588 0.0000
# 6 0.0000 0.0000 0.0000 -1.2325 0.0000 36.9727
#
#
#
# Elastic Compliance Matrix: (Units=1/GPa)
#
#
# Indices 1 2 3 4 5 6 
#
# 1 0.013927 -0.005139 -0.005236 0.000000 -0.005955 0.000000
# 2 -0.005139 0.020159 -0.003923 0.000000 -0.003437 0.000000
# 3 -0.005236 -0.003923 0.011944 0.000000 0.001444 0.000000
# 4 0.000000 0.000000 0.000000 0.026335 0.000000 0.000878
# 5 -0.005955 -0.003437 0.001444 0.000000 0.030722 0.000000
# 6 0.000000 0.000000 0.000000 0.000878 0.000000 0.027076
#
#
# Mechanical properties :
#
#
# Convention : Reuss Voigt Hill
#
# Bulk Modulus (GPa) = 57.35785 73.47766 65.41775
# Shear Modulus (GPa) = 30.38201 33.77897 32.08049
#
# Velocity S-wave (km/s) = 3.81176 4.01921 3.91686
# Velocity P-wave (km/s) = 6.84125 7.52846 7.19307
#
# Compressibility (1/GPa) = 0.01743441
#
# Stress axis : x y z
#
# Youngs Moduli (GPa) = 71.80295 49.60654 83.72103
#
# Poissons Ratio (x) = 0.25491 0.43834
# Poissons Ratio (y) = 0.36897 0.32848
# Poissons Ratio (z) = 0.37594 0.19463
#
# Static dielectric constant tensor:
#      x y z
#    x 3.978340 0.000000 0.222890 
#    y 0.000000 3.446460 0.000000 
#    z 0.222890 0.000000 4.081880 
# 
# 
# High freq. dielectric constant tensor:
#      x y z
#    x 1.827440 0.000000 0.012960 
#    y 0.000000 1.826040 0.000000 
#    z 0.012960 0.000000 1.825840 
# 
# From -- ./inp_files/55482.got.cif
#   From: 2010.06.25/outbox.cif.g09.slc.cpg/sg11_28_cif.got.tgz:55482.got - 2010.06.27 23:14:04.
