data_PCOD8076643
_publ_section_title
;
Structure prediction by ZEFSAII (Michael W. Deem and Ramdas Pophale) SiO2 
 PCOD8076643
Probable space group: P 21/M
;
_chemical_formula_sum "Si O2"
_cell_formula_units_Z 32
_cell_length_a 11.802211
_cell_length_b 8.627821
_cell_length_c 28.379161
_cell_angle_alpha 90.000000
_cell_angle_beta 147.545337
_cell_angle_gamma 90.000000
_cell_volume 1550.746056
_symmetry_space_group_name_H-M "P 21/M"
_symmetry_group_IT_number 11
_symmetry_cell_setting 'monoclinic'
loop_
_space_group_symop_operation_xyz
x,y,z
-x,1/2+y,-z
-x,-y,-z
x,1/2-y,z
loop_
_atom_site_type_symbol
_atom_site_label
_atom_site_fract_x
_atom_site_fract_y
_atom_site_fract_z
Si Si1 0.955112 0.429148 0.084713
Si Si2 0.468575 0.571637 0.111285
Si Si3 0.668033 0.071433 0.831689
Si Si4 0.051584 0.569784 0.406504
Si Si5 0.611707 0.569955 0.415263
Si Si6 0.084676 0.929863 0.736651
Si Si7 0.292271 0.570112 0.646450
Si Si8 0.843435 0.929725 0.746335
O O1 0.000412 0.250000 0.088683
O O2 0.091237 0.533198 0.096740
O O3 0.008992 0.469771 0.157491
O O4 0.708590 0.466781 0.989936
O O5 0.541751 0.750000 0.134520
O O6 0.370187 0.532700 0.127433
O O7 0.667762 0.463629 0.171409
O O8 0.616277 0.250000 0.802331
O O9 0.522319 0.963970 0.748129
O O10 0.009551 0.750000 0.399603
O O11 0.286835 0.523143 0.505292
O O12 0.023653 0.530522 0.342030
O O13 0.883020 0.474055 0.377302
O O14 0.640315 0.750000 0.435203
O O15 0.739339 0.525217 0.412780
O O16 0.367079 0.530091 0.324476
O O17 0.052990 0.750000 0.713814
O O18 0.972399 0.977797 0.745540
O O19 0.275533 0.750000 0.628099
O O20 0.778674 0.750000 0.723148
#
# Coordination Sequence:
#
# PCOD8076643 Si02
#       8
#     4   4   4   4   4   4   4   4
#     4  10  21  39  63  90 125 169 209 255 310 369
#     4  10  22  39  61  91 128 166 208 257 312 369
#     4  11  21  35  59  93 128 164 204 253 307 372
#     4  12  25  43  66  93 126 163 205 256 310 372
#     4  12  25  42  66  96 127 162 205 253 308 372
#     4  11  24  42  64  90 122 165 213 262 313 367
#     4  12  23  39  64  94 129 166 201 248 308 372
#     4  10  23  43  64  89 124 165 213 262 310 365
#
# _framework density 20.635228999999999
#
# number of rings (size 3 to 8) (size 9 to 14) (size 15 to 20)
#    0.000    1.000    2.500    4.875    0.000    3.000 
#    0.000    0.000    0.000    0.000    0.000    0.000 
#    0.000    0.000    0.000    0.000    0.000    0.000 
#
# Total GULP energy -397042.193175 kJ/mol
# GULP energy per Si atom -12407.568537 kJ/mol
# Density = 2.058826 g / cm^3
# Si number density = 20.635229 Si / 1000 Ang^3
#
#
#
# Elastic Constant Matrix: (Units=GPa)
#
#
# Indices 1 2 3 4 5 6 
#
# 1 110.4973 29.5621 29.9581 0.0000 -7.5389 0.0000
# 2 29.5621 72.8564 30.2086 0.0000 -2.4459 0.0000
# 3 29.9581 30.2086 113.1866 0.0000 -18.1975 0.0000
# 4 0.0000 0.0000 0.0000 33.9199 0.0000 0.0516
# 5 -7.5389 -2.4459 -18.1975 0.0000 14.3591 0.0000
# 6 0.0000 0.0000 0.0000 0.0516 0.0000 24.1694
#
#
#
# Elastic Compliance Matrix: (Units=1/GPa)
#
#
# Indices 1 2 3 4 5 6 
#
# 1 0.010605 -0.003652 -0.001302 0.000000 0.003295 0.000000
# 2 -0.003652 0.016814 -0.004230 0.000000 -0.004415 0.000000
# 3 -0.001302 -0.004230 0.012663 0.000000 0.014644 0.000000
# 4 0.000000 0.000000 0.000000 0.029481 0.000000 -0.000063
# 5 0.003295 -0.004415 0.014644 0.000000 0.089179 0.000000
# 6 0.000000 0.000000 0.000000 -0.000063 0.000000 0.041375
#
#
# Mechanical properties :
#
#
# Convention : Reuss Voigt Hill
#
# Bulk Modulus (GPa) = 46.05936 52.88866 49.47401
# Shear Modulus (GPa) = 22.15095 28.27710 25.21403
#
# Velocity S-wave (km/s) = 3.27991 3.70581 3.49935
# Velocity P-wave (km/s) = 6.05912 6.63300 6.35254
#
# Compressibility (1/GPa) = 0.02171111
#
# Stress axis : x y z
#
# Youngs Moduli (GPa) = 94.29429 59.47594 78.96980
#
# Poissons Ratio (x) = 0.21724 0.10284
# Poissons Ratio (y) = 0.34441 0.33408
# Poissons Ratio (z) = 0.12280 0.25161
#
# Static dielectric constant tensor:
#      x y z
#    x 3.676760 0.000000 -0.116370 
#    y 0.000000 3.706020 0.000000 
#    z -0.116370 0.000000 3.913660 
# 
# 
# High freq. dielectric constant tensor:
#      x y z
#    x 1.801180 0.000000 -0.006160 
#    y 0.000000 1.808630 0.000000 
#    z -0.006160 0.000000 1.820390 
# 
# From -- ./inp_files/73209.got.cif
#   From: 2010.06.25/outbox.cif.g09.slc.cpg/sg11_37_cif.got.tgz:73209.got - 2010.06.27 23:14:04.
