data_PCOD8076374
_publ_section_title
;
Structure prediction by ZEFSAII (Michael W. Deem and Ramdas Pophale) SiO2 
 PCOD8076374
Probable space group: P 21/M
;
_chemical_formula_sum "Si O2"
_cell_formula_units_Z 28
_cell_length_a 8.526016
_cell_length_b 14.524658
_cell_length_c 17.022239
_cell_angle_alpha 90.000000
_cell_angle_beta 39.619875
_cell_angle_gamma 90.000000
_cell_volume 1344.247344
_symmetry_space_group_name_H-M "P 21/M"
_symmetry_group_IT_number 11
_symmetry_cell_setting 'monoclinic'
loop_
_space_group_symop_operation_xyz
x,y,z
-x,1/2+y,-z
-x,-y,-z
x,1/2-y,z
loop_
_atom_site_type_symbol
_atom_site_label
_atom_site_fract_x
_atom_site_fract_y
_atom_site_fract_z
Si Si1 0.779557 0.431022 0.064067
Si Si2 0.257734 0.000809 0.489050
Si Si3 0.811269 0.011552 0.310022
Si Si4 0.481377 0.594483 0.137403
Si Si5 0.863514 0.356345 0.590070
Si Si6 0.126072 0.643231 0.140829
Si Si7 0.997365 0.350404 0.118857
O O1 0.528763 0.489050 0.147892
O O2 0.772071 0.365590 0.143562
O O3 0.828325 0.369745 0.968831
O O4 0.000000 0.500000 0.000000
O O5 0.533209 0.036050 0.396059
O O6 0.115232 0.088754 0.509579
O O7 0.135120 0.971763 0.618969
O O8 0.263556 0.910230 0.432720
O O9 0.994944 0.076161 0.189888
O O10 0.871307 0.905913 0.263920
O O11 0.317695 0.645294 0.265506
O O12 0.344157 0.596205 0.106714
O O13 0.742398 0.644978 0.026852
O O14 0.920644 0.250000 0.545458
O O15 0.103391 0.750000 0.170522
O O16 0.964395 0.250000 0.169061
#
# Coordination Sequence:
#
# PCOD8076374 Si02
#       7
#     4   4   4   4   4   4   4
#     4  10  21  38  60  91 133 165 198 252 318 383
#     4  10  25  43  64  92 125 171 220 258 323 368
#     4  11  23  44  64  90 130 172 211 270 312 381
#     4  11  22  40  65  96 131 162 205 268 324 376
#     4  11  23  42  67  95 125 164 217 270 315 380
#     4  12  23  38  64  98 128 168 214 258 315 382
#     4  11  23  40  64  97 129 168 211 260 327 385
#
# _framework density 20.829498999999998
#
# number of rings (size 3 to 8) (size 9 to 14) (size 15 to 20)
#    0.000    1.143    4.286    3.000    2.000    1.714 
#    0.000    2.857    0.000    0.857    0.000    0.000 
#    0.000    0.000    0.000    0.000    0.000    0.000 
#
# Total GULP energy -347159.969729 kJ/mol
# GULP energy per Si atom -12398.570347 kJ/mol
# Density = 2.078209 g / cm^3
# Si number density = 20.829499 Si / 1000 Ang^3
#
#
#
# Elastic Constant Matrix: (Units=GPa)
#
#
# Indices 1 2 3 4 5 6 
#
# 1 72.2373 27.1608 9.3567 0.0000 15.0379 0.0000
# 2 27.1608 119.3985 34.7416 0.0000 -3.0859 0.0000
# 3 9.3567 34.7416 55.9453 0.0000 10.0323 0.0000
# 4 0.0000 0.0000 0.0000 20.0225 0.0000 -0.4235
# 5 15.0379 -3.0859 10.0323 0.0000 32.7586 0.0000
# 6 0.0000 0.0000 0.0000 -0.4235 0.0000 20.6340
#
#
#
# Elastic Compliance Matrix: (Units=1/GPa)
#
#
# Indices 1 2 3 4 5 6 
#
# 1 0.017202 -0.004593 0.001554 0.000000 -0.008805 0.000000
# 2 -0.004593 0.011750 -0.007518 0.000000 0.005518 0.000000
# 3 0.001554 -0.007518 0.023848 0.000000 -0.008725 0.000000
# 4 0.000000 0.000000 0.000000 0.049966 0.000000 0.001026
# 5 -0.008805 0.005518 -0.008725 0.000000 0.037760 0.000000
# 6 0.000000 0.000000 0.000000 0.001026 0.000000 0.048485
#
#
# Mechanical properties :
#
#
# Convention : Reuss Voigt Hill
#
# Bulk Modulus (GPa) = 31.55931 43.34438 37.45184
# Shear Modulus (GPa) = 22.65658 26.43782 24.54720
#
# Velocity S-wave (km/s) = 3.30163 3.56652 3.43663
# Velocity P-wave (km/s) = 5.45147 6.14934 5.81089
#
# Compressibility (1/GPa) = 0.03168637
#
# Stress axis : x y z
#
# Youngs Moduli (GPa) = 58.13333 85.10444 41.93228
#
# Poissons Ratio (x) = 0.39087 -0.06517
# Poissons Ratio (y) = 0.26700 0.31525
# Poissons Ratio (z) = -0.09035 0.63983
#
# Static dielectric constant tensor:
#      x y z
#    x 4.178940 0.000000 0.107780 
#    y 0.000000 3.986290 0.000000 
#    z 0.107780 0.000000 3.661460 
# 
# 
# High freq. dielectric constant tensor:
#      x y z
#    x 1.828860 0.000000 0.009610 
#    y 0.000000 1.807610 0.000000 
#    z 0.009610 0.000000 1.803160 
# 
# From -- ./inp_files/58115.got.cif
#   From: 2010.06.25/outbox.cif.g09.slc.cpg/sg11_30_cif.got.tgz:58115.got - 2010.06.27 23:14:04.
