data_PCOD8076892
_publ_section_title
;
Structure prediction by ZEFSAII (Michael W. Deem and Ramdas Pophale) SiO2 
 PCOD8076892
Probable space group: P 21/M
;
_chemical_formula_sum "Si O2"
_cell_formula_units_Z 20
_cell_length_a 7.332450
_cell_length_b 18.695278
_cell_length_c 9.582986
_cell_angle_alpha 90.000000
_cell_angle_beta 49.590255
_cell_angle_gamma 90.000000
_cell_volume 1000.255091
_symmetry_space_group_name_H-M "P 21/M"
_symmetry_group_IT_number 11
_symmetry_cell_setting 'monoclinic'
loop_
_space_group_symop_operation_xyz
x,y,z
-x,1/2+y,-z
-x,-y,-z
x,1/2-y,z
loop_
_atom_site_type_symbol
_atom_site_label
_atom_site_fract_x
_atom_site_fract_y
_atom_site_fract_z
Si Si1 0.344931 0.026074 0.347954
Si Si2 0.158767 0.929885 0.929022
Si Si3 0.882676 0.831551 0.867771
Si Si4 0.097959 0.889762 0.502201
Si Si5 0.610333 0.410923 0.892769
O O1 0.597675 0.054874 0.280816
O O2 0.164037 0.091904 0.428751
O O3 0.222353 0.963201 0.501203
O O4 0.405369 0.992568 0.161903
O O5 0.015220 0.863507 0.936234
O O6 0.222271 0.907863 0.055023
O O7 0.000000 0.000000 0.000000
O O8 0.815217 0.750000 0.932550
O O9 0.064844 0.834457 0.644880
O O10 0.647670 0.877224 0.947754
O O11 0.261669 0.861835 0.292418
#
# Coordination Sequence:
#
# PCOD8076892 Si02
#       5
#     4   4   4   4   4
#     4   9  18  36  67  95 118 153 208 260 324 359
#     4  12  21  37  69  99 126 158 214 274 316 370
#     4  12  26  42  60  90 130 175 212 256 322 391
#     4   9  20  40  64  90 123 159 209 258 314 380
#     4  10  21  42  64  89 125 165 201 260 319 376
#
# _framework density 19.994900999999999
#
# number of rings (size 3 to 8) (size 9 to 14) (size 15 to 20)
#    1.200    0.400    4.000    1.800    0.000    2.400 
#    3.600    0.000    0.000    0.000    0.000    0.000 
#    0.000    0.000    0.000    0.000    0.000    0.000 
#
# Total GULP energy -247812.182716 kJ/mol
# GULP energy per Si atom -12390.609136 kJ/mol
# Density = 1.994939 g / cm^3
# Si number density = 19.994901 Si / 1000 Ang^3
#
#
#
# Elastic Constant Matrix: (Units=GPa)
#
#
# Indices 1 2 3 4 5 6 
#
# 1 102.4502 29.8673 29.9116 0.0000 9.1284 0.0000
# 2 29.8673 71.7574 3.5556 0.0000 5.2049 0.0000
# 3 29.9116 3.5556 75.8429 0.0000 -2.0593 0.0000
# 4 0.0000 0.0000 0.0000 19.3367 0.0000 -0.6794
# 5 9.1284 5.2049 -2.0593 0.0000 31.0087 0.0000
# 6 0.0000 0.0000 0.0000 -0.6794 0.0000 16.5177
#
#
#
# Elastic Compliance Matrix: (Units=1/GPa)
#
#
# Indices 1 2 3 4 5 6 
#
# 1 0.012932 -0.004896 -0.004961 0.000000 -0.003314 0.000000
# 2 -0.004896 0.016002 0.001149 0.000000 -0.001168 0.000000
# 3 -0.004961 0.001149 0.015149 0.000000 0.002274 0.000000
# 4 0.000000 0.000000 0.000000 0.051790 0.000000 0.002130
# 5 -0.003314 -0.001168 0.002274 0.000000 0.033572 0.000000
# 6 0.000000 0.000000 0.000000 0.002130 0.000000 0.060629
#
#
# Mechanical properties :
#
#
# Convention : Reuss Voigt Hill
#
# Bulk Modulus (GPa) = 37.49912 41.85772 39.67842
# Shear Modulus (GPa) = 23.10768 25.82036 24.46402
#
# Velocity S-wave (km/s) = 3.40322 3.59743 3.50167
# Velocity P-wave (km/s) = 5.85129 6.18344 6.01966
#
# Compressibility (1/GPa) = 0.02666729
#
# Stress axis : x y z
#
# Youngs Moduli (GPa) = 77.32793 62.49361 66.00904
#
# Poissons Ratio (x) = 0.30599 0.32745
# Poissons Ratio (y) = 0.37863 -0.07586
# Poissons Ratio (z) = 0.38360 -0.07182
#
# Static dielectric constant tensor:
#      x y z
#    x 3.499040 0.000000 -0.192520 
#    y 0.000000 3.195260 0.000000 
#    z -0.192520 0.000000 3.855960 
# 
# 
# High freq. dielectric constant tensor:
#      x y z
#    x 1.773740 0.000000 -0.017080 
#    y 0.000000 1.732990 0.000000 
#    z -0.017080 0.000000 1.795010 
# 
# From -- ./inp_files/10215.got.cif
#   From: 2010.06.25/outbox.cif.g09.slc.cpg/sg11_6_cif.got.tgz:10215.got - 2010.06.27 23:14:04.
