data_PCOD8076917
_publ_section_title
;
Structure prediction by ZEFSAII (Michael W. Deem and Ramdas Pophale) SiO2 
 PCOD8076917
Probable space group: P 21/M
;
_chemical_formula_sum "Si O2"
_cell_formula_units_Z 22
_cell_length_a 10.431514
_cell_length_b 13.096642
_cell_length_c 8.967570
_cell_angle_alpha 90.000000
_cell_angle_beta 110.115084
_cell_angle_gamma 90.000000
_cell_volume 1150.401400
_symmetry_space_group_name_H-M "P 21/M"
_symmetry_group_IT_number 11
_symmetry_cell_setting 'monoclinic'
loop_
_space_group_symop_operation_xyz
x,y,z
-x,1/2+y,-z
-x,-y,-z
x,1/2-y,z
loop_
_atom_site_type_symbol
_atom_site_label
_atom_site_fract_x
_atom_site_fract_y
_atom_site_fract_z
Si Si1 0.203977 0.250000 0.927144
Si Si2 0.126614 0.053922 0.395474
Si Si3 0.852687 0.952241 0.931498
Si Si4 0.365648 0.566286 0.962009
Si Si5 0.771810 0.750000 0.393100
Si Si6 0.159887 0.626190 0.633173
Si Si7 0.522322 0.750000 0.116161
O O1 0.147815 0.250000 0.734013
O O2 0.371163 0.250000 0.983379
O O3 0.141974 0.342425 0.992810
O O4 0.192911 0.052684 0.258791
O O5 0.196183 0.145159 0.513080
O O6 0.966553 0.083968 0.319103
O O7 0.154309 0.942106 0.479667
O O8 0.745454 0.015281 0.980843
O O9 0.000000 0.000000 0.000000
O O10 0.416702 0.659774 0.076623
O O11 0.500000 0.500000 0.000000
O O12 0.299588 0.600210 0.777155
O O13 0.608868 0.750000 0.302881
O O14 0.148623 0.750000 0.598297
#
# Coordination Sequence:
#
# PCOD8076917 Si02
#       7
#     2   4   4   4   2   4   2
#     4  10  23  42  67  96 129 176 219 267 339 396
#     4  11  23  40  65  99 137 172 221 281 342 395
#     4  12  25  40  67 106 133 169 224 287 331 391
#     4  12  22  44  69  94 132 178 230 265 334 412
#     4  10  21  44  69  96 127 185 223 264 349 413
#     4  11  23  40  66  97 133 182 222 274 337 404
#     4  10  22  40  72  92 120 187 224 261 320 423
#
# _framework density 19.123757999999999
#
# number of rings (size 3 to 8) (size 9 to 14) (size 15 to 20)
#    0.545    0.364    5.455    2.727    2.545    0.727 
#    1.636    3.636    0.000    0.000    0.000    0.000 
#    0.000    0.000    0.000    0.000    0.000    0.000 
#
# Total GULP energy -272588.051247 kJ/mol
# GULP energy per Si atom -12390.365966 kJ/mol
# Density = 1.908023 g / cm^3
# Si number density = 19.123758 Si / 1000 Ang^3
#
#
#
# Elastic Constant Matrix: (Units=GPa)
#
#
# Indices 1 2 3 4 5 6 
#
# 1 107.7570 64.8680 42.8898 0.0000 8.1128 0.0000
# 2 64.8680 174.6816 62.4841 0.0000 -1.6173 0.0000
# 3 42.8898 62.4841 122.4168 0.0000 -3.7591 0.0000
# 4 0.0000 0.0000 0.0000 51.6065 0.0000 38.5540
# 5 8.1128 -1.6173 -3.7591 0.0000 42.7839 0.0000
# 6 0.0000 0.0000 0.0000 38.5540 0.0000 113.1408
#
#
#
# Elastic Compliance Matrix: (Units=1/GPa)
#
#
# Indices 1 2 3 4 5 6 
#
# 1 0.012862 -0.003865 -0.002620 0.000000 -0.002815 0.000000
# 2 -0.003865 0.008165 -0.002789 0.000000 0.000797 0.000000
# 3 -0.002620 -0.002789 0.010551 0.000000 0.001318 0.000000
# 4 0.000000 0.000000 0.000000 0.025995 0.000000 -0.008858
# 5 -0.002815 0.000797 0.001318 0.000000 0.024053 0.000000
# 6 0.000000 0.000000 0.000000 -0.008858 0.000000 0.011857
#
#
# Mechanical properties :
#
#
# Convention : Reuss Voigt Hill
#
# Bulk Modulus (GPa) = 76.74839 82.81544 79.78191
# Shear Modulus (GPa) = 42.96518 57.14712 50.05615
#
# Velocity S-wave (km/s) = 4.74507 5.47245 5.12169
# Velocity P-wave (km/s) = 8.38096 9.12848 8.76270
#
# Compressibility (1/GPa) = 0.01302959
#
# Stress axis : x y z
#
# Youngs Moduli (GPa) = 77.75124 122.47405 94.78045
#
# Poissons Ratio (x) = 0.47337 0.24830
# Poissons Ratio (y) = 0.30052 0.26434
# Poissons Ratio (z) = 0.20369 0.34157
#
# Static dielectric constant tensor:
#      x y z
#    x 3.734130 0.000000 0.088920 
#    y 0.000000 3.658580 0.000000 
#    z 0.088920 0.000000 3.607260 
# 
# 
# High freq. dielectric constant tensor:
#      x y z
#    x 1.732910 0.000000 0.014700 
#    y 0.000000 1.767880 0.000000 
#    z 0.014700 0.000000 1.742490 
# 
# From -- ./inp_files/17047.got.cif
#   From: 2010.06.25/outbox.cif.g09.slc.cpg/sg11_9_cif.got.tgz:17047.got - 2010.06.27 23:14:04.
