data_PCOD8076094
_publ_section_title
;
Structure prediction by ZEFSAII (Michael W. Deem and Ramdas Pophale) SiO2 
 PCOD8076094
Probable space group: P 21/M
;
_chemical_formula_sum "Si O2"
_cell_formula_units_Z 20
_cell_length_a 7.663351
_cell_length_b 8.680921
_cell_length_c 24.457787
_cell_angle_alpha 90.000000
_cell_angle_beta 143.158463
_cell_angle_gamma 90.000000
_cell_volume 975.587340
_symmetry_space_group_name_H-M "P 21/M"
_symmetry_group_IT_number 11
_symmetry_cell_setting 'monoclinic'
loop_
_space_group_symop_operation_xyz
x,y,z
-x,1/2+y,-z
-x,-y,-z
x,1/2-y,z
loop_
_atom_site_type_symbol
_atom_site_label
_atom_site_fract_x
_atom_site_fract_y
_atom_site_fract_z
Si Si1 0.874473 0.073388 0.914459
Si Si2 0.256060 0.931523 0.280130
Si Si3 0.794024 0.072435 0.095363
Si Si4 0.730701 0.930790 0.598977
Si Si5 0.676741 0.575706 0.286003
O O1 0.989098 0.250000 0.936217
O O2 0.525520 0.071565 0.819593
O O3 0.975241 0.956248 0.893742
O O4 0.000000 0.000000 0.000000
O O5 0.229442 0.750000 0.277233
O O6 0.499450 0.977924 0.295894
O O7 0.341064 0.998842 0.359882
O O8 0.932643 0.994587 0.184006
O O9 0.742286 0.250000 0.094887
O O10 0.500000 0.000000 0.000000
O O11 0.689525 0.750000 0.592586
O O12 0.500000 0.000000 0.500000
O O13 0.052370 0.965769 0.657028
O O14 0.789898 0.750000 0.323090
#
# Coordination Sequence:
#
# PCOD8076094 Si02
#       5
#     4   4   4   4   4
#     4  10  21  37  58  87 123 164 208 254 309 371
#     4  10  22  43  67  92 127 165 208 262 318 378
#     4  11  22  37  58  87 123 164 209 255 308 371
#     4  12  26  43  67  96 126 165 212 263 319 380
#     4   9  21  42  65  90 125 166 208 260 317 374
#
# _framework density 20.500471000000001
#
# number of rings (size 3 to 8) (size 9 to 14) (size 15 to 20)
#    0.000    1.600    0.000    6.000    2.800    5.600 
#    0.000    0.000    0.000    0.000    0.000    0.000 
#    0.000    0.000    0.000    0.000    0.000    0.000 
#
# Total GULP energy -247882.782208 kJ/mol
# GULP energy per Si atom -12394.139110 kJ/mol
# Density = 2.045381 g / cm^3
# Si number density = 20.500471 Si / 1000 Ang^3
#
#
#
# Elastic Constant Matrix: (Units=GPa)
#
#
# Indices 1 2 3 4 5 6 
#
# 1 88.8125 46.7907 59.4441 0.0000 -12.0054 0.0000
# 2 46.7907 137.3175 59.6312 0.0000 -4.4643 0.0000
# 3 59.4441 59.6312 151.8544 0.0000 -19.9850 0.0000
# 4 0.0000 0.0000 0.0000 41.4340 0.0000 -1.4428
# 5 -12.0054 -4.4643 -19.9850 0.0000 37.7190 0.0000
# 6 0.0000 0.0000 0.0000 -1.4428 0.0000 35.6734
#
#
#
# Elastic Compliance Matrix: (Units=1/GPa)
#
#
# Indices 1 2 3 4 5 6 
#
# 1 0.016657 -0.003498 -0.004841 0.000000 0.002323 0.000000
# 2 -0.003498 0.009539 -0.002553 0.000000 -0.001337 0.000000
# 3 -0.004841 -0.002553 0.009933 0.000000 0.003420 0.000000
# 4 0.000000 0.000000 0.000000 0.024169 0.000000 0.000978
# 5 0.002323 -0.001337 0.003420 0.000000 0.028905 0.000000
# 6 0.000000 0.000000 0.000000 0.000978 0.000000 0.028072
#
#
# Mechanical properties :
#
#
# Convention : Reuss Voigt Hill
#
# Bulk Modulus (GPa) = 69.70804 78.85737 74.28270
# Shear Modulus (GPa) = 34.76100 37.10651 35.93375
#
# Velocity S-wave (km/s) = 4.12226 4.25906 4.19122
# Velocity P-wave (km/s) = 7.53222 7.92059 7.72884
#
# Compressibility (1/GPa) = 0.01434555
#
# Stress axis : x y z
#
# Youngs Moduli (GPa) = 60.03562 104.82893 100.67694
#
# Poissons Ratio (x) = 0.36669 0.48739
# Poissons Ratio (y) = 0.21000 0.25699
# Poissons Ratio (z) = 0.29064 0.26759
#
# Static dielectric constant tensor:
#      x y z
#    x 8.668000 0.000000 -10.253270 
#    y 0.000000 3.762220 0.000000 
#    z -10.253270 0.000000 24.530110 
# 
# 
# High freq. dielectric constant tensor:
#      x y z
#    x 1.792370 0.000000 -0.005310 
#    y 0.000000 1.810180 0.000000 
#    z -0.005310 0.000000 1.813060 
# 
# From -- ./inp_files/20267.got.cif
#   From: 2010.06.25/outbox.cif.g09.slc.cpg/sg11_11_cif.got.tgz:20267.got - 2010.06.27 23:14:04.
