data_PCOD8076861
_publ_section_title
;
Structure prediction by ZEFSAII (Michael W. Deem and Ramdas Pophale) SiO2 
 PCOD8076861
Probable space group: P 21/M
;
_chemical_formula_sum "Si O2"
_cell_formula_units_Z 32
_cell_length_a 28.614993
_cell_length_b 8.617544
_cell_length_c 11.969391
_cell_angle_alpha 90.000000
_cell_angle_beta 32.491593
_cell_angle_gamma 90.000000
_cell_volume 1585.497965
_symmetry_space_group_name_H-M "P 21/M"
_symmetry_group_IT_number 11
_symmetry_cell_setting 'monoclinic'
loop_
_space_group_symop_operation_xyz
x,y,z
-x,1/2+y,-z
-x,-y,-z
x,1/2-y,z
loop_
_atom_site_type_symbol
_atom_site_label
_atom_site_fract_x
_atom_site_fract_y
_atom_site_fract_z
Si Si1 0.246549 0.933840 0.146658
Si Si2 0.405211 0.567914 0.674791
Si Si3 0.329143 0.924738 0.593983
Si Si4 0.592542 0.074303 0.798375
Si Si5 0.750494 0.567316 0.612286
Si Si6 0.091660 0.931524 0.846937
Si Si7 0.847284 0.928344 0.059137
Si Si8 0.095889 0.432838 0.300764
O O1 0.242438 0.750000 0.147967
O O2 0.250368 0.985776 0.266390
O O3 0.158429 0.997774 0.269045
O O4 0.332859 0.996704 0.908063
O O5 0.500000 0.500000 0.500000
O O6 0.412491 0.750000 0.673971
O O7 0.377500 0.517894 0.606917
O O8 0.291143 0.750000 0.687315
O O9 0.395221 0.927796 0.358841
O O10 0.254389 0.046505 0.715634
O O11 0.595413 0.250000 0.838831
O O12 0.663961 0.975767 0.719895
O O13 0.500000 0.000000 0.000000
O O14 0.754506 0.750000 0.622512
O O15 0.833647 0.514955 0.374062
O O16 0.096455 0.750000 0.812145
O O17 0.100853 0.963117 0.960054
O O18 0.000000 0.000000 0.000000
O O19 0.872131 0.750000 0.031461
O O20 0.867977 0.981541 0.892493
O O21 0.092765 0.250000 0.323584
O O22 0.000000 0.500000 0.500000
#
# Coordination Sequence:
#
# PCOD8076861 Si02
#       8
#     4   4   4   4   4   4   4   4
#     4  11  24  44  67  94 130 172 217 267 323 388
#     4  10  23  41  64  95 128 167 213 262 319 377
#     4  10  21  41  66  92 125 167 212 266 324 379
#     4  11  24  42  66  97 131 171 218 267 323 387
#     4  12  26  45  67  95 132 172 215 269 328 390
#     4  12  26  45  69  97 131 171 217 267 322 387
#     4  11  23  41  67  97 128 167 216 267 323 383
#     4  11  25  43  66  97 131 171 217 267 322 385
#
# _framework density 20.182935000000001
#
# number of rings (size 3 to 8) (size 9 to 14) (size 15 to 20)
#    0.000    1.000    2.500    3.750    3.500    3.500 
#    0.000    0.000    0.000    0.000    0.000    0.000 
#    0.000    0.000    0.000    0.000    0.000    0.000 
#
# Total GULP energy -396907.927301 kJ/mol
# GULP energy per Si atom -12403.372728 kJ/mol
# Density = 2.013700 g / cm^3
# Si number density = 20.182935 Si / 1000 Ang^3
#
#
#
# Elastic Constant Matrix: (Units=GPa)
#
#
# Indices 1 2 3 4 5 6 
#
# 1 136.1385 23.4888 50.5085 0.0000 -6.0926 0.0000
# 2 23.4888 69.7561 31.0797 0.0000 -3.4929 0.0000
# 3 50.5085 31.0797 107.6085 0.0000 -15.5355 0.0000
# 4 0.0000 0.0000 0.0000 35.4530 0.0000 -3.5171
# 5 -6.0926 -3.4929 -15.5355 0.0000 44.2027 0.0000
# 6 0.0000 0.0000 0.0000 -3.5171 0.0000 39.9525
#
#
#
# Elastic Compliance Matrix: (Units=1/GPa)
#
#
# Indices 1 2 3 4 5 6 
#
# 1 0.009001 -0.001314 -0.003878 0.000000 -0.000226 0.000000
# 2 -0.001314 0.016651 -0.004244 0.000000 -0.000357 0.000000
# 3 -0.003878 -0.004244 0.012866 0.000000 0.003652 0.000000
# 4 0.000000 0.000000 0.000000 0.028455 0.000000 0.002505
# 5 -0.000226 -0.000357 0.003652 0.000000 0.023847 0.000000
# 6 0.000000 0.000000 0.000000 0.002505 0.000000 0.025250
#
#
# Mechanical properties :
#
#
# Convention : Reuss Voigt Hill
#
# Bulk Modulus (GPa) = 50.90077 58.18413 54.54245
# Shear Modulus (GPa) = 35.33792 37.81670 36.57731
#
# Velocity S-wave (km/s) = 4.18889 4.33332 4.26172
# Velocity P-wave (km/s) = 6.97640 7.34356 7.16233
#
# Compressibility (1/GPa) = 0.01964607
#
# Stress axis : x y z
#
# Youngs Moduli (GPa) = 111.10127 60.05564 77.72412
#
# Poissons Ratio (x) = 0.07894 0.30139
# Poissons Ratio (y) = 0.14603 0.32985
# Poissons Ratio (z) = 0.43082 0.25487
#
# Static dielectric constant tensor:
#      x y z
#    x 3.313530 0.000000 -0.040430 
#    y 0.000000 3.812770 0.000000 
#    z -0.040430 0.000000 3.806380 
# 
# 
# High freq. dielectric constant tensor:
#      x y z
#    x 1.803880 0.000000 0.003270 
#    y 0.000000 1.796050 0.000000 
#    z 0.003270 0.000000 1.798640 
# 
# From -- ./inp_files/45128.got.cif
#   From: 2010.06.25/outbox.cif.g09.slc.cpg/sg11_23_cif.got.tgz:45128.got - 2010.06.27 23:14:04.
