data_PCOD8076625
_publ_section_title
;
Structure prediction by ZEFSAII (Michael W. Deem and Ramdas Pophale) SiO2 
 PCOD8076625
Probable space group: P 21/M
;
_chemical_formula_sum "Si O2"
_cell_formula_units_Z 24
_cell_length_a 7.974120
_cell_length_b 21.590086
_cell_length_c 8.818335
_cell_angle_alpha 90.000000
_cell_angle_beta 47.662237
_cell_angle_gamma 90.000000
_cell_volume 1122.220671
_symmetry_space_group_name_H-M "P 21/M"
_symmetry_group_IT_number 11
_symmetry_cell_setting 'monoclinic'
loop_
_space_group_symop_operation_xyz
x,y,z
-x,1/2+y,-z
-x,-y,-z
x,1/2-y,z
loop_
_atom_site_type_symbol
_atom_site_label
_atom_site_fract_x
_atom_site_fract_y
_atom_site_fract_z
Si Si1 0.848012 0.682416 0.443385
Si Si2 0.911510 0.435851 0.623234
Si Si3 0.455703 0.088545 0.726045
Si Si4 0.064787 0.180025 0.953051
Si Si5 0.402300 0.877667 0.684983
Si Si6 0.658075 0.024335 0.038977
O O1 0.906410 0.750000 0.481210
O O2 0.575429 0.679977 0.590286
O O3 0.923740 0.623376 0.498523
O O4 0.971623 0.678143 0.205607
O O5 0.675011 0.413009 0.698699
O O6 0.000000 0.500000 0.500000
O O7 0.886292 0.450488 0.819068
O O8 0.539835 0.083816 0.502022
O O9 0.294317 0.030434 0.869165
O O10 0.304978 0.149126 0.851066
O O11 0.074825 0.250000 0.007751
O O12 0.856062 0.145610 0.162241
O O13 0.456005 0.920586 0.796893
O O14 0.500000 0.000000 0.000000
#
# Coordination Sequence:
#
# PCOD8076625 Si02
#       6
#     4   4   4   4   4   4
#     4  10  21  40  65  93 124 170 218 263 321 394
#     4  11  23  42  66  94 135 170 213 273 325 384
#     4  10  24  39  64  93 130 165 214 265 324 384
#     4  10  22  41  64  91 127 169 218 266 319 386
#     4  11  21  41  65  94 125 167 213 263 327 385
#     4  10  21  39  62  90 128 165 207 262 318 378
#
# _framework density 21.386165999999999
#
# number of rings (size 3 to 8) (size 9 to 14) (size 15 to 20)
#    0.000    1.667    1.667    3.000    2.333    3.333 
#    0.000    0.000    0.000    0.000    0.000    0.000 
#    0.000    0.000    0.000    0.000    0.000    0.000 
#
# Total GULP energy -297400.018331 kJ/mol
# GULP energy per Si atom -12391.667430 kJ/mol
# Density = 2.133749 g / cm^3
# Si number density = 21.386166 Si / 1000 Ang^3
#
#
#
# Elastic Constant Matrix: (Units=GPa)
#
#
# Indices 1 2 3 4 5 6 
#
# 1 76.0622 56.5188 38.1412 0.0000 -13.9413 0.0000
# 2 56.5188 178.8840 64.6947 0.0000 -2.5198 0.0000
# 3 38.1412 64.6947 137.2361 0.0000 0.8936 0.0000
# 4 0.0000 0.0000 0.0000 23.9039 0.0000 0.9677
# 5 -13.9413 -2.5198 0.8936 0.0000 28.3420 0.0000
# 6 0.0000 0.0000 0.0000 0.9677 0.0000 34.9584
#
#
#
# Elastic Compliance Matrix: (Units=1/GPa)
#
#
# Indices 1 2 3 4 5 6 
#
# 1 0.020376 -0.005100 -0.003322 0.000000 0.009674 0.000000
# 2 -0.005100 0.008030 -0.002357 0.000000 -0.001721 0.000000
# 3 -0.003322 -0.002357 0.009335 0.000000 -0.002138 0.000000
# 4 0.000000 0.000000 0.000000 0.041881 0.000000 -0.001159
# 5 0.009674 -0.001721 -0.002138 0.000000 0.039956 0.000000
# 6 0.000000 0.000000 0.000000 -0.001159 0.000000 0.028637
#
#
# Mechanical properties :
#
#
# Convention : Reuss Voigt Hill
#
# Bulk Modulus (GPa) = 61.79232 78.98796 70.39014
# Shear Modulus (GPa) = 28.54437 32.96272 30.75354
#
# Velocity S-wave (km/s) = 3.65733 3.93021 3.79623
# Velocity P-wave (km/s) = 6.84040 7.59011 7.22499
#
# Compressibility (1/GPa) = 0.01618324
#
# Stress axis : x y z
#
# Youngs Moduli (GPa) = 49.07844 124.53803 107.12707
#
# Poissons Ratio (x) = 0.63516 0.35583
# Poissons Ratio (y) = 0.25031 0.25246
# Poissons Ratio (z) = 0.16302 0.29349
#
# Static dielectric constant tensor:
#      x y z
#    x 3.460140 0.000000 -0.059070 
#    y 0.000000 4.160980 0.000000 
#    z -0.059070 0.000000 4.302530 
# 
# 
# High freq. dielectric constant tensor:
#      x y z
#    x 1.807820 0.000000 -0.010020 
#    y 0.000000 1.848590 0.000000 
#    z -0.010020 0.000000 1.851930 
# 
# From -- ./inp_files/14213.got.cif
#   From: 2010.06.25/outbox.cif.g09.slc.cpg/sg11_8_cif.got.tgz:14213.got - 2010.06.27 23:14:04.
