data_PCOD8076535
_publ_section_title
;
Structure prediction by ZEFSAII (Michael W. Deem and Ramdas Pophale) SiO2 
 PCOD8076535
Probable space group: P 21/M
;
_chemical_formula_sum "Si O2"
_cell_formula_units_Z 20
_cell_length_a 6.391181
_cell_length_b 14.249125
_cell_length_c 11.385774
_cell_angle_alpha 90.000000
_cell_angle_beta 88.360916
_cell_angle_gamma 90.000000
_cell_volume 1036.463800
_symmetry_space_group_name_H-M "P 21/M"
_symmetry_group_IT_number 11
_symmetry_cell_setting 'monoclinic'
loop_
_space_group_symop_operation_xyz
x,y,z
-x,1/2+y,-z
-x,-y,-z
x,1/2-y,z
loop_
_atom_site_type_symbol
_atom_site_label
_atom_site_fract_x
_atom_site_fract_y
_atom_site_fract_z
Si Si1 0.258289 0.643573 0.293581
Si Si2 0.979465 0.992625 0.138264
Si Si3 0.094422 0.595608 0.537320
Si Si4 0.203447 0.145918 0.261500
Si Si5 0.415183 0.986342 0.712778
O O1 0.307996 0.750000 0.248075
O O2 0.143741 0.655446 0.420672
O O3 0.466290 0.583515 0.320303
O O4 0.118299 0.589435 0.197661
O O5 0.738054 0.981965 0.179433
O O6 0.043504 0.095861 0.177688
O O7 0.000000 0.000000 0.000000
O O8 0.298575 0.565419 0.607845
O O9 0.000000 0.500000 0.500000
O O10 0.913401 0.650307 0.610808
O O11 0.249904 0.250000 0.215828
O O12 0.419715 0.090931 0.250152
#
# Coordination Sequence:
#
# PCOD8076535 Si02
#       5
#     4   4   4   4   4
#     4  11  23  37  59  91 119 151 195 237 285 345
#     4  10  23  43  61  79 116 157 194 244 293 335
#     4  11  19  39  59  85 124 154 182 229 290 349
#     4  10  22  37  60  90 117 151 194 234 284 346
#     4  10  21  39  60  83 119 152 194 233 291 342
#
# _framework density 19.296382000000001
#
# number of rings (size 3 to 8) (size 9 to 14) (size 15 to 20)
#    0.000    1.600    6.000    1.200    0.000    8.800 
#    0.000    2.000    0.000    0.000    0.000    0.000 
#    0.000    0.000    0.000    0.000    0.000    0.000 
#
# Total GULP energy -247781.740756 kJ/mol
# GULP energy per Si atom -12389.087038 kJ/mol
# Density = 1.925246 g / cm^3
# Si number density = 19.296382 Si / 1000 Ang^3
#
#
#
# Elastic Constant Matrix: (Units=GPa)
#
#
# Indices 1 2 3 4 5 6 
#
# 1 87.7254 23.9730 15.6893 0.0000 -7.4996 0.0000
# 2 23.9730 143.5847 10.8577 0.0000 -1.2923 0.0000
# 3 15.6893 10.8577 111.7426 0.0000 -8.6246 0.0000
# 4 0.0000 0.0000 0.0000 13.1804 0.0000 -3.8008
# 5 -7.4996 -1.2923 -8.6246 0.0000 15.7723 0.0000
# 6 0.0000 0.0000 0.0000 -3.8008 0.0000 7.2597
#
#
#
# Elastic Compliance Matrix: (Units=1/GPa)
#
#
# Indices 1 2 3 4 5 6 
#
# 1 0.012590 -0.001966 -0.001177 0.000000 0.005182 0.000000
# 2 -0.001966 0.007324 -0.000482 0.000000 -0.000598 0.000000
# 3 -0.001177 -0.000482 0.009517 0.000000 0.004605 0.000000
# 4 0.000000 0.000000 0.000000 0.089362 0.000000 0.046785
# 5 0.005182 -0.000598 0.004605 0.000000 0.068335 0.000000
# 6 0.000000 0.000000 0.000000 0.046785 0.000000 0.162241
#
#
# Mechanical properties :
#
#
# Convention : Reuss Voigt Hill
#
# Bulk Modulus (GPa) = 45.08400 49.34362 47.21381
# Shear Modulus (GPa) = 13.73585 26.74469 20.24027
#
# Velocity S-wave (km/s) = 2.67092 3.72693 3.24221
# Velocity P-wave (km/s) = 5.73816 6.64432 6.20779
#
# Compressibility (1/GPa) = 0.02218082
#
# Stress axis : x y z
#
# Youngs Moduli (GPa) = 79.42806 136.53957 105.07979
#
# Poissons Ratio (x) = 0.26849 0.12365
# Poissons Ratio (y) = 0.15619 0.05062
# Poissons Ratio (z) = 0.09346 0.06577
#
# Static dielectric constant tensor:
#      x y z
#    x 3.514400 0.000000 -0.085540 
#    y 0.000000 3.385580 0.000000 
#    z -0.085540 0.000000 3.254190 
# 
# 
# High freq. dielectric constant tensor:
#      x y z
#    x 1.761280 0.000000 -0.004060 
#    y 0.000000 1.752890 0.000000 
#    z -0.004060 0.000000 1.734530 
# 
# From -- ./inp_files/4122.got.cif
#   From: 2010.06.25/outbox.cif.g09.slc.cpg/sg11_3_cif.got.tgz:4122.got - 2010.06.27 23:14:04.
