data_PCOD8076358
_publ_section_title
;
Structure prediction by ZEFSAII (Michael W. Deem and Ramdas Pophale) SiO2 
 PCOD8076358
Probable space group: P 21/M
;
_chemical_formula_sum "Si O2"
_cell_formula_units_Z 28
_cell_length_a 14.907986
_cell_length_b 8.800472
_cell_length_c 12.492996
_cell_angle_alpha 90.000000
_cell_angle_beta 122.279626
_cell_angle_gamma 90.000000
_cell_volume 1385.735655
_symmetry_space_group_name_H-M "P 21/M"
_symmetry_group_IT_number 11
_symmetry_cell_setting 'monoclinic'
loop_
_space_group_symop_operation_xyz
x,y,z
-x,1/2+y,-z
-x,-y,-z
x,1/2-y,z
loop_
_atom_site_type_symbol
_atom_site_label
_atom_site_fract_x
_atom_site_fract_y
_atom_site_fract_z
Si Si1 0.088022 0.072246 0.478324
Si Si2 0.313518 0.574582 0.651676
Si Si3 0.501866 0.929169 0.619449
Si Si4 0.273832 0.925336 0.857533
Si Si5 0.912075 0.422653 0.014262
Si Si6 0.934502 0.926118 0.243981
Si Si7 0.675441 0.078700 0.871654
O O1 0.087776 0.250000 0.496357
O O2 0.206732 0.014739 0.561125
O O3 0.000000 0.000000 0.500000
O O4 0.041649 0.022337 0.333739
O O5 0.291373 0.750000 0.613293
O O6 0.403498 0.511517 0.629036
O O7 0.349371 0.555560 0.800647
O O8 0.497801 0.750000 0.602550
O O9 0.500000 0.000000 0.500000
O O10 0.606649 0.971229 0.752311
O O11 0.238931 0.750000 0.852399
O O12 0.168683 0.019719 0.754194
O O13 0.325547 0.979502 0.003586
O O14 0.945915 0.250000 0.064704
O O15 0.792522 0.422222 0.891928
O O16 0.901100 0.537705 0.103953
O O17 0.000000 0.500000 0.000000
O O18 0.956448 0.750000 0.278616
O O19 0.629368 0.250000 0.839351
#
# Coordination Sequence:
#
# PCOD8076358 Si02
#       7
#     4   4   4   4   4   4   4
#     4  12  23  36  57  88 124 162 200 244 302 364
#     4  10  22  40  62  89 122 161 207 255 308 368
#     4  11  25  44  65  88 118 161 209 259 306 359
#     4   9  18  36  61  88 121 155 192 244 306 367
#     4  10  21  38  60  88 121 159 202 251 303 359
#     4  11  21  34  55  85 121 161 200 244 298 359
#     4   9  20  39  63  89 120 158 194 244 310 366
#
# _framework density 20.205873
#
# number of rings (size 3 to 8) (size 9 to 14) (size 15 to 20)
#    0.000    1.714    1.429    4.286    0.000    5.714 
#    0.000    1.429    0.000    0.000    0.000    0.000 
#    0.000    0.000    0.000    0.000    0.000    0.000 
#
# Total GULP energy -346908.868799 kJ/mol
# GULP energy per Si atom -12389.602457 kJ/mol
# Density = 2.015988 g / cm^3
# Si number density = 20.205873 Si / 1000 Ang^3
#
#
#
# Elastic Constant Matrix: (Units=GPa)
#
#
# Indices 1 2 3 4 5 6 
#
# 1 136.0940 53.0971 62.7759 0.0000 -10.6724 0.0000
# 2 53.0971 89.4620 40.1576 0.0000 0.4178 0.0000
# 3 62.7759 40.1576 114.6065 0.0000 2.0103 0.0000
# 4 0.0000 0.0000 0.0000 35.2293 0.0000 3.3195
# 5 -10.6724 0.4178 2.0103 0.0000 27.4582 0.0000
# 6 0.0000 0.0000 0.0000 3.3195 0.0000 31.0869
#
#
#
# Elastic Compliance Matrix: (Units=1/GPa)
#
#
# Indices 1 2 3 4 5 6 
#
# 1 0.011915 -0.004896 -0.004900 0.000000 0.005065 0.000000
# 2 -0.004896 0.015277 -0.002637 0.000000 -0.001942 0.000000
# 3 -0.004900 -0.002637 0.012382 0.000000 -0.002771 0.000000
# 4 0.000000 0.000000 0.000000 0.028674 0.000000 -0.003062
# 5 0.005065 -0.001942 -0.002771 0.000000 0.038620 0.000000
# 6 0.000000 0.000000 0.000000 -0.003062 0.000000 0.032495
#
#
# Mechanical properties :
#
#
# Convention : Reuss Voigt Hill
#
# Bulk Modulus (GPa) = 67.99001 72.46932 70.22966
# Shear Modulus (GPa) = 29.56280 31.03034 30.29657
#
# Velocity S-wave (km/s) = 3.82917 3.92306 3.87640
# Velocity P-wave (km/s) = 7.29875 7.51425 7.40728
#
# Compressibility (1/GPa) = 0.01470804
#
# Stress axis : x y z
#
# Youngs Moduli (GPa) = 83.92457 65.45958 80.76223
#
# Poissons Ratio (x) = 0.32050 0.39573
# Poissons Ratio (y) = 0.41091 0.21296
# Poissons Ratio (z) = 0.41123 0.17261
#
# Static dielectric constant tensor:
#      x y z
#    x 3.633110 0.000000 0.061120 
#    y 0.000000 3.740540 0.000000 
#    z 0.061120 0.000000 4.057350 
# 
# 
# High freq. dielectric constant tensor:
#      x y z
#    x 1.780670 0.000000 -0.005950 
#    y 0.000000 1.789310 0.000000 
#    z -0.005950 0.000000 1.791320 
# 
# From -- ./inp_files/38458.got.cif
#   From: 2010.06.25/outbox.cif.g09.slc.cpg/sg11_20_cif.got.tgz:38458.got - 2010.06.27 23:14:04.
