data_PCOD8076174
_publ_section_title
;
Structure prediction by ZEFSAII (Michael W. Deem and Ramdas Pophale) SiO2 
 PCOD8076174
Probable space group: P 21/M
;
_chemical_formula_sum "Si O2"
_cell_formula_units_Z 28
_cell_length_a 11.961511
_cell_length_b 13.963880
_cell_length_c 9.576231
_cell_angle_alpha 90.000000
_cell_angle_beta 66.403495
_cell_angle_gamma 90.000000
_cell_volume 1465.769754
_symmetry_space_group_name_H-M "P 21/M"
_symmetry_group_IT_number 11
_symmetry_cell_setting 'monoclinic'
loop_
_space_group_symop_operation_xyz
x,y,z
-x,1/2+y,-z
-x,-y,-z
x,1/2-y,z
loop_
_atom_site_type_symbol
_atom_site_label
_atom_site_fract_x
_atom_site_fract_y
_atom_site_fract_z
Si Si1 0.999999 0.862047 0.095536
Si Si2 0.796946 0.500001 0.601525
Si Si3 0.737766 0.862613 0.138893
Si Si4 0.262236 0.862612 0.876662
Si Si5 0.642350 0.498341 0.402861
Si Si6 0.000001 0.635826 0.410618
Si Si7 0.357649 0.001660 0.045216
O O1 0.999991 0.750000 0.120253
O O2 0.000003 0.905102 0.251888
O O3 0.880903 0.892535 0.067515
O O4 0.119097 0.892528 0.948415
O O5 0.711254 0.484852 0.512491
O O6 0.879741 0.405124 0.574272
O O7 0.711251 0.515150 0.776250
O O8 0.879742 0.594878 0.545984
O O9 0.716951 0.750000 0.145022
O O10 0.678930 0.902017 0.311013
O O11 0.674940 0.908680 0.036447
O O12 0.283058 0.750000 0.861974
O O13 0.325062 0.908681 0.711391
O O14 0.321067 0.902019 0.989950
O O15 0.500000 0.500000 0.500000
O O16 0.000003 0.750000 0.423811
O O17 0.500000 0.000000 0.000000
#
# Coordination Sequence:
#
# PCOD8076174 Si02
#       7
#     4   4   4   4   4   4   4
#     4   9  17  36  64  90 115 151 201 249 299 356
#     4  11  22  38  62  92 124 161 194 248 318 351
#     4  10  22  41  65  89 117 159 203 249 302 356
#     4  10  22  41  65  89 117 159 203 249 302 356
#     4  11  24  41  60  88 124 160 207 249 290 360
#     4  10  21  37  60  92 126 158 196 248 312 368
#     4  11  24  41  60  88 124 160 207 249 290 360
#
# _framework density 19.102592000000001
#
# number of rings (size 3 to 8) (size 9 to 14) (size 15 to 20)
#    0.000    1.714    2.857    1.714    0.000    6.857 
#    0.000    4.286    0.000    0.000    0.000    0.000 
#    0.000    0.000    0.000    0.000    0.000    0.000 
#
# Total GULP energy -347238.935276 kJ/mol
# GULP energy per Si atom -12401.390546 kJ/mol
# Density = 1.905911 g / cm^3
# Si number density = 19.102592 Si / 1000 Ang^3
#
#
#
# Elastic Constant Matrix: (Units=GPa)
#
#
# Indices 1 2 3 4 5 6 
#
# 1 180.3259 57.6180 79.1651 0.0000 -8.8866 0.0000
# 2 57.6180 133.0083 54.0611 0.0000 -2.2471 0.0000
# 3 79.1651 54.0611 154.1996 0.0000 -7.6348 0.0000
# 4 0.0000 0.0000 0.0000 27.1923 0.0000 1.9619
# 5 -8.8866 -2.2471 -7.6348 0.0000 44.3413 0.0000
# 6 0.0000 0.0000 0.0000 1.9619 0.0000 24.0933
#
#
#
# Elastic Compliance Matrix: (Units=1/GPa)
#
#
# Indices 1 2 3 4 5 6 
#
# 1 0.007617 -0.001998 -0.003167 0.000000 0.000880 0.000000
# 2 -0.001998 0.009292 -0.002248 0.000000 -0.000317 0.000000
# 3 -0.003167 -0.002248 0.008938 0.000000 0.000790 0.000000
# 4 0.000000 0.000000 0.000000 0.036992 0.000000 -0.003012
# 5 0.000880 -0.000317 0.000790 0.000000 0.022849 0.000000
# 6 0.000000 0.000000 0.000000 -0.003012 0.000000 0.041751
#
#
# Mechanical properties :
#
#
# Convention : Reuss Voigt Hill
#
# Bulk Modulus (GPa) = 90.71978 94.35802 92.53890
# Shear Modulus (GPa) = 34.26107 37.57137 35.91622
#
# Velocity S-wave (km/s) = 4.23960 4.43970 4.34080
# Velocity P-wave (km/s) = 8.45929 8.70539 8.58322
#
# Compressibility (1/GPa) = 0.01102295
#
# Stress axis : x y z
#
# Youngs Moduli (GPa) = 131.27700 107.61952 111.88113
#
# Poissons Ratio (x) = 0.21500 0.35430
# Poissons Ratio (y) = 0.26227 0.25148
# Poissons Ratio (z) = 0.41572 0.24190
#
# Static dielectric constant tensor:
#      x y z
#    x 3.660130 0.000000 -0.055360 
#    y 0.000000 3.349190 0.000000 
#    z -0.055360 0.000000 3.572660 
# 
# 
# High freq. dielectric constant tensor:
#      x y z
#    x 1.754830 0.000000 -0.003110 
#    y 0.000000 1.740310 0.000000 
#    z -0.003110 0.000000 1.749920 
# 
# From -- ./inp_files/17781.got.cif
#   From: 2010.06.25/outbox.cif.g09.slc.cpg/sg11_9_cif.got.tgz:17781.got - 2010.06.27 23:14:04.
