data_PCOD8076615
_publ_section_title
;
Structure prediction by ZEFSAII (Michael W. Deem and Ramdas Pophale) SiO2 
 PCOD8076615
Probable space group: P 21/M
;
_chemical_formula_sum "Si O2"
_cell_formula_units_Z 28
_cell_length_a 29.288512
_cell_length_b 8.531433
_cell_length_c 9.323429
_cell_angle_alpha 90.000000
_cell_angle_beta 37.045267
_cell_angle_gamma 90.000000
_cell_volume 1403.501703
_symmetry_space_group_name_H-M "P 21/M"
_symmetry_group_IT_number 11
_symmetry_cell_setting 'monoclinic'
loop_
_space_group_symop_operation_xyz
x,y,z
-x,1/2+y,-z
-x,-y,-z
x,1/2-y,z
loop_
_atom_site_type_symbol
_atom_site_label
_atom_site_fract_x
_atom_site_fract_y
_atom_site_fract_z
Si Si1 0.932205 0.568163 0.078507
Si Si2 0.626018 0.430820 0.019638
Si Si3 0.071657 0.063423 0.236085
Si Si4 0.209846 0.565742 0.064384
Si Si5 0.369684 0.067563 0.684411
Si Si6 0.495768 0.932990 0.168363
Si Si7 0.800333 0.069768 0.583865
O O1 0.946197 0.750000 0.035190
O O2 0.851551 0.534803 0.352838
O O3 0.933900 0.501398 0.912925
O O4 0.000000 0.500000 0.000000
O O5 0.604731 0.250000 0.046675
O O6 0.610104 0.468498 0.225241
O O7 0.576111 0.540623 0.043885
O O8 0.713342 0.464043 0.762429
O O9 0.075317 0.250000 0.237639
O O10 0.147083 0.989694 0.111575
O O11 0.000000 0.000000 0.500000
O O12 0.224890 0.750000 0.013073
O O13 0.183725 0.523430 0.291211
O O14 0.287079 0.476620 0.831570
O O15 0.372865 0.250000 0.714904
O O16 0.430376 0.027974 0.411850
O O17 0.476094 0.750000 0.215567
O O18 0.500000 0.000000 0.000000
O O19 0.821653 0.250000 0.504384
#
# Coordination Sequence:
#
# PCOD8076615 Si02
#       7
#     4   4   4   4   4   4   4
#     4  11  24  39  58  84 116 150 191 237 285 341
#     4  10  21  40  63  89 120 156 197 243 292 350
#     4  11  24  40  58  85 117 153 195 241 291 349
#     4  10  21  39  62  89 118 151 192 241 292 348
#     4  11  22  39  63  90 119 156 199 243 292 352
#     4  12  25  41  60  86 120 158 199 247 299 352
#     4   9  20  38  61  87 116 148 188 234 285 342
#
# _framework density 19.950099999999999
#
# number of rings (size 3 to 8) (size 9 to 14) (size 15 to 20)
#    0.000    1.429    0.000    6.429    0.000   10.286 
#    0.000    2.857    0.000    0.000    0.000    0.000 
#    0.000    0.000    0.000    0.000    0.000    0.000 
#
# Total GULP energy -347364.407150 kJ/mol
# GULP energy per Si atom -12405.871684 kJ/mol
# Density = 1.990469 g / cm^3
# Si number density = 19.950100 Si / 1000 Ang^3
#
#
#
# Elastic Constant Matrix: (Units=GPa)
#
#
# Indices 1 2 3 4 5 6 
#
# 1 140.1471 22.5380 63.5408 0.0000 0.2743 0.0000
# 2 22.5380 71.0440 27.0767 0.0000 -1.5040 0.0000
# 3 63.5408 27.0767 130.6424 0.0000 4.2302 0.0000
# 4 0.0000 0.0000 0.0000 36.9078 0.0000 -2.8719
# 5 0.2743 -1.5040 4.2302 0.0000 25.3025 0.0000
# 6 0.0000 0.0000 0.0000 -2.8719 0.0000 37.8839
#
#
#
# Elastic Compliance Matrix: (Units=1/GPa)
#
#
# Indices 1 2 3 4 5 6 
#
# 1 0.009275 -0.001309 -0.004257 0.000000 0.000533 0.000000
# 2 -0.001309 0.015520 -0.002625 0.000000 0.001376 0.000000
# 3 -0.004257 -0.002625 0.010329 0.000000 -0.001837 0.000000
# 4 0.000000 0.000000 0.000000 0.027255 0.000000 0.002066
# 5 0.000533 0.001376 -0.001837 0.000000 0.039905 0.000000
# 6 0.000000 0.000000 0.000000 0.002066 0.000000 0.026553
#
#
# Mechanical properties :
#
#
# Convention : Reuss Voigt Hill
#
# Bulk Modulus (GPa) = 53.35378 63.12717 58.24048
# Shear Modulus (GPa) = 33.01079 35.26404 34.13741
#
# Velocity S-wave (km/s) = 4.07217 4.20886 4.14108
# Velocity P-wave (km/s) = 6.99370 7.43845 7.21950
#
# Compressibility (1/GPa) = 0.01874281
#
# Stress axis : x y z
#
# Youngs Moduli (GPa) = 107.81824 64.43119 96.81946
#
# Poissons Ratio (x) = 0.08431 0.41217
# Poissons Ratio (y) = 0.14109 0.25413
# Poissons Ratio (z) = 0.45899 0.16912
#
# Static dielectric constant tensor:
#      x y z
#    x 10.910420 0.000000 4.044080 
#    y 0.000000 3.816920 0.000000 
#    z 4.044080 0.000000 6.036440 
# 
# 
# High freq. dielectric constant tensor:
#      x y z
#    x 1.786450 0.000000 -0.006240 
#    y 0.000000 1.788330 0.000000 
#    z -0.006240 0.000000 1.785670 
# 
# From -- ./inp_files/29010.got.cif
#   From: 2010.06.25/outbox.cif.g09.slc.cpg/sg11_15_cif.got.tgz:29010.got - 2010.06.27 23:14:04.
