data_PCOD8076628
_publ_section_title
;
Structure prediction by ZEFSAII (Michael W. Deem and Ramdas Pophale) SiO2 
 PCOD8076628
Probable space group: P 21/M
;
_chemical_formula_sum "Si O2"
_cell_formula_units_Z 32
_cell_length_a 11.699772
_cell_length_b 18.279657
_cell_length_c 14.102957
_cell_angle_alpha 90.000000
_cell_angle_beta 147.434904
_cell_angle_gamma 90.000000
_cell_volume 1623.475316
_symmetry_space_group_name_H-M "P 21/M"
_symmetry_group_IT_number 11
_symmetry_cell_setting 'monoclinic'
loop_
_space_group_symop_operation_xyz
x,y,z
-x,1/2+y,-z
-x,-y,-z
x,1/2-y,z
loop_
_atom_site_type_symbol
_atom_site_label
_atom_site_fract_x
_atom_site_fract_y
_atom_site_fract_z
Si Si1 0.095870 0.666077 0.334562
Si Si2 0.375638 0.831768 0.859977
Si Si3 0.458596 0.627125 0.714370
Si Si4 0.055392 0.927221 0.731110
Si Si5 0.171439 0.570777 0.019570
Si Si6 0.930738 0.598382 0.030829
Si Si7 0.644495 0.541542 0.335624
Si Si8 0.762940 0.577183 0.208546
O O1 0.034972 0.750000 0.275862
O O2 0.338653 0.656553 0.537391
O O3 0.065006 0.623107 0.215394
O O4 0.950853 0.633576 0.317150
O O5 0.409183 0.750000 0.925002
O O6 0.390279 0.825710 0.757158
O O7 0.145524 0.862056 0.728949
O O8 0.545163 0.889333 0.018579
O O9 0.401190 0.543901 0.696708
O O10 0.707319 0.640381 0.869519
O O11 0.073196 0.901396 0.852245
O O12 0.808793 0.939890 0.534247
O O13 0.194533 0.000990 0.815645
O O14 0.114583 0.486728 0.992833
O O15 0.425100 0.584851 0.198725
O O16 0.066821 0.616699 0.032053
O O17 0.755296 0.564227 0.315076
#
# Coordination Sequence:
#
# PCOD8076628 Si02
#       8
#     4   4   4   4   4   4   4   4
#     4  12  24  38  60  92 126 161 202 252 315 371
#     4  12  24  37  60  93 126 160 199 248 310 374
#     4  11  21  38  60  91 125 157 197 252 309 362
#     4  12  21  39  65  91 125 160 201 251 302 363
#     4  10  21  39  62  92 114 156 207 254 296 350
#     4  10  22  39  62  86 120 154 205 256 299 349
#     4  11  21  36  65  95 122 156 203 251 300 359
#     4  12  20  38  62  92 123 164 201 247 303 367
#
# _framework density 19.710802000000001
#
# number of rings (size 3 to 8) (size 9 to 14) (size 15 to 20)
#    0.000    0.750    6.250    3.000    0.000    1.500 
#    0.000    5.000    0.000    1.500    0.000    0.000 
#    0.000    0.000    0.000    0.000    0.000    0.000 
#
# Total GULP energy -396925.731968 kJ/mol
# GULP energy per Si atom -12403.929124 kJ/mol
# Density = 1.966594 g / cm^3
# Si number density = 19.710802 Si / 1000 Ang^3
#
#
#
# Elastic Constant Matrix: (Units=GPa)
#
#
# Indices 1 2 3 4 5 6 
#
# 1 128.4038 24.8795 43.1199 0.0000 -0.8200 0.0000
# 2 24.8795 44.5939 22.2035 0.0000 -4.0464 0.0000
# 3 43.1199 22.2035 126.2227 0.0000 -11.1407 0.0000
# 4 0.0000 0.0000 0.0000 9.3440 0.0000 -2.0799
# 5 -0.8200 -4.0464 -11.1407 0.0000 18.8652 0.0000
# 6 0.0000 0.0000 0.0000 -2.0799 0.0000 6.6664
#
#
#
# Elastic Compliance Matrix: (Units=1/GPa)
#
#
# Indices 1 2 3 4 5 6 
#
# 1 0.009481 -0.004136 -0.002694 0.000000 -0.002066 0.000000
# 2 -0.004136 0.026529 -0.002920 0.000000 0.003786 0.000000
# 3 -0.002694 -0.002920 0.009802 0.000000 0.005045 0.000000
# 4 0.000000 0.000000 0.000000 0.115008 0.000000 0.035882
# 5 -0.002066 0.003786 0.005045 0.000000 0.056709 0.000000
# 6 0.000000 0.000000 0.000000 0.035882 0.000000 0.161200
#
#
# Mechanical properties :
#
#
# Convention : Reuss Voigt Hill
#
# Bulk Modulus (GPa) = 38.00318 53.29179 45.64748
# Shear Modulus (GPa) = 12.28508 20.90962 16.59735
#
# Velocity S-wave (km/s) = 2.49924 3.26056 2.90495
# Velocity P-wave (km/s) = 5.25837 6.42421 5.87031
#
# Compressibility (1/GPa) = 0.02631359
#
# Stress axis : x y z
#
# Youngs Moduli (GPa) = 105.47856 37.69425 102.02468
#
# Poissons Ratio (x) = 0.15589 0.27481
# Poissons Ratio (y) = 0.43622 0.29788
# Poissons Ratio (z) = 0.28411 0.11006
#
# Static dielectric constant tensor:
#      x y z
#    x 3.765210 0.000000 0.103810 
#    y 0.000000 3.364130 0.000000 
#    z 0.103810 0.000000 3.708170 
# 
# 
# High freq. dielectric constant tensor:
#      x y z
#    x 1.760770 0.000000 -0.001320 
#    y 0.000000 1.744280 0.000000 
#    z -0.001320 0.000000 1.779850 
# 
# From -- ./inp_files/50704.got.cif
#   From: 2010.06.25/outbox.cif.g09.slc.cpg/sg11_26_cif.got.tgz:50704.got - 2010.06.27 23:14:04.
