data_PCOD8076600
_publ_section_title
;
Structure prediction by ZEFSAII (Michael W. Deem and Ramdas Pophale) SiO2 
 PCOD8076600
Probable space group: P 21/M
;
_chemical_formula_sum "Si O2"
_cell_formula_units_Z 32
_cell_length_a 13.156014
_cell_length_b 25.176387
_cell_length_c 5.063557
_cell_angle_alpha 90.000000
_cell_angle_beta 90.677084
_cell_angle_gamma 90.000000
_cell_volume 1677.038800
_symmetry_space_group_name_H-M "P 21/M"
_symmetry_group_IT_number 11
_symmetry_cell_setting 'monoclinic'
loop_
_space_group_symop_operation_xyz
x,y,z
-x,1/2+y,-z
-x,-y,-z
x,1/2-y,z
loop_
_atom_site_type_symbol
_atom_site_label
_atom_site_fract_x
_atom_site_fract_y
_atom_site_fract_z
Si Si1 0.970302 0.058105 0.580352
Si Si2 0.755627 0.187165 0.459664
Si Si3 0.112647 0.688783 0.034518
Si Si4 0.479247 0.436949 0.997171
Si Si5 0.235923 0.984329 0.482011
Si Si6 0.050662 0.391305 0.080188
Si Si7 0.248107 0.055432 0.971425
Si Si8 0.406861 0.597121 0.506972
O O1 0.848782 0.061808 0.540680
O O2 0.026965 0.098906 0.387374
O O3 0.000000 0.000000 0.500000
O O4 0.997379 0.065543 0.888017
O O5 0.727428 0.250000 0.470404
O O6 0.809731 0.170769 0.190033
O O7 0.652478 0.153113 0.480493
O O8 0.835571 0.171895 0.690279
O O9 0.090341 0.750000 0.016009
O O10 0.999820 0.664296 0.004310
O O11 0.545646 0.407463 0.780019
O O12 0.500000 0.500000 0.000000
O O13 0.361827 0.423445 0.936613
O O14 0.505107 0.407834 0.272686
O O15 0.338003 0.954257 0.564009
O O16 0.245988 0.012042 0.200716
O O17 0.209205 0.028296 0.700580
O O18 0.172358 0.395206 0.035948
#
# Coordination Sequence:
#
# PCOD8076600 Si02
#       8
#     4   4   4   4   4   4   4   4
#     4  12  22  34  51  80 115 150 180 224 279 345
#     4  10  22  41  63  91 116 142 187 242 298 347
#     4  10  21  39  62  87 115 147 187 235 288 354
#     4  12  23  38  55  80 115 155 198 233 278 338
#     4  12  21  33  52  78 110 147 186 219 277 335
#     4  12  22  37  54  78 116 152 188 227 286 333
#     4  12  23  35  51  76 112 153 186 230 264 327
#     4  12  22  37  60  81 111 151 189 240 289 340
#
# _framework density 19.081251000000002
#
# number of rings (size 3 to 8) (size 9 to 14) (size 15 to 20)
#    0.000    0.500    5.000    5.250    0.000    0.000 
#    0.000    0.000    0.000    1.500    0.000    0.000 
#    0.000    0.000    0.000    0.000    0.000    0.000 
#
# Total GULP energy -396838.076031 kJ/mol
# GULP energy per Si atom -12401.189876 kJ/mol
# Density = 1.903782 g / cm^3
# Si number density = 19.081251 Si / 1000 Ang^3
#
#
#
# Elastic Constant Matrix: (Units=GPa)
#
#
# Indices 1 2 3 4 5 6 
#
# 1 104.6520 37.9982 3.8954 0.0000 -5.5924 0.0000
# 2 37.9982 66.2230 17.4710 0.0000 -4.9471 0.0000
# 3 3.8954 17.4710 85.1973 0.0000 -5.1736 0.0000
# 4 0.0000 0.0000 0.0000 22.4396 0.0000 -0.4428
# 5 -5.5924 -4.9471 -5.1736 0.0000 28.0081 0.0000
# 6 0.0000 0.0000 0.0000 -0.4428 0.0000 32.0106
#
#
#
# Elastic Compliance Matrix: (Units=1/GPa)
#
#
# Indices 1 2 3 4 5 6 
#
# 1 0.012189 -0.007154 0.000992 0.000000 0.001353 0.000000
# 2 -0.007154 0.020304 -0.003747 0.000000 0.001466 0.000000
# 3 0.000992 -0.003747 0.012573 0.000000 0.001859 0.000000
# 4 0.000000 0.000000 0.000000 0.044576 0.000000 0.000617
# 5 0.001353 0.001466 0.001859 0.000000 0.036576 0.000000
# 6 0.000000 0.000000 0.000000 0.000617 0.000000 0.031248
#
#
# Mechanical properties :
#
#
# Convention : Reuss Voigt Hill
#
# Bulk Modulus (GPa) = 39.61005 41.64462 40.62734
# Shear Modulus (GPa) = 26.92493 29.60549 28.26521
#
# Velocity S-wave (km/s) = 3.76049 3.94324 3.85295
# Velocity P-wave (km/s) = 6.29752 6.52721 6.41339
#
# Compressibility (1/GPa) = 0.02524612
#
# Stress axis : x y z
#
# Youngs Moduli (GPa) = 82.04433 49.25209 79.53267
#
# Poissons Ratio (x) = 0.35236 -0.07890
# Poissons Ratio (y) = 0.58697 0.29805
# Poissons Ratio (z) = -0.08139 0.18457
#
# Static dielectric constant tensor:
#      x y z
#    x 14.517090 0.000000 -7.592310 
#    y 0.000000 200.014820 0.000000 
#    z -7.592310 0.000000 9.161280 
# 
# 
# High freq. dielectric constant tensor:
#      x y z
#    x 1.742900 0.000000 0.000070 
#    y 0.000000 1.706600 0.000000 
#    z 0.000070 0.000000 1.767290 
# 
# From -- ./inp_files/5371.got.cif
#   From: 2010.06.25/outbox.cif.g09.slc.cpg/sg11_3_cif.got.tgz:5371.got - 2010.06.27 23:14:04.
