data_PCOD8076307
_publ_section_title
;
Structure prediction by ZEFSAII (Michael W. Deem and Ramdas Pophale) SiO2 
 PCOD8076307
Probable space group: P 21/M
;
_chemical_formula_sum "Si O2"
_cell_formula_units_Z 32
_cell_length_a 14.483238
_cell_length_b 8.873653
_cell_length_c 24.712113
_cell_angle_alpha 90.000000
_cell_angle_beta 149.084482
_cell_angle_gamma 90.000000
_cell_volume 1631.735649
_symmetry_space_group_name_H-M "P 21/M"
_symmetry_group_IT_number 11
_symmetry_cell_setting 'monoclinic'
loop_
_space_group_symop_operation_xyz
x,y,z
-x,1/2+y,-z
-x,-y,-z
x,1/2-y,z
loop_
_atom_site_type_symbol
_atom_site_label
_atom_site_fract_x
_atom_site_fract_y
_atom_site_fract_z
Si Si1 0.185619 0.926837 0.947116
Si Si2 0.754816 0.927471 0.483573
Si Si3 0.349047 0.576521 0.459243
Si Si4 0.080843 0.426552 0.093502
Si Si5 0.481366 0.923864 0.832379
Si Si6 0.522832 0.577073 0.728574
Si Si7 0.948747 0.921330 0.225134
Si Si8 0.123003 0.072982 0.689234
O O1 0.221954 0.750000 0.970508
O O2 0.367683 0.014189 0.051690
O O3 0.026641 0.980457 0.907373
O O4 0.131266 0.965075 0.858746
O O5 0.767186 0.750000 0.495750
O O6 0.656469 0.995803 0.486011
O O7 0.636989 0.970827 0.372206
O O8 0.954263 0.992266 0.576348
O O9 0.500000 0.500000 0.500000
O O10 0.397395 0.750000 0.493870
O O11 0.162654 0.559196 0.333913
O O12 0.062472 0.250000 0.075692
O O13 0.289913 0.471280 0.205664
O O14 0.000000 0.500000 0.000000
O O15 0.444231 0.750000 0.827376
O O16 0.548929 0.947026 0.805485
O O17 0.300521 0.017444 0.749168
O O18 0.473968 0.750000 0.690729
O O19 0.897064 0.750000 0.184005
O O20 0.866850 0.966536 0.242042
O O21 0.096577 0.250000 0.667686
#
# Coordination Sequence:
#
# PCOD8076307 Si02
#       8
#     4   4   4   4   4   4   4   4
#     4  11  23  37  59  91 122 157 199 244 295 353
#     4  11  23  39  61  90 120 157 201 245 298 360
#     4  10  21  38  59  86 120 158 201 249 299 353
#     4  10  21  38  59  85 119 159 197 242 297 349
#     4  11  23  40  64  89 117 157 201 249 301 356
#     4  10  22  40  60  87 122 160 199 244 297 354
#     4   9  21  40  60  84 116 155 196 241 297 352
#     4  10  22  43  66  87 118 156 196 253 305 352
#
# _framework density 19.61102
#
# number of rings (size 3 to 8) (size 9 to 14) (size 15 to 20)
#    0.000    1.750    1.250    3.375    1.750    6.000 
#    0.000    0.000    0.000    0.000    0.000    0.000 
#    0.000    0.000    0.000    0.000    0.000    0.000 
#
# Total GULP energy -396967.221368 kJ/mol
# GULP energy per Si atom -12405.225668 kJ/mol
# Density = 1.956638 g / cm^3
# Si number density = 19.611020 Si / 1000 Ang^3
#
#
#
# Elastic Constant Matrix: (Units=GPa)
#
#
# Indices 1 2 3 4 5 6 
#
# 1 56.0095 28.3381 25.6459 0.0000 21.0600 0.0000
# 2 28.3381 102.0537 45.5346 0.0000 2.4072 0.0000
# 3 25.6459 45.5346 98.3397 0.0000 1.4770 0.0000
# 4 0.0000 0.0000 0.0000 38.2865 0.0000 0.4868
# 5 21.0600 2.4072 1.4770 0.0000 32.7214 0.0000
# 6 0.0000 0.0000 0.0000 0.4868 0.0000 32.8121
#
#
#
# Elastic Compliance Matrix: (Units=1/GPa)
#
#
# Indices 1 2 3 4 5 6 
#
# 1 0.030006 -0.005704 -0.004904 0.000000 -0.018671 0.000000
# 2 -0.005704 0.013448 -0.004783 0.000000 0.002897 0.000000
# 3 -0.004904 -0.004783 0.013619 0.000000 0.002893 0.000000
# 4 0.000000 0.000000 0.000000 0.026124 0.000000 -0.000388
# 5 -0.018671 0.002897 0.002893 0.000000 0.042234 0.000000
# 6 0.000000 0.000000 0.000000 -0.000388 0.000000 0.030482
#
#
# Mechanical properties :
#
#
# Convention : Reuss Voigt Hill
#
# Bulk Modulus (GPa) = 38.03424 50.60447 44.31935
# Shear Modulus (GPa) = 25.58088 31.22297 28.40193
#
# Velocity S-wave (km/s) = 3.61559 3.99446 3.80973
# Velocity P-wave (km/s) = 6.07177 6.86545 6.48077
#
# Compressibility (1/GPa) = 0.02629210
#
# Stress axis : x y z
#
# Youngs Moduli (GPa) = 33.32693 74.35877 73.42691
#
# Poissons Ratio (x) = 0.42411 0.36007
# Poissons Ratio (y) = 0.19008 0.35121
# Poissons Ratio (z) = 0.16343 0.35567
#
# Static dielectric constant tensor:
#      x y z
#    x 3.662680 0.000000 0.041110 
#    y 0.000000 3.591280 0.000000 
#    z 0.041110 0.000000 3.612280 
# 
# 
# High freq. dielectric constant tensor:
#      x y z
#    x 1.766300 0.000000 0.005170 
#    y 0.000000 1.769570 0.000000 
#    z 0.005170 0.000000 1.768170 
# 
# From -- ./inp_files/55573.got.cif
#   From: 2010.06.25/outbox.cif.g09.slc.cpg/sg11_28_cif.got.tgz:55573.got - 2010.06.27 23:14:04.
