data_PCOD8076325
_publ_section_title
;
Structure prediction by ZEFSAII (Michael W. Deem and Ramdas Pophale) SiO2 
 PCOD8076325
Probable space group: P 21/M
;
_chemical_formula_sum "Si O2"
_cell_formula_units_Z 28
_cell_length_a 13.575370
_cell_length_b 9.051747
_cell_length_c 20.605939
_cell_angle_alpha 90.000000
_cell_angle_beta 143.720273
_cell_angle_gamma 90.000000
_cell_volume 1498.299370
_symmetry_space_group_name_H-M "P 21/M"
_symmetry_group_IT_number 11
_symmetry_cell_setting 'monoclinic'
loop_
_space_group_symop_operation_xyz
x,y,z
-x,1/2+y,-z
-x,-y,-z
x,1/2-y,z
loop_
_atom_site_type_symbol
_atom_site_label
_atom_site_fract_x
_atom_site_fract_y
_atom_site_fract_z
Si Si1 0.315081 0.924998 0.823334
Si Si2 0.493043 0.080487 0.267096
Si Si3 0.657751 0.576213 0.949839
Si Si4 0.106477 0.574851 0.835090
Si Si5 0.841397 0.079661 0.388891
Si Si6 0.497230 0.420704 0.597640
Si Si7 0.241001 0.921402 0.375376
O O1 0.318192 0.750000 0.817959
O O2 0.504383 0.980454 0.913622
O O3 0.237888 0.977316 0.850003
O O4 0.200937 0.987352 0.704366
O O5 0.460506 0.250000 0.269073
O O6 0.379770 0.037658 0.145026
O O7 0.686145 0.054397 0.353936
O O8 0.443293 0.977175 0.300642
O O9 0.688142 0.750000 0.974600
O O10 0.823236 0.489019 0.059817
O O11 0.089114 0.750000 0.830008
O O12 0.929304 0.507592 0.724523
O O13 0.886731 0.250000 0.407085
O O14 0.000000 0.000000 0.500000
O O15 0.445638 0.250000 0.573917
O O16 0.651653 0.445785 0.632058
O O17 0.337434 0.512533 0.488531
O O18 0.205047 0.750000 0.369802
#
# Coordination Sequence:
#
# PCOD8076325 Si02
#       7
#     4   4   4   4   4   4   4
#     4   8  17  33  51  73 107 145 179 216 262 312
#     4   9  19  35  56  78 106 144 181 217 269 325
#     4   9  18  36  56  76 108 149 183 217 264 318
#     4  11  21  33  54  83 111 140 181 228 268 310
#     4   9  18  32  48  73 107 141 177 217 260 313
#     4  10  21  38  60  82 106 137 176 224 275 322
#     4  10  22  39  57  80 109 140 176 219 271 331
#
# _framework density 18.687854000000002
#
# number of rings (size 3 to 8) (size 9 to 14) (size 15 to 20)
#    0.000    2.571    0.000    3.429    2.000    2.857 
#    0.000    4.286    0.000    0.000    0.000    0.000 
#    0.000    0.000    0.000    0.000    0.000    0.000 
#
# Total GULP energy -347185.910231 kJ/mol
# GULP energy per Si atom -12399.496794 kJ/mol
# Density = 1.864532 g / cm^3
# Si number density = 18.687854 Si / 1000 Ang^3
#
#
#
# Elastic Constant Matrix: (Units=GPa)
#
#
# Indices 1 2 3 4 5 6 
#
# 1 63.5042 44.3296 43.1916 0.0000 -16.0737 0.0000
# 2 44.3296 82.8285 49.0911 0.0000 -6.9692 0.0000
# 3 43.1916 49.0911 113.1708 0.0000 -6.0212 0.0000
# 4 0.0000 0.0000 0.0000 37.6220 0.0000 -0.1899
# 5 -16.0737 -6.9692 -6.0212 0.0000 22.9309 0.0000
# 6 0.0000 0.0000 0.0000 -0.1899 0.0000 27.7958
#
#
#
# Elastic Compliance Matrix: (Units=1/GPa)
#
#
# Indices 1 2 3 4 5 6 
#
# 1 0.033381 -0.012616 -0.006314 0.000000 0.017906 0.000000
# 2 -0.012616 0.021244 -0.004592 0.000000 -0.003592 0.000000
# 3 -0.006314 -0.004592 0.013111 0.000000 -0.002379 0.000000
# 4 0.000000 0.000000 0.000000 0.026581 0.000000 0.000182
# 5 0.017906 -0.003592 -0.002379 0.000000 0.054444 0.000000
# 6 0.000000 0.000000 0.000000 0.000182 0.000000 0.035978
#
#
# Mechanical properties :
#
#
# Convention : Reuss Voigt Hill
#
# Bulk Modulus (GPa) = 48.32766 59.19203 53.75985
# Shear Modulus (GPa) = 20.94841 25.86250 23.40546
#
# Velocity S-wave (km/s) = 3.35171 3.72414 3.54283
# Velocity P-wave (km/s) = 6.39494 7.08768 6.75020
#
# Compressibility (1/GPa) = 0.02069208
#
# Stress axis : x y z
#
# Youngs Moduli (GPa) = 29.95728 47.07134 76.27046
#
# Poissons Ratio (x) = 0.59386 0.48161
# Poissons Ratio (y) = 0.37795 0.35020
# Poissons Ratio (z) = 0.18916 0.21613
#
# Static dielectric constant tensor:
#      x y z
#    x 3.575920 0.000000 -0.250750 
#    y 0.000000 3.993750 0.000000 
#    z -0.250750 0.000000 3.549540 
# 
# 
# High freq. dielectric constant tensor:
#      x y z
#    x 1.713620 0.000000 -0.009180 
#    y 0.000000 1.715290 0.000000 
#    z -0.009180 0.000000 1.734220 
# 
# From -- ./inp_files/65447.got.cif
#   From: 2010.06.25/outbox.cif.g09.slc.cpg/sg11_33_cif.got.tgz:65447.got - 2010.06.27 23:14:04.
