data_PCOD8076674
_publ_section_title
;
Structure prediction by ZEFSAII (Michael W. Deem and Ramdas Pophale) SiO2 
 PCOD8076674
Probable space group: P 21/M
;
_chemical_formula_sum "Si O2"
_cell_formula_units_Z 28
_cell_length_a 25.848817
_cell_length_b 8.916995
_cell_length_c 9.281828
_cell_angle_alpha 90.000000
_cell_angle_beta 44.169256
_cell_angle_gamma 90.000000
_cell_volume 1490.694287
_symmetry_space_group_name_H-M "P 21/M"
_symmetry_group_IT_number 11
_symmetry_cell_setting 'monoclinic'
loop_
_space_group_symop_operation_xyz
x,y,z
-x,1/2+y,-z
-x,-y,-z
x,1/2-y,z
loop_
_atom_site_type_symbol
_atom_site_label
_atom_site_fract_x
_atom_site_fract_y
_atom_site_fract_z
Si Si1 0.710260 0.410761 0.587019
Si Si2 0.553728 0.415437 0.790573
Si Si3 0.920245 0.072847 0.165883
Si Si4 0.810687 0.417308 0.131725
Si Si5 0.426968 0.930452 0.570532
Si Si6 0.192386 0.422542 0.408051
Si Si7 0.268418 0.426851 0.960097
O O1 0.738102 0.250000 0.598623
O O2 0.623204 0.415783 0.757292
O O3 0.734889 0.414182 0.372240
O O4 0.740619 0.551695 0.614013
O O5 0.522422 0.250000 0.824683
O O6 0.568513 0.487150 0.604310
O O7 0.500000 0.500000 0.000000
O O8 0.927740 0.250000 0.160454
O O9 0.876127 0.025460 0.108178
O O10 0.878398 0.016751 0.394150
O O11 0.000000 0.000000 0.000000
O O12 0.829383 0.250000 0.035271
O O13 0.792563 0.529894 0.038664
O O14 0.427099 0.750000 0.585800
O O15 0.500000 0.000000 0.500000
O O16 0.348542 0.990565 0.791869
O O17 0.168817 0.250000 0.452330
O O18 0.224560 0.476104 0.191344
O O19 0.283951 0.250000 0.924595
#
# Coordination Sequence:
#
# PCOD8076674 Si02
#       7
#     4   4   4   4   4   4   4
#     4   9  18  36  56  78 106 144 191 236 286 340
#     4  10  22  38  55  78 109 143 188 241 291 344
#     4  10  21  39  64  92 121 152 189 232 282 340
#     4   9  18  36  60  84 112 148 188 232 281 335
#     4  11  24  42  59  80 114 153 195 245 297 348
#     4  10  22  37  56  86 119 150 189 236 281 334
#     4  11  23  38  58  86 118 153 196 240 286 343
#
# _framework density 18.783194999999999
#
# number of rings (size 3 to 8) (size 9 to 14) (size 15 to 20)
#    0.000    2.000    1.429    2.571    2.000    6.857 
#    0.000    0.714    0.000    0.000    0.000    0.000 
#    0.000    0.000    0.000    0.000    0.000    0.000 
#
# Total GULP energy -346908.462994 kJ/mol
# GULP energy per Si atom -12389.587964 kJ/mol
# Density = 1.874044 g / cm^3
# Si number density = 18.783195 Si / 1000 Ang^3
#
#
#
# Elastic Constant Matrix: (Units=GPa)
#
#
# Indices 1 2 3 4 5 6 
#
# 1 92.3346 45.7143 70.4029 0.0000 -7.4870 0.0000
# 2 45.7143 78.7589 63.5682 0.0000 -5.7661 0.0000
# 3 70.4029 63.5682 147.3580 0.0000 -3.2372 0.0000
# 4 0.0000 0.0000 0.0000 33.0967 0.0000 -0.5125
# 5 -7.4870 -5.7661 -3.2372 0.0000 25.0485 0.0000
# 6 0.0000 0.0000 0.0000 -0.5125 0.0000 32.9582
#
#
#
# Elastic Compliance Matrix: (Units=1/GPa)
#
#
# Indices 1 2 3 4 5 6 
#
# 1 0.018783 -0.005313 -0.006604 0.000000 0.003538 0.000000
# 2 -0.005313 0.021276 -0.006586 0.000000 0.002459 0.000000
# 3 -0.006604 -0.006586 0.012742 0.000000 -0.001843 0.000000
# 4 0.000000 0.000000 0.000000 0.030222 0.000000 0.000470
# 5 0.003538 0.002459 -0.001843 0.000000 0.041308 0.000000
# 6 0.000000 0.000000 0.000000 0.000470 0.000000 0.030349
#
#
# Mechanical properties :
#
#
# Convention : Reuss Voigt Hill
#
# Bulk Modulus (GPa) = 63.31009 75.31360 69.31185
# Shear Modulus (GPa) = 25.38695 27.47173 26.42934
#
# Velocity S-wave (km/s) = 3.68037 3.82850 3.75517
# Velocity P-wave (km/s) = 7.19993 7.72830 7.46879
#
# Compressibility (1/GPa) = 0.01579527
#
# Stress axis : x y z
#
# Youngs Moduli (GPa) = 53.23963 47.00022 78.47934
#
# Poissons Ratio (x) = 0.24970 0.51830
# Poissons Ratio (y) = 0.28285 0.51687
# Poissons Ratio (z) = 0.35161 0.30955
#
# Static dielectric constant tensor:
#      x y z
#    x 3.289690 0.000000 0.074860 
#    y 0.000000 3.335640 0.000000 
#    z 0.074860 0.000000 3.451450 
# 
# 
# High freq. dielectric constant tensor:
#      x y z
#    x 1.725600 0.000000 -0.001310 
#    y 0.000000 1.732200 0.000000 
#    z -0.001310 0.000000 1.728870 
# 
# From -- ./inp_files/28243.got.cif
#   From: 2010.06.25/outbox.cif.g09.slc.cpg/sg11_15_cif.got.tgz:28243.got - 2010.06.27 23:14:04.
