data_PCOD8076760
_publ_section_title
;
Structure prediction by ZEFSAII (Michael W. Deem and Ramdas Pophale) SiO2 
 PCOD8076760
Probable space group: P 21/M
;
_chemical_formula_sum "Si O2"
_cell_formula_units_Z 28
_cell_length_a 14.500222
_cell_length_b 17.483921
_cell_length_c 5.527349
_cell_angle_alpha 90.000000
_cell_angle_beta 123.037554
_cell_angle_gamma 90.000000
_cell_volume 1174.726557
_symmetry_space_group_name_H-M "P 21/M"
_symmetry_group_IT_number 11
_symmetry_cell_setting 'monoclinic'
loop_
_space_group_symop_operation_xyz
x,y,z
-x,1/2+y,-z
-x,-y,-z
x,1/2-y,z
loop_
_atom_site_type_symbol
_atom_site_label
_atom_site_fract_x
_atom_site_fract_y
_atom_site_fract_z
Si Si1 0.259031 0.557017 0.306663
Si Si2 0.419909 0.063508 0.486478
Si Si3 0.124902 0.161849 0.320040
Si Si4 0.745512 0.662310 0.997152
Si Si5 0.394210 0.664675 0.178557
Si Si6 0.944503 0.066580 0.270585
Si Si7 0.180194 0.665493 0.568380
O O1 0.324528 0.482319 0.500377
O O2 0.346486 0.619532 0.339898
O O3 0.176980 0.597413 0.373688
O O4 0.171671 0.529709 0.979661
O O5 0.362868 0.109341 0.183065
O O6 0.492971 0.122563 0.750897
O O7 0.500000 0.000000 0.500000
O O8 0.085000 0.250000 0.275700
O O9 0.184875 0.147689 0.150226
O O10 0.024071 0.100988 0.176165
O O11 0.195028 0.142348 0.664032
O O12 0.707133 0.750000 0.949385
O O13 0.424309 0.750000 0.305750
O O14 0.304825 0.666137 0.841716
O O15 0.914156 0.143593 0.376970
O O16 0.000000 0.000000 0.500000
O O17 0.151659 0.750000 0.423705
#
# Coordination Sequence:
#
# PCOD8076760 Si02
#       7
#     4   4   4   4   4   4   4
#     4  10  22  38  60  90 123 161 205 262 320 381
#     4  10  21  40  63  91 124 166 212 261 330 383
#     4  10  23  42  66  94 129 172 219 269 323 388
#     4  10  22  43  66  95 132 170 217 272 325 389
#     4   9  19  39  61  87 120 158 208 259 317 383
#     4  11  24  39  62  89 125 166 210 263 323 389
#     4  10  22  39  60  88 121 159 208 263 318 382
#
# _framework density 23.835335000000001
#
# number of rings (size 3 to 8) (size 9 to 14) (size 15 to 20)
#    0.000    2.000    0.000    2.143    4.000    2.857 
#    5.143    0.000    0.000    0.000    0.000    0.000 
#    0.000    0.000    0.000    0.000    0.000    0.000 
#
# Total GULP energy -346867.355304 kJ/mol
# GULP energy per Si atom -12388.119832 kJ/mol
# Density = 2.378109 g / cm^3
# Si number density = 23.835335 Si / 1000 Ang^3
#
#
#
# Elastic Constant Matrix: (Units=GPa)
#
#
# Indices 1 2 3 4 5 6 
#
# 1 72.2418 42.4351 42.9862 0.0000 15.5867 0.0000
# 2 42.4351 119.3177 41.0384 0.0000 30.5234 0.0000
# 3 42.9862 41.0384 69.9729 0.0000 3.8098 0.0000
# 4 0.0000 0.0000 0.0000 35.0266 0.0000 10.9186
# 5 15.5867 30.5234 3.8098 0.0000 36.9516 0.0000
# 6 0.0000 0.0000 0.0000 10.9186 0.0000 40.0105
#
#
#
# Elastic Compliance Matrix: (Units=1/GPa)
#
#
# Indices 1 2 3 4 5 6 
#
# 1 0.024760 -0.002368 -0.013435 0.000000 -0.007103 0.000000
# 2 -0.002368 0.013838 -0.006127 0.000000 -0.009800 0.000000
# 3 -0.013435 -0.006127 0.025699 0.000000 0.008079 0.000000
# 4 0.000000 0.000000 0.000000 0.031204 0.000000 -0.008515
# 5 -0.007103 -0.009800 0.008079 0.000000 0.037321 0.000000
# 6 0.000000 0.000000 0.000000 -0.008515 0.000000 0.027317
#
#
# Mechanical properties :
#
#
# Convention : Reuss Voigt Hill
#
# Bulk Modulus (GPa) = 48.93503 57.16129 53.04816
# Shear Modulus (GPa) = 23.71785 31.40260 27.56023
#
# Velocity S-wave (km/s) = 3.15790 3.63365 3.40409
# Velocity P-wave (km/s) = 5.81992 6.45278 6.14450
#
# Compressibility (1/GPa) = 0.02043526
#
# Stress axis : x y z
#
# Youngs Moduli (GPa) = 40.38715 72.26737 38.91242
#
# Poissons Ratio (x) = 0.17112 0.52281
# Poissons Ratio (y) = 0.09563 0.23843
# Poissons Ratio (z) = 0.54262 0.44281
#
# Static dielectric constant tensor:
#      x y z
#    x 4.290460 0.000000 0.290850 
#    y 0.000000 4.707860 0.000000 
#    z 0.290850 0.000000 4.196440 
# 
# 
# High freq. dielectric constant tensor:
#      x y z
#    x 1.933480 0.000000 0.026260 
#    y 0.000000 1.968840 0.000000 
#    z 0.026260 0.000000 1.926370 
# 
# From -- ./inp_files/6891.got.cif
#   From: 2010.06.25/outbox.cif.g09.slc.cpg/sg11_4_cif.got.tgz:6891.got - 2010.06.27 23:14:04.
