data_PCOD8076453
_publ_section_title
;
Structure prediction by ZEFSAII (Michael W. Deem and Ramdas Pophale) SiO2 
 PCOD8076453
Probable space group: P 21/M
;
_chemical_formula_sum "Si O2"
_cell_formula_units_Z 32
_cell_length_a 11.383147
_cell_length_b 20.816245
_cell_length_c 8.583821
_cell_angle_alpha 90.000000
_cell_angle_beta 53.083308
_cell_angle_gamma 90.000000
_cell_volume 1626.181915
_symmetry_space_group_name_H-M "P 21/M"
_symmetry_group_IT_number 11
_symmetry_cell_setting 'monoclinic'
loop_
_space_group_symop_operation_xyz
x,y,z
-x,1/2+y,-z
-x,-y,-z
x,1/2-y,z
loop_
_atom_site_type_symbol
_atom_site_label
_atom_site_fract_x
_atom_site_fract_y
_atom_site_fract_z
Si Si1 0.996196 0.323287 0.842318
Si Si2 0.791230 0.572305 0.197443
Si Si3 0.372348 0.488817 0.224497
Si Si4 0.802271 0.444419 0.388607
Si Si5 0.411954 0.370290 0.403676
Si Si6 0.150710 0.320490 0.420545
Si Si7 0.720898 0.322149 0.253930
Si Si8 0.865906 0.931307 0.790857
O O1 0.056237 0.250000 0.827705
O O2 0.074160 0.378897 0.880696
O O3 0.015760 0.339705 0.643233
O O4 0.825440 0.327218 0.020245
O O5 0.809495 0.501682 0.256783
O O6 0.645213 0.604880 0.382887
O O7 0.779820 0.563232 0.022222
O O8 0.328904 0.545115 0.380829
O O9 0.436309 0.429960 0.271175
O O10 0.216715 0.477491 0.263872
O O11 0.500000 0.500000 0.000000
O O12 0.768602 0.375106 0.341961
O O13 0.962395 0.446919 0.339101
O O14 0.295072 0.324074 0.414106
O O15 0.559634 0.332109 0.315372
O O16 0.131740 0.250000 0.369556
O O17 0.154392 0.360343 0.260394
O O18 0.731669 0.250000 0.318754
#
# Coordination Sequence:
#
# PCOD8076453 Si02
#       8
#     4   4   4   4   4   4   4   4
#     4   9  19  37  60  88 119 154 199 244 298 359
#     4  10  21  38  62  91 115 157 208 245 300 353
#     4  10  24  39  60  88 122 155 194 247 307 365
#     4  11  24  40  61  89 123 160 198 256 304 361
#     4   9  21  38  61  84 117 154 198 243 294 362
#     4   9  19  38  59  82 116 156 194 240 296 359
#     4  11  23  38  62  91 119 157 204 252 301 355
#     4  11  22  37  59  92 119 153 199 250 300 358
#
# _framework density 19.677996
#
# number of rings (size 3 to 8) (size 9 to 14) (size 15 to 20)
#    0.000    2.000    1.250    1.875    3.500    3.500 
#    0.000    0.000    0.000    0.750    0.000    0.000 
#    0.000    0.000    0.000    0.000    0.000    0.000 
#
# Total GULP energy -396563.267189 kJ/mol
# GULP energy per Si atom -12392.602100 kJ/mol
# Density = 1.963321 g / cm^3
# Si number density = 19.677996 Si / 1000 Ang^3
#
#
#
# Elastic Constant Matrix: (Units=GPa)
#
#
# Indices 1 2 3 4 5 6 
#
# 1 67.6679 47.2500 41.6243 0.0000 -7.1976 0.0000
# 2 47.2500 115.0962 54.5069 0.0000 2.0882 0.0000
# 3 41.6243 54.5069 133.2693 0.0000 -6.6919 0.0000
# 4 0.0000 0.0000 0.0000 25.2928 0.0000 -5.6446
# 5 -7.1976 2.0882 -6.6919 0.0000 30.8859 0.0000
# 6 0.0000 0.0000 0.0000 -5.6446 0.0000 6.8881
#
#
#
# Elastic Compliance Matrix: (Units=1/GPa)
#
#
# Indices 1 2 3 4 5 6 
#
# 1 0.023068 -0.007778 -0.003768 0.000000 0.005085 0.000000
# 2 -0.007778 0.013487 -0.003259 0.000000 -0.003430 0.000000
# 3 -0.003768 -0.003259 0.010090 0.000000 0.001528 0.000000
# 4 0.000000 0.000000 0.000000 0.048386 0.000000 0.039651
# 5 0.005085 -0.003430 0.001528 0.000000 0.034125 0.000000
# 6 0.000000 0.000000 0.000000 0.039651 0.000000 0.177670
#
#
# Mechanical properties :
#
#
# Convention : Reuss Voigt Hill
#
# Bulk Modulus (GPa) = 58.70375 66.97729 62.84052
# Shear Modulus (GPa) = 14.61497 24.12350 19.36923
#
# Velocity S-wave (km/s) = 2.72822 3.50510 3.14077
# Velocity P-wave (km/s) = 6.31040 7.10574 6.71985
#
# Compressibility (1/GPa) = 0.01703469
#
# Stress axis : x y z
#
# Youngs Moduli (GPa) = 43.35047 74.14542 99.10413
#
# Poissons Ratio (x) = 0.57667 0.37347
# Poissons Ratio (y) = 0.33716 0.32300
# Poissons Ratio (z) = 0.16337 0.24166
#
# Static dielectric constant tensor:
#      x y z
#    x 3.393320 0.000000 -0.043540 
#    y 0.000000 3.737820 0.000000 
#    z -0.043540 0.000000 3.737750 
# 
# 
# High freq. dielectric constant tensor:
#      x y z
#    x 1.748550 0.000000 -0.004940 
#    y 0.000000 1.773190 0.000000 
#    z -0.004940 0.000000 1.779940 
# 
# From -- ./inp_files/19367.got.cif
#   From: 2010.06.25/outbox.cif.g09.slc.cpg/sg11_10_cif.got.tgz:19367.got - 2010.06.27 23:14:04.
