data_PCOD8076060
_publ_section_title
;
Structure prediction by ZEFSAII (Michael W. Deem and Ramdas Pophale) SiO2 
 PCOD8076060
Probable space group: P 21/M
;
_chemical_formula_sum "Si O2"
_cell_formula_units_Z 32
_cell_length_a 10.948225
_cell_length_b 14.593727
_cell_length_c 16.862520
_cell_angle_alpha 90.000000
_cell_angle_beta 34.255547
_cell_angle_gamma 90.000000
_cell_volume 1516.533634
_symmetry_space_group_name_H-M "P 21/M"
_symmetry_group_IT_number 11
_symmetry_cell_setting 'monoclinic'
loop_
_space_group_symop_operation_xyz
x,y,z
-x,1/2+y,-z
-x,-y,-z
x,1/2-y,z
loop_
_atom_site_type_symbol
_atom_site_label
_atom_site_fract_x
_atom_site_fract_y
_atom_site_fract_z
Si Si1 0.380363 0.351454 0.522041
Si Si2 0.298907 0.531246 0.385170
Si Si3 0.364885 0.352929 0.704265
Si Si4 0.910866 0.431135 0.981821
Si Si5 0.687576 0.356598 0.775704
Si Si6 0.468229 0.648852 0.726523
Si Si7 0.985807 0.983078 0.324652
Si Si8 0.320185 0.037399 0.035196
O O1 0.269741 0.250000 0.573022
O O2 0.482947 0.357882 0.554762
O O3 0.554540 0.363745 0.357412
O O4 0.219648 0.437032 0.605449
O O5 0.516329 0.576394 0.302919
O O6 0.234721 0.587429 0.342804
O O7 0.359581 0.425666 0.332789
O O8 0.089921 0.535286 0.555032
O O9 0.386250 0.250000 0.727523
O O10 0.111139 0.379117 0.833058
O O11 0.766432 0.358959 0.108053
O O12 0.753301 0.472945 0.998635
O O13 0.000000 0.500000 0.000000
O O14 0.728935 0.250000 0.741235
O O15 0.846602 0.398260 0.756219
O O16 0.433591 0.373588 0.934436
O O17 0.561694 0.750000 0.695761
O O18 0.102629 0.057376 0.203747
O O19 0.500000 0.000000 0.000000
#
# Coordination Sequence:
#
# PCOD8076060 Si02
#       8
#     4   4   4   4   4   4   4   4
#     4   9  19  35  57  88 119 152 201 250 305 366
#     4  11  22  39  62  92 126 161 203 262 318 375
#     4  11  22  37  60  90 122 163 206 253 313 381
#     4  12  21  38  61  91 124 164 211 261 315 372
#     4  11  22  41  65  89 123 166 209 255 313 380
#     4  10  21  37  57  87 122 159 203 261 314 365
#     4  10  21  38  64  86 121 163 208 253 313 366
#     4  10  22  41  63  91 125 166 210 259 312 377
#
# _framework density 21.100752
#
# number of rings (size 3 to 8) (size 9 to 14) (size 15 to 20)
#    0.000    1.500    3.750    1.500    0.000    3.500 
#    0.000    2.500    0.000    0.000    0.000    0.000 
#    0.000    0.000    0.000    0.000    0.000    0.000 
#
# Total GULP energy -396453.436999 kJ/mol
# GULP energy per Si atom -12389.169906 kJ/mol
# Density = 2.105273 g / cm^3
# Si number density = 21.100752 Si / 1000 Ang^3
#
#
#
# Elastic Constant Matrix: (Units=GPa)
#
#
# Indices 1 2 3 4 5 6 
#
# 1 79.3854 23.3208 14.0947 0.0000 3.0418 0.0000
# 2 23.3208 95.7622 24.6288 0.0000 4.6962 0.0000
# 3 14.0947 24.6288 120.9744 0.0000 16.6195 0.0000
# 4 0.0000 0.0000 0.0000 25.1098 0.0000 1.5545
# 5 3.0418 4.6962 16.6195 0.0000 29.7526 0.0000
# 6 0.0000 0.0000 0.0000 1.5545 0.0000 18.4957
#
#
#
# Elastic Compliance Matrix: (Units=1/GPa)
#
#
# Indices 1 2 3 4 5 6 
#
# 1 0.013678 -0.003077 -0.000912 0.000000 -0.000403 0.000000
# 2 -0.003077 0.011719 -0.001967 0.000000 -0.000436 0.000000
# 3 -0.000912 -0.001967 0.009442 0.000000 -0.004870 0.000000
# 4 0.000000 0.000000 0.000000 0.040033 0.000000 -0.003365
# 5 -0.000403 -0.000436 -0.004870 0.000000 0.036441 0.000000
# 6 0.000000 0.000000 0.000000 -0.003365 0.000000 0.054349
#
#
# Mechanical properties :
#
#
# Convention : Reuss Voigt Hill
#
# Bulk Modulus (GPa) = 43.61614 46.69007 45.15311
# Shear Modulus (GPa) = 26.99527 30.27681 28.63604
#
# Velocity S-wave (km/s) = 3.58068 3.79208 3.68789
# Velocity P-wave (km/s) = 6.14901 6.43027 6.29121
#
# Compressibility (1/GPa) = 0.02292729
#
# Stress axis : x y z
#
# Youngs Moduli (GPa) = 73.11037 85.33015 105.90854
#
# Poissons Ratio (x) = 0.26253 0.09657
# Poissons Ratio (y) = 0.22494 0.20837
# Poissons Ratio (z) = 0.06666 0.16789
#
# Static dielectric constant tensor:
#      x y z
#    x 3.706970 0.000000 0.245300 
#    y 0.000000 3.747280 0.000000 
#    z 0.245300 0.000000 4.313620 
# 
# 
# High freq. dielectric constant tensor:
#      x y z
#    x 1.813880 0.000000 0.019500 
#    y 0.000000 1.809420 0.000000 
#    z 0.019500 0.000000 1.841690 
# 
# From -- ./inp_files/59476.got.cif
#   From: 2010.06.25/outbox.cif.g09.slc.cpg/sg11_30_cif.got.tgz:59476.got - 2010.06.27 23:14:04.
