data_PCOD8076965
_publ_section_title
;
Structure prediction by ZEFSAII (Michael W. Deem and Ramdas Pophale) SiO2 
 PCOD8076965
Probable space group: P 21/M
;
_chemical_formula_sum "Si O2"
_cell_formula_units_Z 28
_cell_length_a 22.555976
_cell_length_b 9.994398
_cell_length_c 19.827599
_cell_angle_alpha 90.000000
_cell_angle_beta 160.679309
_cell_angle_gamma 90.000000
_cell_volume 1478.857604
_symmetry_space_group_name_H-M "P 21/M"
_symmetry_group_IT_number 11
_symmetry_cell_setting 'monoclinic'
loop_
_space_group_symop_operation_xyz
x,y,z
-x,1/2+y,-z
-x,-y,-z
x,1/2-y,z
loop_
_atom_site_type_symbol
_atom_site_label
_atom_site_fract_x
_atom_site_fract_y
_atom_site_fract_z
Si Si1 0.563063 0.400574 0.772635
Si Si2 0.616976 0.596404 0.944139
Si Si3 0.967885 0.903362 0.403653
Si Si4 0.789810 0.403597 0.462646
Si Si5 0.515010 0.896311 0.456533
Si Si6 0.853483 0.599425 0.643910
Si Si7 0.073493 0.396313 0.131970
O O1 0.635026 0.250000 0.863366
O O2 0.662338 0.505409 0.927727
O O3 0.597475 0.439822 0.730873
O O4 0.354984 0.408208 0.564944
O O5 0.624889 0.750000 0.928442
O O6 0.422737 0.562870 0.768209
O O7 0.769655 0.566715 0.162668
O O8 0.980566 0.750000 0.441689
O O9 0.123359 0.933286 0.516372
O O10 0.000000 0.000000 0.500000
O O11 0.821335 0.250000 0.517779
O O12 0.896946 0.494592 0.631558
O O13 0.447639 0.750000 0.409096
O O14 0.716841 0.883824 0.650527
O O15 0.500000 0.000000 0.500000
O O16 0.906680 0.750000 0.678341
O O17 0.964072 0.560182 0.830674
O O18 0.986187 0.250000 0.024730
O O19 0.000000 0.500000 0.000000
#
# Coordination Sequence:
#
# PCOD8076965 Si02
#       7
#     4   4   4   4   4   4   4
#     4   8  15  30  51  72  96 128 168 212 253 298
#     4   9  18  34  55  77 102 134 170 207 253 305
#     4  10  22  38  54  78 110 136 166 210 252 302
#     4   9  18  34  55  77 102 134 170 207 253 305
#     4   9  18  32  48  69  99 133 170 213 259 308
#     4   8  15  30  51  72  96 128 168 212 253 298
#     4   9  18  32  48  69  99 133 170 213 259 308
#
# _framework density 18.933534000000002
#
# number of rings (size 3 to 8) (size 9 to 14) (size 15 to 20)
#    0.000    3.143    0.000    1.714    0.000    3.429 
#    2.571    2.857    0.000    0.000    0.000    0.000 
#    0.000    0.000    0.000    0.000    0.000    0.000 
#
# Total GULP energy -346974.711681 kJ/mol
# GULP energy per Si atom -12391.953989 kJ/mol
# Density = 1.889044 g / cm^3
# Si number density = 18.933534 Si / 1000 Ang^3
#
#
#
# Elastic Constant Matrix: (Units=GPa)
#
#
# Indices 1 2 3 4 5 6 
#
# 1 129.2059 98.5925 52.0919 0.0000 -31.1068 0.0000
# 2 98.5925 138.9867 56.6996 0.0000 -39.6770 0.0000
# 3 52.0919 56.6996 75.7825 0.0000 -19.4848 0.0000
# 4 0.0000 0.0000 0.0000 25.9015 0.0000 -13.5788
# 5 -31.1068 -39.6770 -19.4848 0.0000 33.1421 0.0000
# 6 0.0000 0.0000 0.0000 -13.5788 0.0000 40.2387
#
#
#
# Elastic Compliance Matrix: (Units=1/GPa)
#
#
# Indices 1 2 3 4 5 6 
#
# 1 0.017742 -0.010480 -0.003886 0.000000 0.001821 0.000000
# 2 -0.010480 0.019673 -0.004699 0.000000 0.010953 0.000000
# 3 -0.003886 -0.004699 0.020025 0.000000 0.002500 0.000000
# 4 0.000000 0.000000 0.000000 0.046906 0.000000 0.015829
# 5 0.001821 0.010953 0.002500 0.000000 0.046464 0.000000
# 6 0.000000 0.000000 0.000000 0.015829 0.000000 0.030193
#
#
# Mechanical properties :
#
#
# Convention : Reuss Voigt Hill
#
# Bulk Modulus (GPa) = 51.78781 84.30479 68.04630
# Shear Modulus (GPa) = 22.16592 28.96252 25.56422
#
# Velocity S-wave (km/s) = 3.42529 3.91537 3.67850
# Velocity P-wave (km/s) = 6.56166 8.06620 7.35251
#
# Compressibility (1/GPa) = 0.01930956
#
# Stress axis : x y z
#
# Youngs Moduli (GPa) = 56.36364 50.83091 49.93634
#
# Poissons Ratio (x) = 0.53273 0.19406
# Poissons Ratio (y) = 0.59072 0.23465
# Poissons Ratio (z) = 0.21903 0.23885
#
# Static dielectric constant tensor:
#      x y z
#    x 5.220180 0.000000 -1.161250 
#    y 0.000000 1.246160 0.000000 
#    z -1.161250 0.000000 3.993900 
# 
# 
# High freq. dielectric constant tensor:
#      x y z
#    x 1.726700 0.000000 -0.000280 
#    y 0.000000 1.736490 0.000000 
#    z -0.000280 0.000000 1.726410 
# 
# From -- ./inp_files/29104.got.cif
#   From: 2010.06.25/outbox.cif.g09.slc.cpg/sg11_15_cif.got.tgz:29104.got - 2010.06.27 23:14:04.
