data_PCOD8076549
_publ_section_title
;
Structure prediction by ZEFSAII (Michael W. Deem and Ramdas Pophale) SiO2 
 PCOD8076549
Probable space group: P 21/M
;
_chemical_formula_sum "Si O2"
_cell_formula_units_Z 28
_cell_length_a 11.778769
_cell_length_b 8.875729
_cell_length_c 14.912520
_cell_angle_alpha 90.000000
_cell_angle_beta 118.513134
_cell_angle_gamma 90.000000
_cell_volume 1369.933274
_symmetry_space_group_name_H-M "P 21/M"
_symmetry_group_IT_number 11
_symmetry_cell_setting 'monoclinic'
loop_
_space_group_symop_operation_xyz
x,y,z
-x,1/2+y,-z
-x,-y,-z
x,1/2-y,z
loop_
_atom_site_type_symbol
_atom_site_label
_atom_site_fract_x
_atom_site_fract_y
_atom_site_fract_z
Si Si1 0.413915 0.072945 0.888562
Si Si2 0.853086 0.081602 0.190417
Si Si3 0.536155 0.926683 0.295021
Si Si4 0.139225 0.078134 0.322995
Si Si5 0.283653 0.079406 0.201781
Si Si6 0.377061 0.572121 0.504287
Si Si7 0.876614 0.081800 0.989637
O O1 0.430912 0.250000 0.906361
O O2 0.458443 0.019632 0.806522
O O3 0.262511 0.032450 0.833699
O O4 0.500000 0.000000 0.000000
O O5 0.817553 0.250000 0.211463
O O6 0.990117 0.028293 0.285616
O O7 0.874937 0.087708 0.094022
O O8 0.559526 0.750000 0.312578
O O9 0.397891 0.975534 0.283093
O O10 0.636215 0.012022 0.398080
O O11 0.160901 0.250000 0.364011
O O12 0.163862 0.070314 0.225202
O O13 0.239325 0.968794 0.409264
O O14 0.333144 0.250000 0.208578
O O15 0.245620 0.013314 0.090752
O O16 0.500000 0.500000 0.500000
O O17 0.396787 0.750000 0.510452
O O18 0.870677 0.250000 0.946897
O O19 0.000000 0.000000 0.000000
#
# Coordination Sequence:
#
# PCOD8076549 Si02
#       7
#     4   4   4   4   4   4   4
#     4  11  25  44  67  94 125 165 213 261 309 369
#     4  10  22  41  62  86 123 166 206 256 314 369
#     4  11  24  42  63  90 124 164 210 260 312 367
#     4  10  21  39  60  88 126 163 202 252 311 371
#     4  11  21  35  57  88 123 160 202 249 310 373
#     4  12  24  39  63  95 128 165 209 259 315 376
#     4  11  21  34  53  83 121 159 201 249 305 371
#
# _framework density 20.438950999999999
#
# number of rings (size 3 to 8) (size 9 to 14) (size 15 to 20)
#    0.000    1.143    2.857    3.857    0.000    8.000 
#    0.000    0.714    0.000    0.000    0.000    0.000 
#    0.000    0.000    0.000    0.000    0.000    0.000 
#
# Total GULP energy -347092.152909 kJ/mol
# GULP energy per Si atom -12396.148318 kJ/mol
# Density = 2.039243 g / cm^3
# Si number density = 20.438951 Si / 1000 Ang^3
#
#
#
# Elastic Constant Matrix: (Units=GPa)
#
#
# Indices 1 2 3 4 5 6 
#
# 1 88.7831 39.6031 37.2337 0.0000 14.5839 0.0000
# 2 39.6031 111.1487 59.4231 0.0000 -0.2111 0.0000
# 3 37.2337 59.4231 124.0513 0.0000 11.6781 0.0000
# 4 0.0000 0.0000 0.0000 34.7885 0.0000 5.4706
# 5 14.5839 -0.2111 11.6781 0.0000 32.1882 0.0000
# 6 0.0000 0.0000 0.0000 5.4706 0.0000 31.5370
#
#
#
# Elastic Compliance Matrix: (Units=1/GPa)
#
#
# Indices 1 2 3 4 5 6 
#
# 1 0.014993 -0.004380 -0.001822 0.000000 -0.006161 0.000000
# 2 -0.004380 0.013534 -0.005553 0.000000 0.004088 0.000000
# 3 -0.001822 -0.005553 0.011590 0.000000 -0.003416 0.000000
# 4 0.000000 0.000000 0.000000 0.029551 0.000000 -0.005126
# 5 -0.006161 0.004088 -0.003416 0.000000 0.035125 0.000000
# 6 0.000000 0.000000 0.000000 -0.005126 0.000000 0.032598
#
#
# Mechanical properties :
#
#
# Convention : Reuss Voigt Hill
#
# Bulk Modulus (GPa) = 60.21704 66.27809 63.24756
# Shear Modulus (GPa) = 30.04127 32.21762 31.12944
#
# Velocity S-wave (km/s) = 3.83796 3.97455 3.90685
# Velocity P-wave (km/s) = 7.01183 7.31850 7.16681
#
# Compressibility (1/GPa) = 0.01660660
#
# Stress axis : x y z
#
# Youngs Moduli (GPa) = 66.69670 73.88649 86.28193
#
# Poissons Ratio (x) = 0.32360 0.15723
# Poissons Ratio (y) = 0.29211 0.47917
# Poissons Ratio (z) = 0.12154 0.41033
#
# Static dielectric constant tensor:
#      x y z
#    x 1.203860 0.000000 3.085940 
#    y 0.000000 3.332630 0.000000 
#    z 3.085940 0.000000 0.300110 
# 
# 
# High freq. dielectric constant tensor:
#      x y z
#    x 1.782790 0.000000 0.014430 
#    y 0.000000 1.802880 0.000000 
#    z 0.014430 0.000000 1.806610 
# 
# From -- ./inp_files/37855.got.cif
#   From: 2010.06.25/outbox.cif.g09.slc.cpg/sg11_19_cif.got.tgz:37855.got - 2010.06.27 23:14:04.
