data_PCOD8076032
_publ_section_title
;
Structure prediction by ZEFSAII (Michael W. Deem and Ramdas Pophale) SiO2 
 PCOD8076032
Probable space group: P 21/M
;
_chemical_formula_sum "Si O2"
_cell_formula_units_Z 32
_cell_length_a 12.837140
_cell_length_b 19.993776
_cell_length_c 18.546316
_cell_angle_alpha 90.000000
_cell_angle_beta 159.958369
_cell_angle_gamma 90.000000
_cell_volume 1631.317323
_symmetry_space_group_name_H-M "P 21/M"
_symmetry_group_IT_number 11
_symmetry_cell_setting 'monoclinic'
loop_
_space_group_symop_operation_xyz
x,y,z
-x,1/2+y,-z
-x,-y,-z
x,1/2-y,z
loop_
_atom_site_type_symbol
_atom_site_label
_atom_site_fract_x
_atom_site_fract_y
_atom_site_fract_z
Si Si1 0.676573 0.825607 0.130586
Si Si2 0.744553 0.054774 0.138032
Si Si3 0.264795 0.172792 0.997339
Si Si4 0.935316 0.326642 0.482611
Si Si5 0.865840 0.942660 0.746390
Si Si6 0.147863 0.448628 0.540218
Si Si7 0.216756 0.555035 0.105134
Si Si8 0.715135 0.089024 0.699373
O O1 0.551516 0.750000 0.055190
O O2 0.977479 0.834501 0.376061
O O3 0.408970 0.874471 0.981262
O O4 0.757157 0.843627 0.101229
O O5 0.923150 0.033992 0.182530
O O6 0.966246 0.059797 0.348949
O O7 0.500000 0.000000 0.000000
O O8 0.203378 0.250000 0.973473
O O9 0.587210 0.151033 0.241772
O O10 0.000517 0.130935 0.860812
O O11 0.983350 0.250000 0.487936
O O12 0.158974 0.374881 0.583251
O O13 0.599391 0.892299 0.546150
O O14 0.747920 0.010570 0.705936
O O15 0.043353 0.905677 0.927470
O O16 0.482491 0.475716 0.737504
O O17 0.000000 0.500000 0.500000
O O18 0.319919 0.603445 0.237504
O O19 0.000000 0.500000 0.000000
#
# Coordination Sequence:
#
# PCOD8076032 Si02
#       8
#     4   4   4   4   4   4   4   4
#     4  10  21  39  61  88 121 159 197 245 309 368
#     4  12  22  37  60  91 124 153 200 254 307 361
#     4  10  21  38  61  89 120 161 205 249 300 366
#     4  10  22  40  62  91 127 162 202 258 316 369
#     4  10  21  37  57  82 116 155 196 245 300 355
#     4  12  24  38  62  96 126 160 209 259 311 370
#     4  10  22  39  57  85 122 159 196 246 309 365
#     4  10  21  38  57  80 117 160 197 243 299 361
#
# _framework density 19.616049
#
# number of rings (size 3 to 8) (size 9 to 14) (size 15 to 20)
#    0.000    1.500    2.500    3.000    3.500    1.000 
#    0.000    1.250    0.000    1.500    0.000    0.000 
#    0.000    0.000    0.000    0.000    0.000    0.000 
#
# Total GULP energy -396594.993556 kJ/mol
# GULP energy per Si atom -12393.593549 kJ/mol
# Density = 1.957140 g / cm^3
# Si number density = 19.616049 Si / 1000 Ang^3
#
#
#
# Elastic Constant Matrix: (Units=GPa)
#
#
# Indices 1 2 3 4 5 6 
#
# 1 122.9211 28.4890 81.4791 0.0000 -21.4540 0.0000
# 2 28.4890 57.6283 37.0890 0.0000 2.4160 0.0000
# 3 81.4791 37.0890 152.7969 0.0000 -16.7560 0.0000
# 4 0.0000 0.0000 0.0000 30.6469 0.0000 4.1917
# 5 -21.4540 2.4160 -16.7560 0.0000 52.1045 0.0000
# 6 0.0000 0.0000 0.0000 4.1917 0.0000 23.5460
#
#
#
# Elastic Compliance Matrix: (Units=1/GPa)
#
#
# Indices 1 2 3 4 5 6 
#
# 1 0.013491 -0.002915 -0.006077 0.000000 0.003736 0.000000
# 2 -0.002915 0.021555 -0.004062 0.000000 -0.003506 0.000000
# 3 -0.006077 -0.004062 0.010902 0.000000 0.001192 0.000000
# 4 0.000000 0.000000 0.000000 0.033444 0.000000 -0.005954
# 5 0.003736 -0.003506 0.001192 0.000000 0.021276 0.000000
# 6 0.000000 0.000000 0.000000 -0.005954 0.000000 0.043530
#
#
# Mechanical properties :
#
#
# Convention : Reuss Voigt Hill
#
# Bulk Modulus (GPa) = 50.40365 69.71784 60.06074
# Shear Modulus (GPa) = 28.26141 33.67876 30.97008
#
# Velocity S-wave (km/s) = 3.79981 4.14804 3.97774
# Velocity P-wave (km/s) = 6.70838 7.65245 7.19591
#
# Compressibility (1/GPa) = 0.01983983
#
# Stress axis : x y z
#
# Youngs Moduli (GPa) = 74.12342 46.39287 91.72737
#
# Poissons Ratio (x) = 0.13524 0.55741
# Poissons Ratio (y) = 0.21607 0.37261
# Poissons Ratio (z) = 0.45044 0.18846
#
# Static dielectric constant tensor:
#      x y z
#    x 4.053310 0.000000 -0.623440 
#    y 0.000000 3.417230 0.000000 
#    z -0.623440 0.000000 4.216150 
# 
# 
# High freq. dielectric constant tensor:
#      x y z
#    x 1.776130 0.000000 -0.023520 
#    y 0.000000 1.729070 0.000000 
#    z -0.023520 0.000000 1.784000 
# 
# From -- ./inp_files/59750.got.cif
#   From: 2010.06.25/outbox.cif.g09.slc.cpg/sg11_30_cif.got.tgz:59750.got - 2010.06.27 23:14:04.
