data_PCOD8076098
_publ_section_title
;
Structure prediction by ZEFSAII (Michael W. Deem and Ramdas Pophale) SiO2 
 PCOD8076098
Probable space group: P 21/M
;
_chemical_formula_sum "Si O2"
_cell_formula_units_Z 24
_cell_length_a 9.422211
_cell_length_b 13.861476
_cell_length_c 7.625485
_cell_angle_alpha 90.000000
_cell_angle_beta 109.052790
_cell_angle_gamma 90.000000
_cell_volume 941.373251
_symmetry_space_group_name_H-M "P 21/M"
_symmetry_group_IT_number 11
_symmetry_cell_setting 'monoclinic'
loop_
_space_group_symop_operation_xyz
x,y,z
-x,1/2+y,-z
-x,-y,-z
x,1/2-y,z
loop_
_atom_site_type_symbol
_atom_site_label
_atom_site_fract_x
_atom_site_fract_y
_atom_site_fract_z
Si Si1 0.546433 0.540199 0.297546
Si Si2 0.287393 0.431532 0.301272
Si Si3 0.254558 0.861929 0.617441
Si Si4 0.030602 0.639323 0.838681
Si Si5 0.035532 0.862750 0.231321
Si Si6 0.704190 0.641588 0.067577
O O1 0.368658 0.533298 0.274460
O O2 0.635384 0.601267 0.483587
O O3 0.598941 0.427900 0.318361
O O4 0.427434 0.414725 0.883102
O O5 0.316928 0.359105 0.150664
O O6 0.106418 0.435633 0.257279
O O7 0.300212 0.750000 0.608635
O O8 0.165465 0.877051 0.761325
O O9 0.152324 0.905613 0.418473
O O10 0.969258 0.750000 0.801744
O O11 0.094623 0.617822 0.058271
O O12 0.022682 0.750000 0.266696
O O13 0.866357 0.905687 0.183549
O O14 0.694363 0.750000 0.130222
#
# Coordination Sequence:
#
# PCOD8076098 Si02
#       6
#     4   4   4   4   4   4
#     4  11  24  39  59  92 126 155 198 252 304 360
#     4  10  22  40  59  84 120 157 198 247 300 357
#     4  10  21  37  58  88 126 162 197 246 303 353
#     4   9  18  35  61  86 112 157 209 247 288 353
#     4   8  16  32  54  83 115 151 200 247 291 349
#     4  10  21  39  64  88 116 159 207 253 297 352
#
# _framework density 25.494668999999998
#
# number of rings (size 3 to 8) (size 9 to 14) (size 15 to 20)
#    0.000    2.333    0.000    3.000    0.000    8.000 
#    0.000    5.833    0.000    2.000    0.000    1.167 
#    0.000    0.000    0.000    0.000    0.000    0.000 
#
# Total GULP energy -297449.587002 kJ/mol
# GULP energy per Si atom -12393.732792 kJ/mol
# Density = 2.543664 g / cm^3
# Si number density = 25.494669 Si / 1000 Ang^3
#
#
#
# Elastic Constant Matrix: (Units=GPa)
#
#
# Indices 1 2 3 4 5 6 
#
# 1 81.2974 14.3899 24.9330 0.0000 -6.4931 0.0000
# 2 14.3899 60.5545 26.4149 0.0000 0.6192 0.0000
# 3 24.9330 26.4149 68.3426 0.0000 -15.1718 0.0000
# 4 0.0000 0.0000 0.0000 32.2666 0.0000 -1.0491
# 5 -6.4931 0.6192 -15.1718 0.0000 41.2608 0.0000
# 6 0.0000 0.0000 0.0000 -1.0491 0.0000 29.1099
#
#
#
# Elastic Compliance Matrix: (Units=1/GPa)
#
#
# Indices 1 2 3 4 5 6 
#
# 1 0.013950 -0.001393 -0.004420 0.000000 0.000591 0.000000
# 2 -0.001393 0.020450 -0.008180 0.000000 -0.003534 0.000000
# 3 -0.004420 -0.008180 0.020993 0.000000 0.007146 0.000000
# 4 0.000000 0.000000 0.000000 0.031028 0.000000 0.001118
# 5 0.000591 -0.003534 0.007146 0.000000 0.027010 0.000000
# 6 0.000000 0.000000 0.000000 0.001118 0.000000 0.034393
#
#
# Mechanical properties :
#
#
# Convention : Reuss Voigt Hill
#
# Bulk Modulus (GPa) = 36.48796 37.96334 37.22565
# Shear Modulus (GPa) = 27.03522 30.15792 28.59657
#
# Velocity S-wave (km/s) = 3.25995 3.44308 3.35277
# Velocity P-wave (km/s) = 5.33974 5.54341 5.44253
#
# Compressibility (1/GPa) = 0.02740630
#
# Stress axis : x y z
#
# Youngs Moduli (GPa) = 71.68603 48.90077 47.63566
#
# Poissons Ratio (x) = 0.06812 0.21053
# Poissons Ratio (y) = 0.09987 0.38967
# Poissons Ratio (z) = 0.31682 0.40002
#
# Static dielectric constant tensor:
#      x y z
#    x 4.575010 0.000000 -0.096890 
#    y 0.000000 4.362710 0.000000 
#    z -0.096890 0.000000 4.746020 
# 
# 
# High freq. dielectric constant tensor:
#      x y z
#    x 2.020970 0.000000 -0.012240 
#    y 0.000000 1.999700 0.000000 
#    z -0.012240 0.000000 2.025330 
# 
# From -- ./inp_files/18881.got.cif
#   From: 2010.06.25/outbox.cif.g09.slc.cpg/sg11_10_cif.got.tgz:18881.got - 2010.06.27 23:14:04.
