data_PCOD8076352
_publ_section_title
;
Structure prediction by ZEFSAII (Michael W. Deem and Ramdas Pophale) SiO2 
 PCOD8076352
Probable space group: P 21/M
;
_chemical_formula_sum "Si O2"
_cell_formula_units_Z 28
_cell_length_a 15.590381
_cell_length_b 8.871665
_cell_length_c 11.854335
_cell_angle_alpha 90.000000
_cell_angle_beta 119.993575
_cell_angle_gamma 90.000000
_cell_volume 1420.030931
_symmetry_space_group_name_H-M "P 21/M"
_symmetry_group_IT_number 11
_symmetry_cell_setting 'monoclinic'
loop_
_space_group_symop_operation_xyz
x,y,z
-x,1/2+y,-z
-x,-y,-z
x,1/2-y,z
loop_
_atom_site_type_symbol
_atom_site_label
_atom_site_fract_x
_atom_site_fract_y
_atom_site_fract_z
Si Si1 0.638825 0.079095 0.559486
Si Si2 0.851785 0.423167 0.621814
Si Si3 0.973815 0.571829 0.101636
Si Si4 0.206655 0.428822 0.869076
Si Si5 0.429387 0.072019 0.045725
Si Si6 0.486632 0.923767 0.310716
Si Si7 0.892805 0.571905 0.425522
O O1 0.609150 0.250000 0.506890
O O2 0.756231 0.055997 0.637727
O O3 0.602706 0.042891 0.661777
O O4 0.589965 0.966217 0.437757
O O5 0.867389 0.250000 0.595729
O O6 0.834245 0.521732 0.498550
O O7 0.945965 0.482068 0.753435
O O8 0.978674 0.750000 0.089760
O O9 0.866315 0.518097 0.077259
O O10 0.000000 0.500000 0.000000
O O11 0.208819 0.250000 0.868798
O O12 0.166082 0.488752 0.722528
O O13 0.317307 0.492572 0.960514
O O14 0.430597 0.250000 0.030210
O O15 0.471340 0.030115 0.194618
O O16 0.500000 0.000000 0.000000
O O17 0.490583 0.750000 0.275173
O O18 0.903525 0.750000 0.427666
O O19 0.000000 0.500000 0.500000
#
# Coordination Sequence:
#
# PCOD8076352 Si02
#       7
#     4   4   4   4   4   4   4
#     4   9  20  38  61  88 117 153 195 243 297 350
#     4  10  21  38  60  87 120 153 191 243 295 343
#     4  10  21  39  60  86 121 157 192 236 288 350
#     4   9  21  41  61  82 117 157 192 238 297 347
#     4  11  24  42  62  86 117 157 202 250 299 354
#     4  10  21  39  61  86 118 155 196 244 297 355
#     4  11  21  38  61  86 116 152 193 238 288 348
#
# _framework density 19.717880000000001
#
# number of rings (size 3 to 8) (size 9 to 14) (size 15 to 20)
#    0.000    2.000    1.429    1.286    4.000    1.714 
#    0.000    2.857    0.000    0.000    0.000    0.000 
#    0.000    0.000    0.000    0.000    0.000    0.000 
#
# Total GULP energy -347250.991413 kJ/mol
# GULP energy per Si atom -12401.821122 kJ/mol
# Density = 1.967300 g / cm^3
# Si number density = 19.717880 Si / 1000 Ang^3
#
#
#
# Elastic Constant Matrix: (Units=GPa)
#
#
# Indices 1 2 3 4 5 6 
#
# 1 152.2290 34.0371 64.1810 0.0000 -1.0719 0.0000
# 2 34.0371 53.3181 32.5152 0.0000 -3.9800 0.0000
# 3 64.1810 32.5152 101.6467 0.0000 -15.5423 0.0000
# 4 0.0000 0.0000 0.0000 30.8008 0.0000 -5.2120
# 5 -1.0719 -3.9800 -15.5423 0.0000 33.8978 0.0000
# 6 0.0000 0.0000 0.0000 -5.2120 0.0000 31.2106
#
#
#
# Elastic Compliance Matrix: (Units=1/GPa)
#
#
# Indices 1 2 3 4 5 6 
#
# 1 0.009506 -0.002933 -0.005453 0.000000 -0.002544 0.000000
# 2 -0.002933 0.024223 -0.005889 0.000000 0.000051 0.000000
# 3 -0.005453 -0.005889 0.016166 0.000000 0.006548 0.000000
# 4 0.000000 0.000000 0.000000 0.033411 0.000000 0.005579
# 5 -0.002544 0.000051 0.006548 0.000000 0.032429 0.000000
# 6 0.000000 0.000000 0.000000 0.005579 0.000000 0.032972
#
#
# Mechanical properties :
#
#
# Convention : Reuss Voigt Hill
#
# Bulk Modulus (GPa) = 46.84842 63.18450 55.01646
# Shear Modulus (GPa) = 27.11931 30.94587 29.03259
#
# Velocity S-wave (km/s) = 3.71262 3.96590 3.84135
# Velocity P-wave (km/s) = 6.49530 7.28595 6.90196
#
# Compressibility (1/GPa) = 0.02134544
#
# Stress axis : x y z
#
# Youngs Moduli (GPa) = 105.19766 41.28371 61.85792
#
# Poissons Ratio (x) = 0.12108 0.33731
# Poissons Ratio (y) = 0.30853 0.36427
# Poissons Ratio (z) = 0.57364 0.24311
#
# Static dielectric constant tensor:
#      x y z
#    x 3.869190 0.000000 -0.028270 
#    y 0.000000 3.524460 0.000000 
#    z -0.028270 0.000000 3.692880 
# 
# 
# High freq. dielectric constant tensor:
#      x y z
#    x 1.783780 0.000000 -0.002530 
#    y 0.000000 1.752370 0.000000 
#    z -0.002530 0.000000 1.768920 
# 
# From -- ./inp_files/38428.got.cif
#   From: 2010.06.25/outbox.cif.g09.slc.cpg/sg11_20_cif.got.tgz:38428.got - 2010.06.27 23:14:04.
