data_PCOD8076234
_publ_section_title
;
Structure prediction by ZEFSAII (Michael W. Deem and Ramdas Pophale) SiO2 
 PCOD8076234
Probable space group: P 21/M
;
_chemical_formula_sum "Si O2"
_cell_formula_units_Z 32
_cell_length_a 15.179221
_cell_length_b 9.502729
_cell_length_c 23.767315
_cell_angle_alpha 90.000000
_cell_angle_beta 27.786301
_cell_angle_gamma 90.000000
_cell_volume 1598.185004
_symmetry_space_group_name_H-M "P 21/M"
_symmetry_group_IT_number 11
_symmetry_cell_setting 'monoclinic'
loop_
_space_group_symop_operation_xyz
x,y,z
-x,1/2+y,-z
-x,-y,-z
x,1/2-y,z
loop_
_atom_site_type_symbol
_atom_site_label
_atom_site_fract_x
_atom_site_fract_y
_atom_site_fract_z
Si Si1 0.847220 0.588516 0.753458
Si Si2 0.552707 0.486853 0.830518
Si Si3 0.744076 0.415303 0.511944
Si Si4 0.704163 0.091598 0.119250
Si Si5 0.613023 0.420096 0.294103
Si Si6 0.171707 0.599386 0.413417
Si Si7 0.041182 0.079854 0.853813
Si Si8 0.191133 0.090528 0.099550
O O1 0.892788 0.750000 0.731551
O O2 0.682137 0.568626 0.801613
O O3 0.780324 0.535814 0.852642
O O4 0.049933 0.522398 0.621737
O O5 0.458042 0.587282 0.837011
O O6 0.687705 0.384444 0.718812
O O7 0.393442 0.403282 0.954378
O O8 0.713658 0.250000 0.513616
O O9 0.586452 0.514776 0.572162
O O10 0.715590 0.443862 0.594505
O O11 0.743607 0.250000 0.112917
O O12 0.650438 0.022198 0.209254
O O13 0.899932 0.030248 0.983740
O O14 0.613956 0.250000 0.300284
O O15 0.765986 0.495072 0.247326
O O16 0.076145 0.750000 0.478475
O O17 0.000000 0.500000 0.500000
O O18 0.067348 0.250000 0.836062
O O19 0.950540 0.022963 0.847233
O O20 0.108446 0.250000 0.143586
#
# Coordination Sequence:
#
# PCOD8076234 Si02
#       8
#     4   4   4   4   4   4   4   4
#     4  10  21  38  60  83 116 159 199 238 284 336
#     4  11  19  35  57  89 120 155 189 234 285 341
#     4  10  21  38  56  82 116 155 194 234 283 344
#     4   9  19  32  53  86 121 152 186 226 281 346
#     4  11  21  36  58  88 117 150 189 238 291 346
#     4  11  22  35  54  82 118 157 194 234 283 339
#     4  10  21  39  60  84 113 152 192 239 293 347
#     4  10  22  40  60  86 115 150 197 247 289 335
#
# _framework density 20.022713
#
# number of rings (size 3 to 8) (size 9 to 14) (size 15 to 20)
#    0.000    1.750    2.500    2.250    0.000    1.500 
#    0.000    3.750    0.000    0.000    0.000    0.000 
#    0.000    0.000    0.000    0.000    0.000    0.000 
#
# Total GULP energy -396484.026742 kJ/mol
# GULP energy per Si atom -12390.125836 kJ/mol
# Density = 1.997714 g / cm^3
# Si number density = 20.022713 Si / 1000 Ang^3
#
#
#
# Elastic Constant Matrix: (Units=GPa)
#
#
# Indices 1 2 3 4 5 6 
#
# 1 91.3038 30.1136 56.8402 0.0000 -8.3785 0.0000
# 2 30.1136 79.7142 35.5563 0.0000 -14.3115 0.0000
# 3 56.8402 35.5563 95.4989 0.0000 -11.4484 0.0000
# 4 0.0000 0.0000 0.0000 25.7369 0.0000 -6.4775
# 5 -8.3785 -14.3115 -11.4484 0.0000 41.7681 0.0000
# 6 0.0000 0.0000 0.0000 -6.4775 0.0000 30.5170
#
#
#
# Elastic Compliance Matrix: (Units=1/GPa)
#
#
# Indices 1 2 3 4 5 6 
#
# 1 0.017773 -0.002378 -0.009681 0.000000 0.000097 0.000000
# 2 -0.002378 0.015949 -0.004058 0.000000 0.003875 0.000000
# 3 -0.009681 -0.004058 0.017934 0.000000 0.001583 0.000000
# 4 0.000000 0.000000 0.000000 0.041048 0.000000 0.008713
# 5 0.000097 0.003875 0.001583 0.000000 0.025723 0.000000
# 6 0.000000 0.000000 0.000000 0.008713 0.000000 0.034618
#
#
# Mechanical properties :
#
#
# Convention : Reuss Voigt Hill
#
# Bulk Modulus (GPa) = 51.49074 56.83746 54.16410
# Shear Modulus (GPa) = 26.07527 29.20485 27.64006
#
# Velocity S-wave (km/s) = 3.61263 3.82329 3.71945
# Velocity P-wave (km/s) = 6.57065 6.92374 6.74950
#
# Compressibility (1/GPa) = 0.01942097
#
# Stress axis : x y z
#
# Youngs Moduli (GPa) = 56.26661 62.69926 55.75988
#
# Poissons Ratio (x) = 0.14912 0.53981
# Poissons Ratio (y) = 0.13382 0.22627
# Poissons Ratio (z) = 0.54471 0.25444
#
# Static dielectric constant tensor:
#      x y z
#    x 3.680290 0.000000 0.175400 
#    y 0.000000 3.297680 0.000000 
#    z 0.175400 0.000000 3.906080 
# 
# 
# High freq. dielectric constant tensor:
#      x y z
#    x 1.777150 0.000000 -0.004580 
#    y 0.000000 1.763730 0.000000 
#    z -0.004580 0.000000 1.784430 
# 
# From -- ./inp_files/69000.got.cif
#   From: 2010.06.25/outbox.cif.g09.slc.cpg/sg11_35_cif.got.tgz:69000.got - 2010.06.27 23:14:04.
