data_PCOD8076149
_publ_section_title
;
Structure prediction by ZEFSAII (Michael W. Deem and Ramdas Pophale) SiO2 
 PCOD8076149
Probable space group: P 21/M
;
_chemical_formula_sum "Si O2"
_cell_formula_units_Z 32
_cell_length_a 15.505188
_cell_length_b 8.840750
_cell_length_c 26.275811
_cell_angle_alpha 90.000000
_cell_angle_beta 153.219453
_cell_angle_gamma 90.000000
_cell_volume 1622.889129
_symmetry_space_group_name_H-M "P 21/M"
_symmetry_group_IT_number 11
_symmetry_cell_setting 'monoclinic'
loop_
_space_group_symop_operation_xyz
x,y,z
-x,1/2+y,-z
-x,-y,-z
x,1/2-y,z
loop_
_atom_site_type_symbol
_atom_site_label
_atom_site_fract_x
_atom_site_fract_y
_atom_site_fract_z
Si Si1 0.713646 0.074122 0.523739
Si Si2 0.119736 0.575819 0.495689
Si Si3 0.008547 0.571653 0.059692
Si Si4 0.292420 0.424947 0.680241
Si Si5 0.374296 0.427812 0.083562
Si Si6 0.359224 0.570489 0.966861
Si Si7 0.072024 0.071719 0.270729
Si Si8 0.720564 0.571056 0.720961
O O1 0.720757 0.250000 0.540555
O O2 0.837247 0.033438 0.539506
O O3 0.497491 0.020051 0.401176
O O4 0.802240 0.986531 0.617105
O O5 0.170047 0.750000 0.534281
O O6 0.251479 0.471642 0.600616
O O7 0.896441 0.542694 0.386104
O O8 0.017866 0.750000 0.058429
O O9 0.199982 0.511393 0.187319
O O10 0.826297 0.521406 0.997373
O O11 0.000000 0.500000 0.000000
O O12 0.353353 0.250000 0.714315
O O13 0.460390 0.528325 0.790083
O O14 0.379959 0.250000 0.075922
O O15 0.411447 0.514687 0.050624
O O16 0.378755 0.750000 0.975962
O O17 0.146090 0.515117 0.840011
O O18 0.500000 0.500000 0.000000
O O19 0.081818 0.250000 0.276553
O O20 0.160307 0.011379 0.264642
O O21 0.738825 0.750000 0.738508
#
# Coordination Sequence:
#
# PCOD8076149 Si02
#       8
#     4   4   4   4   4   4   4   4
#     4  10  22  37  61  89 117 155 199 247 300 358
#     4   9  20  39  57  85 121 156 198 246 297 355
#     4  11  25  42  64  92 124 163 204 252 307 366
#     4  10  21  37  60  86 119 161 199 244 300 356
#     4  11  24  42  64  92 124 163 205 252 308 367
#     4  11  24  42  64  92 126 164 206 256 307 363
#     4  10  22  40  61  87 120 156 198 249 301 356
#     4  10  21  41  63  87 121 158 198 249 304 357
#
# _framework density 19.717922000000002
#
# number of rings (size 3 to 8) (size 9 to 14) (size 15 to 20)
#    0.000    1.750    1.250    1.875    3.500    4.500 
#    0.000    0.000    0.000    0.000    0.000    0.000 
#    0.000    0.000    0.000    0.000    0.000    0.000 
#
# Total GULP energy -396973.993897 kJ/mol
# GULP energy per Si atom -12405.437309 kJ/mol
# Density = 1.967304 g / cm^3
# Si number density = 19.717922 Si / 1000 Ang^3
#
#
#
# Elastic Constant Matrix: (Units=GPa)
#
#
# Indices 1 2 3 4 5 6 
#
# 1 68.2473 12.8702 10.9896 0.0000 -11.7108 0.0000
# 2 12.8702 33.2390 11.1413 0.0000 -0.1115 0.0000
# 3 10.9896 11.1413 95.0498 0.0000 -7.4754 0.0000
# 4 0.0000 0.0000 0.0000 39.9254 0.0000 -6.1498
# 5 -11.7108 -0.1115 -7.4754 0.0000 30.7141 0.0000
# 6 0.0000 0.0000 0.0000 -6.1498 0.0000 30.9466
#
#
#
# Elastic Compliance Matrix: (Units=1/GPa)
#
#
# Indices 1 2 3 4 5 6 
#
# 1 0.017046 -0.006333 -0.000733 0.000000 0.006298 0.000000
# 2 -0.006333 0.033688 -0.003463 0.000000 -0.003135 0.000000
# 3 -0.000733 -0.003463 0.011203 0.000000 0.002435 0.000000
# 4 0.000000 0.000000 0.000000 0.025838 0.000000 0.005135
# 5 0.006298 -0.003135 0.002435 0.000000 0.035541 0.000000
# 6 0.000000 0.000000 0.000000 0.005135 0.000000 0.033334
#
#
# Mechanical properties :
#
#
# Convention : Reuss Voigt Hill
#
# Bulk Modulus (GPa) = 24.46341 29.61536 27.03939
# Shear Modulus (GPa) = 26.13239 31.08622 28.60930
#
# Velocity S-wave (km/s) = 3.64443 3.97488 3.81324
# Velocity P-wave (km/s) = 5.49025 6.00986 5.75592
#
# Compressibility (1/GPa) = 0.04087737
#
# Stress axis : x y z
#
# Youngs Moduli (GPa) = 58.66601 29.68442 89.26211
#
# Poissons Ratio (x) = 0.18800 0.06544
# Poissons Ratio (y) = 0.37155 0.30912
# Poissons Ratio (z) = 0.04301 0.10280
#
# Static dielectric constant tensor:
#      x y z
#    x 3.773100 0.000000 0.143710 
#    y 0.000000 3.425830 0.000000 
#    z 0.143710 0.000000 3.651220 
# 
# 
# High freq. dielectric constant tensor:
#      x y z
#    x 1.778980 0.000000 0.000390 
#    y 0.000000 1.766630 0.000000 
#    z 0.000390 0.000000 1.780050 
# 
# From -- ./inp_files/69106.got.cif
#   From: 2010.06.25/outbox.cif.g09.slc.cpg/sg11_35_cif.got.tgz:69106.got - 2010.06.27 23:14:04.
