data_PCOD8076673
_publ_section_title
;
Structure prediction by ZEFSAII (Michael W. Deem and Ramdas Pophale) SiO2 
 PCOD8076673
Probable space group: P 21/M
;
_chemical_formula_sum "Si O2"
_cell_formula_units_Z 32
_cell_length_a 16.028237
_cell_length_b 16.899650
_cell_length_c 11.699746
_cell_angle_alpha 90.000000
_cell_angle_beta 26.576751
_cell_angle_gamma 90.000000
_cell_volume 1417.856302
_symmetry_space_group_name_H-M "P 21/M"
_symmetry_group_IT_number 11
_symmetry_cell_setting 'monoclinic'
loop_
_space_group_symop_operation_xyz
x,y,z
-x,1/2+y,-z
-x,-y,-z
x,1/2-y,z
loop_
_atom_site_type_symbol
_atom_site_label
_atom_site_fract_x
_atom_site_fract_y
_atom_site_fract_z
Si Si1 0.736521 0.656745 0.572758
Si Si2 0.606610 0.077394 0.496330
Si Si3 0.653881 0.338485 0.645920
Si Si4 0.742073 0.474795 0.092590
Si Si5 0.679420 0.402298 0.934349
Si Si6 0.716059 0.579889 0.830264
Si Si7 0.025165 0.660143 0.586005
Si Si8 0.899777 0.523243 0.240257
O O1 0.778011 0.750000 0.517966
O O2 0.518489 0.639200 0.833882
O O3 0.808462 0.617564 0.603431
O O4 0.848465 0.615358 0.329882
O O5 0.632996 0.159907 0.531747
O O6 0.702193 0.077118 0.256250
O O7 0.392179 0.050852 0.748800
O O8 0.700837 0.020287 0.478709
O O9 0.618651 0.250000 0.731325
O O10 0.859505 0.365006 0.440063
O O11 0.494728 0.390729 0.898927
O O12 0.717001 0.413817 0.021930
O O13 0.955251 0.505547 0.839138
O O14 0.702584 0.485436 0.838834
O O15 0.831649 0.343558 0.695657
O O16 0.846095 0.603716 0.780277
O O17 0.950165 0.750000 0.688814
O O18 0.000000 0.500000 0.000000
#
# Coordination Sequence:
#
# PCOD8076673 Si02
#       8
#     4   4   4   4   4   4   4   4
#     4  12  24  42  67  98 139 178 216 279 345 396
#     4  10  21  40  65  89 126 167 218 272 322 384
#     4  11  23  40  61  92 133 172 213 272 340 397
#     4  10  21  39  64  92 120 162 221 271 313 382
#     4  12  23  40  66  99 130 172 227 270 327 404
#     4  12  24  41  65  97 132 176 224 268 331 410
#     4  11  25  41  62  95 133 171 214 274 338 400
#     4  10  22  41  67  92 122 167 219 275 318 387
#
# _framework density 22.569282000000001
#
# number of rings (size 3 to 8) (size 9 to 14) (size 15 to 20)
#    0.000    1.000    3.750    3.000    3.500    0.000 
#    0.000    4.375    0.000    0.000    0.000    0.000 
#    0.000    0.000    0.000    0.000    0.000    0.000 
#
# Total GULP energy -396505.579873 kJ/mol
# GULP energy per Si atom -12390.799371 kJ/mol
# Density = 2.251791 g / cm^3
# Si number density = 22.569282 Si / 1000 Ang^3
#
#
#
# Elastic Constant Matrix: (Units=GPa)
#
#
# Indices 1 2 3 4 5 6 
#
# 1 118.6388 23.7837 16.7291 0.0000 -0.4193 0.0000
# 2 23.7837 83.5907 28.9387 0.0000 0.7441 0.0000
# 3 16.7291 28.9387 68.9996 0.0000 -9.1426 0.0000
# 4 0.0000 0.0000 0.0000 29.4999 0.0000 -0.4473
# 5 -0.4193 0.7441 -9.1426 0.0000 48.3744 0.0000
# 6 0.0000 0.0000 0.0000 -0.4473 0.0000 30.7282
#
#
#
# Elastic Compliance Matrix: (Units=1/GPa)
#
#
# Indices 1 2 3 4 5 6 
#
# 1 0.009039 -0.002112 -0.001324 0.000000 -0.000139 0.000000
# 2 -0.002112 0.014576 -0.005778 0.000000 -0.001335 0.000000
# 3 -0.001324 -0.005778 0.017690 0.000000 0.003421 0.000000
# 4 0.000000 0.000000 0.000000 0.033906 0.000000 0.000494
# 5 -0.000139 -0.001335 0.003421 0.000000 0.021338 0.000000
# 6 0.000000 0.000000 0.000000 0.000494 0.000000 0.032551
#
#
# Mechanical properties :
#
#
# Convention : Reuss Voigt Hill
#
# Bulk Modulus (GPa) = 43.71241 45.57024 44.64132
# Shear Modulus (GPa) = 32.22608 35.17233 33.69920
#
# Velocity S-wave (km/s) = 3.78282 3.95196 3.86832
# Velocity P-wave (km/s) = 6.20401 6.40774 6.30670
#
# Compressibility (1/GPa) = 0.02287680
#
# Stress axis : x y z
#
# Youngs Moduli (GPa) = 110.63693 68.60497 56.52756
#
# Poissons Ratio (x) = 0.14490 0.07485
# Poissons Ratio (y) = 0.23367 0.32662
# Poissons Ratio (z) = 0.14649 0.39640
#
# Static dielectric constant tensor:
#      x y z
#    x 4.717480 0.000000 -0.242260 
#    y 0.000000 3.829840 0.000000 
#    z -0.242260 0.000000 4.182560 
# 
# 
# High freq. dielectric constant tensor:
#      x y z
#    x 1.910190 0.000000 -0.017040 
#    y 0.000000 1.862020 0.000000 
#    z -0.017040 0.000000 1.892590 
# 
# From -- ./inp_files/39977.got.cif
#   From: 2010.06.25/outbox.cif.g09.slc.cpg/sg11_20_cif.got.tgz:39977.got - 2010.06.27 23:14:04.
