data_PCOD8076576
_publ_section_title
;
Structure prediction by ZEFSAII (Michael W. Deem and Ramdas Pophale) SiO2 
 PCOD8076576
Probable space group: P 21/M
;
_chemical_formula_sum "Si O2"
_cell_formula_units_Z 28
_cell_length_a 11.650449
_cell_length_b 13.294507
_cell_length_c 9.185776
_cell_angle_alpha 90.000000
_cell_angle_beta 58.095036
_cell_angle_gamma 90.000000
_cell_volume 1207.815324
_symmetry_space_group_name_H-M "P 21/M"
_symmetry_group_IT_number 11
_symmetry_cell_setting 'monoclinic'
loop_
_space_group_symop_operation_xyz
x,y,z
-x,1/2+y,-z
-x,-y,-z
x,1/2-y,z
loop_
_atom_site_type_symbol
_atom_site_label
_atom_site_fract_x
_atom_site_fract_y
_atom_site_fract_z
Si Si1 0.932116 0.369107 0.672397
Si Si2 0.191926 0.136949 0.033572
Si Si3 0.396875 0.368963 0.123566
Si Si4 0.234455 0.506049 0.762436
Si Si5 0.241212 0.130980 0.512215
Si Si6 0.918970 0.362503 0.361395
Si Si7 0.683251 0.369565 0.036456
O O1 0.930323 0.250000 0.660881
O O2 0.892258 0.411289 0.538491
O O3 0.820830 0.406603 0.863791
O O4 0.082389 0.402901 0.619235
O O5 0.213595 0.250000 0.958515
O O6 0.328538 0.092114 0.018991
O O7 0.080392 0.137864 0.234912
O O8 0.149722 0.066578 0.927488
O O9 0.380147 0.250000 0.133293
O O10 0.315874 0.408480 0.318411
O O11 0.554337 0.400718 0.023817
O O12 0.311230 0.430468 0.599083
O O13 0.140098 0.578261 0.733830
O O14 0.330946 0.576489 0.796830
O O15 0.258661 0.250000 0.524373
O O16 0.859311 0.250000 0.393909
O O17 0.684766 0.250000 0.061373
#
# Coordination Sequence:
#
# PCOD8076576 Si02
#       7
#     4   4   4   4   4   4   4
#     4   9  19  38  62  88 117 154 203 253 289 342
#     4  10  21  39  62  89 118 156 205 251 292 350
#     4   9  19  42  67  84 115 165 207 245 291 347
#     4  12  25  35  57  93 132 156 191 242 318 356
#     4  10  21  39  63  89 119 158 205 249 292 352
#     4  10  21  39  61  89 121 156 200 249 299 354
#     4  10  23  41  62  89 122 159 201 246 300 358
#
# _framework density 23.182352999999999
#
# number of rings (size 3 to 8) (size 9 to 14) (size 15 to 20)
#    0.000    2.000    1.429    1.286    4.000    2.857 
#    0.000    1.429    0.000    5.143    0.000    0.000 
#    0.000    0.000    0.000    0.000    0.000    0.000 
#
# Total GULP energy -347051.375039 kJ/mol
# GULP energy per Si atom -12394.691966 kJ/mol
# Density = 2.312959 g / cm^3
# Si number density = 23.182353 Si / 1000 Ang^3
#
#
#
# Elastic Constant Matrix: (Units=GPa)
#
#
# Indices 1 2 3 4 5 6 
#
# 1 89.5939 38.4930 36.7015 0.0000 17.5386 0.0000
# 2 38.4930 66.8121 28.3457 0.0000 18.2965 0.0000
# 3 36.7015 28.3457 96.2280 0.0000 17.5999 0.0000
# 4 0.0000 0.0000 0.0000 26.1043 0.0000 12.1766
# 5 17.5386 18.2965 17.5999 0.0000 45.0025 0.0000
# 6 0.0000 0.0000 0.0000 12.1766 0.0000 34.0744
#
#
#
# Elastic Compliance Matrix: (Units=1/GPa)
#
#
# Indices 1 2 3 4 5 6 
#
# 1 0.016145 -0.007214 -0.003682 0.000000 -0.001919 0.000000
# 2 -0.007214 0.021624 -0.002719 0.000000 -0.004917 0.000000
# 3 -0.003682 -0.002719 0.013067 0.000000 -0.002570 0.000000
# 4 0.000000 0.000000 0.000000 0.045971 0.000000 -0.016428
# 5 -0.001919 -0.004917 -0.002570 0.000000 0.025973 0.000000
# 6 0.000000 0.000000 0.000000 -0.016428 0.000000 0.035218
#
#
# Mechanical properties :
#
#
# Convention : Reuss Voigt Hill
#
# Bulk Modulus (GPa) = 42.36157 51.07937 46.72047
# Shear Modulus (GPa) = 25.89395 30.97582 28.43489
#
# Velocity S-wave (km/s) = 3.34573 3.65935 3.50605
# Velocity P-wave (km/s) = 5.76525 6.31949 6.04872
#
# Compressibility (1/GPa) = 0.02360630
#
# Stress axis : x y z
#
# Youngs Moduli (GPa) = 61.93962 46.24576 76.52789
#
# Poissons Ratio (x) = 0.33362 0.28174
# Poissons Ratio (y) = 0.44684 0.20807
# Poissons Ratio (z) = 0.22804 0.12574
#
# Static dielectric constant tensor:
#      x y z
#    x 4.066600 0.000000 0.152080 
#    y 0.000000 4.355020 0.000000 
#    z 0.152080 0.000000 4.091850 
# 
# 
# High freq. dielectric constant tensor:
#      x y z
#    x 1.894970 0.000000 0.022930 
#    y 0.000000 1.942940 0.000000 
#    z 0.022930 0.000000 1.901920 
# 
# From -- ./inp_files/17909.got.cif
#   From: 2010.06.25/outbox.cif.g09.slc.cpg/sg11_9_cif.got.tgz:17909.got - 2010.06.27 23:14:04.
