data_PCOD8076933
_publ_section_title
;
Structure prediction by ZEFSAII (Michael W. Deem and Ramdas Pophale) SiO2 
 PCOD8076933
Probable space group: P 21/M
;
_chemical_formula_sum "Si O2"
_cell_formula_units_Z 24
_cell_length_a 11.700664
_cell_length_b 9.611933
_cell_length_c 11.875760
_cell_angle_alpha 90.000000
_cell_angle_beta 90.000000
_cell_angle_gamma 90.000000
_cell_volume 1335.619205
_symmetry_space_group_name_H-M "P 21/M"
_symmetry_group_IT_number 11
_symmetry_cell_setting 'monoclinic'
loop_
_space_group_symop_operation_xyz
x,y,z
-x,1/2+y,-z
-x,-y,-z
x,1/2-y,z
loop_
_atom_site_type_symbol
_atom_site_label
_atom_site_fract_x
_atom_site_fract_y
_atom_site_fract_z
Si Si1 0.331721 0.589865 0.013372
Si Si2 0.547289 0.589026 0.161586
Si Si3 0.577266 0.587867 0.417322
Si Si4 0.168278 0.410135 0.513372
Si Si5 0.922733 0.087867 0.917322
Si Si6 0.952711 0.410974 0.661586
O O1 0.338713 0.750000 0.976311
O O2 0.422591 0.556563 0.111433
O O3 0.208919 0.550364 0.061978
O O4 0.356293 0.498005 0.903495
O O5 0.581245 0.750000 0.149388
O O6 0.545576 0.543214 0.290997
O O7 0.500000 0.500000 0.500000
O O8 0.552702 0.750000 0.438044
O O9 0.708919 0.550365 0.438022
O O10 0.161285 0.250000 0.476311
O O11 0.143708 0.501995 0.403494
O O12 0.077409 0.443438 0.611433
O O13 0.947297 0.250000 0.938044
O O14 0.954425 0.043214 0.790997
O O15 0.000000 0.000000 0.000000
O O16 0.918755 0.250000 0.649388
#
# Coordination Sequence:
#
# PCOD8076933 Si02
#       6
#     4   4   4   4   4   4
#     4   9  19  36  55  80 109 138 178 222 263 314
#     4   9  19  36  58  79 105 143 179 215 266 320
#     4  10  22  36  55  82 110 141 179 221 265 317
#     4   9  19  36  55  80 109 138 178 222 263 314
#     4  10  22  36  55  82 110 141 179 221 265 317
#     4   9  19  36  58  79 105 143 179 215 266 320
#
# _framework density 17.969193000000001
#
# number of rings (size 3 to 8) (size 9 to 14) (size 15 to 20)
#    0.000    2.667    0.000    0.000    4.667    2.667 
#    0.000    0.000    0.000    0.000    0.000    0.000 
#    0.000    0.000    0.000    0.000    0.000    0.000 
#
# Total GULP energy -297688.140208 kJ/mol
# GULP energy per Si atom -12403.672509 kJ/mol
# Density = 1.792829 g / cm^3
# Si number density = 17.969193 Si / 1000 Ang^3
#
#
#
# Elastic Constant Matrix: (Units=GPa)
#
#
# Indices 1 2 3 4 5 6 
#
# 1 110.6011 55.3664 74.3355 0.0000 -0.0002 0.0000
# 2 55.3664 65.2042 75.4353 0.0000 0.0000 0.0000
# 3 74.3355 75.4353 173.5987 0.0000 0.0000 0.0000
# 4 0.0000 0.0000 0.0000 35.9825 0.0000 0.0000
# 5 -0.0002 0.0000 0.0000 0.0000 23.5567 0.0000
# 6 0.0000 0.0000 0.0000 0.0000 0.0000 31.0866
#
#
#
# Elastic Compliance Matrix: (Units=1/GPa)
#
#
# Indices 1 2 3 4 5 6 
#
# 1 0.016035 -0.011406 -0.001910 0.000000 0.000000 0.000000
# 2 -0.011406 0.038954 -0.012043 0.000000 0.000000 0.000000
# 3 -0.001910 -0.012043 0.011811 0.000000 0.000000 0.000000
# 4 0.000000 0.000000 0.000000 0.027791 0.000000 0.000000
# 5 0.000000 0.000000 0.000000 0.000000 0.042451 0.000000
# 6 0.000000 0.000000 0.000000 0.000000 0.000000 0.032168
#
#
# Mechanical properties :
#
#
# Convention : Reuss Voigt Hill
#
# Bulk Modulus (GPa) = 62.17872 84.40871 73.29371
# Shear Modulus (GPa) = 22.19363 27.74293 24.96828
#
# Velocity S-wave (km/s) = 3.51820 3.93353 3.73165
# Velocity P-wave (km/s) = 7.15414 8.22839 7.71000
#
# Compressibility (1/GPa) = 0.01608267
#
# Stress axis : x y z
#
# Youngs Moduli (GPa) = 62.36370 25.67109 84.66444
#
# Poissons Ratio (x) = 0.29281 0.16169
# Poissons Ratio (y) = 0.71133 1.01961
# Poissons Ratio (z) = 0.11910 0.30916
#
# Static dielectric constant tensor:
#      x y z
#    x 3.372140 0.000000 0.000000 
#    y 0.000000 3.320780 0.000000 
#    z 0.000000 0.000000 3.377310 
# 
# 
# High freq. dielectric constant tensor:
#      x y z
#    x 1.700940 0.000000 0.000000 
#    y 0.000000 1.692010 0.000000 
#    z 0.000000 0.000000 1.700050 
# 
# From -- ./inp_files/33796.got.cif
#   From: 2010.06.25/outbox.cif.g09.slc.cpg/sg11_17_cif.got.tgz:33796.got - 2010.06.27 23:14:04.
