data_PCOD8076521
_publ_section_title
;
Structure prediction by ZEFSAII (Michael W. Deem and Ramdas Pophale) SiO2 
 PCOD8076521
Probable space group: P 21/M
;
_chemical_formula_sum "Si O2"
_cell_formula_units_Z 24
_cell_length_a 15.996070
_cell_length_b 13.296444
_cell_length_c 21.431187
_cell_angle_alpha 90.000000
_cell_angle_beta 164.339142
_cell_angle_gamma 90.000000
_cell_volume 1230.457562
_symmetry_space_group_name_H-M "P 21/M"
_symmetry_group_IT_number 11
_symmetry_cell_setting 'monoclinic'
loop_
_space_group_symop_operation_xyz
x,y,z
-x,1/2+y,-z
-x,-y,-z
x,1/2-y,z
loop_
_atom_site_type_symbol
_atom_site_label
_atom_site_fract_x
_atom_site_fract_y
_atom_site_fract_z
Si Si1 0.249563 0.865064 0.289718
Si Si2 0.392094 0.967547 0.518814
Si Si3 0.288898 0.865102 0.818834
Si Si4 0.301318 0.973416 0.952018
Si Si5 0.237741 0.025576 0.617184
Si Si6 0.455806 0.365694 0.246023
O O1 0.338816 0.750000 0.339129
O O2 0.384246 0.894729 0.453697
O O3 0.400552 0.934201 0.345009
O O4 0.881644 0.879925 0.026103
O O5 0.549420 0.905207 0.687146
O O6 0.055829 0.004917 0.296210
O O7 0.354411 0.750000 0.851915
O O8 0.927572 0.890855 0.544732
O O9 0.355738 0.888201 0.939260
O O10 0.526379 0.924658 0.945327
O O11 0.447410 0.935393 0.122999
O O12 0.300529 0.927735 0.620138
O O13 0.000000 0.000000 0.500000
O O14 0.562492 0.250000 0.321679
#
# Coordination Sequence:
#
# PCOD8076521 Si02
#       6
#     4   4   4   4   4   4
#     4  10  23  40  62  89 118 158 200 248 307 359
#     4  11  21  40  64  88 123 152 199 260 296 357
#     4  10  22  39  59  87 122 160 200 244 295 357
#     4  10  21  39  61  88 120 156 201 247 298 353
#     4  10  21  39  58  89 124 156 195 243 299 346
#     4  11  22  39  64  90 118 159 205 244 297 359
#
# _framework density 19.504940000000001
#
# number of rings (size 3 to 8) (size 9 to 14) (size 15 to 20)
#    0.000    1.667    3.333    1.000    0.000    5.333 
#    0.000    0.000    0.000    0.000    0.000    0.000 
#    0.000    0.000    0.000    0.000    0.000    0.000 
#
# Total GULP energy -297628.677632 kJ/mol
# GULP energy per Si atom -12401.194901 kJ/mol
# Density = 1.946055 g / cm^3
# Si number density = 19.504940 Si / 1000 Ang^3
#
#
#
# Elastic Constant Matrix: (Units=GPa)
#
#
# Indices 1 2 3 4 5 6 
#
# 1 92.5444 46.6825 20.8881 0.0000 -8.9931 0.0000
# 2 46.6825 115.3105 40.4770 0.0000 8.5097 0.0000
# 3 20.8881 40.4770 54.9931 0.0000 0.3938 0.0000
# 4 0.0000 0.0000 0.0000 28.5174 0.0000 3.6920
# 5 -8.9931 8.5097 0.3938 0.0000 36.2505 0.0000
# 6 0.0000 0.0000 0.0000 3.6920 0.0000 21.2173
#
#
#
# Elastic Compliance Matrix: (Units=1/GPa)
#
#
# Indices 1 2 3 4 5 6 
#
# 1 0.014496 -0.005785 -0.001284 0.000000 0.004968 0.000000
# 2 -0.005785 0.014262 -0.008267 0.000000 -0.004693 0.000000
# 3 -0.001284 -0.008267 0.024747 0.000000 0.001353 0.000000
# 4 0.000000 0.000000 0.000000 0.035874 0.000000 -0.006243
# 5 0.004968 -0.004693 0.001353 0.000000 0.029905 0.000000
# 6 0.000000 0.000000 0.000000 -0.006243 0.000000 0.048218
#
#
# Mechanical properties :
#
#
# Convention : Reuss Voigt Hill
#
# Bulk Modulus (GPa) = 43.79343 53.21589 48.50466
# Shear Modulus (GPa) = 24.29721 27.51707 25.90714
#
# Velocity S-wave (km/s) = 3.53327 3.76010 3.64845
# Velocity P-wave (km/s) = 6.25672 6.79659 6.53224
#
# Compressibility (1/GPa) = 0.02283447
#
# Stress axis : x y z
#
# Youngs Moduli (GPa) = 68.98392 70.11497 40.40923
#
# Poissons Ratio (x) = 0.40558 0.05189
# Poissons Ratio (y) = 0.39904 0.33406
# Poissons Ratio (z) = 0.08858 0.57963
#
# Static dielectric constant tensor:
#      x y z
#    x 3.739500 0.000000 -0.405750 
#    y 0.000000 3.388050 0.000000 
#    z -0.405750 0.000000 4.035650 
# 
# 
# High freq. dielectric constant tensor:
#      x y z
#    x 1.766560 0.000000 -0.013530 
#    y 0.000000 1.742280 0.000000 
#    z -0.013530 0.000000 1.771750 
# 
# From -- ./inp_files/65613.got.cif
#   From: 2010.06.25/outbox.cif.g09.slc.cpg/sg11_33_cif.got.tgz:65613.got - 2010.06.27 23:14:04.
