data_PCOD8076232
_publ_section_title
;
Structure prediction by ZEFSAII (Michael W. Deem and Ramdas Pophale) SiO2 
 PCOD8076232
Probable space group: P 21/M
;
_chemical_formula_sum "Si O2"
_cell_formula_units_Z 32
_cell_length_a 11.712023
_cell_length_b 8.868548
_cell_length_c 20.043579
_cell_angle_alpha 90.000000
_cell_angle_beta 121.855062
_cell_angle_gamma 90.000000
_cell_volume 1768.335849
_symmetry_space_group_name_H-M "P 21/M"
_symmetry_group_IT_number 11
_symmetry_cell_setting 'monoclinic'
loop_
_space_group_symop_operation_xyz
x,y,z
-x,1/2+y,-z
-x,-y,-z
x,1/2-y,z
loop_
_atom_site_type_symbol
_atom_site_label
_atom_site_fract_x
_atom_site_fract_y
_atom_site_fract_z
Si Si1 0.356781 0.426021 0.746718
Si Si2 0.086854 0.069585 0.221389
Si Si3 0.927258 0.928777 0.540631
Si Si4 0.104273 0.570474 0.082886
Si Si5 0.380106 0.083578 0.324966
Si Si6 0.621887 0.580907 0.834342
Si Si7 0.357941 0.074494 0.596432
Si Si8 0.932464 0.572418 0.290194
O O1 0.390051 0.250000 0.756738
O O2 0.482933 0.511066 0.819462
O O3 0.332487 0.485738 0.663763
O O4 0.224468 0.462615 0.748268
O O5 0.078124 0.250000 0.210838
O O6 0.231655 0.022524 0.298439
O O7 0.068262 0.994040 0.144151
O O8 0.970876 0.006061 0.232838
O O9 0.950841 0.750000 0.547286
O O10 0.769020 0.969732 0.488105
O O11 0.000000 0.000000 0.500000
O O12 0.981187 0.000042 0.624522
O O13 0.094419 0.750000 0.080461
O O14 0.252724 0.521046 0.104537
O O15 0.000000 0.500000 0.000000
O O16 0.398457 0.250000 0.359989
O O17 0.386405 0.082648 0.247475
O O18 0.503842 0.988492 0.392843
O O19 0.640123 0.750000 0.868230
O O20 0.377326 0.250000 0.605599
O O21 0.961161 0.750000 0.297098
#
# Coordination Sequence:
#
# PCOD8076232 Si02
#       8
#     4   4   4   4   4   4   4   4
#     4   9  17  31  49  73 105 139 179 224 266 315
#     4  10  21  38  56  80 110 141 179 220 264 323
#     4  11  21  34  50  73 104 140 181 231 279 324
#     4  11  21  36  60  88 115 144 174 214 262 311
#     4   8  16  30  49  72  99 131 171 219 265 314
#     4   9  17  30  50  80 110 137 175 219 260 310
#     4   9  17  30  48  71  99 131 174 227 273 315
#     4  11  22  36  53  77 107 144 185 225 272 326
#
# _framework density 18.096112000000002
#
# number of rings (size 3 to 8) (size 9 to 14) (size 15 to 20)
#    0.000    2.250    1.250    3.375    0.000    5.500 
#    0.000    0.625    0.000    0.750    0.000    0.000 
#    0.000    0.000    0.000    0.000    0.000    0.000 
#
# Total GULP energy -396708.742096 kJ/mol
# GULP energy per Si atom -12397.148191 kJ/mol
# Density = 1.805492 g / cm^3
# Si number density = 18.096112 Si / 1000 Ang^3
#
#
#
# Elastic Constant Matrix: (Units=GPa)
#
#
# Indices 1 2 3 4 5 6 
#
# 1 111.5838 56.6193 57.7921 0.0000 18.8723 0.0000
# 2 56.6193 108.3902 57.9990 0.0000 14.4555 0.0000
# 3 57.7921 57.9990 96.3599 0.0000 19.1111 0.0000
# 4 0.0000 0.0000 0.0000 29.8928 0.0000 5.1784
# 5 18.8723 14.4555 19.1111 0.0000 24.0105 0.0000
# 6 0.0000 0.0000 0.0000 5.1784 0.0000 31.7464
#
#
#
# Elastic Compliance Matrix: (Units=1/GPa)
#
#
# Indices 1 2 3 4 5 6 
#
# 1 0.014639 -0.004159 -0.005333 0.000000 -0.004758 0.000000
# 2 -0.004159 0.014871 -0.006328 0.000000 -0.000647 0.000000
# 3 -0.005333 -0.006328 0.018760 0.000000 -0.006930 0.000000
# 4 0.000000 0.000000 0.000000 0.034426 0.000000 -0.005615
# 5 -0.004758 -0.000647 -0.006930 0.000000 0.051294 0.000000
# 6 0.000000 0.000000 0.000000 -0.005615 0.000000 0.032416
#
#
# Mechanical properties :
#
#
# Convention : Reuss Voigt Hill
#
# Bulk Modulus (GPa) = 60.13387 73.46163 66.79775
# Shear Modulus (GPa) = 24.55955 26.72484 25.64219
#
# Velocity S-wave (km/s) = 3.68798 3.84712 3.76839
# Velocity P-wave (km/s) = 7.17198 7.77285 7.47845
#
# Compressibility (1/GPa) = 0.01662956
#
# Stress axis : x y z
#
# Youngs Moduli (GPa) = 68.31171 67.24610 53.30607
#
# Poissons Ratio (x) = 0.27965 0.28428
# Poissons Ratio (y) = 0.28408 0.33733
# Poissons Ratio (z) = 0.36431 0.42554
#
# Static dielectric constant tensor:
#      x y z
#    x 3.523510 0.000000 0.260890 
#    y 0.000000 3.474320 0.000000 
#    z 0.260890 0.000000 3.311590 
# 
# 
# High freq. dielectric constant tensor:
#      x y z
#    x 1.696840 0.000000 0.028260 
#    y 0.000000 1.710010 0.000000 
#    z 0.028260 0.000000 1.673860 
# 
# From -- ./inp_files/64468.got.cif
#   From: 2010.06.25/outbox.cif.g09.slc.cpg/sg11_33_cif.got.tgz:64468.got - 2010.06.27 23:14:04.
