data_PCOD8076710
_publ_section_title
;
Structure prediction by ZEFSAII (Michael W. Deem and Ramdas Pophale) SiO2 
 PCOD8076710
Probable space group: P 21/M
;
_chemical_formula_sum "Si O2"
_cell_formula_units_Z 28
_cell_length_a 13.110459
_cell_length_b 14.579454
_cell_length_c 9.668700
_cell_angle_alpha 90.000000
_cell_angle_beta 47.910667
_cell_angle_gamma 90.000000
_cell_volume 1371.481806
_symmetry_space_group_name_H-M "P 21/M"
_symmetry_group_IT_number 11
_symmetry_cell_setting 'monoclinic'
loop_
_space_group_symop_operation_xyz
x,y,z
-x,1/2+y,-z
-x,-y,-z
x,1/2-y,z
loop_
_atom_site_type_symbol
_atom_site_label
_atom_site_fract_x
_atom_site_fract_y
_atom_site_fract_z
Si Si1 0.131578 0.143005 0.778327
Si Si2 0.227925 0.355498 0.993585
Si Si3 0.547162 0.145900 0.304986
Si Si4 0.680187 0.973455 0.594792
Si Si5 0.468244 0.854690 0.364586
Si Si6 0.147061 0.006747 0.296083
Si Si7 0.163152 0.854355 0.067339
O O1 0.170515 0.250000 0.715397
O O2 0.213581 0.077609 0.600963
O O3 0.971374 0.123332 0.899471
O O4 0.165118 0.114762 0.903889
O O5 0.195633 0.250000 0.053273
O O6 0.149941 0.412388 0.181378
O O7 0.391657 0.373834 0.846718
O O8 0.516900 0.250000 0.287970
O O9 0.464328 0.080284 0.276669
O O10 0.496889 0.127383 0.506376
O O11 0.708331 0.122716 0.148409
O O12 0.735429 0.973078 0.699546
O O13 0.653609 0.078613 0.573668
O O14 0.417301 0.750000 0.390256
O O15 0.175970 0.910765 0.196278
O O16 0.000000 0.000000 0.500000
O O17 0.163843 0.750000 0.116451
#
# Coordination Sequence:
#
# PCOD8076710 Si02
#       7
#     4   4   4   4   4   4   4
#     4  10  21  41  69  96 124 171 226 270 322 386
#     4  10  23  43  68  96 130 167 216 274 323 383
#     4  10  21  39  67 100 127 161 217 276 328 379
#     4  12  23  39  68  95 128 177 212 267 323 386
#     4  10  22  40  64  99 132 164 216 276 329 380
#     4  12  27  43  59  96 132 172 217 260 321 389
#     4  10  23  42  64  92 133 172 213 271 327 385
#
# _framework density 20.415875
#
# number of rings (size 3 to 8) (size 9 to 14) (size 15 to 20)
#    0.000    1.429    2.857    1.714    2.000    6.286 
#    0.000    4.286    0.000    0.000    0.000    0.000 
#    0.000    0.000    0.000    0.000    0.000    0.000 
#
# Total GULP energy -347313.593531 kJ/mol
# GULP energy per Si atom -12404.056912 kJ/mol
# Density = 2.036941 g / cm^3
# Si number density = 20.415875 Si / 1000 Ang^3
#
#
#
# Elastic Constant Matrix: (Units=GPa)
#
#
# Indices 1 2 3 4 5 6 
#
# 1 119.7873 58.0551 44.9262 0.0000 7.5102 0.0000
# 2 58.0551 109.9866 57.7666 0.0000 3.8607 0.0000
# 3 44.9262 57.7666 111.0022 0.0000 -0.2986 0.0000
# 4 0.0000 0.0000 0.0000 31.6719 0.0000 -5.4913
# 5 7.5102 3.8607 -0.2986 0.0000 37.3184 0.0000
# 6 0.0000 0.0000 0.0000 -5.4913 0.0000 31.0154
#
#
#
# Elastic Compliance Matrix: (Units=1/GPa)
#
#
# Indices 1 2 3 4 5 6 
#
# 1 0.011679 -0.004974 -0.002143 0.000000 -0.001853 0.000000
# 2 -0.004974 0.014698 -0.005638 0.000000 -0.000565 0.000000
# 3 -0.002143 -0.005638 0.012813 0.000000 0.001117 0.000000
# 4 0.000000 0.000000 0.000000 0.032574 0.000000 0.005767
# 5 -0.001853 -0.000565 0.001117 0.000000 0.027237 0.000000
# 6 0.000000 0.000000 0.000000 0.005767 0.000000 0.033263
#
#
# Mechanical properties :
#
#
# Convention : Reuss Voigt Hill
#
# Bulk Modulus (GPa) = 73.09550 73.58577 73.34064
# Shear Modulus (GPa) = 30.80094 32.00302 31.40198
#
# Velocity S-wave (km/s) = 3.88838 3.96353 3.92614
# Velocity P-wave (km/s) = 7.48601 7.55432 7.52024
#
# Compressibility (1/GPa) = 0.01368073
#
# Stress axis : x y z
#
# Youngs Moduli (GPa) = 85.62618 68.03626 78.04488
#
# Poissons Ratio (x) = 0.33839 0.16728
# Poissons Ratio (y) = 0.42588 0.43998
# Poissons Ratio (z) = 0.18353 0.38356
#
# Static dielectric constant tensor:
#      x y z
#    x 3.783360 0.000000 -0.082510 
#    y 0.000000 3.933680 0.000000 
#    z -0.082510 0.000000 3.701970 
# 
# 
# High freq. dielectric constant tensor:
#      x y z
#    x 1.795970 0.000000 -0.011030 
#    y 0.000000 1.812790 0.000000 
#    z -0.011030 0.000000 1.793130 
# 
# From -- ./inp_files/17896.got.cif
#   From: 2010.06.25/outbox.cif.g09.slc.cpg/sg11_9_cif.got.tgz:17896.got - 2010.06.27 23:14:04.
