data_PCOD8076900
_publ_section_title
;
Structure prediction by ZEFSAII (Michael W. Deem and Ramdas Pophale) SiO2 
 PCOD8076900
Probable space group: P 21/M
;
_chemical_formula_sum "Si O2"
_cell_formula_units_Z 24
_cell_length_a 9.541232
_cell_length_b 8.530028
_cell_length_c 14.860491
_cell_angle_alpha 90.000000
_cell_angle_beta 81.089522
_cell_angle_gamma 90.000000
_cell_volume 1194.854242
_symmetry_space_group_name_H-M "P 21/M"
_symmetry_group_IT_number 11
_symmetry_cell_setting 'monoclinic'
loop_
_space_group_symop_operation_xyz
x,y,z
-x,1/2+y,-z
-x,-y,-z
x,1/2-y,z
loop_
_atom_site_type_symbol
_atom_site_label
_atom_site_fract_x
_atom_site_fract_y
_atom_site_fract_z
Si Si1 0.145994 0.937218 0.749328
Si Si2 0.615032 0.936442 0.920423
Si Si3 0.122959 0.933017 0.546711
Si Si4 0.603994 0.935941 0.562169
Si Si5 0.460227 0.935297 0.757851
Si Si6 0.930755 0.064380 0.915957
O O1 0.135909 0.750000 0.754340
O O2 0.130711 0.000342 0.648010
O O3 0.297624 0.998293 0.773127
O O4 0.019477 0.007971 0.820942
O O5 0.626738 0.750000 0.924631
O O6 0.553240 0.995930 0.831587
O O7 0.769144 0.007608 0.923520
O O8 0.500000 0.000000 0.000000
O O9 0.107305 0.750000 0.558223
O O10 0.252273 0.977118 0.471256
O O11 0.000000 0.000000 0.500000
O O12 0.622204 0.750000 0.555649
O O13 0.544948 0.994238 0.663039
O O14 0.500000 0.000000 0.500000
O O15 0.449597 0.750000 0.759112
O O16 0.931754 0.250000 0.920658
O O17 0.000000 0.000000 0.000000
#
# Coordination Sequence:
#
# PCOD8076900 Si02
#       6
#     4   4   4   4   4   4
#     4  10  21  42  66  90 125 169 211 258 319 379
#     4  11  23  42  68  97 127 164 207 257 315 376
#     4  11  24  41  62  91 129 172 215 264 318 373
#     4  11  21  39  63  92 125 169 216 260 313 372
#     4   9  20  39  64  90 122 163 207 253 314 377
#     4  12  26  44  66  95 128 165 210 260 315 377
#
# _framework density 20.086131999999999
#
# number of rings (size 3 to 8) (size 9 to 14) (size 15 to 20)
#    0.000    1.333    1.667    4.000    2.333    2.667 
#    0.000    3.333    0.000    0.000    0.000    0.000 
#    0.000    0.000    0.000    0.000    0.000    0.000 
#
# Total GULP energy -297522.574110 kJ/mol
# GULP energy per Si atom -12396.773921 kJ/mol
# Density = 2.004042 g / cm^3
# Si number density = 20.086132 Si / 1000 Ang^3
#
#
#
# Elastic Constant Matrix: (Units=GPa)
#
#
# Indices 1 2 3 4 5 6 
#
# 1 205.7165 36.6891 98.7150 0.0000 5.0033 0.0000
# 2 36.6891 64.2744 40.6638 0.0000 9.1281 0.0000
# 3 98.7150 40.6638 172.0142 0.0000 -0.3228 0.0000
# 4 0.0000 0.0000 0.0000 33.8449 0.0000 -2.9615
# 5 5.0033 9.1281 -0.3228 0.0000 41.4744 0.0000
# 6 0.0000 0.0000 0.0000 -2.9615 0.0000 38.4239
#
#
#
# Elastic Compliance Matrix: (Units=1/GPa)
#
#
# Indices 1 2 3 4 5 6 
#
# 1 0.006869 -0.001593 -0.003566 0.000000 -0.000506 0.000000
# 2 -0.001593 0.019374 -0.003674 0.000000 -0.004100 0.000000
# 3 -0.003566 -0.003674 0.008731 0.000000 0.001307 0.000000
# 4 0.000000 0.000000 0.000000 0.029747 0.000000 0.002293
# 5 -0.000506 -0.004100 0.001307 0.000000 0.025085 0.000000
# 6 0.000000 0.000000 0.000000 0.002293 0.000000 0.026202
#
#
# Mechanical properties :
#
#
# Convention : Reuss Voigt Hill
#
# Bulk Modulus (GPa) = 57.77534 88.23787 73.00661
# Shear Modulus (GPa) = 35.85707 40.47779 38.16743
#
# Velocity S-wave (km/s) = 4.22971 4.49398 4.36384
# Velocity P-wave (km/s) = 7.25811 8.42336 7.86235
#
# Compressibility (1/GPa) = 0.01730842
#
# Stress axis : x y z
#
# Youngs Moduli (GPa) = 145.58779 51.61569 114.53535
#
# Poissons Ratio (x) = 0.08221 0.40846
# Poissons Ratio (y) = 0.23189 0.42076
# Poissons Ratio (z) = 0.51920 0.18962
#
# Static dielectric constant tensor:
#      x y z
#    x 3.605540 0.000000 0.027810 
#    y 0.000000 3.598230 0.000000 
#    z 0.027810 0.000000 3.929180 
# 
# 
# High freq. dielectric constant tensor:
#      x y z
#    x 1.805930 0.000000 -0.000430 
#    y 0.000000 1.773120 0.000000 
#    z -0.000430 0.000000 1.803660 
# 
# From -- ./inp_files/46493.got.cif
#   From: 2010.06.25/outbox.cif.g09.slc.cpg/sg11_24_cif.got.tgz:46493.got - 2010.06.27 23:14:04.
