data_PCOD8076832
_publ_section_title
;
Structure prediction by ZEFSAII (Michael W. Deem and Ramdas Pophale) SiO2 
 PCOD8076832
Probable space group: P 21/M
;
_chemical_formula_sum "Si O2"
_cell_formula_units_Z 22
_cell_length_a 8.736952
_cell_length_b 15.302798
_cell_length_c 8.683424
_cell_angle_alpha 90.000000
_cell_angle_beta 78.908027
_cell_angle_gamma 90.000000
_cell_volume 1139.284759
_symmetry_space_group_name_H-M "P 21/M"
_symmetry_group_IT_number 11
_symmetry_cell_setting 'monoclinic'
loop_
_space_group_symop_operation_xyz
x,y,z
-x,1/2+y,-z
-x,-y,-z
x,1/2-y,z
loop_
_atom_site_type_symbol
_atom_site_label
_atom_site_fract_x
_atom_site_fract_y
_atom_site_fract_z
Si Si1 0.455818 0.924064 0.819412
Si Si2 0.399295 0.750000 0.652213
Si Si3 0.180922 0.750000 0.430322
Si Si4 0.720284 0.583369 0.220826
Si Si5 0.012750 0.573161 0.366953
Si Si6 0.524380 0.750000 0.310586
Si Si7 0.743588 0.507659 0.905353
O O1 0.415357 0.832111 0.757486
O O2 0.642253 0.934838 0.804230
O O3 0.389136 0.999704 0.718610
O O4 0.371241 0.932257 0.003344
O O5 0.229400 0.750000 0.601953
O O6 0.534415 0.750000 0.495743
O O7 0.082912 0.662844 0.417709
O O8 0.340591 0.750000 0.297450
O O9 0.609220 0.666275 0.225999
O O10 0.843462 0.596184 0.332980
O O11 0.802447 0.568226 0.037129
O O12 0.111635 0.535168 0.207035
O O13 0.000000 0.500000 0.500000
#
# Coordination Sequence:
#
# PCOD8076832 Si02
#       7
#     4   2   2   4   4   2   4
#     4   9  20  39  64  91 125 162 221 255 312 371
#     4  10  22  36  64  95 124 161 212 268 311 370
#     4  10  25  40  58  98 124 169 216 261 318 373
#     4  10  21  41  61  92 129 164 210 258 325 373
#     4  12  24  40  67  89 136 168 209 262 321 390
#     4  10  23  38  66  89 128 162 216 267 309 367
#     4   9  22  41  63  94 122 169 211 258 325 369
#
# _framework density 19.310362999999999
#
# number of rings (size 3 to 8) (size 9 to 14) (size 15 to 20)
#    1.636    0.364    0.000    3.273    2.545    2.182 
#    0.000    0.909    0.000    0.000    0.000    0.000 
#    0.000    0.000    0.000    0.000    0.000    0.000 
#
# Total GULP energy -272627.746022 kJ/mol
# GULP energy per Si atom -12392.170274 kJ/mol
# Density = 1.926641 g / cm^3
# Si number density = 19.310363 Si / 1000 Ang^3
#
#
#
# Elastic Constant Matrix: (Units=GPa)
#
#
# Indices 1 2 3 4 5 6 
#
# 1 87.4103 48.3307 16.8067 0.0000 28.7189 0.0000
# 2 48.3307 172.5157 46.3681 0.0000 13.4487 0.0000
# 3 16.8067 46.3681 66.4451 0.0000 7.4664 0.0000
# 4 0.0000 0.0000 0.0000 40.5609 0.0000 3.4227
# 5 28.7189 13.4487 7.4664 0.0000 37.0755 0.0000
# 6 0.0000 0.0000 0.0000 3.4227 0.0000 37.7193
#
#
#
# Elastic Compliance Matrix: (Units=1/GPa)
#
#
# Indices 1 2 3 4 5 6 
#
# 1 0.017679 -0.003899 -0.000379 0.000000 -0.012203 0.000000
# 2 -0.003899 0.008092 -0.004778 0.000000 0.001048 0.000000
# 3 -0.000379 -0.004778 0.018675 0.000000 -0.001734 0.000000
# 4 0.000000 0.000000 0.000000 0.024844 0.000000 -0.002254
# 5 -0.012203 0.001048 -0.001734 0.000000 0.036394 0.000000
# 6 0.000000 0.000000 0.000000 -0.002254 0.000000 0.026716
#
#
# Mechanical properties :
#
#
# Convention : Reuss Voigt Hill
#
# Bulk Modulus (GPa) = 37.97669 61.04246 49.50957
# Shear Modulus (GPa) = 31.38921 37.39553 34.39237
#
# Velocity S-wave (km/s) = 4.03614 4.40540 4.22481
# Velocity P-wave (km/s) = 6.43659 7.58661 7.03514
#
# Compressibility (1/GPa) = 0.02633194
#
# Stress axis : x y z
#
# Youngs Moduli (GPa) = 56.56534 123.58543 53.54734
#
# Poissons Ratio (x) = 0.48192 0.02030
# Poissons Ratio (y) = 0.22058 0.25585
# Poissons Ratio (z) = 0.02145 0.59049
#
# Static dielectric constant tensor:
#      x y z
#    x 3.500350 0.000000 0.103300 
#    y 0.000000 3.103980 0.000000 
#    z 0.103300 0.000000 3.337980 
# 
# 
# High freq. dielectric constant tensor:
#      x y z
#    x 1.751100 0.000000 0.014150 
#    y 0.000000 1.748670 0.000000 
#    z 0.014150 0.000000 1.739200 
# 
# From -- ./inp_files/12294.got.cif
#   From: 2010.06.25/outbox.cif.g09.slc.cpg/sg11_7_cif.got.tgz:12294.got - 2010.06.27 23:14:04.
