data_PCOD8076979
_publ_section_title
;
Structure prediction by ZEFSAII (Michael W. Deem and Ramdas Pophale) SiO2 
 PCOD8076979
Probable space group: P 21/M
;
_chemical_formula_sum "Si O2"
_cell_formula_units_Z 32
_cell_length_a 27.961961
_cell_length_b 8.727804
_cell_length_c 21.678077
_cell_angle_alpha 90.000000
_cell_angle_beta 161.248473
_cell_angle_gamma 90.000000
_cell_volume 1700.695872
_symmetry_space_group_name_H-M "P 21/M"
_symmetry_group_IT_number 11
_symmetry_cell_setting 'monoclinic'
loop_
_space_group_symop_operation_xyz
x,y,z
-x,1/2+y,-z
-x,-y,-z
x,1/2-y,z
loop_
_atom_site_type_symbol
_atom_site_label
_atom_site_fract_x
_atom_site_fract_y
_atom_site_fract_z
Si Si1 0.706139 0.069385 0.631486
Si Si2 0.547578 0.068866 0.993765
Si Si3 0.365711 0.429678 0.212219
Si Si4 0.872285 0.930886 0.720780
Si Si5 0.398430 0.068947 0.690172
Si Si6 0.814112 0.930410 0.888506
Si Si7 0.687761 0.430766 0.977091
Si Si8 0.844789 0.430550 0.290801
O O1 0.723713 0.250000 0.640220
O O2 0.535877 0.013916 0.419668
O O3 0.800686 0.972051 0.698719
O O4 0.769211 0.031216 0.775446
O O5 0.545762 0.250000 0.997294
O O6 0.712104 0.012485 0.174005
O O7 0.427692 0.012377 0.795889
O O8 0.500000 0.000000 0.000000
O O9 0.355019 0.250000 0.193676
O O10 0.291347 0.484855 0.184704
O O11 0.274285 0.498700 0.042995
O O12 0.906252 0.750000 0.760691
O O13 0.761829 0.982581 0.530572
O O14 0.018393 0.029887 0.887927
O O15 0.414306 0.250000 0.708084
O O16 0.527035 0.003981 0.802279
O O17 0.798682 0.750000 0.855503
O O18 0.685274 0.250000 0.966954
O O19 0.809167 0.480097 0.176742
O O20 0.856641 0.250000 0.309672
O O21 0.000000 0.500000 0.500000
#
# Coordination Sequence:
#
# PCOD8076979 Si02
#       8
#     4   4   4   4   4   4   4   4
#     4  11  22  38  60  84 107 139 184 228 270 326
#     4   9  18  35  56  81 111 143 181 224 267 318
#     4  10  22  38  57  82 112 142 178 227 277 320
#     4  11  21  37  60  83 107 144 185 225 274 322
#     4   8  16  33  57  80 105 139 181 225 265 313
#     4  11  24  40  54  78 115 148 177 222 276 325
#     4   9  17  34  59  82 105 142 187 226 265 320
#     4   9  19  35  56  82 113 145 182 224 267 320
#
# _framework density 18.815826999999999
#
# number of rings (size 3 to 8) (size 9 to 14) (size 15 to 20)
#    0.000    2.250    1.250    3.375    0.000    2.500 
#    2.250    3.125    0.000    0.000    0.000    0.000 
#    0.000    0.000    0.000    0.000    0.000    0.000 
#
# Total GULP energy -396755.732302 kJ/mol
# GULP energy per Si atom -12398.616634 kJ/mol
# Density = 1.877300 g / cm^3
# Si number density = 18.815827 Si / 1000 Ang^3
#
#
#
# Elastic Constant Matrix: (Units=GPa)
#
#
# Indices 1 2 3 4 5 6 
#
# 1 92.1655 19.8992 40.8523 0.0000 -14.4117 0.0000
# 2 19.8992 22.9914 20.2258 0.0000 -0.5842 0.0000
# 3 40.8523 20.2258 115.0630 0.0000 -11.9335 0.0000
# 4 0.0000 0.0000 0.0000 27.2134 0.0000 -3.0356
# 5 -14.4117 -0.5842 -11.9335 0.0000 30.4956 0.0000
# 6 0.0000 0.0000 0.0000 -3.0356 0.0000 31.1102
#
#
#
# Elastic Compliance Matrix: (Units=1/GPa)
#
#
# Indices 1 2 3 4 5 6 
#
# 1 0.015370 -0.010516 -0.002998 0.000000 0.005889 0.000000
# 2 -0.010516 0.058854 -0.007307 0.000000 -0.006702 0.000000
# 3 -0.002998 -0.007307 0.011338 0.000000 0.002880 0.000000
# 4 0.000000 0.000000 0.000000 0.037151 0.000000 0.003625
# 5 0.005889 -0.006702 0.002880 0.000000 0.036573 0.000000
# 6 0.000000 0.000000 0.000000 0.003625 0.000000 0.032498
#
#
# Mechanical properties :
#
#
# Convention : Reuss Voigt Hill
#
# Bulk Modulus (GPa) = 22.76810 43.57495 33.17152
# Shear Modulus (GPa) = 20.15592 27.71334 23.93463
#
# Velocity S-wave (km/s) = 3.27650 3.84197 3.57045
# Velocity P-wave (km/s) = 5.14206 6.54904 5.88773
#
# Compressibility (1/GPa) = 0.04392110
#
# Stress axis : x y z
#
# Youngs Moduli (GPa) = 65.06098 16.99123 88.19657
#
# Poissons Ratio (x) = 0.17868 0.26439
# Poissons Ratio (y) = 0.68420 0.64442
# Poissons Ratio (z) = 0.19504 0.12415
#
# Static dielectric constant tensor:
#      x y z
#    x 3.722780 0.000000 -0.186520 
#    y 0.000000 2.780650 0.000000 
#    z -0.186520 0.000000 4.501550 
# 
# 
# High freq. dielectric constant tensor:
#      x y z
#    x 1.732300 0.000000 -0.010920 
#    y 0.000000 1.716180 0.000000 
#    z -0.010920 0.000000 1.735910 
# 
# From -- ./inp_files/67256.got.cif
#   From: 2010.06.25/outbox.cif.g09.slc.cpg/sg11_34_cif.got.tgz:67256.got - 2010.06.27 23:14:04.
