data_PCOD8076613
_publ_section_title
;
Structure prediction by ZEFSAII (Michael W. Deem and Ramdas Pophale) SiO2 
 PCOD8076613
Probable space group: P 21/M
;
_chemical_formula_sum "Si O2"
_cell_formula_units_Z 28
_cell_length_a 8.535305
_cell_length_b 18.022244
_cell_length_c 15.026369
_cell_angle_alpha 90.000000
_cell_angle_beta 34.890834
_cell_angle_gamma 90.000000
_cell_volume 1322.175543
_symmetry_space_group_name_H-M "P 21/M"
_symmetry_group_IT_number 11
_symmetry_cell_setting 'monoclinic'
loop_
_space_group_symop_operation_xyz
x,y,z
-x,1/2+y,-z
-x,-y,-z
x,1/2-y,z
loop_
_atom_site_type_symbol
_atom_site_label
_atom_site_fract_x
_atom_site_fract_y
_atom_site_fract_z
Si Si1 0.016399 0.090459 0.384730
Si Si2 0.377930 0.882379 0.927009
Si Si3 0.811177 0.427315 0.663910
Si Si4 0.571733 0.335198 0.471099
Si Si5 0.959583 0.166971 0.756777
Si Si6 0.153316 0.664941 0.840594
Si Si7 0.221082 0.035558 0.960757
O O1 0.956033 0.115606 0.514665
O O2 0.775004 0.113513 0.431765
O O3 0.295142 0.128361 0.219782
O O4 0.028174 0.001488 0.382960
O O5 0.288635 0.859658 0.869716
O O6 0.222855 0.831059 0.069280
O O7 0.301945 0.967880 0.989273
O O8 0.799037 0.376696 0.756125
O O9 0.498801 0.443616 0.778798
O O10 0.610502 0.250000 0.483960
O O11 0.625476 0.343498 0.340668
O O12 0.264494 0.364739 0.633244
O O13 0.997402 0.250000 0.704123
O O14 0.045947 0.750000 0.896415
O O15 0.899738 0.609385 0.936017
O O16 0.000000 0.000000 0.000000
#
# Coordination Sequence:
#
# PCOD8076613 Si02
#       7
#     4   4   4   4   4   4   4
#     4  10  23  42  66  92 122 164 218 257 316 378
#     4  10  22  41  64  89 127 167 208 260 310 376
#     4  10  23  42  65  92 127 168 208 264 317 378
#     4  10  24  41  61  92 127 162 209 262 313 374
#     4  11  25  42  62  95 131 167 210 259 319 377
#     4  10  21  39  62  88 124 167 208 254 317 378
#     4   9  21  38  63  94 126 157 211 261 310 366
#
# _framework density 21.177218
#
# number of rings (size 3 to 8) (size 9 to 14) (size 15 to 20)
#    0.000    2.000    0.000    1.286    8.000    5.143 
#    0.000    0.000    0.000    0.000    0.000    0.000 
#    0.000    0.000    0.000    0.000    0.000    0.000 
#
# Total GULP energy -347126.310226 kJ/mol
# GULP energy per Si atom -12397.368222 kJ/mol
# Density = 2.112902 g / cm^3
# Si number density = 21.177218 Si / 1000 Ang^3
#
#
#
# Elastic Constant Matrix: (Units=GPa)
#
#
# Indices 1 2 3 4 5 6 
#
# 1 114.3009 36.2392 64.3544 0.0000 -2.1470 0.0000
# 2 36.2392 83.5940 41.4974 0.0000 -7.6882 0.0000
# 3 64.3544 41.4974 146.6464 0.0000 -8.7318 0.0000
# 4 0.0000 0.0000 0.0000 32.4955 0.0000 0.9416
# 5 -2.1470 -7.6882 -8.7318 0.0000 39.6866 0.0000
# 6 0.0000 0.0000 0.0000 0.9416 0.0000 20.7112
#
#
#
# Elastic Compliance Matrix: (Units=1/GPa)
#
#
# Indices 1 2 3 4 5 6 
#
# 1 0.012299 -0.003155 -0.004561 0.000000 -0.000949 0.000000
# 2 -0.003155 0.014863 -0.002695 0.000000 0.002116 0.000000
# 3 -0.004561 -0.002695 0.009664 0.000000 0.001357 0.000000
# 4 0.000000 0.000000 0.000000 0.030814 0.000000 -0.001401
# 5 -0.000949 0.002116 0.001357 0.000000 0.025855 0.000000
# 6 0.000000 0.000000 0.000000 -0.001401 0.000000 0.048347
#
#
# Mechanical properties :
#
#
# Convention : Reuss Voigt Hill
#
# Bulk Modulus (GPa) = 62.48636 69.85814 66.17225
# Shear Modulus (GPa) = 29.76198 32.07535 30.91867
#
# Velocity S-wave (km/s) = 3.75290 3.89603 3.82514
# Velocity P-wave (km/s) = 6.95338 7.30053 7.12907
#
# Compressibility (1/GPa) = 0.01600349
#
# Stress axis : x y z
#
# Youngs Moduli (GPa) = 81.30487 67.28163 103.47363
#
# Poissons Ratio (x) = 0.21228 0.47196
# Poissons Ratio (y) = 0.25652 0.27889
# Poissons Ratio (z) = 0.37085 0.18135
#
# Static dielectric constant tensor:
#      x y z
#    x 3.546140 0.000000 -0.131740 
#    y 0.000000 4.094320 0.000000 
#    z -0.131740 0.000000 3.994540 
# 
# 
# High freq. dielectric constant tensor:
#      x y z
#    x 1.817010 0.000000 -0.007820 
#    y 0.000000 1.829980 0.000000 
#    z -0.007820 0.000000 1.840930 
# 
# From -- ./inp_files/48310.got.cif
#   From: 2010.06.25/outbox.cif.g09.slc.cpg/sg11_25_cif.got.tgz:48310.got - 2010.06.27 23:14:04.
