data_PCOD8076158
_publ_section_title
;
Structure prediction by ZEFSAII (Michael W. Deem and Ramdas Pophale) SiO2 
 PCOD8076158
Probable space group: P 21/M
;
_chemical_formula_sum "Si O2"
_cell_formula_units_Z 32
_cell_length_a 19.679631
_cell_length_b 14.068439
_cell_length_c 13.142992
_cell_angle_alpha 90.000000
_cell_angle_beta 153.351230
_cell_angle_gamma 90.000000
_cell_volume 1632.070617
_symmetry_space_group_name_H-M "P 21/M"
_symmetry_group_IT_number 11
_symmetry_cell_setting 'monoclinic'
loop_
_space_group_symop_operation_xyz
x,y,z
-x,1/2+y,-z
-x,-y,-z
x,1/2-y,z
loop_
_atom_site_type_symbol
_atom_site_label
_atom_site_fract_x
_atom_site_fract_y
_atom_site_fract_z
Si Si1 0.370276 0.145155 0.070802
Si Si2 0.688296 0.856186 0.781469
Si Si3 0.927815 0.997293 0.169722
Si Si4 0.279337 0.943699 0.944264
Si Si5 0.875650 0.977157 0.749832
Si Si6 0.854503 0.141655 0.433417
Si Si7 0.303006 0.854708 0.573221
Si Si8 0.590650 0.860233 0.433595
O O1 0.295517 0.250000 0.950565
O O2 0.405893 0.133775 0.239402
O O3 0.519635 0.135341 0.204902
O O4 0.264880 0.056624 0.896609
O O5 0.756920 0.750000 0.862834
O O6 0.577928 0.876035 0.538338
O O7 0.825989 0.930107 0.961593
O O8 0.008024 0.929206 0.359879
O O9 0.043959 0.051415 0.250065
O O10 0.825622 0.072949 0.095882
O O11 0.454359 0.918462 0.200000
O O12 0.218625 0.879423 0.773058
O O13 0.756234 0.894869 0.617643
O O14 0.786007 0.074978 0.618384
O O15 0.000000 0.000000 0.000000
O O16 0.914847 0.250000 0.514049
O O17 0.725731 0.125862 0.346160
O O18 0.245988 0.750000 0.466033
O O19 0.573837 0.750000 0.381187
#
# Coordination Sequence:
#
# PCOD8076158 Si02
#       8
#     4   4   4   4   4   4   4   4
#     4   9  18  34  56  86 115 143 189 247 292 332
#     4   9  18  33  57  84 115 150 191 237 287 346
#     4  10  21  37  60  88 114 150 205 246 293 333
#     4  11  22  38  61  87 119 158 193 244 295 357
#     4  11  21  37  58  89 119 156 193 244 295 348
#     4  10  21  38  61  86 116 157 200 241 290 352
#     4   9  19  36  58  84 113 148 196 243 285 336
#     4  11  23  39  58  86 121 161 196 233 295 363
#
# _framework density 19.606994
#
# number of rings (size 3 to 8) (size 9 to 14) (size 15 to 20)
#    0.000    2.000    2.500    1.125    0.000    5.000 
#    0.000    1.250    0.000    0.000    0.000    0.000 
#    0.000    0.000    0.000    0.000    0.000    0.000 
#
# Total GULP energy -396647.639750 kJ/mol
# GULP energy per Si atom -12395.238742 kJ/mol
# Density = 1.956237 g / cm^3
# Si number density = 19.606994 Si / 1000 Ang^3
#
#
#
# Elastic Constant Matrix: (Units=GPa)
#
#
# Indices 1 2 3 4 5 6 
#
# 1 81.2980 30.5095 18.3507 0.0000 11.5230 0.0000
# 2 30.5095 67.3234 13.3382 0.0000 -1.6686 0.0000
# 3 18.3507 13.3382 67.4225 0.0000 -4.2319 0.0000
# 4 0.0000 0.0000 0.0000 20.8562 0.0000 -3.6620
# 5 11.5230 -1.6686 -4.2319 0.0000 30.1849 0.0000
# 6 0.0000 0.0000 0.0000 -3.6620 0.0000 22.6338
#
#
#
# Elastic Compliance Matrix: (Units=1/GPa)
#
#
# Indices 1 2 3 4 5 6 
#
# 1 0.016816 -0.007082 -0.003635 0.000000 -0.007321 0.000000
# 2 -0.007082 0.018448 -0.001501 0.000000 0.003513 0.000000
# 3 -0.003635 -0.001501 0.016344 0.000000 0.003596 0.000000
# 4 0.000000 0.000000 0.000000 0.049349 0.000000 0.007984
# 5 -0.007321 0.003513 0.003596 0.000000 0.036622 0.000000
# 6 0.000000 0.000000 0.000000 0.007984 0.000000 0.045474
#
#
# Mechanical properties :
#
#
# Convention : Reuss Voigt Hill
#
# Bulk Modulus (GPa) = 36.80500 37.82675 37.31587
# Shear Modulus (GPa) = 23.08959 24.99134 24.04047
#
# Velocity S-wave (km/s) = 3.43537 3.57405 3.50539
# Velocity P-wave (km/s) = 5.87774 6.03043 5.95457
#
# Compressibility (1/GPa) = 0.02717022
#
# Stress axis : x y z
#
# Youngs Moduli (GPa) = 59.46580 54.20753 61.18422
#
# Poissons Ratio (x) = 0.38390 0.22243
# Poissons Ratio (y) = 0.42114 0.09187
# Poissons Ratio (z) = 0.21619 0.08139
#
# Static dielectric constant tensor:
#      x y z
#    x 3.757060 0.000000 0.102070 
#    y 0.000000 3.725070 0.000000 
#    z 0.102070 0.000000 3.322500 
# 
# 
# High freq. dielectric constant tensor:
#      x y z
#    x 1.774010 0.000000 0.007970 
#    y 0.000000 1.759610 0.000000 
#    z 0.007970 0.000000 1.742080 
# 
# From -- ./inp_files/41651.got.cif
#   From: 2010.06.25/outbox.cif.g09.slc.cpg/sg11_21_cif.got.tgz:41651.got - 2010.06.27 23:14:04.
