data_PCOD8076644
_publ_section_title
;
Structure prediction by ZEFSAII (Michael W. Deem and Ramdas Pophale) SiO2 
 PCOD8076644
Probable space group: P 21/M
;
_chemical_formula_sum "Si O2"
_cell_formula_units_Z 32
_cell_length_a 21.126968
_cell_length_b 13.913629
_cell_length_c 14.500711
_cell_angle_alpha 90.000000
_cell_angle_beta 158.458514
_cell_angle_gamma 90.000000
_cell_volume 1565.091655
_symmetry_space_group_name_H-M "P 21/M"
_symmetry_group_IT_number 11
_symmetry_cell_setting 'monoclinic'
loop_
_space_group_symop_operation_xyz
x,y,z
-x,1/2+y,-z
-x,-y,-z
x,1/2-y,z
loop_
_atom_site_type_symbol
_atom_site_label
_atom_site_fract_x
_atom_site_fract_y
_atom_site_fract_z
Si Si1 0.135877 0.859687 0.204344
Si Si2 0.804381 0.954211 0.822401
Si Si3 0.663000 0.637044 0.172433
Si Si4 0.512489 0.640727 0.775335
Si Si5 0.512991 0.363006 0.704630
Si Si6 0.070899 0.511361 0.494509
Si Si7 0.395943 0.637980 0.963252
Si Si8 0.272730 0.478451 0.075620
O O1 0.111804 0.750000 0.134565
O O2 0.306231 0.866472 0.497710
O O3 0.149645 0.934578 0.137970
O O4 0.976143 0.889575 0.052401
O O5 0.670507 0.909523 0.568480
O O6 0.718883 0.948306 0.806836
O O7 0.690439 0.750000 0.210913
O O8 0.850056 0.588679 0.435299
O O9 0.543488 0.601771 0.093882
O O10 0.580959 0.599123 0.965127
O O11 0.574914 0.750000 0.848903
O O12 0.587061 0.583505 0.789713
O O13 0.511924 0.250000 0.683167
O O14 0.545517 0.389197 0.854998
O O15 0.668799 0.410405 0.856989
O O16 0.000000 0.500000 0.500000
O O17 0.215819 0.592365 0.690074
O O18 0.918340 0.541627 0.219830
O O19 0.366581 0.750000 0.912472
#
# Coordination Sequence:
#
# PCOD8076644 Si02
#       8
#     4   4   4   4   4   4   4   4
#     4  10  23  43  66  93 125 165 212 266 317 369
#     4  11  25  43  67  93 129 165 214 265 313 376
#     4  10  22  40  64  94 125 167 212 258 315 378
#     4  10  21  39  63  90 130 167 206 259 315 378
#     4  11  23  42  66  91 129 170 213 263 316 375
#     4  12  23  39  63  91 130 166 204 259 315 376
#     4  10  23  42  66  93 125 167 213 261 317 377
#     4  12  25  42  61  97 128 170 211 255 317 379
#
# _framework density 20.446086000000001
#
# number of rings (size 3 to 8) (size 9 to 14) (size 15 to 20)
#    0.000    1.250    3.750    1.125    1.750    5.000 
#    0.000    1.250    0.000    0.000    0.000    0.000 
#    0.000    0.000    0.000    0.000    0.000    0.000 
#
# Total GULP energy -396908.134381 kJ/mol
# GULP energy per Si atom -12403.379199 kJ/mol
# Density = 2.039955 g / cm^3
# Si number density = 20.446086 Si / 1000 Ang^3
#
#
#
# Elastic Constant Matrix: (Units=GPa)
#
#
# Indices 1 2 3 4 5 6 
#
# 1 108.3978 39.6946 37.3759 0.0000 14.2631 0.0000
# 2 39.6946 94.6550 52.7467 0.0000 2.7772 0.0000
# 3 37.3759 52.7467 114.2390 0.0000 16.2801 0.0000
# 4 0.0000 0.0000 0.0000 18.0276 0.0000 3.4920
# 5 14.2631 2.7772 16.2801 0.0000 30.3310 0.0000
# 6 0.0000 0.0000 0.0000 3.4920 0.0000 26.8776
#
#
#
# Elastic Compliance Matrix: (Units=1/GPa)
#
#
# Indices 1 2 3 4 5 6 
#
# 1 0.011756 -0.004051 -0.001343 0.000000 -0.004436 0.000000
# 2 -0.004051 0.015785 -0.006528 0.000000 0.003963 0.000000
# 3 -0.001343 -0.006528 0.013028 0.000000 -0.005764 0.000000
# 4 0.000000 0.000000 0.000000 0.056903 0.000000 -0.007393
# 5 -0.004436 0.003963 -0.005764 0.000000 0.037786 0.000000
# 6 0.000000 0.000000 0.000000 -0.007393 0.000000 0.038166
#
#
# Mechanical properties :
#
#
# Convention : Reuss Voigt Hill
#
# Bulk Modulus (GPa) = 59.79228 64.10293 61.94761
# Shear Modulus (GPa) = 24.64958 27.54554 26.09756
#
# Velocity S-wave (km/s) = 3.47593 3.67444 3.57656
# Velocity P-wave (km/s) = 6.73920 7.03010 6.88618
#
# Compressibility (1/GPa) = 0.01672457
#
# Stress axis : x y z
#
# Youngs Moduli (GPa) = 85.06514 63.35217 76.75520
#
# Poissons Ratio (x) = 0.25664 0.10312
# Poissons Ratio (y) = 0.34460 0.50103
# Poissons Ratio (z) = 0.11428 0.41354
#
# Static dielectric constant tensor:
#      x y z
#    x 3.711000 0.000000 0.088050 
#    y 0.000000 3.915450 0.000000 
#    z 0.088050 0.000000 3.950550 
# 
# 
# High freq. dielectric constant tensor:
#      x y z
#    x 1.794170 0.000000 0.007310 
#    y 0.000000 1.813300 0.000000 
#    z 0.007310 0.000000 1.806290 
# 
# From -- ./inp_files/55037.got.cif
#   From: 2010.06.25/outbox.cif.g09.slc.cpg/sg11_28_cif.got.tgz:55037.got - 2010.06.27 23:14:04.
