data_PCOD8076290
_publ_section_title
;
Structure prediction by ZEFSAII (Michael W. Deem and Ramdas Pophale) SiO2 
 PCOD8076290
Probable space group: P 21/M
;
_chemical_formula_sum "Si O2"
_cell_formula_units_Z 24
_cell_length_a 8.762744
_cell_length_b 9.159821
_cell_length_c 15.037902
_cell_angle_alpha 90.000000
_cell_angle_beta 89.630430
_cell_angle_gamma 90.000000
_cell_volume 1206.994599
_symmetry_space_group_name_H-M "P 21/M"
_symmetry_group_IT_number 11
_symmetry_cell_setting 'monoclinic'
loop_
_space_group_symop_operation_xyz
x,y,z
-x,1/2+y,-z
-x,-y,-z
x,1/2-y,z
loop_
_atom_site_type_symbol
_atom_site_label
_atom_site_fract_x
_atom_site_fract_y
_atom_site_fract_z
Si Si1 0.672631 0.417464 0.326461
Si Si2 0.154184 0.419223 0.523427
Si Si3 0.839414 0.077878 0.809548
Si Si4 0.326934 0.418412 0.344150
Si Si5 0.853407 0.083073 0.149624
Si Si6 0.657582 0.420903 0.983454
O O1 0.684252 0.250000 0.359151
O O2 0.780474 0.516138 0.386221
O O3 0.499608 0.474693 0.333606
O O4 0.724394 0.434422 0.224951
O O5 0.116960 0.250000 0.538344
O O6 0.277936 0.442771 0.445759
O O7 0.000000 0.500000 0.500000
O O8 0.848841 0.250000 0.798842
O O9 0.784117 0.010828 0.717473
O O10 0.723212 0.031990 0.887815
O O11 0.006529 0.021146 0.831010
O O12 0.312598 0.250000 0.315521
O O13 0.911555 0.250000 0.144717
O O14 0.779868 0.031988 0.057284
O O15 0.625904 0.250000 0.989571
O O16 0.500000 0.500000 0.000000
#
# Coordination Sequence:
#
# PCOD8076290 Si02
#       6
#     4   4   4   4   4   4
#     4  10  21  38  60  84 110 145 190 234 278 333
#     4  11  23  38  58  84 114 149 188 231 281 335
#     4  11  23  37  57  87 117 146 187 236 279 324
#     4  10  22  40  60  82 112 152 190 226 280 343
#     4  10  21  38  59  82 112 151 189 226 278 341
#     4  10  22  39  59  85 115 149 189 231 278 332
#
# _framework density 19.884101000000001
#
# number of rings (size 3 to 8) (size 9 to 14) (size 15 to 20)
#    0.000    1.667    0.000    4.000    0.000   10.000 
#    0.000    0.000    0.000    0.000    0.000    0.000 
#    0.000    0.000    0.000    0.000    0.000    0.000 
#
# Total GULP energy -297766.083792 kJ/mol
# GULP energy per Si atom -12406.920158 kJ/mol
# Density = 1.983884 g / cm^3
# Si number density = 19.884101 Si / 1000 Ang^3
#
#
#
# Elastic Constant Matrix: (Units=GPa)
#
#
# Indices 1 2 3 4 5 6 
#
# 1 85.5854 28.5499 -6.9655 0.0000 2.3256 0.0000
# 2 28.5499 66.3141 23.8895 0.0000 4.8374 0.0000
# 3 -6.9655 23.8895 63.1910 0.0000 10.4119 0.0000
# 4 0.0000 0.0000 0.0000 29.9734 0.0000 1.0502
# 5 2.3256 4.8374 10.4119 0.0000 35.8247 0.0000
# 6 0.0000 0.0000 0.0000 1.0502 0.0000 37.2226
#
#
#
# Elastic Compliance Matrix: (Units=1/GPa)
#
#
# Indices 1 2 3 4 5 6 
#
# 1 0.014797 -0.008035 0.004882 0.000000 -0.001294 0.000000
# 2 -0.008035 0.021827 -0.009177 0.000000 0.000241 0.000000
# 3 0.004882 -0.009177 0.020671 0.000000 -0.005085 0.000000
# 4 0.000000 0.000000 0.000000 0.033396 0.000000 -0.000942
# 5 -0.001294 0.000241 -0.005085 0.000000 0.029443 0.000000
# 6 0.000000 0.000000 0.000000 -0.000942 0.000000 0.026892
#
#
# Mechanical properties :
#
#
# Convention : Reuss Voigt Hill
#
# Bulk Modulus (GPa) = 30.64235 34.00426 32.32330
# Shear Modulus (GPa) = 27.38757 31.91190 29.64973
#
# Velocity S-wave (km/s) = 3.71531 4.01046 3.86570
# Velocity P-wave (km/s) = 5.81796 6.21155 6.01797
#
# Compressibility (1/GPa) = 0.03263457
#
# Stress axis : x y z
#
# Youngs Moduli (GPa) = 67.58134 45.81395 48.37798
#
# Poissons Ratio (x) = 0.36810 -0.23618
# Poissons Ratio (y) = 0.54300 0.44398
# Poissons Ratio (z) = -0.32992 0.42045
#
# Static dielectric constant tensor:
#      x y z
#    x 3.738850 0.000000 -0.052630 
#    y 0.000000 3.568890 0.000000 
#    z -0.052630 0.000000 3.846110 
# 
# 
# High freq. dielectric constant tensor:
#      x y z
#    x 1.787200 0.000000 -0.003760 
#    y 0.000000 1.772950 0.000000 
#    z -0.003760 0.000000 1.789550 
# 
# From -- ./inp_files/20541.got.cif
#   From: 2010.06.25/outbox.cif.g09.slc.cpg/sg11_11_cif.got.tgz:20541.got - 2010.06.27 23:14:04.
