data_PCOD8076065
_publ_section_title
;
Structure prediction by ZEFSAII (Michael W. Deem and Ramdas Pophale) SiO2 
 PCOD8076065
Probable space group: P 21/M
;
_chemical_formula_sum "Si O2"
_cell_formula_units_Z 32
_cell_length_a 27.756356
_cell_length_b 9.100695
_cell_length_c 11.203301
_cell_angle_alpha 90.000000
_cell_angle_beta 34.520511
_cell_angle_gamma 90.000000
_cell_volume 1603.751829
_symmetry_space_group_name_H-M "P 21/M"
_symmetry_group_IT_number 11
_symmetry_cell_setting 'monoclinic'
loop_
_space_group_symop_operation_xyz
x,y,z
-x,1/2+y,-z
-x,-y,-z
x,1/2-y,z
loop_
_atom_site_type_symbol
_atom_site_label
_atom_site_fract_x
_atom_site_fract_y
_atom_site_fract_z
Si Si1 0.775473 0.422569 0.727935
Si Si2 0.383673 0.921265 0.793518
Si Si3 0.886821 0.588194 0.677997
Si Si4 0.758082 0.581224 0.519027
Si Si5 0.062897 0.077646 0.965437
Si Si6 0.931593 0.086801 0.798671
Si Si7 0.577303 0.922898 0.774295
Si Si8 0.437273 0.077768 0.464981
O O1 0.789680 0.250000 0.700983
O O2 0.853439 0.498497 0.633499
O O3 0.771195 0.474188 0.601918
O O4 0.690907 0.472329 0.968122
O O5 0.381991 0.750000 0.770555
O O6 0.468436 0.969851 0.689023
O O7 0.372378 0.001777 0.689528
O O8 0.844343 0.750000 0.773807
O O9 0.867671 0.503754 0.842371
O O10 0.985669 0.607823 0.450618
O O11 0.754835 0.750000 0.568837
O O12 0.837845 0.556540 0.268842
O O13 0.669459 0.535923 0.638314
O O14 0.039198 0.250000 0.019968
O O15 0.048829 0.003298 0.121850
O O16 0.000000 0.000000 0.000000
O O17 0.894944 0.250000 0.904130
O O18 0.559759 0.750000 0.815575
O O19 0.578404 0.980275 0.636194
O O20 0.500000 0.000000 0.000000
O O21 0.422379 0.250000 0.503006
#
# Coordination Sequence:
#
# PCOD8076065 Si02
#       8
#     4   4   4   4   4   4   4   4
#     4  11  22  36  56  82 112 144 183 232 282 332
#     4   9  19  34  52  78 109 139 176 225 276 329
#     4  10  21  37  58  83 112 146 183 227 279 337
#     4  10  23  40  57  82 115 150 192 238 286 346
#     4  11  23  39  59  84 117 157 198 241 289 340
#     4  10  21  38  59  84 113 145 185 232 283 338
#     4  10  21  38  59  83 113 149 188 232 282 338
#     4   9  18  34  55  78 106 141 181 223 273 333
#
# _framework density 19.953211
#
# number of rings (size 3 to 8) (size 9 to 14) (size 15 to 20)
#    0.000    2.000    0.000    3.000    0.000    9.500 
#    0.000    3.750    0.000    0.000    0.000    0.000 
#    0.000    0.000    0.000    0.000    0.000    0.000 
#
# Total GULP energy -396792.878830 kJ/mol
# GULP energy per Si atom -12399.777463 kJ/mol
# Density = 1.990780 g / cm^3
# Si number density = 19.953211 Si / 1000 Ang^3
#
#
#
# Elastic Constant Matrix: (Units=GPa)
#
#
# Indices 1 2 3 4 5 6 
#
# 1 140.1690 57.2367 27.4605 0.0000 18.4733 0.0000
# 2 57.2367 100.7664 36.2394 0.0000 11.5537 0.0000
# 3 27.4605 36.2394 53.0212 0.0000 3.2269 0.0000
# 4 0.0000 0.0000 0.0000 31.2888 0.0000 7.3703
# 5 18.4733 11.5537 3.2269 0.0000 36.0222 0.0000
# 6 0.0000 0.0000 0.0000 7.3703 0.0000 34.8024
#
#
#
# Elastic Compliance Matrix: (Units=1/GPa)
#
#
# Indices 1 2 3 4 5 6 
#
# 1 0.009778 -0.004531 -0.001760 0.000000 -0.003403 0.000000
# 2 -0.004531 0.015694 -0.008260 0.000000 -0.001970 0.000000
# 3 -0.001760 -0.008260 0.025340 0.000000 0.001282 0.000000
# 4 0.000000 0.000000 0.000000 0.033638 0.000000 -0.007124
# 5 -0.003403 -0.001970 0.001282 0.000000 0.030023 0.000000
# 6 0.000000 0.000000 0.000000 -0.007124 0.000000 0.030242
#
#
# Mechanical properties :
#
#
# Convention : Reuss Voigt Hill
#
# Bulk Modulus (GPa) = 46.06339 59.53663 52.80001
# Shear Modulus (GPa) = 27.61606 31.95735 29.78670
#
# Velocity S-wave (km/s) = 3.72431 4.00636 3.86790
# Velocity P-wave (km/s) = 6.45211 7.16269 6.81667
#
# Compressibility (1/GPa) = 0.02170921
#
# Stress axis : x y z
#
# Youngs Moduli (GPa) = 102.27400 63.71864 39.46356
#
# Poissons Ratio (x) = 0.28868 0.06947
# Poissons Ratio (y) = 0.46336 0.32598
# Poissons Ratio (z) = 0.18003 0.52634
#
# Static dielectric constant tensor:
#      x y z
#    x 3.730990 0.000000 0.005330 
#    y 0.000000 3.795360 0.000000 
#    z 0.005330 0.000000 3.640430 
# 
# 
# High freq. dielectric constant tensor:
#      x y z
#    x 1.785880 0.000000 0.006540 
#    y 0.000000 1.784420 0.000000 
#    z 0.006540 0.000000 1.772690 
# 
# From -- ./inp_files/45180.got.cif
#   From: 2010.06.25/outbox.cif.g09.slc.cpg/sg11_23_cif.got.tgz:45180.got - 2010.06.27 23:14:04.
