data_PCOD8076021
_publ_section_title
;
Structure prediction by ZEFSAII (Michael W. Deem and Ramdas Pophale) SiO2 
 PCOD8076021
Probable space group: P 21/M
;
_chemical_formula_sum "Si O2"
_cell_formula_units_Z 32
_cell_length_a 15.412149
_cell_length_b 8.719411
_cell_length_c 22.402154
_cell_angle_alpha 90.000000
_cell_angle_beta 147.232989
_cell_angle_gamma 90.000000
_cell_volume 1629.360913
_symmetry_space_group_name_H-M "P 21/M"
_symmetry_group_IT_number 11
_symmetry_cell_setting 'monoclinic'
loop_
_space_group_symop_operation_xyz
x,y,z
-x,1/2+y,-z
-x,-y,-z
x,1/2-y,z
loop_
_atom_site_type_symbol
_atom_site_label
_atom_site_fract_x
_atom_site_fract_y
_atom_site_fract_z
Si Si1 0.155626 0.569686 0.754128
Si Si2 0.188910 0.431571 0.401055
Si Si3 0.330877 0.428469 0.963408
Si Si4 0.420445 0.927013 0.197339
Si Si5 0.134611 0.573186 0.948548
Si Si6 0.382186 0.071161 0.803703
Si Si7 0.501600 0.930177 0.634492
Si Si8 0.213511 0.070505 0.281099
O O1 0.170978 0.750000 0.773240
O O2 0.276439 0.479707 0.866879
O O3 0.217119 0.521065 0.723308
O O4 0.974468 0.513840 0.661322
O O5 0.195713 0.250000 0.403103
O O6 0.332761 0.492260 0.524238
O O7 0.199670 0.499650 0.339895
O O8 0.375250 0.250000 0.989939
O O9 0.186291 0.462733 0.925058
O O10 0.484232 0.527041 0.070566
O O11 0.440600 0.750000 0.227670
O O12 0.552496 0.972970 0.224068
O O13 0.445113 0.035613 0.267594
O O14 0.240406 0.958025 0.068604
O O15 0.159142 0.750000 0.941962
O O16 0.946857 0.537417 0.850655
O O17 0.346072 0.250000 0.786676
O O18 0.485000 0.750000 0.616478
O O19 0.634867 0.000327 0.666266
O O20 0.240711 0.250000 0.303044
#
# Coordination Sequence:
#
# PCOD8076021 Si02
#       8
#     4   4   4   4   4   4   4   4
#     4  11  21  35  57  83 111 148 187 230 282 337
#     4  10  21  39  61  81 112 151 188 229 282 344
#     4  11  20  31  51  83 120 151 183 226 276 336
#     4   9  20  38  59  80 111 153 191 227 276 338
#     4   9  17  35  59  82 113 152 189 228 282 338
#     4  10  21  37  57  81 112 150 188 231 277 332
#     4  11  23  37  58  84 113 148 191 240 281 329
#     4   9  18  36  60  86 114 147 183 230 291 340
#
# _framework density 19.639602
#
# number of rings (size 3 to 8) (size 9 to 14) (size 15 to 20)
#    0.000    2.000    1.250    3.750    0.000    4.000 
#    0.000    2.500    0.000    0.000    0.000    0.000 
#    0.000    0.000    0.000    0.000    0.000    0.000 
#
# Total GULP energy -396767.251524 kJ/mol
# GULP energy per Si atom -12398.976610 kJ/mol
# Density = 1.959490 g / cm^3
# Si number density = 19.639602 Si / 1000 Ang^3
#
#
#
# Elastic Constant Matrix: (Units=GPa)
#
#
# Indices 1 2 3 4 5 6 
#
# 1 78.4532 17.4200 46.9945 0.0000 18.8216 0.0000
# 2 17.4200 33.7969 8.4906 0.0000 3.4705 0.0000
# 3 46.9945 8.4906 78.5705 0.0000 7.9664 0.0000
# 4 0.0000 0.0000 0.0000 24.2774 0.0000 -1.4311
# 5 18.8216 3.4705 7.9664 0.0000 31.4323 0.0000
# 6 0.0000 0.0000 0.0000 -1.4311 0.0000 28.8090
#
#
#
# Elastic Compliance Matrix: (Units=1/GPa)
#
#
# Indices 1 2 3 4 5 6 
#
# 1 0.024944 -0.008512 -0.012912 0.000000 -0.010724 0.000000
# 2 -0.008512 0.033526 0.001362 0.000000 0.001050 0.000000
# 3 -0.012912 0.001362 0.020050 0.000000 0.002500 0.000000
# 4 0.000000 0.000000 0.000000 0.041312 0.000000 0.002052
# 5 -0.010724 0.001050 0.002500 0.000000 0.037486 0.000000
# 6 0.000000 0.000000 0.000000 0.002052 0.000000 0.034813
#
#
# Mechanical properties :
#
#
# Convention : Reuss Voigt Hill
#
# Bulk Modulus (GPa) = 26.04515 37.40342 31.72428
# Shear Modulus (GPa) = 20.40370 24.76478 22.58424
#
# Velocity S-wave (km/s) = 3.22670 3.55485 3.39475
# Velocity P-wave (km/s) = 5.21272 5.99463 5.61730
#
# Compressibility (1/GPa) = 0.03839487
#
# Stress axis : x y z
#
# Youngs Moduli (GPa) = 40.09014 29.82773 49.87571
#
# Poissons Ratio (x) = 0.25389 0.64401
# Poissons Ratio (y) = 0.34124 -0.06791
# Poissons Ratio (z) = 0.51765 -0.04062
#
# Static dielectric constant tensor:
#      x y z
#    x 3.806920 0.000000 0.260760 
#    y 0.000000 3.368100 0.000000 
#    z 0.260760 0.000000 3.536600 
# 
# 
# High freq. dielectric constant tensor:
#      x y z
#    x 1.768010 0.000000 0.016580 
#    y 0.000000 1.748980 0.000000 
#    z 0.016580 0.000000 1.755280 
# 
# From -- ./inp_files/69084.got.cif
#   From: 2010.06.25/outbox.cif.g09.slc.cpg/sg11_35_cif.got.tgz:69084.got - 2010.06.27 23:14:04.
