data_PCOD8076901
_publ_section_title
;
Structure prediction by ZEFSAII (Michael W. Deem and Ramdas Pophale) SiO2 
 PCOD8076901
Probable space group: P 21/M
;
_chemical_formula_sum "Si O2"
_cell_formula_units_Z 24
_cell_length_a 5.046836
_cell_length_b 16.427444
_cell_length_c 12.453054
_cell_angle_alpha 90.000000
_cell_angle_beta 79.937761
_cell_angle_gamma 90.000000
_cell_volume 1016.560122
_symmetry_space_group_name_H-M "P 21/M"
_symmetry_group_IT_number 11
_symmetry_cell_setting 'monoclinic'
loop_
_space_group_symop_operation_xyz
x,y,z
-x,1/2+y,-z
-x,-y,-z
x,1/2-y,z
loop_
_atom_site_type_symbol
_atom_site_label
_atom_site_fract_x
_atom_site_fract_y
_atom_site_fract_z
Si Si1 0.136884 0.158291 0.548779
Si Si2 0.284334 0.657496 0.228678
Si Si3 0.048415 0.066903 0.351345
Si Si4 0.162376 0.846181 0.002931
Si Si5 0.455125 0.040204 0.649970
Si Si6 0.724329 0.653483 0.870867
O O1 0.244592 0.250000 0.526326
O O2 0.392076 0.098776 0.552282
O O3 0.941881 0.152807 0.664457
O O4 0.984463 0.130590 0.451037
O O5 0.394504 0.750000 0.207573
O O6 0.532423 0.599148 0.245732
O O7 0.166777 0.622156 0.125375
O O8 0.198568 0.112438 0.245550
O O9 0.776281 0.027757 0.323723
O O10 0.248579 0.998559 0.386416
O O11 0.150195 0.750000 0.008579
O O12 0.424421 0.874505 0.919289
O O13 0.906139 0.879676 0.956444
O O14 0.755071 0.750000 0.855024
#
# Coordination Sequence:
#
# PCOD8076901 Si02
#       6
#     4   4   4   4   4   4
#     4  11  25  45  71  99 127 167 219 270 315 381
#     4  10  23  43  69  99 127 168 222 269 317 376
#     4  12  26  43  67  96 135 172 209 261 327 390
#     4   9  20  39  67  93 125 167 219 274 314 365
#     4  12  25  45  64  98 134 174 206 261 333 385
#     4  10  21  42  66  94 127 172 221 264 314 378
#
# _framework density 23.609034000000001
#
# number of rings (size 3 to 8) (size 9 to 14) (size 15 to 20)
#    0.000    1.333    1.667    3.000    4.667    0.000 
#    0.000    6.667    0.000    0.000    0.000    0.000 
#    0.000    0.000    0.000    0.000    0.000    0.000 
#
# Total GULP energy -297564.649207 kJ/mol
# GULP energy per Si atom -12398.527050 kJ/mol
# Density = 2.355530 g / cm^3
# Si number density = 23.609034 Si / 1000 Ang^3
#
#
#
# Elastic Constant Matrix: (Units=GPa)
#
#
# Indices 1 2 3 4 5 6 
#
# 1 65.7760 11.1683 -11.5402 0.0000 19.5908 0.0000
# 2 11.1683 66.0911 31.0607 0.0000 8.6926 0.0000
# 3 -11.5402 31.0607 115.1009 0.0000 13.2548 0.0000
# 4 0.0000 0.0000 0.0000 0.4809 0.0000 11.7620
# 5 19.5908 8.6926 13.2548 0.0000 30.7613 0.0000
# 6 0.0000 0.0000 0.0000 11.7620 0.0000 24.8549
#
#
#
# Elastic Compliance Matrix: (Units=1/GPa)
#
#
# Indices 1 2 3 4 5 6 
#
# 1 0.020980 -0.003922 0.004812 0.000000 -0.014327 0.000000
# 2 -0.003922 0.018335 -0.005295 0.000000 -0.000402 0.000000
# 3 0.004812 -0.005295 0.011343 0.000000 -0.006456 0.000000
# 4 0.000000 0.000000 0.000000 -0.196649 0.000000 0.093059
# 5 -0.014327 -0.000402 -0.006456 0.000000 0.044528 0.000000
# 6 0.000000 0.000000 0.000000 0.093059 0.000000 -0.003805
#
#
# Mechanical properties :
#
#
# Convention : Reuss Voigt Hill
#
# Bulk Modulus (GPa) = 23.89647 34.26059 29.07853
# Shear Modulus (GPa) = -60.60025 25.63802 -17.48111
#
# Velocity S-wave (km/s) = -5.07188 3.29894 -2.72406
# Velocity P-wave (km/s) = 4.91476 5.39016 1.56507
#
# Compressibility (1/GPa) = 0.04184718
#
# Stress axis : x y z
#
# Youngs Moduli (GPa) = 47.66345 54.54157 88.16212
#
# Poissons Ratio (x) = 0.21394 -0.42423
# Poissons Ratio (y) = 0.18696 0.46680
# Poissons Ratio (z) = -0.22935 0.28878
#
# Static dielectric constant tensor:
#      x y z
#    x 4.293020 0.000000 0.393450 
#    y 0.000000 4.470950 0.000000 
#    z 0.393450 0.000000 4.347010 
# 
# 
# High freq. dielectric constant tensor:
#      x y z
#    x 1.932200 0.000000 0.015950 
#    y 0.000000 1.929220 0.000000 
#    z 0.015950 0.000000 1.940450 
# 
# From -- ./inp_files/29771.got.cif
#   From: 2010.06.25/outbox.cif.g09.slc.cpg/sg11_15_cif.got.tgz:29771.got - 2010.06.27 23:14:04.
