data_PCOD8076283
_publ_section_title
;
Structure prediction by ZEFSAII (Michael W. Deem and Ramdas Pophale) SiO2 
 PCOD8076283
Probable space group: P 21/M
;
_chemical_formula_sum "Si O2"
_cell_formula_units_Z 24
_cell_length_a 31.979295
_cell_length_b 8.487800
_cell_length_c 9.335238
_cell_angle_alpha 90.000000
_cell_angle_beta 151.249846
_cell_angle_gamma 90.000000
_cell_volume 1218.783261
_symmetry_space_group_name_H-M "P 21/M"
_symmetry_group_IT_number 11
_symmetry_cell_setting 'monoclinic'
loop_
_space_group_symop_operation_xyz
x,y,z
-x,1/2+y,-z
-x,-y,-z
x,1/2-y,z
loop_
_atom_site_type_symbol
_atom_site_label
_atom_site_fract_x
_atom_site_fract_y
_atom_site_fract_z
Si Si1 0.081133 0.435781 0.830518
Si Si2 0.424711 0.567113 0.678955
Si Si3 0.418617 0.937096 0.340504
Si Si4 0.231940 0.935156 0.094689
Si Si5 0.233107 0.065181 0.783353
Si Si6 0.922401 0.064729 0.862470
O O1 0.085741 0.250000 0.827356
O O2 0.000000 0.500000 0.500000
O O3 0.167497 0.511544 0.024568
O O4 0.073194 0.480269 0.971709
O O5 0.438383 0.750000 0.720505
O O6 0.435201 0.502932 0.550580
O O7 0.328092 0.522283 0.443173
O O8 0.500000 0.500000 0.000000
O O9 0.409246 0.750000 0.299664
O O10 0.500000 0.000000 0.500000
O O11 0.329128 0.015769 0.019042
O O12 0.223289 0.750000 0.037598
O O13 0.213806 0.022129 0.890403
O O14 0.219094 0.250000 0.719648
O O15 0.168102 0.971419 0.485986
O O16 0.933377 0.250000 0.918425
O O17 0.000000 0.000000 0.000000
#
# Coordination Sequence:
#
# PCOD8076283 Si02
#       6
#     4   4   4   4   4   4
#     4  12  25  42  63  90 120 155 196 241 291 350
#     4   9  20  36  57  83 115 151 192 237 287 342
#     4  10  21  38  58  85 118 156 198 245 297 354
#     4  10  21  40  61  86 119 157 197 243 295 350
#     4  11  22  39  62  89 118 155 199 246 297 354
#     4  12  25  43  64  89 120 156 195 242 295 352
#
# _framework density 19.691769000000001
#
# number of rings (size 3 to 8) (size 9 to 14) (size 15 to 20)
#    0.000    1.333    0.000    7.500    0.000    5.333 
#    0.000    3.333    0.000    0.000    0.000    0.000 
#    0.000    0.000    0.000    0.000    0.000    0.000 
#
# Total GULP energy -297650.175656 kJ/mol
# GULP energy per Si atom -12402.090652 kJ/mol
# Density = 1.964695 g / cm^3
# Si number density = 19.691769 Si / 1000 Ang^3
#
#
#
# Elastic Constant Matrix: (Units=GPa)
#
#
# Indices 1 2 3 4 5 6 
#
# 1 117.8864 7.7860 51.1425 0.0000 29.8789 0.0000
# 2 7.7860 62.0828 17.9340 0.0000 9.5385 0.0000
# 3 51.1425 17.9340 144.4954 0.0000 11.4847 0.0000
# 4 0.0000 0.0000 0.0000 39.7397 0.0000 0.7012
# 5 29.8789 9.5385 11.4847 0.0000 30.7839 0.0000
# 6 0.0000 0.0000 0.0000 0.7012 0.0000 37.3434
#
#
#
# Elastic Compliance Matrix: (Units=1/GPa)
#
#
# Indices 1 2 3 4 5 6 
#
# 1 0.012997 0.001256 -0.003836 0.000000 -0.011573 0.000000
# 2 0.001256 0.017466 -0.002149 0.000000 -0.005830 0.000000
# 3 -0.003836 -0.002149 0.008447 0.000000 0.001238 0.000000
# 4 0.000000 0.000000 0.000000 0.025172 0.000000 -0.000473
# 5 -0.011573 -0.005830 0.001238 0.000000 0.045062 0.000000
# 6 0.000000 0.000000 0.000000 -0.000473 0.000000 0.026787
#
#
# Mechanical properties :
#
#
# Convention : Reuss Voigt Hill
#
# Bulk Modulus (GPa) = 33.95323 53.13218 43.54271
# Shear Modulus (GPa) = 32.21484 38.08021 35.14753
#
# Velocity S-wave (km/s) = 4.04908 4.40229 4.22937
# Velocity P-wave (km/s) = 6.25619 7.27191 6.78309
#
# Compressibility (1/GPa) = 0.02945228
#
# Stress axis : x y z
#
# Youngs Moduli (GPa) = 76.93842 57.25258 118.38809
#
# Poissons Ratio (x) = -0.07193 0.45418
# Poissons Ratio (y) = -0.09666 0.25443
# Poissons Ratio (z) = 0.29516 0.12304
#
# Static dielectric constant tensor:
#      x y z
#    x 3.462980 0.000000 0.159030 
#    y 0.000000 3.717660 0.000000 
#    z 0.159030 0.000000 3.685390 
# 
# 
# High freq. dielectric constant tensor:
#      x y z
#    x 1.771980 0.000000 0.009040 
#    y 0.000000 1.783190 0.000000 
#    z 0.009040 0.000000 1.782440 
# 
# From -- ./inp_files/29147.got.cif
#   From: 2010.06.25/outbox.cif.g09.slc.cpg/sg11_15_cif.got.tgz:29147.got - 2010.06.27 23:14:04.
