data_PCOD8076442
_publ_section_title
;
Structure prediction by ZEFSAII (Michael W. Deem and Ramdas Pophale) SiO2 
 PCOD8076442
Probable space group: P 21/M
;
_chemical_formula_sum "Si O2"
_cell_formula_units_Z 28
_cell_length_a 21.550578
_cell_length_b 8.750323
_cell_length_c 14.660022
_cell_angle_alpha 90.000000
_cell_angle_beta 148.319852
_cell_angle_gamma 90.000000
_cell_volume 1451.854801
_symmetry_space_group_name_H-M "P 21/M"
_symmetry_group_IT_number 11
_symmetry_cell_setting 'monoclinic'
loop_
_space_group_symop_operation_xyz
x,y,z
-x,1/2+y,-z
-x,-y,-z
x,1/2-y,z
loop_
_atom_site_type_symbol
_atom_site_label
_atom_site_fract_x
_atom_site_fract_y
_atom_site_fract_z
Si Si1 0.289638 0.429965 0.246973
Si Si2 0.103956 0.571872 0.511123
Si Si3 0.363851 0.069653 0.143112
Si Si4 0.858781 0.071179 0.234137
Si Si5 0.391279 0.431067 0.564022
Si Si6 0.973270 0.569396 0.063502
Si Si7 0.818979 0.570735 0.565941
O O1 0.287358 0.250000 0.256046
O O2 0.361363 0.479473 0.246721
O O3 0.348708 0.497190 0.412660
O O4 0.155942 0.489437 0.068089
O O5 0.109064 0.750000 0.495207
O O6 0.149349 0.533648 0.668836
O O7 0.192255 0.482504 0.553074
O O8 0.969499 0.516255 0.328739
O O9 0.347938 0.250000 0.111134
O O10 0.487717 0.014119 0.256933
O O11 0.260704 0.985684 0.960524
O O12 0.876583 0.250000 0.238967
O O13 0.411668 0.250000 0.587301
O O14 0.296311 0.478534 0.521671
O O15 0.978260 0.750000 0.062093
O O16 0.065854 0.513321 0.253009
O O17 0.000000 0.500000 0.000000
O O18 0.838535 0.750000 0.598281
#
# Coordination Sequence:
#
# PCOD8076442 Si02
#       7
#     4   4   4   4   4   4   4
#     4   9  19  36  55  78 112 150 186 232 284 333
#     4  10  21  38  62  90 117 145 182 235 287 337
#     4  11  22  36  58  85 112 147 193 241 287 333
#     4  10  21  39  62  87 116 149 185 228 286 346
#     4  10  21  39  56  75 113 156 194 234 280 340
#     4  11  20  34  55  81 115 150 187 234 285 339
#     4  11  22  37  58  84 115 155 193 231 288 347
#
# _framework density 19.285677
#
# number of rings (size 3 to 8) (size 9 to 14) (size 15 to 20)
#    0.000    1.714    1.429    3.429    0.000    4.000 
#    0.000    3.571    0.000    0.000    0.000    0.000 
#    0.000    0.000    0.000    0.000    0.000    0.000 
#
# Total GULP energy -347282.872785 kJ/mol
# GULP energy per Si atom -12402.959742 kJ/mol
# Density = 1.924178 g / cm^3
# Si number density = 19.285677 Si / 1000 Ang^3
#
#
#
# Elastic Constant Matrix: (Units=GPa)
#
#
# Indices 1 2 3 4 5 6 
#
# 1 115.1528 25.5739 43.3625 0.0000 3.6880 0.0000
# 2 25.5739 45.6593 16.4714 0.0000 0.8390 0.0000
# 3 43.3625 16.4714 88.2404 0.0000 7.0558 0.0000
# 4 0.0000 0.0000 0.0000 32.0571 0.0000 -0.6893
# 5 3.6880 0.8390 7.0558 0.0000 26.9039 0.0000
# 6 0.0000 0.0000 0.0000 -0.6893 0.0000 32.7175
#
#
#
# Elastic Compliance Matrix: (Units=1/GPa)
#
#
# Indices 1 2 3 4 5 6 
#
# 1 0.011539 -0.004738 -0.004771 0.000000 -0.000183 0.000000
# 2 -0.004738 0.025433 -0.002459 0.000000 0.000501 0.000000
# 3 -0.004771 -0.002459 0.014380 0.000000 -0.003040 0.000000
# 4 0.000000 0.000000 0.000000 0.031208 0.000000 0.000658
# 5 -0.000183 0.000501 -0.003040 0.000000 0.037976 0.000000
# 6 0.000000 0.000000 0.000000 0.000658 0.000000 0.030579
#
#
# Mechanical properties :
#
#
# Convention : Reuss Voigt Hill
#
# Bulk Modulus (GPa) = 36.47754 46.65201 41.56477
# Shear Modulus (GPa) = 27.14581 29.24536 28.19559
#
# Velocity S-wave (km/s) = 3.75582 3.89836 3.82775
# Velocity P-wave (km/s) = 6.14521 6.67124 6.41362
#
# Compressibility (1/GPa) = 0.02741413
#
# Stress axis : x y z
#
# Youngs Moduli (GPa) = 86.66254 39.31863 69.54344
#
# Poissons Ratio (x) = 0.18631 0.33181
# Poissons Ratio (y) = 0.41064 0.17101
# Poissons Ratio (z) = 0.41349 0.09669
#
# Static dielectric constant tensor:
#      x y z
#    x 3.785800 0.000000 -0.138570 
#    y 0.000000 3.447930 0.000000 
#    z -0.138570 0.000000 3.691430 
# 
# 
# High freq. dielectric constant tensor:
#      x y z
#    x 1.760260 0.000000 0.000000 
#    y 0.000000 1.746820 0.000000 
#    z 0.000000 0.000000 1.744110 
# 
# From -- ./inp_files/48920.got.cif
#   From: 2010.06.25/outbox.cif.g09.slc.cpg/sg11_25_cif.got.tgz:48920.got - 2010.06.27 23:14:04.
