data_PCOD8076035
_publ_section_title
;
Structure prediction by ZEFSAII (Michael W. Deem and Ramdas Pophale) SiO2 
 PCOD8076035
Probable space group: P 21/M
;
_chemical_formula_sum "Si O2"
_cell_formula_units_Z 32
_cell_length_a 24.537843
_cell_length_b 8.768433
_cell_length_c 24.661557
_cell_angle_alpha 90.000000
_cell_angle_beta 162.106409
_cell_angle_gamma 90.000000
_cell_volume 1630.313026
_symmetry_space_group_name_H-M "P 21/M"
_symmetry_group_IT_number 11
_symmetry_cell_setting 'monoclinic'
loop_
_space_group_symop_operation_xyz
x,y,z
-x,1/2+y,-z
-x,-y,-z
x,1/2-y,z
loop_
_atom_site_type_symbol
_atom_site_label
_atom_site_fract_x
_atom_site_fract_y
_atom_site_fract_z
Si Si1 0.270672 0.569784 0.328141
Si Si2 0.075672 0.068995 0.939539
Si Si3 0.335876 0.069730 0.277779
Si Si4 0.083351 0.573234 0.526177
Si Si5 0.132404 0.070368 0.464783
Si Si6 0.121244 0.429784 0.860988
Si Si7 0.459533 0.922534 0.132069
Si Si8 0.436656 0.075001 0.885165
O O1 0.261927 0.750000 0.313504
O O2 0.458789 0.517568 0.531795
O O3 0.243115 0.499515 0.242815
O O4 0.114485 0.508971 0.219171
O O5 0.077312 0.250000 0.940758
O O6 0.109044 0.007835 0.910745
O O7 0.232777 0.008015 0.127263
O O8 0.320215 0.250000 0.267577
O O9 0.037779 0.750000 0.482413
O O10 0.022032 0.500562 0.411043
O O11 0.289077 0.539152 0.724360
O O12 0.000000 0.500000 0.500000
O O13 0.113626 0.250000 0.452173
O O14 0.340948 0.024035 0.662592
O O15 0.038495 0.011299 0.321863
O O16 0.091111 0.250000 0.828584
O O17 0.316590 0.467754 0.023938
O O18 0.428751 0.750000 0.123481
O O19 0.425512 0.926672 0.034409
O O20 0.372303 0.250000 0.834648
O O21 0.500000 0.000000 0.000000
#
# Coordination Sequence:
#
# PCOD8076035 Si02
#       8
#     4   4   4   4   4   4   4   4
#     4   9  17  31  52  77 108 144 181 225 276 328
#     4   9  19  34  51  77 109 143 185 227 274 333
#     4   9  17  31  52  77 107 143 181 225 277 328
#     4  11  22  37  58  85 114 144 181 228 284 345
#     4  10  22  42  62  81 112 150 191 236 287 345
#     4  11  23  37  59  87 113 150 197 241 287 342
#     4   9  21  41  60  79 110 150 188 232 286 341
#     4  10  21  37  57  83 113 146 184 228 284 345
#
# _framework density 19.628132000000001
#
# number of rings (size 3 to 8) (size 9 to 14) (size 15 to 20)
#    0.000    2.250    0.000    3.375    1.750    4.000 
#    0.000    5.000    0.000    3.000    0.000    0.000 
#    0.000    0.000    0.000    0.000    0.000    0.000 
#
# Total GULP energy -396646.915089 kJ/mol
# GULP energy per Si atom -12395.216097 kJ/mol
# Density = 1.958346 g / cm^3
# Si number density = 19.628132 Si / 1000 Ang^3
#
#
#
# Elastic Constant Matrix: (Units=GPa)
#
#
# Indices 1 2 3 4 5 6 
#
# 1 156.5353 40.2590 79.3327 0.0000 -13.8370 0.0000
# 2 40.2590 69.0538 33.3485 0.0000 -2.6482 0.0000
# 3 79.3327 33.3485 115.4525 0.0000 -12.9450 0.0000
# 4 0.0000 0.0000 0.0000 27.0686 0.0000 -1.1872
# 5 -13.8370 -2.6482 -12.9450 0.0000 32.7299 0.0000
# 6 0.0000 0.0000 0.0000 -1.1872 0.0000 29.7631
#
#
#
# Elastic Compliance Matrix: (Units=1/GPa)
#
#
# Indices 1 2 3 4 5 6 
#
# 1 0.010409 -0.003070 -0.006069 0.000000 0.001752 0.000000
# 2 -0.003070 0.017745 -0.003140 0.000000 -0.001104 0.000000
# 3 -0.006069 -0.003140 0.014046 0.000000 0.002735 0.000000
# 4 0.000000 0.000000 0.000000 0.037008 0.000000 0.001476
# 5 0.001752 -0.001104 0.002735 0.000000 0.032286 0.000000
# 6 0.000000 0.000000 0.000000 0.001476 0.000000 0.033657
#
#
# Mechanical properties :
#
#
# Convention : Reuss Voigt Hill
#
# Bulk Modulus (GPa) = 56.68491 71.88020 64.28256
# Shear Modulus (GPa) = 28.47549 30.45242 29.46395
#
# Velocity S-wave (km/s) = 3.81300 3.94314 3.87862
# Velocity P-wave (km/s) = 6.95179 7.57837 7.27183
#
# Compressibility (1/GPa) = 0.01764138
#
# Stress axis : x y z
#
# Youngs Moduli (GPa) = 96.07467 56.35254 71.19715
#
# Poissons Ratio (x) = 0.17301 0.43209
# Poissons Ratio (y) = 0.29497 0.22355
# Poissons Ratio (z) = 0.58308 0.17694
#
# Static dielectric constant tensor:
#      x y z
#    x 3.683180 0.000000 0.101890 
#    y 0.000000 3.258710 0.000000 
#    z 0.101890 0.000000 3.094560 
# 
# 
# High freq. dielectric constant tensor:
#      x y z
#    x 1.766640 0.000000 -0.003650 
#    y 0.000000 1.753190 0.000000 
#    z -0.003650 0.000000 1.766630 
# 
# From -- ./inp_files/70022.got.cif
#   From: 2010.06.25/outbox.cif.g09.slc.cpg/sg11_36_cif.got.tgz:70022.got - 2010.06.27 23:14:04.
