data_PCOD8076015
_publ_section_title
;
Structure prediction by ZEFSAII (Michael W. Deem and Ramdas Pophale) SiO2 
 PCOD8076015
Probable space group: P 21/M
;
_chemical_formula_sum "Si O2"
_cell_formula_units_Z 32
_cell_length_a 13.018750
_cell_length_b 14.461636
_cell_length_c 18.428596
_cell_angle_alpha 90.000000
_cell_angle_beta 152.094513
_cell_angle_gamma 90.000000
_cell_volume 1623.821256
_symmetry_space_group_name_H-M "P 21/M"
_symmetry_group_IT_number 11
_symmetry_cell_setting 'monoclinic'
loop_
_space_group_symop_operation_xyz
x,y,z
-x,1/2+y,-z
-x,-y,-z
x,1/2-y,z
loop_
_atom_site_type_symbol
_atom_site_label
_atom_site_fract_x
_atom_site_fract_y
_atom_site_fract_z
Si Si1 0.422224 0.859976 0.916432
Si Si2 0.905050 0.359978 0.410637
Si Si3 0.355732 0.012361 0.230518
Si Si4 0.607955 0.644719 0.314005
Si Si5 0.754727 0.141089 0.473300
Si Si6 0.274373 0.855290 0.980219
Si Si7 0.019783 0.487762 0.894568
Si Si8 0.910845 0.858904 0.192055
O O1 0.426054 0.750000 0.919956
O O2 0.266465 0.898384 0.755520
O O3 0.332029 0.895827 0.937082
O O4 0.667029 0.897420 0.055828
O O5 0.907871 0.250000 0.413817
O O6 0.834019 0.397434 0.444913
O O7 0.147280 0.395820 0.541927
O O8 0.526027 0.094161 0.351372
O O9 0.479137 0.915925 0.292378
O O10 0.201860 0.041093 0.067227
O O11 0.215971 0.000182 0.215974
O O12 0.608924 0.750000 0.343709
O O13 0.495767 0.639300 0.165335
O O14 0.713309 0.250000 0.445315
O O15 0.938418 0.113865 0.646119
O O16 0.187279 0.750000 0.921748
O O17 0.081409 0.915905 0.894419
O O18 0.997241 0.405923 0.822847
O O19 0.909986 0.750000 0.177623
#
# Coordination Sequence:
#
# PCOD8076015 Si02
#       8
#     4   4   4   4   4   4   4   4
#     4   9  17  31  54  83 110 137 174 219 267 322
#     4   9  17  31  54  83 110 137 174 219 267 322
#     4  10  22  38  56  80 108 142 186 228 266 314
#     4   9  18  34  55  79 109 142 175 217 270 324
#     4  10  21  37  57  81 110 144 179 219 270 322
#     4   9  18  34  55  79 109 142 175 217 270 324
#     4  10  22  38  56  80 108 142 186 228 266 314
#     4  10  21  37  57  81 110 144 179 219 270 322
#
# _framework density 19.706603000000001
#
# number of rings (size 3 to 8) (size 9 to 14) (size 15 to 20)
#    0.000    2.500    0.000    1.500    0.000    8.000 
#    0.000    2.500    0.000    3.000    0.000    0.000 
#    0.000    0.000    0.000    0.000    0.000    0.000 
#
# Total GULP energy -396921.082519 kJ/mol
# GULP energy per Si atom -12403.783829 kJ/mol
# Density = 1.966175 g / cm^3
# Si number density = 19.706603 Si / 1000 Ang^3
#
#
#
# Elastic Constant Matrix: (Units=GPa)
#
#
# Indices 1 2 3 4 5 6 
#
# 1 178.7840 51.8173 92.2656 0.0000 8.6790 0.0000
# 2 51.8173 55.0400 49.8740 0.0000 1.0148 0.0000
# 3 92.2656 49.8740 142.1265 0.0000 10.0432 0.0000
# 4 0.0000 0.0000 0.0000 26.3430 0.0000 1.0977
# 5 8.6790 1.0148 10.0432 0.0000 34.0527 0.0000
# 6 0.0000 0.0000 0.0000 1.0977 0.0000 28.4828
#
#
#
# Elastic Compliance Matrix: (Units=1/GPa)
#
#
# Indices 1 2 3 4 5 6 
#
# 1 0.009220 -0.004839 -0.004219 0.000000 -0.000961 0.000000
# 2 -0.004839 0.029314 -0.007323 0.000000 0.002520 0.000000
# 3 -0.004219 -0.007323 0.012514 0.000000 -0.002397 0.000000
# 4 0.000000 0.000000 0.000000 0.038022 0.000000 -0.001465
# 5 -0.000961 0.002520 -0.002397 0.000000 0.030243 0.000000
# 6 0.000000 0.000000 0.000000 -0.001465 0.000000 0.035165
#
#
# Mechanical properties :
#
#
# Convention : Reuss Voigt Hill
#
# Bulk Modulus (GPa) = 54.69044 84.87382 69.78213
# Shear Modulus (GPa) = 25.86161 29.90861 27.88511
#
# Velocity S-wave (km/s) = 3.62654 3.89999 3.76575
# Velocity P-wave (km/s) = 6.73412 7.96505 7.37531
#
# Compressibility (1/GPa) = 0.01828473
#
# Stress axis : x y z
#
# Youngs Moduli (GPa) = 108.45899 34.11376 79.90816
#
# Poissons Ratio (x) = 0.16508 0.33717
# Poissons Ratio (y) = 0.52484 0.58518
# Poissons Ratio (z) = 0.45764 0.24982
#
# Static dielectric constant tensor:
#      x y z
#    x 3.583810 0.000000 -0.038320 
#    y 0.000000 3.455850 0.000000 
#    z -0.038320 0.000000 3.657740 
# 
# 
# High freq. dielectric constant tensor:
#      x y z
#    x 1.764010 0.000000 -0.002210 
#    y 0.000000 1.764980 0.000000 
#    z -0.002210 0.000000 1.768270 
# 
# From -- ./inp_files/41663.got.cif
#   From: 2010.06.25/outbox.cif.g09.slc.cpg/sg11_21_cif.got.tgz:41663.got - 2010.06.27 23:14:04.
