data_PCOD8076782
_publ_section_title
;
Structure prediction by ZEFSAII (Michael W. Deem and Ramdas Pophale) SiO2 
 PCOD8076782
Probable space group: P 21/M
;
_chemical_formula_sum "Si O2"
_cell_formula_units_Z 24
_cell_length_a 10.027424
_cell_length_b 8.413060
_cell_length_c 13.604940
_cell_angle_alpha 90.000000
_cell_angle_beta 90.590590
_cell_angle_gamma 90.000000
_cell_volume 1147.669721
_symmetry_space_group_name_H-M "P 21/M"
_symmetry_group_IT_number 11
_symmetry_cell_setting 'monoclinic'
loop_
_space_group_symop_operation_xyz
x,y,z
-x,1/2+y,-z
-x,-y,-z
x,1/2-y,z
loop_
_atom_site_type_symbol
_atom_site_label
_atom_site_fract_x
_atom_site_fract_y
_atom_site_fract_z
Si Si1 0.747867 0.561962 0.419026
Si Si2 0.385269 0.064578 0.929898
Si Si3 0.897911 0.064077 0.078528
Si Si4 0.256040 0.064563 0.359847
Si Si5 0.988381 0.933973 0.283575
Si Si6 0.468729 0.936200 0.724548
O O1 0.719910 0.750000 0.411566
O O2 0.755315 0.495161 0.530084
O O3 0.888134 0.517885 0.369805
O O4 0.629696 0.466281 0.366583
O O5 0.363195 0.250000 0.948477
O O6 0.251088 0.972364 0.959140
O O7 0.420594 0.036206 0.817016
O O8 0.500000 0.000000 0.000000
O O9 0.918869 0.250000 0.094254
O O10 0.919529 0.974506 0.180714
O O11 0.000000 0.000000 0.000000
O O12 0.275153 0.250000 0.370747
O O13 0.385593 0.997758 0.304579
O O14 0.125594 0.028424 0.295571
O O15 0.024097 0.750000 0.287367
O O16 0.470205 0.750000 0.751690
#
# Coordination Sequence:
#
# PCOD8076782 Si02
#       6
#     4   4   4   4   4   4
#     4  10  21  40  64  91 128 171 217 268 321 380
#     4  12  26  46  70  97 130 168 215 267 323 386
#     4  12  26  46  71  98 130 168 212 264 324 387
#     4  10  23  40  61  93 131 172 219 267 316 379
#     4  11  23  40  64  95 130 170 217 264 320 383
#     4  11  23  40  64  94 129 170 217 265 322 384
#
# _framework density 20.911940000000001
#
# number of rings (size 3 to 8) (size 9 to 14) (size 15 to 20)
#    0.000    1.000    1.667    5.000    2.333    2.667 
#    0.000    0.000    0.000    0.000    0.000    0.000 
#    0.000    0.000    0.000    0.000    0.000    0.000 
#
# Total GULP energy -297769.961627 kJ/mol
# GULP energy per Si atom -12407.081734 kJ/mol
# Density = 2.086434 g / cm^3
# Si number density = 20.911940 Si / 1000 Ang^3
#
#
#
# Elastic Constant Matrix: (Units=GPa)
#
#
# Indices 1 2 3 4 5 6 
#
# 1 157.4692 16.7345 40.9594 0.0000 -8.6059 0.0000
# 2 16.7345 21.7017 10.0795 0.0000 -15.9754 0.0000
# 3 40.9594 10.0795 86.5787 0.0000 -7.2276 0.0000
# 4 0.0000 0.0000 0.0000 32.8222 0.0000 5.5796
# 5 -8.6059 -15.9754 -7.2276 0.0000 44.3694 0.0000
# 6 0.0000 0.0000 0.0000 5.5796 0.0000 34.3280
#
#
#
# Elastic Compliance Matrix: (Units=1/GPa)
#
#
# Indices 1 2 3 4 5 6 
#
# 1 0.007650 -0.005088 -0.003098 0.000000 -0.000853 0.000000
# 2 -0.005088 0.068765 -0.003664 0.000000 0.023175 0.000000
# 3 -0.003098 -0.003664 0.013465 0.000000 0.000273 0.000000
# 4 0.000000 0.000000 0.000000 0.031333 0.000000 -0.005093
# 5 -0.000853 0.023175 0.000273 0.000000 0.030762 0.000000
# 6 0.000000 0.000000 0.000000 -0.005093 0.000000 0.029959
#
#
# Mechanical properties :
#
#
# Convention : Reuss Voigt Hill
#
# Bulk Modulus (GPa) = 15.11028 44.58849 29.84938
# Shear Modulus (GPa) = 21.95934 35.50234 28.73084
#
# Velocity S-wave (km/s) = 3.24402 4.12479 3.71063
# Velocity P-wave (km/s) = 4.61226 6.63728 5.71517
#
# Compressibility (1/GPa) = 0.06618011
#
# Stress axis : x y z
#
# Youngs Moduli (GPa) = 130.71165 14.54236 74.26524
#
# Poissons Ratio (x) = 0.07399 0.23009
# Poissons Ratio (y) = 0.66508 0.27209
# Poissons Ratio (z) = 0.40497 0.05328
#
# Static dielectric constant tensor:
#      x y z
#    x 3.916310 0.000000 -0.163710 
#    y 0.000000 3.770130 0.000000 
#    z -0.163710 0.000000 3.932000 
# 
# 
# High freq. dielectric constant tensor:
#      x y z
#    x 1.836890 0.000000 -0.003330 
#    y 0.000000 1.817700 0.000000 
#    z -0.003330 0.000000 1.827010 
# 
# From -- ./inp_files/46554.got.cif
#   From: 2010.06.25/outbox.cif.g09.slc.cpg/sg11_24_cif.got.tgz:46554.got - 2010.06.27 23:14:04.
