data_PCOD8076139
_publ_section_title
;
Structure prediction by ZEFSAII (Michael W. Deem and Ramdas Pophale) SiO2 
 PCOD8076139
Probable space group: P 21/M
;
_chemical_formula_sum "Si O2"
_cell_formula_units_Z 32
_cell_length_a 23.745045
_cell_length_b 8.781014
_cell_length_c 14.896772
_cell_angle_alpha 90.000000
_cell_angle_beta 150.583271
_cell_angle_gamma 90.000000
_cell_volume 1525.566536
_symmetry_space_group_name_H-M "P 21/M"
_symmetry_group_IT_number 11
_symmetry_cell_setting 'monoclinic'
loop_
_space_group_symop_operation_xyz
x,y,z
-x,1/2+y,-z
-x,-y,-z
x,1/2-y,z
loop_
_atom_site_type_symbol
_atom_site_label
_atom_site_fract_x
_atom_site_fract_y
_atom_site_fract_z
Si Si1 0.266173 0.074282 0.360195
Si Si2 0.860519 0.574274 0.999263
Si Si3 0.492754 0.429895 0.264145
Si Si4 0.120484 0.074454 0.655580
Si Si5 0.453251 0.582636 0.020938
Si Si6 0.884578 0.073337 0.700563
Si Si7 0.799655 0.084595 0.393990
Si Si8 0.732455 0.430357 0.987819
O O1 0.293968 0.250000 0.418182
O O2 0.223658 0.048633 0.200506
O O3 0.380655 0.976304 0.529306
O O4 0.164097 0.022214 0.284251
O O5 0.866029 0.750000 0.036092
O O6 0.810974 0.480061 0.013718
O O7 0.988072 0.516775 0.150168
O O8 0.480180 0.250000 0.253080
O O9 0.474410 0.479923 0.136644
O O10 0.397210 0.504106 0.197206
O O11 0.121230 0.250000 0.682866
O O12 0.141740 0.051672 0.579141
O O13 0.000000 0.000000 0.500000
O O14 0.214021 0.988349 0.845016
O O15 0.510344 0.750000 0.114259
O O16 0.500000 0.500000 0.000000
O O17 0.321917 0.606241 0.818825
O O18 0.887461 0.250000 0.733119
O O19 0.798566 0.042547 0.497709
O O20 0.864153 0.250000 0.473944
O O21 0.724737 0.250000 0.979453
#
# Coordination Sequence:
#
# PCOD8076139 Si02
#       8
#     4   4   4   4   4   4   4   4
#     4  11  24  42  66  96 130 170 219 275 333 393
#     4  10  23  43  67  96 131 172 217 270 332 395
#     4  12  25  43  66  92 128 174 222 273 329 390
#     4  12  24  39  62  91 127 169 212 259 312 376
#     4  11  22  37  60  91 130 168 209 257 311 378
#     4  10  21  40  66  97 133 170 214 267 325 393
#     4  10  21  37  59  89 125 165 207 253 309 371
#     4  12  25  43  67  96 131 170 217 273 330 393
#
# _framework density 20.975815000000001
#
# number of rings (size 3 to 8) (size 9 to 14) (size 15 to 20)
#    0.000    1.000    1.250    6.000    0.000    5.000 
#    0.000    0.000    0.000    0.000    0.000    0.000 
#    0.000    0.000    0.000    0.000    0.000    0.000 
#
# Total GULP energy -396791.016963 kJ/mol
# GULP energy per Si atom -12399.719280 kJ/mol
# Density = 2.092807 g / cm^3
# Si number density = 20.975815 Si / 1000 Ang^3
#
#
#
# Elastic Constant Matrix: (Units=GPa)
#
#
# Indices 1 2 3 4 5 6 
#
# 1 96.1709 49.0731 13.3140 0.0000 8.3469 0.0000
# 2 49.0731 150.4651 34.3738 0.0000 5.2808 0.0000
# 3 13.3140 34.3738 80.4699 0.0000 4.9587 0.0000
# 4 0.0000 0.0000 0.0000 22.6494 0.0000 3.1403
# 5 8.3469 5.2808 4.9587 0.0000 34.3546 0.0000
# 6 0.0000 0.0000 0.0000 3.1403 0.0000 41.4712
#
#
#
# Elastic Compliance Matrix: (Units=1/GPa)
#
#
# Indices 1 2 3 4 5 6 
#
# 1 0.012681 -0.003995 -0.000242 0.000000 -0.002432 0.000000
# 2 -0.003995 0.008640 -0.003034 0.000000 0.000081 0.000000
# 3 -0.000242 -0.003034 0.013854 0.000000 -0.001475 0.000000
# 4 0.000000 0.000000 0.000000 0.044620 0.000000 -0.003379
# 5 -0.002432 0.000081 -0.001475 0.000000 0.029900 0.000000
# 6 0.000000 0.000000 0.000000 -0.003379 0.000000 0.024369
#
#
# Mechanical properties :
#
#
# Convention : Reuss Voigt Hill
#
# Bulk Modulus (GPa) = 48.46814 57.84753 53.15783
# Shear Modulus (GPa) = 32.15778 35.05137 33.60458
#
# Velocity S-wave (km/s) = 3.91972 4.09227 4.00692
# Velocity P-wave (km/s) = 6.60624 7.06873 6.84139
#
# Compressibility (1/GPa) = 0.02063211
#
# Stress axis : x y z
#
# Youngs Moduli (GPa) = 78.85550 115.74733 72.18111
#
# Poissons Ratio (x) = 0.46246 0.01744
# Poissons Ratio (y) = 0.31506 0.21903
# Poissons Ratio (z) = 0.01905 0.35122
#
# Static dielectric constant tensor:
#      x y z
#    x 3.788130 0.000000 0.006740 
#    y 0.000000 2.991620 0.000000 
#    z 0.006740 0.000000 3.917570 
# 
# 
# High freq. dielectric constant tensor:
#      x y z
#    x 1.828270 0.000000 0.002290 
#    y 0.000000 1.826500 0.000000 
#    z 0.002290 0.000000 1.829440 
# 
# From -- ./inp_files/55697.got.cif
#   From: 2010.06.25/outbox.cif.g09.slc.cpg/sg11_28_cif.got.tgz:55697.got - 2010.06.27 23:14:04.
