data_PCOD8076614
_publ_section_title
;
Structure prediction by ZEFSAII (Michael W. Deem and Ramdas Pophale) SiO2 
 PCOD8076614
Probable space group: P 21/M
;
_chemical_formula_sum "Si O2"
_cell_formula_units_Z 32
_cell_length_a 12.148514
_cell_length_b 18.700589
_cell_length_c 8.653533
_cell_angle_alpha 90.000000
_cell_angle_beta 127.779423
_cell_angle_gamma 90.000000
_cell_volume 1553.835846
_symmetry_space_group_name_H-M "P 21/M"
_symmetry_group_IT_number 11
_symmetry_cell_setting 'monoclinic'
loop_
_space_group_symop_operation_xyz
x,y,z
-x,1/2+y,-z
-x,-y,-z
x,1/2-y,z
loop_
_atom_site_type_symbol
_atom_site_label
_atom_site_fract_x
_atom_site_fract_y
_atom_site_fract_z
Si Si1 0.263643 0.331397 0.628102
Si Si2 0.241919 0.833118 0.937622
Si Si3 0.156569 0.584808 0.573905
Si Si4 0.358515 0.544337 0.491845
Si Si5 0.490404 0.592088 0.314331
Si Si6 0.948134 0.669701 0.813074
Si Si7 0.855237 0.961319 0.905149
Si Si8 0.152112 0.438884 0.753462
O O1 0.287012 0.250000 0.699688
O O2 0.385208 0.353620 0.614825
O O3 0.117751 0.342778 0.413356
O O4 0.259644 0.379860 0.779130
O O5 0.288225 0.750000 0.982517
O O6 0.196462 0.852304 0.725139
O O7 0.112152 0.847086 0.940403
O O8 0.363359 0.886511 0.093774
O O9 0.266610 0.590625 0.529109
O O10 0.163364 0.506560 0.652569
O O11 0.001936 0.595765 0.373985
O O12 0.445104 0.598627 0.456232
O O13 0.461611 0.490379 0.673459
O O14 0.263535 0.495272 0.300717
O O15 0.921385 0.750000 0.846228
O O16 0.875482 0.621095 0.877772
O O17 0.805715 0.964256 0.039602
O O18 0.000000 0.000000 0.000000
#
# Coordination Sequence:
#
# PCOD8076614 Si02
#       8
#     4   4   4   4   4   4   4   4
#     4  11  22  43  67  90 128 176 217 264 329 392
#     4  11  24  42  64  91 128 177 223 266 325 393
#     4  11  21  40  63  97 130 162 214 275 324 382
#     4  11  23  40  65  97 132 168 216 266 332 388
#     4  11  23  43  64  92 129 172 214 264 321 397
#     4  10  21  39  62  88 124 168 216 265 321 383
#     4  12  21  37  64  98 128 167 213 271 324 387
#     4  11  22  35  66  97 129 164 212 274 333 378
#
# _framework density 20.594194999999999
#
# number of rings (size 3 to 8) (size 9 to 14) (size 15 to 20)
#    0.000    1.000    5.000    2.625    0.000    1.000 
#    4.500    1.250    0.000    0.000    0.000    0.000 
#    0.000    0.000    0.000    0.000    0.000    0.000 
#
# Total GULP energy -396865.325626 kJ/mol
# GULP energy per Si atom -12402.041426 kJ/mol
# Density = 2.054732 g / cm^3
# Si number density = 20.594195 Si / 1000 Ang^3
#
#
#
# Elastic Constant Matrix: (Units=GPa)
#
#
# Indices 1 2 3 4 5 6 
#
# 1 117.4731 37.6871 16.7669 0.0000 -7.6741 0.0000
# 2 37.6871 79.2442 22.9179 0.0000 -3.2926 0.0000
# 3 16.7669 22.9179 68.7781 0.0000 5.0381 0.0000
# 4 0.0000 0.0000 0.0000 27.2209 0.0000 -3.7787
# 5 -7.6741 -3.2926 5.0381 0.0000 32.3867 0.0000
# 6 0.0000 0.0000 0.0000 -3.7787 0.0000 29.2687
#
#
#
# Elastic Compliance Matrix: (Units=1/GPa)
#
#
# Indices 1 2 3 4 5 6 
#
# 1 0.010247 -0.004444 -0.001176 0.000000 0.002159 0.000000
# 2 -0.004444 0.016044 -0.004355 0.000000 0.001256 0.000000
# 3 -0.001176 -0.004355 0.016518 0.000000 -0.003291 0.000000
# 4 0.000000 0.000000 0.000000 0.037407 0.000000 0.004829
# 5 0.002159 0.001256 -0.003291 0.000000 0.032028 0.000000
# 6 0.000000 0.000000 0.000000 0.004829 0.000000 0.034790
#
#
# Mechanical properties :
#
#
# Convention : Reuss Voigt Hill
#
# Bulk Modulus (GPa) = 43.74182 46.69325 45.21753
# Shear Modulus (GPa) = 28.63648 30.31682 29.47665
#
# Velocity S-wave (km/s) = 3.73300 3.84096 3.78737
# Velocity P-wave (km/s) = 6.31398 6.51098 6.41324
#
# Compressibility (1/GPa) = 0.02286142
#
# Stress axis : x y z
#
# Youngs Moduli (GPa) = 97.58966 62.32803 60.53911
#
# Poissons Ratio (x) = 0.27696 0.07117
# Poissons Ratio (y) = 0.43365 0.26364
# Poissons Ratio (z) = 0.11472 0.27143
#
# Static dielectric constant tensor:
#      x y z
#    x 3.983640 0.000000 0.183990 
#    y 0.000000 3.645170 0.000000 
#    z 0.183990 0.000000 3.721570 
# 
# 
# High freq. dielectric constant tensor:
#      x y z
#    x 1.814700 0.000000 0.010610 
#    y 0.000000 1.794470 0.000000 
#    z 0.010610 0.000000 1.792150 
# 
# From -- ./inp_files/19399.got.cif
#   From: 2010.06.25/outbox.cif.g09.slc.cpg/sg11_10_cif.got.tgz:19399.got - 2010.06.27 23:14:04.
