data_PCOD8076962
_publ_section_title
;
Structure prediction by ZEFSAII (Michael W. Deem and Ramdas Pophale) SiO2 
 PCOD8076962
Probable space group: P 21/M
;
_chemical_formula_sum "Si O2"
_cell_formula_units_Z 32
_cell_length_a 18.933237
_cell_length_b 8.912391
_cell_length_c 18.901489
_cell_angle_alpha 90.000000
_cell_angle_beta 143.712891
_cell_angle_gamma 90.000000
_cell_volume 1887.615109
_symmetry_space_group_name_H-M "P 21/M"
_symmetry_group_IT_number 11
_symmetry_cell_setting 'monoclinic'
loop_
_space_group_symop_operation_xyz
x,y,z
-x,1/2+y,-z
-x,-y,-z
x,1/2-y,z
loop_
_atom_site_type_symbol
_atom_site_label
_atom_site_fract_x
_atom_site_fract_y
_atom_site_fract_z
Si Si1 0.991355 0.922125 0.567341
Si Si2 0.621351 0.073772 0.757592
Si Si3 0.736287 0.422749 0.701695
Si Si4 0.164657 0.081246 0.434489
Si Si5 0.099935 0.920795 0.794086
Si Si6 0.621618 0.422015 0.463490
Si Si7 0.978955 0.927386 0.907611
Si Si8 0.809084 0.926331 0.005380
O O1 0.004721 0.750000 0.560297
O O2 0.864956 0.951610 0.505984
O O3 0.098260 0.967157 0.708981
O O4 0.000000 0.000000 0.500000
O O5 0.633987 0.250000 0.781330
O O6 0.678129 0.026133 0.728479
O O7 0.483450 0.028661 0.647920
O O8 0.686465 0.983727 0.872502
O O9 0.778002 0.250000 0.738953
O O10 0.640208 0.447575 0.562199
O O11 0.849114 0.526111 0.774559
O O12 0.216051 0.250000 0.466791
O O13 0.038493 0.068490 0.290109
O O14 0.258197 0.960897 0.481778
O O15 0.145531 0.750000 0.840428
O O16 0.186311 0.032381 0.907378
O O17 0.588606 0.250000 0.421063
O O18 0.988521 0.750000 0.921688
O O19 0.000000 0.000000 0.000000
O O20 0.080749 0.985421 0.938510
O O21 0.821598 0.750000 0.003646
#
# Coordination Sequence:
#
# PCOD8076962 Si02
#       8
#     4   4   4   4   4   4   4   4
#     4   8  16  30  51  80 113 140 167 201 243 301
#     4  11  23  38  54  68  95 138 177 219 267 312
#     4  10  22  38  54  74  97 129 174 220 269 314
#     4   8  17  33  51  75 105 138 171 200 247 305
#     4   8  17  33  52  76 106 138 167 201 246 301
#     4  11  22  35  52  75 101 129 174 225 259 303
#     4  12  23  35  53  73  98 131 168 214 265 314
#     4  12  23  35  51  74 101 131 171 217 259 307
#
# _framework density 16.952608000000001
#
# number of rings (size 3 to 8) (size 9 to 14) (size 15 to 20)
#    0.750    1.250    1.250    4.125    0.000    5.000 
#    0.000    0.000    0.000    0.000    0.000    0.875 
#    0.000    0.000    0.000    0.000    0.000    0.000 
#
# Total GULP energy -396604.898864 kJ/mol
# GULP energy per Si atom -12393.903089 kJ/mol
# Density = 1.691402 g / cm^3
# Si number density = 16.952608 Si / 1000 Ang^3
#
#
#
# Elastic Constant Matrix: (Units=GPa)
#
#
# Indices 1 2 3 4 5 6 
#
# 1 50.0282 27.9660 36.0467 0.0000 -20.8426 0.0000
# 2 27.9660 96.7697 45.0632 0.0000 -12.0261 0.0000
# 3 36.0467 45.0632 94.9615 0.0000 -11.9208 0.0000
# 4 0.0000 0.0000 0.0000 28.8111 0.0000 -1.2509
# 5 -20.8426 -12.0261 -11.9208 0.0000 23.3456 0.0000
# 6 0.0000 0.0000 0.0000 -1.2509 0.0000 28.2623
#
#
#
# Elastic Compliance Matrix: (Units=1/GPa)
#
#
# Indices 1 2 3 4 5 6 
#
# 1 0.042280 -0.003510 -0.010548 0.000000 0.030552 0.000000
# 2 -0.003510 0.013891 -0.005081 0.000000 0.001428 0.000000
# 3 -0.010548 -0.005081 0.016492 0.000000 -0.003613 0.000000
# 4 0.000000 0.000000 0.000000 0.034776 0.000000 0.001539
# 5 0.030552 0.001428 -0.003613 0.000000 0.069002 0.000000
# 6 0.000000 0.000000 0.000000 0.001539 0.000000 0.035451
#
#
# Mechanical properties :
#
#
# Convention : Reuss Voigt Hill
#
# Bulk Modulus (GPa) = 29.08142 51.10127 40.09134
# Shear Modulus (GPa) = 19.11091 24.92936 22.02013
#
# Velocity S-wave (km/s) = 3.36119 3.83891 3.60797
# Velocity P-wave (km/s) = 5.67937 7.06107 6.40757
#
# Compressibility (1/GPa) = 0.03438621
#
# Stress axis : x y z
#
# Youngs Moduli (GPa) = 23.65206 71.98658 60.63554
#
# Poissons Ratio (x) = 0.25265 0.63960
# Poissons Ratio (y) = 0.08301 0.30806
# Poissons Ratio (z) = 0.24949 0.36573
#
# Static dielectric constant tensor:
#      x y z
#    x 2.464490 0.000000 0.140040 
#    y 0.000000 5.507740 0.000000 
#    z 0.140040 0.000000 2.972150 
# 
# 
# High freq. dielectric constant tensor:
#      x y z
#    x 1.621560 0.000000 -0.013890 
#    y 0.000000 1.660600 0.000000 
#    z -0.013890 0.000000 1.646950 
# 
# From -- ./inp_files/66471.got.cif
#   From: 2010.06.25/outbox.cif.g09.slc.cpg/sg11_34_cif.got.tgz:66471.got - 2010.06.27 23:14:04.
