data_PCOD8076109
_publ_section_title
;
Structure prediction by ZEFSAII (Michael W. Deem and Ramdas Pophale) SiO2 
 PCOD8076109
Probable space group: P 21/M
;
_chemical_formula_sum "Si O2"
_cell_formula_units_Z 28
_cell_length_a 11.801513
_cell_length_b 9.045701
_cell_length_c 15.697473
_cell_angle_alpha 90.000000
_cell_angle_beta 56.688929
_cell_angle_gamma 90.000000
_cell_volume 1400.427787
_symmetry_space_group_name_H-M "P 21/M"
_symmetry_group_IT_number 11
_symmetry_cell_setting 'monoclinic'
loop_
_space_group_symop_operation_xyz
x,y,z
-x,1/2+y,-z
-x,-y,-z
x,1/2-y,z
loop_
_atom_site_type_symbol
_atom_site_label
_atom_site_fract_x
_atom_site_fract_y
_atom_site_fract_z
Si Si1 0.141343 0.919419 0.630014
Si Si2 0.585094 0.081156 0.393218
Si Si3 0.123362 0.923678 0.190278
Si Si4 0.873472 0.076002 0.008396
Si Si5 0.862097 0.579825 0.534403
Si Si6 0.322944 0.080131 0.226290
Si Si7 0.592891 0.425911 0.200850
O O1 0.107603 0.750000 0.621009
O O2 0.253972 0.931315 0.656517
O O3 0.201073 0.001835 0.522559
O O4 0.003132 0.994817 0.715880
O O5 0.536445 0.250000 0.415774
O O6 0.562208 0.011794 0.308629
O O7 0.500000 0.000000 0.500000
O O8 0.107459 0.750000 0.211413
O O9 0.261638 0.978487 0.177545
O O10 0.130754 0.966043 0.088706
O O11 0.886764 0.250000 0.016649
O O12 0.736141 0.013314 0.107681
O O13 0.000000 0.000000 0.000000
O O14 0.891406 0.750000 0.501664
O O15 0.757949 0.560260 0.653236
O O16 0.000000 0.500000 0.500000
O O17 0.320016 0.250000 0.196885
O O18 0.475870 0.025699 0.182985
O O19 0.597553 0.250000 0.205203
#
# Coordination Sequence:
#
# PCOD8076109 Si02
#       7
#     4   4   4   4   4   4   4
#     4  11  22  36  57  85 116 155 199 240 291 351
#     4  10  21  37  59  85 114 150 191 238 289 346
#     4  11  23  37  57  86 117 149 190 243 294 339
#     4  10  22  41  64  88 114 148 192 240 292 347
#     4  11  21  34  55  84 118 156 196 239 288 343
#     4  10  21  37  59  84 114 155 197 234 286 353
#     4   9  19  39  62  83 113 154 193 234 288 347
#
# _framework density 19.993893
#
# number of rings (size 3 to 8) (size 9 to 14) (size 15 to 20)
#    0.000    1.714    1.429    3.000    0.000    5.714 
#    0.000    2.143    0.000    0.000    0.000    0.000 
#    0.000    0.000    0.000    0.000    0.000    0.000 
#
# Total GULP energy -347267.670918 kJ/mol
# GULP energy per Si atom -12402.416818 kJ/mol
# Density = 1.994839 g / cm^3
# Si number density = 19.993893 Si / 1000 Ang^3
#
#
#
# Elastic Constant Matrix: (Units=GPa)
#
#
# Indices 1 2 3 4 5 6 
#
# 1 143.5791 51.7211 64.6776 0.0000 2.1890 0.0000
# 2 51.7211 84.9535 48.8766 0.0000 8.9253 0.0000
# 3 64.6776 48.8766 110.5370 0.0000 7.8968 0.0000
# 4 0.0000 0.0000 0.0000 23.1853 0.0000 3.0241
# 5 2.1890 8.9253 7.8968 0.0000 38.1385 0.0000
# 6 0.0000 0.0000 0.0000 3.0241 0.0000 31.7953
#
#
#
# Elastic Compliance Matrix: (Units=1/GPa)
#
#
# Indices 1 2 3 4 5 6 
#
# 1 0.010334 -0.003878 -0.004420 0.000000 0.001230 0.000000
# 2 -0.003878 0.017441 -0.005245 0.000000 -0.002773 0.000000
# 3 -0.004420 -0.005245 0.014054 0.000000 -0.001429 0.000000
# 4 0.000000 0.000000 0.000000 0.043673 0.000000 -0.004154
# 5 0.001230 -0.002773 -0.001429 0.000000 0.027094 0.000000
# 6 0.000000 0.000000 0.000000 -0.004154 0.000000 0.031846
#
#
# Mechanical properties :
#
#
# Convention : Reuss Voigt Hill
#
# Bulk Modulus (GPa) = 67.82386 74.40224 71.11305
# Shear Modulus (GPa) = 28.33801 30.21012 29.27407
#
# Velocity S-wave (km/s) = 3.76883 3.89133 3.83057
# Velocity P-wave (km/s) = 7.27563 7.58177 7.43027
#
# Compressibility (1/GPa) = 0.01474407
#
# Stress axis : x y z
#
# Youngs Moduli (GPa) = 96.76895 57.33667 71.15384
#
# Poissons Ratio (x) = 0.22234 0.31448
# Poissons Ratio (y) = 0.37525 0.37319
# Poissons Ratio (z) = 0.42770 0.30072
#
# Static dielectric constant tensor:
#      x y z
#    x 3.785110 0.000000 0.093830 
#    y 0.000000 3.459570 0.000000 
#    z 0.093830 0.000000 2.865330 
# 
# 
# High freq. dielectric constant tensor:
#      x y z
#    x 1.797760 0.000000 0.004320 
#    y 0.000000 1.763820 0.000000 
#    z 0.004320 0.000000 1.782290 
# 
# From -- ./inp_files/38472.got.cif
#   From: 2010.06.25/outbox.cif.g09.slc.cpg/sg11_20_cif.got.tgz:38472.got - 2010.06.27 23:14:04.
