data_PCOD8076624
_publ_section_title
;
Structure prediction by ZEFSAII (Michael W. Deem and Ramdas Pophale) SiO2 
 PCOD8076624
Probable space group: P 21/M
;
_chemical_formula_sum "Si O2"
_cell_formula_units_Z 24
_cell_length_a 14.860566
_cell_length_b 8.922602
_cell_length_c 9.270985
_cell_angle_alpha 90.000000
_cell_angle_beta 80.969645
_cell_angle_gamma 90.000000
_cell_volume 1214.048881
_symmetry_space_group_name_H-M "P 21/M"
_symmetry_group_IT_number 11
_symmetry_cell_setting 'monoclinic'
loop_
_space_group_symop_operation_xyz
x,y,z
-x,1/2+y,-z
-x,-y,-z
x,1/2-y,z
loop_
_atom_site_type_symbol
_atom_site_label
_atom_site_fract_x
_atom_site_fract_y
_atom_site_fract_z
Si Si1 0.255169 0.426349 0.355321
Si Si2 0.913966 0.071456 0.441770
Si Si3 0.760607 0.924787 0.977700
Si Si4 0.556600 0.081615 0.606460
Si Si5 0.436097 0.085806 0.912125
Si Si6 0.080824 0.925712 0.893585
O O1 0.254353 0.250000 0.389423
O O2 0.179433 0.507775 0.469965
O O3 0.232764 0.458205 0.194113
O O4 0.354379 0.490140 0.369447
O O5 0.916338 0.250000 0.460567
O O6 0.918516 0.023448 0.273248
O O7 0.000000 0.000000 0.500000
O O8 0.779910 0.750000 0.004969
O O9 0.664500 0.983704 0.064659
O O10 0.828017 0.027105 0.049867
O O11 0.586201 0.250000 0.553048
O O12 0.480939 0.090556 0.747105
O O13 0.500000 0.000000 0.500000
O O14 0.423844 0.250000 0.983378
O O15 0.500000 0.000000 0.000000
O O16 0.067826 0.750000 0.906513
O O17 0.000000 0.000000 0.000000
#
# Coordination Sequence:
#
# PCOD8076624 Si02
#       6
#     4   4   4   4   4   4
#     4  11  23  41  65  92 124 165 207 256 311 365
#     4  11  25  44  65  94 127 162 204 252 307 370
#     4  10  22  40  63  92 125 161 205 255 305 363
#     4  11  24  40  61  91 127 168 211 257 309 367
#     4  10  21  39  62  90 123 164 209 254 305 361
#     4  11  25  43  65  94 124 158 201 252 306 365
#
# _framework density 19.768561999999999
#
# number of rings (size 3 to 8) (size 9 to 14) (size 15 to 20)
#    0.000    1.333    1.667    3.000    2.333    9.333 
#    0.000    0.000    0.000    0.000    0.000    0.000 
#    0.000    0.000    0.000    0.000    0.000    0.000 
#
# Total GULP energy -297584.454596 kJ/mol
# GULP energy per Si atom -12399.352275 kJ/mol
# Density = 1.972357 g / cm^3
# Si number density = 19.768562 Si / 1000 Ang^3
#
#
#
# Elastic Constant Matrix: (Units=GPa)
#
#
# Indices 1 2 3 4 5 6 
#
# 1 158.1377 54.3766 76.5776 0.0000 -2.9269 0.0000
# 2 54.3766 95.6353 63.6705 0.0000 4.8013 0.0000
# 3 76.5776 63.6705 129.2718 0.0000 2.8314 0.0000
# 4 0.0000 0.0000 0.0000 30.8496 0.0000 1.4871
# 5 -2.9269 4.8013 2.8314 0.0000 45.0659 0.0000
# 6 0.0000 0.0000 0.0000 1.4871 0.0000 42.9316
#
#
#
# Elastic Compliance Matrix: (Units=1/GPa)
#
#
# Indices 1 2 3 4 5 6 
#
# 1 0.009278 -0.002465 -0.004307 0.000000 0.001136 0.000000
# 2 -0.002465 0.016276 -0.006524 0.000000 -0.001484 0.000000
# 3 -0.004307 -0.006524 0.013509 0.000000 -0.000433 0.000000
# 4 0.000000 0.000000 0.000000 0.032470 0.000000 -0.001125
# 5 0.001136 -0.001484 -0.000433 0.000000 0.022449 0.000000
# 6 0.000000 0.000000 0.000000 -0.001125 0.000000 0.023332
#
#
# Mechanical properties :
#
#
# Convention : Reuss Voigt Hill
#
# Bulk Modulus (GPa) = 80.17790 85.81046 82.99418
# Shear Modulus (GPa) = 33.76992 36.33076 35.05034
#
# Velocity S-wave (km/s) = 4.13760 4.29161 4.21531
# Velocity P-wave (km/s) = 7.96697 8.24979 8.10961
#
# Compressibility (1/GPa) = 0.01247227
#
# Stress axis : x y z
#
# Youngs Moduli (GPa) = 107.78512 61.44176 74.02253
#
# Poissons Ratio (x) = 0.15145 0.31879
# Poissons Ratio (y) = 0.26568 0.48289
# Poissons Ratio (z) = 0.46420 0.40082
#
# Static dielectric constant tensor:
#      x y z
#    x 4.050270 0.000000 -0.193290 
#    y 0.000000 3.841020 0.000000 
#    z -0.193290 0.000000 3.925420 
# 
# 
# High freq. dielectric constant tensor:
#      x y z
#    x 1.791510 0.000000 -0.004920 
#    y 0.000000 1.779980 0.000000 
#    z -0.004920 0.000000 1.782080 
# 
# From -- ./inp_files/20328.got.cif
#   From: 2010.06.25/outbox.cif.g09.slc.cpg/sg11_11_cif.got.tgz:20328.got - 2010.06.27 23:14:04.
