data_PCOD8076942
_publ_section_title
;
Structure prediction by ZEFSAII (Michael W. Deem and Ramdas Pophale) SiO2 
 PCOD8076942
Probable space group: P 21/M
;
_chemical_formula_sum "Si O2"
_cell_formula_units_Z 28
_cell_length_a 30.941602
_cell_length_b 8.970136
_cell_length_c 10.129597
_cell_angle_alpha 90.000000
_cell_angle_beta 32.280728
_cell_angle_gamma 90.000000
_cell_volume 1501.518036
_symmetry_space_group_name_H-M "P 21/M"
_symmetry_group_IT_number 11
_symmetry_cell_setting 'monoclinic'
loop_
_space_group_symop_operation_xyz
x,y,z
-x,1/2+y,-z
-x,-y,-z
x,1/2-y,z
loop_
_atom_site_type_symbol
_atom_site_label
_atom_site_fract_x
_atom_site_fract_y
_atom_site_fract_z
Si Si1 0.594113 0.073440 0.520806
Si Si2 0.819922 0.921939 0.585222
Si Si3 0.997280 0.922329 0.147003
Si Si4 0.149797 0.421562 0.788786
Si Si5 0.317798 0.075588 0.477528
Si Si6 0.576630 0.072385 0.018945
Si Si7 0.337891 0.575999 0.935416
O O1 0.595717 0.250000 0.541852
O O2 0.662312 0.992318 0.431506
O O3 0.508343 0.007609 0.784621
O O4 0.611367 0.031822 0.324648
O O5 0.795204 0.750000 0.646403
O O6 0.824092 0.982026 0.423519
O O7 0.906073 0.946446 0.438406
O O8 0.751109 0.006499 0.843600
O O9 0.016219 0.750000 0.080017
O O10 0.069156 0.993320 0.050156
O O11 0.000000 0.000000 0.000000
O O12 0.125696 0.250000 0.837561
O O13 0.221979 0.447317 0.705174
O O14 0.341322 0.250000 0.407429
O O15 0.364512 0.981699 0.247277
O O16 0.565471 0.250000 0.041046
O O17 0.612802 0.017693 0.065172
O O18 0.324794 0.750000 0.979681
#
# Coordination Sequence:
#
# PCOD8076942 Si02
#       7
#     4   4   4   4   4   4   4
#     4  11  24  40  55  78 110 144 181 224 272 322
#     4   9  17  31  51  78 109 140 174 217 267 317
#     4   9  17  28  46  76 110 141 174 216 265 314
#     4   9  18  32  51  78 108 139 176 219 268 316
#     4  11  22  38  58  81 110 144 181 224 271 322
#     4  11  22  38  59  83 106 138 183 226 273 323
#     4  10  22  37  56  81 109 141 181 224 269 321
#
# _framework density 18.647793
#
# number of rings (size 3 to 8) (size 9 to 14) (size 15 to 20)
#    0.000    2.000    1.429    3.429    0.000    5.714 
#    0.000    0.000    0.000    0.857    0.000    0.000 
#    0.000    0.000    0.000    0.000    0.000    0.000 
#
# Total GULP energy -347173.158356 kJ/mol
# GULP energy per Si atom -12399.041370 kJ/mol
# Density = 1.860535 g / cm^3
# Si number density = 18.647793 Si / 1000 Ang^3
#
#
#
# Elastic Constant Matrix: (Units=GPa)
#
#
# Indices 1 2 3 4 5 6 
#
# 1 92.3662 34.2327 31.7887 0.0000 -15.2330 0.0000
# 2 34.2327 63.0348 28.4219 0.0000 -14.1515 0.0000
# 3 31.7887 28.4219 40.7564 0.0000 -17.4769 0.0000
# 4 0.0000 0.0000 0.0000 30.4326 0.0000 -6.5437
# 5 -15.2330 -14.1515 -17.4769 0.0000 31.8617 0.0000
# 6 0.0000 0.0000 0.0000 -6.5437 0.0000 30.0475
#
#
#
# Elastic Compliance Matrix: (Units=1/GPa)
#
#
# Indices 1 2 3 4 5 6 
#
# 1 0.015586 -0.004321 -0.008854 0.000000 0.000676 0.000000
# 2 -0.004321 0.024423 -0.012939 0.000000 0.001684 0.000000
# 3 -0.008854 -0.012939 0.047315 0.000000 0.015973 0.000000
# 4 0.000000 0.000000 0.000000 0.034474 0.000000 0.007508
# 5 0.000676 0.001684 0.015973 0.000000 0.041219 0.000000
# 6 0.000000 0.000000 0.000000 0.007508 0.000000 0.034916
#
#
# Mechanical properties :
#
#
# Convention : Reuss Voigt Hill
#
# Bulk Modulus (GPa) = 28.49305 42.78263 35.63784
# Shear Modulus (GPa) = 19.09421 25.24931 22.17176
#
# Velocity S-wave (km/s) = 3.20338 3.68368 3.45189
# Velocity P-wave (km/s) = 5.38469 6.40975 5.91945
#
# Compressibility (1/GPa) = 0.03509628
#
# Stress axis : x y z
#
# Youngs Moduli (GPa) = 64.15819 40.94475 21.13505
#
# Poissons Ratio (x) = 0.17691 0.18713
# Poissons Ratio (y) = 0.27721 0.27348
# Poissons Ratio (z) = 0.56805 0.52980
#
# Static dielectric constant tensor:
#      x y z
#    x 3.514530 0.000000 -0.265520 
#    y 0.000000 3.524860 0.000000 
#    z -0.265520 0.000000 3.365780 
# 
# 
# High freq. dielectric constant tensor:
#      x y z
#    x 1.716120 0.000000 -0.029140 
#    y 0.000000 1.730980 0.000000 
#    z -0.029140 0.000000 1.709490 
# 
# From -- ./inp_files/28347.got.cif
#   From: 2010.06.25/outbox.cif.g09.slc.cpg/sg11_15_cif.got.tgz:28347.got - 2010.06.27 23:14:04.
