data_PCOD8076948
_publ_section_title
;
Structure prediction by ZEFSAII (Michael W. Deem and Ramdas Pophale) SiO2 
 PCOD8076948
Probable space group: P 21/M
;
_chemical_formula_sum "Si O2"
_cell_formula_units_Z 28
_cell_length_a 16.017573
_cell_length_b 16.624392
_cell_length_c 5.088108
_cell_angle_alpha 90.000000
_cell_angle_beta 74.088236
_cell_angle_gamma 90.000000
_cell_volume 1302.961742
_symmetry_space_group_name_H-M "P 21/M"
_symmetry_group_IT_number 11
_symmetry_cell_setting 'monoclinic'
loop_
_space_group_symop_operation_xyz
x,y,z
-x,1/2+y,-z
-x,-y,-z
x,1/2-y,z
loop_
_atom_site_type_symbol
_atom_site_label
_atom_site_fract_x
_atom_site_fract_y
_atom_site_fract_z
Si Si1 0.892158 0.091972 0.099689
Si Si2 0.389024 0.654356 0.052049
Si Si3 0.945639 0.554302 0.750460
Si Si4 0.685572 0.654939 0.288625
Si Si5 0.195573 0.842769 0.320166
Si Si6 0.491146 0.846181 0.464951
Si Si7 0.208284 0.344921 0.309189
O O1 0.828996 0.104908 0.402889
O O2 0.989882 0.107706 0.122985
O O3 0.869679 0.149129 0.871409
O O4 0.887217 0.000691 0.994949
O O5 0.390536 0.750000 0.047599
O O6 0.289558 0.625052 0.148644
O O7 0.443702 0.620629 0.248275
O O8 0.435128 0.619618 0.754329
O O9 0.884836 0.613560 0.639805
O O10 0.000000 0.500000 0.500000
O O11 0.678694 0.750000 0.323589
O O12 0.588701 0.618574 0.393390
O O13 0.747218 0.621901 0.465557
O O14 0.726890 0.629685 0.978111
O O15 0.197372 0.750000 0.407712
O O16 0.493389 0.750000 0.464490
O O17 0.191734 0.250000 0.329630
#
# Coordination Sequence:
#
# PCOD8076948 Si02
#       7
#     4   4   4   4   4   4   4
#     4  11  24  41  62  84 116 163 200 248 296 358
#     4   9  17  28  49  80 118 156 188 233 287 347
#     4  11  25  45  64  86 118 155 211 244 298 375
#     4   9  18  32  52  85 120 149 190 241 297 353
#     4  11  22  38  59  93 127 154 200 249 299 350
#     4   9  15  27  48  77 117 157 186 227 292 348
#     4  10  22  37  59  88 118 149 190 252 304 344
#
# _framework density 21.489504
#
# number of rings (size 3 to 8) (size 9 to 14) (size 15 to 20)
#    0.000    2.000    1.429    2.143    4.000    6.857 
#    0.000    0.000    0.000    0.000    0.000   20.000 
#    0.000    0.000    0.000    0.000    0.000    0.000 
#
# Total GULP energy -347152.047061 kJ/mol
# GULP energy per Si atom -12398.287395 kJ/mol
# Density = 2.144059 g / cm^3
# Si number density = 21.489504 Si / 1000 Ang^3
#
#
#
# Elastic Constant Matrix: (Units=GPa)
#
#
# Indices 1 2 3 4 5 6 
#
# 1 133.0387 34.3215 36.4669 0.0000 7.9207 0.0000
# 2 34.3215 27.4241 24.0589 0.0000 -8.5668 0.0000
# 3 36.4669 24.0589 124.0388 0.0000 6.3445 0.0000
# 4 0.0000 0.0000 0.0000 22.4659 0.0000 0.4296
# 5 7.9207 -8.5668 6.3445 0.0000 43.4574 0.0000
# 6 0.0000 0.0000 0.0000 0.4296 0.0000 4.9640
#
#
#
# Elastic Compliance Matrix: (Units=1/GPa)
#
#
# Indices 1 2 3 4 5 6 
#
# 1 0.012260 -0.017092 -0.000003 0.000000 -0.005604 0.000000
# 2 -0.017092 0.072532 -0.010009 0.000000 0.018875 0.000000
# 3 -0.000003 -0.010009 0.010181 0.000000 -0.003459 0.000000
# 4 0.000000 0.000000 0.000000 0.044586 0.000000 -0.003858
# 5 -0.005604 0.018875 -0.003459 0.000000 0.028258 0.000000
# 6 0.000000 0.000000 0.000000 -0.003858 0.000000 0.201783
#
#
# Mechanical properties :
#
#
# Convention : Reuss Voigt Hill
#
# Bulk Modulus (GPa) = 24.53016 52.68845 38.60930
# Shear Modulus (GPa) = 11.43128 26.82109 19.12619
#
# Velocity S-wave (km/s) = 2.30890 3.53668 2.98656
# Velocity P-wave (km/s) = 4.30671 6.42253 5.46794
#
# Compressibility (1/GPa) = 0.04076614
#
# Stress axis : x y z
#
# Youngs Moduli (GPa) = 81.56321 13.78698 98.22163
#
# Poissons Ratio (x) = 0.23565 0.00026
# Poissons Ratio (y) = 1.39409 0.98309
# Poissons Ratio (z) = 0.00022 0.13799
#
# Static dielectric constant tensor:
#      x y z
#    x 4.133690 0.000000 0.102220 
#    y 0.000000 3.361190 0.000000 
#    z 0.102220 0.000000 4.063790 
# 
# 
# High freq. dielectric constant tensor:
#      x y z
#    x 1.858560 0.000000 0.007280 
#    y 0.000000 1.787030 0.000000 
#    z 0.007280 0.000000 1.860190 
# 
# From -- ./inp_files/6660.got.cif
#   From: 2010.06.25/outbox.cif.g09.slc.cpg/sg11_4_cif.got.tgz:6660.got - 2010.06.27 23:14:04.
