data_PCOD8076956
_publ_section_title
;
Structure prediction by ZEFSAII (Michael W. Deem and Ramdas Pophale) SiO2 
 PCOD8076956
Probable space group: P 21/M
;
_chemical_formula_sum "Si O2"
_cell_formula_units_Z 24
_cell_length_a 12.366962
_cell_length_b 10.691065
_cell_length_c 8.882723
_cell_angle_alpha 90.000000
_cell_angle_beta 98.489576
_cell_angle_gamma 90.000000
_cell_volume 1161.569431
_symmetry_space_group_name_H-M "P 21/M"
_symmetry_group_IT_number 11
_symmetry_cell_setting 'monoclinic'
loop_
_space_group_symop_operation_xyz
x,y,z
-x,1/2+y,-z
-x,-y,-z
x,1/2-y,z
loop_
_atom_site_type_symbol
_atom_site_label
_atom_site_fract_x
_atom_site_fract_y
_atom_site_fract_z
Si Si1 0.442789 0.003918 0.326210
Si Si2 0.231386 0.750000 0.598632
Si Si3 0.036836 0.524137 0.172875
Si Si4 0.537909 0.250000 0.194381
Si Si5 0.113147 0.003451 0.609295
Si Si6 0.801141 0.250000 0.753794
Si Si7 0.219844 0.110421 0.362350
Si Si8 0.424258 0.750000 0.153310
O O1 0.478457 0.123714 0.236222
O O2 0.311781 0.012979 0.324009
O O3 0.500000 0.000000 0.500000
O O4 0.471055 0.875477 0.243673
O O5 0.343677 0.750000 0.709540
O O6 0.161792 0.866876 0.637723
O O7 0.252585 0.750000 0.423606
O O8 0.121478 0.633927 0.207921
O O9 0.104544 0.405433 0.251301
O O10 0.921739 0.553914 0.233958
O O11 0.000000 0.500000 0.000000
O O12 0.541625 0.250000 0.013968
O O13 0.199355 0.089789 0.537488
O O14 0.000000 0.000000 0.500000
O O15 0.707016 0.250000 0.860153
O O16 0.264246 0.250000 0.347198
#
# Coordination Sequence:
#
# PCOD8076956 Si02
#       8
#     4   2   4   2   4   2   4   2
#     4  12  24  48  75 104 133 189 238 288 352 422
#     4  12  22  44  69  97 129 181 235 282 341 416
#     4  11  26  39  63  96 136 179 218 269 347 414
#     4  12  28  44  75 105 141 183 235 296 368 414
#     4  10  22  37  64  94 127 169 222 273 328 398
#     4  12  22  44  64  91 133 181 221 277 333 419
#     4  11  23  41  66  95 133 170 225 286 330 399
#     4  12  26  46  70 103 147 175 229 301 356 415
#
# _framework density 20.661701000000001
#
# number of rings (size 3 to 8) (size 9 to 14) (size 15 to 20)
#    0.000    0.667    5.833    3.000    9.333    0.000 
#    0.000    0.000    0.000    0.000    0.000    0.000 
#    0.000    0.000    0.000    0.000    0.000    0.000 
#
# Total GULP energy -297500.753332 kJ/mol
# GULP energy per Si atom -12395.864722 kJ/mol
# Density = 2.061467 g / cm^3
# Si number density = 20.661701 Si / 1000 Ang^3
#
#
#
# Elastic Constant Matrix: (Units=GPa)
#
#
# Indices 1 2 3 4 5 6 
#
# 1 102.0456 36.8552 54.7768 0.0000 -10.5805 0.0000
# 2 36.8552 135.7955 54.1284 0.0000 -4.5895 0.0000
# 3 54.7768 54.1284 179.9630 0.0000 -13.4133 0.0000
# 4 0.0000 0.0000 0.0000 -18.4512 0.0000 -23.7697
# 5 -10.5805 -4.5895 -13.4133 0.0000 35.6794 0.0000
# 6 0.0000 0.0000 0.0000 -23.7697 0.0000 50.9117
#
#
#
# Elastic Compliance Matrix: (Units=1/GPa)
#
#
# Indices 1 2 3 4 5 6 
#
# 1 0.012389 -0.002102 -0.002968 0.000000 0.002288 0.000000
# 2 -0.002102 0.008724 -0.002003 0.000000 -0.000254 0.000000
# 3 -0.002968 -0.002003 0.007179 0.000000 0.001561 0.000000
# 4 0.000000 0.000000 0.000000 -0.033842 0.000000 -0.015800
# 5 0.002288 -0.000254 0.001561 0.000000 0.029260 0.000000
# 6 0.000000 0.000000 0.000000 -0.015800 0.000000 0.012265
#
#
# Mechanical properties :
#
#
# Convention : Reuss Voigt Hill
#
# Bulk Modulus (GPa) = 70.69289 78.81385 74.75337
# Shear Modulus (GPa) = 91.17834 31.76421 61.47128
#
# Velocity S-wave (km/s) = 6.65018 3.92516 5.46039
# Velocity P-wave (km/s) = 9.65688 7.66617 8.71853
#
# Compressibility (1/GPa) = 0.01414569
#
# Stress axis : x y z
#
# Youngs Moduli (GPa) = 80.71528 114.62105 139.29431
#
# Poissons Ratio (x) = 0.24093 0.41346
# Poissons Ratio (y) = 0.16966 0.27904
# Poissons Ratio (z) = 0.23959 0.22961
#
# Static dielectric constant tensor:
#      x y z
#    x 3.747260 0.000000 -0.246590 
#    y 0.000000 3.930570 0.000000 
#    z -0.246590 0.000000 3.838930 
# 
# 
# High freq. dielectric constant tensor:
#      x y z
#    x 1.815140 0.000000 -0.016160 
#    y 0.000000 1.819880 0.000000 
#    z -0.016160 0.000000 1.800690 
# 
# From -- ./inp_files/16999.got.cif
#   From: 2010.06.25/outbox.cif.g09.slc.cpg/sg11_9_cif.got.tgz:16999.got - 2010.06.27 23:14:04.
