data_PCOD8076934
_publ_section_title
;
Structure prediction by ZEFSAII (Michael W. Deem and Ramdas Pophale) SiO2 
 PCOD8076934
Probable space group: P 21/M
;
_chemical_formula_sum "Si O2"
_cell_formula_units_Z 20
_cell_length_a 9.819297
_cell_length_b 9.945761
_cell_length_c 25.441759
_cell_angle_alpha 90.000000
_cell_angle_beta 24.537696
_cell_angle_gamma 90.000000
_cell_volume 1031.855636
_symmetry_space_group_name_H-M "P 21/M"
_symmetry_group_IT_number 11
_symmetry_cell_setting 'monoclinic'
loop_
_space_group_symop_operation_xyz
x,y,z
-x,1/2+y,-z
-x,-y,-z
x,1/2-y,z
loop_
_atom_site_type_symbol
_atom_site_label
_atom_site_fract_x
_atom_site_fract_y
_atom_site_fract_z
Si Si1 0.720138 0.971854 0.782266
Si Si2 0.808187 0.250000 0.023261
Si Si3 0.118234 0.504140 0.745097
Si Si4 0.791741 0.250000 0.909961
Si Si5 0.661474 0.092449 0.487072
Si Si6 0.629476 0.750000 0.090877
Si Si7 0.927367 0.750000 0.872180
O O1 0.396461 0.882906 0.892125
O O2 0.948234 0.939005 0.651117
O O3 0.615877 0.125644 0.820448
O O4 0.933920 0.935634 0.758695
O O5 0.926272 0.250000 0.921734
O O6 0.135611 0.250000 0.941909
O O7 0.487910 0.452656 0.602555
O O8 0.904760 0.381473 0.840351
O O9 0.138662 0.618384 0.782728
O O10 0.399760 0.250000 0.047973
O O11 0.593378 0.250000 0.500504
O O12 0.500000 0.000000 0.500000
O O13 0.849647 0.750000 0.961176
#
# Coordination Sequence:
#
# PCOD8076934 Si02
#       7
#     4   2   4   2   4   2   2
#     4  11  21  39  61  86 125 158 197 250 296 354
#     4  12  24  39  61  87 123 166 198 239 307 362
#     4  11  21  36  62  91 119 154 198 252 302 346
#     4  12  20  37  61  85 125 156 194 250 301 350
#     4  10  22  36  59  92 122 154 198 251 303 352
#     4  12  26  39  59  91 125 160 202 243 297 366
#     4  12  22  37  59  87 125 154 194 252 299 348
#
# _framework density 19.382555
#
# number of rings (size 3 to 8) (size 9 to 14) (size 15 to 20)
#    0.000    0.800    6.000    2.400    8.400    0.000 
#    0.000    0.000    0.000    7.200    0.000    0.000 
#    0.000    0.000    0.000    0.000    0.000    0.000 
#
# Total GULP energy -248000.258558 kJ/mol
# GULP energy per Si atom -12400.012928 kJ/mol
# Density = 1.933844 g / cm^3
# Si number density = 19.382555 Si / 1000 Ang^3
#
#
#
# Elastic Constant Matrix: (Units=GPa)
#
#
# Indices 1 2 3 4 5 6 
#
# 1 65.9709 -2.0852 18.9909 0.0000 7.0255 0.0000
# 2 -2.0852 143.1213 46.4939 0.0000 17.0628 0.0000
# 3 18.9909 46.4939 121.5898 0.0000 24.2136 0.0000
# 4 0.0000 0.0000 0.0000 47.2754 0.0000 3.5563
# 5 7.0255 17.0628 24.2136 0.0000 18.7635 0.0000
# 6 0.0000 0.0000 0.0000 3.5563 0.0000 29.9775
#
#
#
# Elastic Compliance Matrix: (Units=1/GPa)
#
#
# Indices 1 2 3 4 5 6 
#
# 1 0.016334 0.001507 -0.002203 0.000000 -0.004644 0.000000
# 2 0.001507 0.008405 -0.002443 0.000000 -0.005056 0.000000
# 3 -0.002203 -0.002443 0.011973 0.000000 -0.012404 0.000000
# 4 0.000000 0.000000 0.000000 0.021343 0.000000 -0.002532
# 5 -0.004644 -0.005056 -0.012404 0.000000 0.075638 0.000000
# 6 0.000000 0.000000 0.000000 -0.002532 0.000000 0.033659
#
#
# Mechanical properties :
#
#
# Convention : Reuss Voigt Hill
#
# Bulk Modulus (GPa) = 32.85583 50.83125 41.84354
# Shear Modulus (GPa) = 27.20727 37.02210 32.11469
#
# Velocity S-wave (km/s) = 3.75066 4.37518 4.07490
# Velocity P-wave (km/s) = 5.97868 7.19758 6.61626
#
# Compressibility (1/GPa) = 0.03043599
#
# Stress axis : x y z
#
# Youngs Moduli (GPa) = 61.22012 118.97286 83.52351
#
# Poissons Ratio (x) = -0.17932 0.18398
# Poissons Ratio (y) = -0.09227 0.20402
# Poissons Ratio (z) = 0.13485 0.29061
#
# Static dielectric constant tensor:
#      x y z
#    x 3.111170 0.000000 0.284390 
#    y 0.000000 3.666500 0.000000 
#    z 0.284390 0.000000 4.233340 
# 
# 
# High freq. dielectric constant tensor:
#      x y z
#    x 1.698010 0.000000 0.021550 
#    y 0.000000 1.778810 0.000000 
#    z 0.021550 0.000000 1.771770 
# 
# From -- ./inp_files/15989.got.cif
#   From: 2010.06.25/outbox.cif.g09.slc.cpg/sg11_8_cif.got.tgz:15989.got - 2010.06.27 23:14:04.
