data_PCOD8076693
_publ_section_title
;
Structure prediction by ZEFSAII (Michael W. Deem and Ramdas Pophale) SiO2 
 PCOD8076693
Probable space group: P 21/M
;
_chemical_formula_sum "Si O2"
_cell_formula_units_Z 32
_cell_length_a 8.627005
_cell_length_b 27.961463
_cell_length_c 12.054280
_cell_angle_alpha 90.000000
_cell_angle_beta 147.449605
_cell_angle_gamma 90.000000
_cell_volume 1564.504291
_symmetry_space_group_name_H-M "P 21/M"
_symmetry_group_IT_number 11
_symmetry_cell_setting 'monoclinic'
loop_
_space_group_symop_operation_xyz
x,y,z
-x,1/2+y,-z
-x,-y,-z
x,1/2-y,z
loop_
_atom_site_type_symbol
_atom_site_label
_atom_site_fract_x
_atom_site_fract_y
_atom_site_fract_z
Si Si1 0.812531 0.429772 0.129742
Si Si2 0.994204 0.876357 0.140894
Si Si3 0.792520 0.614713 0.252385
Si Si4 0.853529 0.521645 0.018509
Si Si5 0.500295 0.196917 0.539281
Si Si6 0.583392 0.803547 0.265847
Si Si7 0.811550 0.452473 0.380817
Si Si8 0.957944 0.847945 0.876348
O O1 0.853411 0.427095 0.286385
O O2 0.032396 0.394314 0.198670
O O3 0.490548 0.416790 0.896086
O O4 0.867805 0.484314 0.127647
O O5 0.276716 0.846083 0.335270
O O6 0.784709 0.868501 0.119275
O O7 0.052191 0.933330 0.172334
O O8 0.858398 0.861891 0.940682
O O9 0.797934 0.662795 0.327904
O O10 0.072797 0.584052 0.455519
O O11 0.523500 0.537340 0.796857
O O12 0.000000 0.500000 0.000000
O O13 0.643160 0.250000 0.613360
O O14 0.330804 0.194090 0.553357
O O15 0.273594 0.190031 0.304807
O O16 0.613631 0.750000 0.236935
O O17 0.257967 0.820862 0.056997
O O18 0.000000 0.500000 0.500000
#
# Coordination Sequence:
#
# PCOD8076693 Si02
#       8
#     4   4   4   4   4   4   4   4
#     4  11  22  41  62  91 125 168 211 266 314 383
#     4  11  24  40  62  91 131 165 205 264 320 375
#     4  11  23  40  64  90 127 164 214 261 321 382
#     4  12  24  42  62  92 134 171 216 264 316 385
#     4  10  22  41  65  91 123 162 210 261 318 387
#     4   9  20  40  65  91 121 158 204 261 317 376
#     4  12  24  40  66  89 124 173 213 260 319 369
#     4  10  21  39  65  92 122 163 209 255 319 379
#
# _framework density 20.453762999999999
#
# number of rings (size 3 to 8) (size 9 to 14) (size 15 to 20)
#    0.000    1.250    3.750    2.250    1.750    2.000 
#    0.000    1.875    0.000    0.000    0.000    0.000 
#    0.000    0.000    0.000    0.000    0.000    0.000 
#
# Total GULP energy -396761.066191 kJ/mol
# GULP energy per Si atom -12398.783318 kJ/mol
# Density = 2.040721 g / cm^3
# Si number density = 20.453763 Si / 1000 Ang^3
#
#
#
# Elastic Constant Matrix: (Units=GPa)
#
#
# Indices 1 2 3 4 5 6 
#
# 1 117.8843 58.8651 33.9886 0.0000 -15.2162 0.0000
# 2 58.8651 145.3420 43.8368 0.0000 -3.0235 0.0000
# 3 33.9886 43.8368 77.9819 0.0000 -13.2775 0.0000
# 4 0.0000 0.0000 0.0000 31.9308 0.0000 -2.2726
# 5 -15.2162 -3.0235 -13.2775 0.0000 28.9045 0.0000
# 6 0.0000 0.0000 0.0000 -2.2726 0.0000 33.1706
#
#
#
# Elastic Compliance Matrix: (Units=1/GPa)
#
#
# Indices 1 2 3 4 5 6 
#
# 1 0.011697 -0.004030 -0.002014 0.000000 0.004811 0.000000
# 2 -0.004030 0.009725 -0.004229 0.000000 -0.003047 0.000000
# 3 -0.002014 -0.004229 0.017165 0.000000 0.006383 0.000000
# 4 0.000000 0.000000 0.000000 0.031471 0.000000 0.002156
# 5 0.004811 -0.003047 0.006383 0.000000 0.039743 0.000000
# 6 0.000000 0.000000 0.000000 0.002156 0.000000 0.030295
#
#
# Mechanical properties :
#
#
# Convention : Reuss Voigt Hill
#
# Bulk Modulus (GPa) = 55.42718 68.28771 61.85744
# Shear Modulus (GPa) = 30.00231 32.43567 31.21899
#
# Velocity S-wave (km/s) = 3.83408 3.98654 3.91105
# Velocity P-wave (km/s) = 6.83797 7.39248 7.12063
#
# Compressibility (1/GPa) = 0.01804169
#
# Stress axis : x y z
#
# Youngs Moduli (GPa) = 85.49368 102.83203 58.25787
#
# Poissons Ratio (x) = 0.41441 0.11730
# Poissons Ratio (y) = 0.34453 0.24637
# Poissons Ratio (z) = 0.17214 0.43487
#
# Static dielectric constant tensor:
#      x y z
#    x 3.811580 0.000000 -0.211530 
#    y 0.000000 3.956370 0.000000 
#    z -0.211530 0.000000 3.579610 
# 
# 
# High freq. dielectric constant tensor:
#      x y z
#    x 1.798330 0.000000 -0.018830 
#    y 0.000000 1.812720 0.000000 
#    z -0.018830 0.000000 1.785630 
# 
# From -- ./inp_files/33214.got.cif
#   From: 2010.06.25/outbox.cif.g09.slc.cpg/sg11_17_cif.got.tgz:33214.got - 2010.06.27 23:14:04.
