data_PCOD8076793
_publ_section_title
;
Structure prediction by ZEFSAII (Michael W. Deem and Ramdas Pophale) SiO2 
 PCOD8076793
Probable space group: P 21/M
;
_chemical_formula_sum "Si O2"
_cell_formula_units_Z 24
_cell_length_a 11.735001
_cell_length_b 8.780645
_cell_length_c 11.885404
_cell_angle_alpha 90.000000
_cell_angle_beta 87.863658
_cell_angle_gamma 90.000000
_cell_volume 1223.831246
_symmetry_space_group_name_H-M "P 21/M"
_symmetry_group_IT_number 11
_symmetry_cell_setting 'monoclinic'
loop_
_space_group_symop_operation_xyz
x,y,z
-x,1/2+y,-z
-x,-y,-z
x,1/2-y,z
loop_
_atom_site_type_symbol
_atom_site_label
_atom_site_fract_x
_atom_site_fract_y
_atom_site_fract_z
Si Si1 0.591208 0.070570 0.413662
Si Si2 0.175891 0.073548 0.519087
Si Si3 0.482486 0.925963 0.832606
Si Si4 0.047606 0.926308 0.328159
Si Si5 0.082159 0.070777 0.088595
Si Si6 0.677696 0.425747 0.956041
O O1 0.594621 0.250000 0.430418
O O2 0.557372 0.024825 0.288859
O O3 0.500000 0.000000 0.500000
O O4 0.714589 0.003584 0.432103
O O5 0.200055 0.250000 0.495364
O O6 0.074050 0.047732 0.610004
O O7 0.147454 0.995907 0.401236
O O8 0.519838 0.750000 0.836817
O O9 0.590718 0.028344 0.860520
O O10 0.378283 0.957809 0.920903
O O11 0.074988 0.750000 0.307581
O O12 0.044228 0.011803 0.210998
O O13 0.067833 0.250000 0.086228
O O14 0.211254 0.028255 0.056061
O O15 0.000000 0.000000 0.000000
O O16 0.711407 0.250000 0.939262
#
# Coordination Sequence:
#
# PCOD8076793 Si02
#       6
#     4   4   4   4   4   4
#     4  11  24  40  61  90 125 163 208 255 305 364
#     4  10  22  41  65  93 124 161 205 254 309 365
#     4   9  21  41  63  89 121 162 205 251 306 363
#     4  10  22  42  66  93 123 162 207 250 306 368
#     4  12  26  42  63  92 127 163 205 255 306 362
#     4  10  21  40  65  92 121 159 205 253 307 365
#
# _framework density 19.610545999999999
#
# number of rings (size 3 to 8) (size 9 to 14) (size 15 to 20)
#    0.000    1.667    0.000    3.500    4.667    4.000 
#    0.000    0.000    0.000    0.000    0.000    0.000 
#    0.000    0.000    0.000    0.000    0.000    0.000 
#
# Total GULP energy -297749.364749 kJ/mol
# GULP energy per Si atom -12406.223531 kJ/mol
# Density = 1.956591 g / cm^3
# Si number density = 19.610546 Si / 1000 Ang^3
#
#
#
# Elastic Constant Matrix: (Units=GPa)
#
#
# Indices 1 2 3 4 5 6 
#
# 1 99.3664 63.5217 74.6212 0.0000 20.5269 0.0000
# 2 63.5217 146.0865 87.9924 0.0000 13.4140 0.0000
# 3 74.6212 87.9924 156.1449 0.0000 21.3625 0.0000
# 4 0.0000 0.0000 0.0000 35.4636 0.0000 3.8040
# 5 20.5269 13.4140 21.3625 0.0000 23.6231 0.0000
# 6 0.0000 0.0000 0.0000 3.8040 0.0000 40.0327
#
#
#
# Elastic Compliance Matrix: (Units=1/GPa)
#
#
# Indices 1 2 3 4 5 6 
#
# 1 0.018491 -0.003986 -0.005366 0.000000 -0.008951 0.000000
# 2 -0.003986 0.011232 -0.004594 0.000000 0.001241 0.000000
# 3 -0.005366 -0.004594 0.012054 0.000000 -0.003629 0.000000
# 4 0.000000 0.000000 0.000000 0.028488 0.000000 -0.002707
# 5 -0.008951 0.001241 -0.003629 0.000000 0.052687 0.000000
# 6 0.000000 0.000000 0.000000 -0.002707 0.000000 0.025237
#
#
# Mechanical properties :
#
#
# Convention : Reuss Voigt Hill
#
# Bulk Modulus (GPa) = 72.02322 94.87425 83.44874
# Shear Modulus (GPa) = 27.66875 31.52139 29.59507
#
# Velocity S-wave (km/s) = 3.76029 4.01355 3.88898
# Velocity P-wave (km/s) = 7.46053 8.36435 7.92533
#
# Compressibility (1/GPa) = 0.01388441
#
# Stress axis : x y z
#
# Youngs Moduli (GPa) = 54.08139 89.03191 82.96013
#
# Poissons Ratio (x) = 0.35492 0.44512
# Poissons Ratio (y) = 0.21559 0.38113
# Poissons Ratio (z) = 0.29017 0.40903
#
# Static dielectric constant tensor:
#      x y z
#    x 3.671670 0.000000 -0.089090 
#    y 0.000000 3.695840 0.000000 
#    z -0.089090 0.000000 4.001690 
# 
# 
# High freq. dielectric constant tensor:
#      x y z
#    x 1.772280 0.000000 0.001820 
#    y 0.000000 1.779140 0.000000 
#    z 0.001820 0.000000 1.776320 
# 
# From -- ./inp_files/33802.got.cif
#   From: 2010.06.25/outbox.cif.g09.slc.cpg/sg11_17_cif.got.tgz:33802.got - 2010.06.27 23:14:04.
