data_PCOD8076000
_publ_section_title
;
Structure prediction by ZEFSAII (Michael W. Deem and Ramdas Pophale) SiO2 
 PCOD8076000
Probable space group: P 21/M
;
_chemical_formula_sum "Si O2"
_cell_formula_units_Z 32
_cell_length_a 28.291646
_cell_length_b 9.412488
_cell_length_c 11.694830
_cell_angle_alpha 90.000000
_cell_angle_beta 31.871036
_cell_angle_gamma 90.000000
_cell_volume 1644.364035
_symmetry_space_group_name_H-M "P 21/M"
_symmetry_group_IT_number 11
_symmetry_cell_setting 'monoclinic'
loop_
_space_group_symop_operation_xyz
x,y,z
-x,1/2+y,-z
-x,-y,-z
x,1/2-y,z
loop_
_atom_site_type_symbol
_atom_site_label
_atom_site_fract_x
_atom_site_fract_y
_atom_site_fract_z
Si Si1 0.774578 0.413505 0.926636
Si Si2 0.082742 0.086012 0.508197
Si Si3 0.376783 0.913586 0.317347
Si Si4 0.465902 0.587719 0.901059
Si Si5 0.928129 0.909653 0.213124
Si Si6 0.796685 0.911035 0.289229
Si Si7 0.883046 0.411448 0.925115
Si Si8 0.575469 0.083638 0.274986
O O1 0.781031 0.250000 0.876240
O O2 0.843784 0.498332 0.708647
O O3 0.803969 0.436263 0.996909
O O4 0.672859 0.467826 0.119263
O O5 0.110029 0.250000 0.441407
O O6 0.087222 0.030826 0.629015
O O7 0.981666 0.060056 0.668436
O O8 0.366729 0.750000 0.372901
O O9 0.457853 0.976869 0.223616
O O10 0.291284 0.996206 0.536402
O O11 0.388767 0.930581 0.155749
O O12 0.502387 0.750000 0.829929
O O13 0.428833 0.550094 0.851683
O O14 0.966085 0.750000 0.142474
O O15 0.833847 0.914115 0.341310
O O16 0.000000 0.000000 0.000000
O O17 0.776187 0.750000 0.292284
O O18 0.870281 0.979073 0.054407
O O19 0.880058 0.250000 0.978275
O O20 0.561210 0.250000 0.328156
O O21 0.500000 0.000000 0.500000
#
# Coordination Sequence:
#
# PCOD8076000 Si02
#       8
#     4   4   4   4   4   4   4   4
#     4  10  23  40  61  88 116 152 198 243 290 348
#     4  10  21  38  60  86 119 156 195 243 293 343
#     4  10  21  37  61  88 115 150 189 238 293 350
#     4   9  20  40  61  84 116 150 190 239 293 350
#     4  10  21  37  56  83 118 154 193 236 283 339
#     4  11  23  36  56  87 120 154 194 239 287 347
#     4  10  21  39  60  85 120 157 199 246 289 341
#     4  10  23  42  61  86 119 153 194 243 293 347
#
# _framework density 19.460411000000001
#
# number of rings (size 3 to 8) (size 9 to 14) (size 15 to 20)
#    0.000    2.000    1.250    1.125    3.500    3.500 
#    0.000    0.000    0.000    0.000    0.000    0.000 
#    0.000    0.000    0.000    0.000    0.000    0.000 
#
# Total GULP energy -396800.380793 kJ/mol
# GULP energy per Si atom -12400.011900 kJ/mol
# Density = 1.941612 g / cm^3
# Si number density = 19.460411 Si / 1000 Ang^3
#
#
#
# Elastic Constant Matrix: (Units=GPa)
#
#
# Indices 1 2 3 4 5 6 
#
# 1 113.1694 39.1779 42.1562 0.0000 -6.7056 0.0000
# 2 39.1779 94.9056 55.9464 0.0000 -4.9005 0.0000
# 3 42.1562 55.9464 104.8599 0.0000 -13.5576 0.0000
# 4 0.0000 0.0000 0.0000 41.2855 0.0000 0.6629
# 5 -6.7056 -4.9005 -13.5576 0.0000 26.6893 0.0000
# 6 0.0000 0.0000 0.0000 0.6629 0.0000 24.9690
#
#
#
# Elastic Compliance Matrix: (Units=1/GPa)
#
#
# Indices 1 2 3 4 5 6 
#
# 1 0.010893 -0.002823 -0.002768 0.000000 0.000812 0.000000
# 2 -0.002823 0.016155 -0.007698 0.000000 -0.001653 0.000000
# 3 -0.002768 -0.007698 0.015502 0.000000 0.005766 0.000000
# 4 0.000000 0.000000 0.000000 0.024232 0.000000 -0.000643
# 5 0.000812 -0.001653 0.005766 0.000000 0.040298 0.000000
# 6 0.000000 0.000000 0.000000 -0.000643 0.000000 0.040067
#
#
# Mechanical properties :
#
#
# Convention : Reuss Voigt Hill
#
# Bulk Modulus (GPa) = 62.61123 65.27732 63.94428
# Shear Modulus (GPa) = 27.92558 30.29906 29.11232
#
# Velocity S-wave (km/s) = 3.79224 3.95011 3.87198
# Velocity P-wave (km/s) = 7.17065 7.37706 7.27459
#
# Compressibility (1/GPa) = 0.01597157
#
# Stress axis : x y z
#
# Youngs Moduli (GPa) = 91.80357 61.90161 64.50812
#
# Poissons Ratio (x) = 0.17475 0.17856
# Poissons Ratio (y) = 0.25916 0.49658
# Poissons Ratio (z) = 0.25411 0.47652
#
# Static dielectric constant tensor:
#      x y z
#    x 3.883310 0.000000 0.009140 
#    y 0.000000 3.572680 0.000000 
#    z 0.009140 0.000000 3.426670 
# 
# 
# High freq. dielectric constant tensor:
#      x y z
#    x 1.766850 0.000000 -0.001870 
#    y 0.000000 1.758640 0.000000 
#    z -0.001870 0.000000 1.752790 
# 
# From -- ./inp_files/37565.got.cif
#   From: 2010.06.25/outbox.cif.g09.slc.cpg/sg11_19_cif.got.tgz:37565.got - 2010.06.27 23:14:04.
