data_PCOD8076663
_publ_section_title
;
Structure prediction by ZEFSAII (Michael W. Deem and Ramdas Pophale) SiO2 
 PCOD8076663
Probable space group: P 21/M
;
_chemical_formula_sum "Si O2"
_cell_formula_units_Z 20
_cell_length_a 9.573153
_cell_length_b 8.584746
_cell_length_c 12.091282
_cell_angle_alpha 90.000000
_cell_angle_beta 76.893048
_cell_angle_gamma 90.000000
_cell_volume 967.811493
_symmetry_space_group_name_H-M "P 21/M"
_symmetry_group_IT_number 11
_symmetry_cell_setting 'monoclinic'
loop_
_space_group_symop_operation_xyz
x,y,z
-x,1/2+y,-z
-x,-y,-z
x,1/2-y,z
loop_
_atom_site_type_symbol
_atom_site_label
_atom_site_fract_x
_atom_site_fract_y
_atom_site_fract_z
Si Si1 0.154337 0.068496 0.960184
Si Si2 0.854866 0.434592 0.473001
Si Si3 0.287587 0.064684 0.708372
Si Si4 0.377524 0.431557 0.095936
Si Si5 0.403741 0.064594 0.338997
O O1 0.140917 0.250000 0.944144
O O2 0.240902 0.003189 0.838366
O O3 0.229928 0.025186 0.061896
O O4 0.000000 0.000000 0.000000
O O5 0.867994 0.250000 0.461326
O O6 0.834375 0.507669 0.354868
O O7 0.716740 0.481045 0.568298
O O8 0.000000 0.500000 0.500000
O O9 0.304459 0.250000 0.699580
O O10 0.438988 0.986513 0.648564
O O11 0.403529 0.250000 0.097993
O O12 0.379357 0.499336 0.218935
O O13 0.500000 0.500000 0.000000
O O14 0.386661 0.250000 0.353192
#
# Coordination Sequence:
#
# PCOD8076663 Si02
#       5
#     4   4   4   4   4
#     4  10  23  40  61  93 130 168 208 256 312 372
#     4  12  27  46  67  93 126 164 210 265 320 377
#     4  11  23  43  67  94 128 168 214 261 313 375
#     4  10  21  39  63  94 128 164 207 255 308 370
#     4  11  23  41  67  97 128 168 213 260 313 374
#
# _framework density 20.665182000000001
#
# number of rings (size 3 to 8) (size 9 to 14) (size 15 to 20)
#    0.000    1.200    2.000    3.600    2.800    3.200 
#    0.000    0.000    0.000    0.000    0.000    0.000 
#    0.000    0.000    0.000    0.000    0.000    0.000 
#
# Total GULP energy -248039.636622 kJ/mol
# GULP energy per Si atom -12401.981831 kJ/mol
# Density = 2.061815 g / cm^3
# Si number density = 20.665182 Si / 1000 Ang^3
#
#
#
# Elastic Constant Matrix: (Units=GPa)
#
#
# Indices 1 2 3 4 5 6 
#
# 1 112.9869 25.9522 23.0725 0.0000 1.0143 0.0000
# 2 25.9522 53.0848 24.8301 0.0000 6.6158 0.0000
# 3 23.0725 24.8301 87.6173 0.0000 11.8436 0.0000
# 4 0.0000 0.0000 0.0000 31.2341 0.0000 -3.0501
# 5 1.0143 6.6158 11.8436 0.0000 41.9286 0.0000
# 6 0.0000 0.0000 0.0000 -3.0501 0.0000 41.8737
#
#
#
# Elastic Compliance Matrix: (Units=1/GPa)
#
#
# Indices 1 2 3 4 5 6 
#
# 1 0.010160 -0.004346 -0.001563 0.000000 0.000881 0.000000
# 2 -0.004346 0.023700 -0.005282 0.000000 -0.002142 0.000000
# 3 -0.001563 -0.005282 0.013728 0.000000 -0.003007 0.000000
# 4 0.000000 0.000000 0.000000 0.032246 0.000000 0.002349
# 5 0.000881 -0.002142 -0.003007 0.000000 0.025016 0.000000
# 6 0.000000 0.000000 0.000000 0.002349 0.000000 0.024052
#
#
# Mechanical properties :
#
#
# Convention : Reuss Voigt Hill
#
# Bulk Modulus (GPa) = 39.67331 44.59985 42.13658
# Shear Modulus (GPa) = 31.31118 34.99622 33.15370
#
# Velocity S-wave (km/s) = 3.89674 4.11966 4.00975
# Velocity P-wave (km/s) = 6.28378 6.65266 6.47085
#
# Compressibility (1/GPa) = 0.02520586
#
# Stress axis : x y z
#
# Youngs Moduli (GPa) = 98.42463 42.19369 72.84220
#
# Poissons Ratio (x) = 0.18337 0.11386
# Poissons Ratio (y) = 0.42774 0.38479
# Poissons Ratio (z) = 0.15384 0.22289
#
# Static dielectric constant tensor:
#      x y z
#    x 7.934580 0.000000 5.083220 
#    y 0.000000 3.746080 0.000000 
#    z 5.083220 0.000000 9.933910 
# 
# 
# High freq. dielectric constant tensor:
#      x y z
#    x 1.820310 0.000000 0.009440 
#    y 0.000000 1.807810 0.000000 
#    z 0.009440 0.000000 1.825350 
# 
# From -- ./inp_files/15965.got.cif
#   From: 2010.06.25/outbox.cif.g09.slc.cpg/sg11_8_cif.got.tgz:15965.got - 2010.06.27 23:14:04.
