data_PCOD8076724
_publ_section_title
;
Structure prediction by ZEFSAII (Michael W. Deem and Ramdas Pophale) SiO2 
 PCOD8076724
Probable space group: P 21/M
;
_chemical_formula_sum "Si O2"
_cell_formula_units_Z 20
_cell_length_a 12.288088
_cell_length_b 12.454806
_cell_length_c 17.935884
_cell_angle_alpha 90.000000
_cell_angle_beta 160.059100
_cell_angle_gamma 90.000000
_cell_volume 936.187815
_symmetry_space_group_name_H-M "P 21/M"
_symmetry_group_IT_number 11
_symmetry_cell_setting 'monoclinic'
loop_
_space_group_symop_operation_xyz
x,y,z
-x,1/2+y,-z
-x,-y,-z
x,1/2-y,z
loop_
_atom_site_type_symbol
_atom_site_label
_atom_site_fract_x
_atom_site_fract_y
_atom_site_fract_z
Si Si1 0.802281 0.377064 0.071505
Si Si2 0.716913 0.456346 0.268641
Si Si3 0.500444 0.127754 0.276072
Si Si4 0.128467 0.872571 0.053030
Si Si5 0.810353 0.564058 0.544068
O O1 0.731916 0.250000 0.033538
O O2 0.106803 0.413554 0.316679
O O3 0.494898 0.445382 0.899720
O O4 0.876367 0.413173 0.034990
O O5 0.516357 0.380718 0.196089
O O6 0.000000 0.500000 0.500000
O O7 0.884622 0.392151 0.308095
O O8 0.545333 0.250000 0.329042
O O9 0.770343 0.061628 0.495657
O O10 0.158677 0.073386 0.082224
O O11 0.020238 0.750000 0.984092
O O12 0.482275 0.876348 0.314616
#
# Coordination Sequence:
#
# PCOD8076724 Si02
#       5
#     4   4   4   4   4
#     4  11  23  39  64  93 121 156 204 253 300 360
#     4  10  21  40  61  89 118 159 201 245 304 356
#     4  10  22  40  62  89 126 164 200 248 302 353
#     4  10  21  40  63  90 122 162 203 246 302 359
#     4  11  22  40  65  91 121 161 205 246 302 360
#
# _framework density 21.363233999999999
#
# number of rings (size 3 to 8) (size 9 to 14) (size 15 to 20)
#    0.000    1.600    4.000    1.800    0.000    5.600 
#    0.000    1.000    0.000    0.000    0.000    0.000 
#    0.000    0.000    0.000    0.000    0.000    0.000 
#
# Total GULP energy -247857.042936 kJ/mol
# GULP energy per Si atom -12392.852147 kJ/mol
# Density = 2.131461 g / cm^3
# Si number density = 21.363234 Si / 1000 Ang^3
#
#
#
# Elastic Constant Matrix: (Units=GPa)
#
#
# Indices 1 2 3 4 5 6 
#
# 1 94.1821 1.5730 76.4611 0.0000 9.2674 0.0000
# 2 1.5730 53.4355 19.9843 0.0000 0.4854 0.0000
# 3 76.4611 19.9843 124.2737 0.0000 -9.5074 0.0000
# 4 0.0000 0.0000 0.0000 30.2741 0.0000 -2.4812
# 5 9.2674 0.4854 -9.5074 0.0000 47.7179 0.0000
# 6 0.0000 0.0000 0.0000 -2.4812 0.0000 20.8003
#
#
#
# Elastic Compliance Matrix: (Units=1/GPa)
#
#
# Indices 1 2 3 4 5 6 
#
# 1 0.025191 0.005713 -0.017057 0.000000 -0.008349 0.000000
# 2 0.005713 0.021242 -0.007141 0.000000 -0.002749 0.000000
# 3 -0.017057 -0.007141 0.020257 0.000000 0.007421 0.000000
# 4 0.000000 0.000000 0.000000 0.033358 0.000000 0.003979
# 5 -0.008349 -0.002749 0.007421 0.000000 0.024085 0.000000
# 6 0.000000 0.000000 0.000000 0.003979 0.000000 0.048551
#
#
# Mechanical properties :
#
#
# Convention : Reuss Voigt Hill
#
# Bulk Modulus (GPa) = 33.64651 51.99200 42.81926
# Shear Modulus (GPa) = 22.77284 31.34997 27.06141
#
# Velocity S-wave (km/s) = 3.26848 3.83492 3.56297
# Velocity P-wave (km/s) = 5.47977 6.63316 6.08386
#
# Compressibility (1/GPa) = 0.02972076
#
# Stress axis : x y z
#
# Youngs Moduli (GPa) = 39.69637 47.07718 49.36499
#
# Poissons Ratio (x) = -0.26897 0.84200
# Poissons Ratio (y) = -0.22680 0.35253
# Poissons Ratio (z) = 0.67709 0.33619
#
# Static dielectric constant tensor:
#      x y z
#    x 5.055440 0.000000 0.691630 
#    y 0.000000 3.921060 0.000000 
#    z 0.691630 0.000000 4.010430 
# 
# 
# High freq. dielectric constant tensor:
#      x y z
#    x 1.844960 0.000000 0.018650 
#    y 0.000000 1.839770 0.000000 
#    z 0.018650 0.000000 1.829800 
# 
# From -- ./inp_files/41459.got.cif
#   From: 2010.06.25/outbox.cif.g09.slc.cpg/sg11_21_cif.got.tgz:41459.got - 2010.06.27 23:14:04.
