data_PCOD8076398
_publ_section_title
;
Structure prediction by ZEFSAII (Michael W. Deem and Ramdas Pophale) SiO2 
 PCOD8076398
Probable space group: P 21/M
;
_chemical_formula_sum "Si O2"
_cell_formula_units_Z 32
_cell_length_a 20.945770
_cell_length_b 8.933642
_cell_length_c 25.940183
_cell_angle_alpha 90.000000
_cell_angle_beta 159.562827
_cell_angle_gamma 90.000000
_cell_volume 1694.912817
_symmetry_space_group_name_H-M "P 21/M"
_symmetry_group_IT_number 11
_symmetry_cell_setting 'monoclinic'
loop_
_space_group_symop_operation_xyz
x,y,z
-x,1/2+y,-z
-x,-y,-z
x,1/2-y,z
loop_
_atom_site_type_symbol
_atom_site_label
_atom_site_fract_x
_atom_site_fract_y
_atom_site_fract_z
Si Si1 0.631359 0.575892 0.325748
Si Si2 0.308109 0.074348 0.367608
Si Si3 0.309687 0.078009 0.846632
Si Si4 0.745031 0.576108 0.940085
Si Si5 0.005015 0.576596 0.949263
Si Si6 0.188252 0.081451 0.640283
Si Si7 0.950897 0.426132 0.748085
Si Si8 0.017207 0.074739 0.338810
O O1 0.573555 0.750000 0.282070
O O2 0.462683 0.472875 0.212393
O O3 0.687174 0.517405 0.311278
O O4 0.794646 0.544841 0.489038
O O5 0.332890 0.250000 0.397070
O O6 0.180750 0.042955 0.222086
O O7 0.500000 0.000000 0.500000
O O8 0.220634 0.999898 0.352249
O O9 0.312166 0.250000 0.867161
O O10 0.290930 0.066403 0.771393
O O11 0.148150 0.993734 0.753686
O O12 0.500000 0.000000 0.000000
O O13 0.755399 0.750000 0.934796
O O14 0.822856 0.486561 0.950874
O O15 0.860957 0.539233 0.079226
O O16 0.037162 0.750000 0.982090
O O17 0.000000 0.500000 0.000000
O O18 0.140041 0.250000 0.588860
O O19 0.000000 0.000000 0.500000
O O20 0.913961 0.250000 0.715388
O O21 0.970555 0.497006 0.707015
O O22 0.979468 0.250000 0.302812
#
# Coordination Sequence:
#
# PCOD8076398 Si02
#       8
#     4   4   4   4   4   4   4   4
#     4  10  22  39  59  85 116 152 193 238 289 346
#     4  10  21  38  61  89 118 155 197 238 287 343
#     4  11  24  40  60  88 118 152 194 241 292 347
#     4  10  22  39  60  87 116 152 194 237 288 342
#     4  10  21  38  61  88 119 154 192 237 285 339
#     4  10  21  39  61  85 114 151 192 239 292 344
#     4  10  22  40  60  86 119 154 194 242 289 343
#     4  11  23  40  61  85 116 154 194 241 292 345
#
# _framework density 18.880027999999999
#
# number of rings (size 3 to 8) (size 9 to 14) (size 15 to 20)
#    0.000    1.750    1.250    2.250    1.750    6.000 
#    0.000    0.000    0.000    0.000    0.000    0.000 
#    0.000    0.000    0.000    0.000    0.000    0.000 
#
# Total GULP energy -396888.752172 kJ/mol
# GULP energy per Si atom -12402.773505 kJ/mol
# Density = 1.883706 g / cm^3
# Si number density = 18.880028 Si / 1000 Ang^3
#
#
#
# Elastic Constant Matrix: (Units=GPa)
#
#
# Indices 1 2 3 4 5 6 
#
# 1 151.6563 69.7154 55.6056 0.0000 2.1448 0.0000
# 2 69.7154 109.3258 58.3904 0.0000 5.0684 0.0000
# 3 55.6056 58.3904 108.3620 0.0000 20.4255 0.0000
# 4 0.0000 0.0000 0.0000 36.6126 0.0000 4.3002
# 5 2.1448 5.0684 20.4255 0.0000 28.1709 0.0000
# 6 0.0000 0.0000 0.0000 4.3002 0.0000 39.1365
#
#
#
# Elastic Compliance Matrix: (Units=1/GPa)
#
#
# Indices 1 2 3 4 5 6 
#
# 1 0.009838 -0.004856 -0.002844 0.000000 0.002187 0.000000
# 2 -0.004856 0.015484 -0.006250 0.000000 0.002116 0.000000
# 3 -0.002844 -0.006250 0.015988 0.000000 -0.010251 0.000000
# 4 0.000000 0.000000 0.000000 0.027670 0.000000 -0.003040
# 5 0.002187 0.002116 -0.010251 0.000000 0.042383 0.000000
# 6 0.000000 0.000000 0.000000 -0.003040 0.000000 0.025886
#
#
# Mechanical properties :
#
#
# Convention : Reuss Voigt Hill
#
# Bulk Modulus (GPa) = 74.57552 81.86299 78.21925
# Shear Modulus (GPa) = 29.47793 33.15949 31.31871
#
# Velocity S-wave (km/s) = 3.95565 4.19540 4.07729
# Velocity P-wave (km/s) = 7.77485 8.18060 7.98031
#
# Compressibility (1/GPa) = 0.01340923
#
# Stress axis : x y z
#
# Youngs Moduli (GPa) = 101.64776 64.58384 62.54746
#
# Poissons Ratio (x) = 0.31362 0.17787
# Poissons Ratio (y) = 0.49360 0.39094
# Poissons Ratio (z) = 0.28907 0.40367
#
# Static dielectric constant tensor:
#      x y z
#    x 3.200220 0.000000 0.617890 
#    y 0.000000 3.770700 0.000000 
#    z 0.617890 0.000000 2.485640 
# 
# 
# High freq. dielectric constant tensor:
#      x y z
#    x 1.746900 0.000000 0.001800 
#    y 0.000000 1.747720 0.000000 
#    z 0.001800 0.000000 1.737230 
# 
# From -- ./inp_files/72207.got.cif
#   From: 2010.06.25/outbox.cif.g09.slc.cpg/sg11_37_cif.got.tgz:72207.got - 2010.06.27 23:14:04.
