data_PCOD8076354
_publ_section_title
;
Structure prediction by ZEFSAII (Michael W. Deem and Ramdas Pophale) SiO2 
 PCOD8076354
Probable space group: P 21/M
;
_chemical_formula_sum "Si O2"
_cell_formula_units_Z 32
_cell_length_a 12.438622
_cell_length_b 14.914199
_cell_length_c 18.703130
_cell_angle_alpha 90.000000
_cell_angle_beta 152.324496
_cell_angle_gamma 90.000000
_cell_volume 1611.528739
_symmetry_space_group_name_H-M "P 21/M"
_symmetry_group_IT_number 11
_symmetry_cell_setting 'monoclinic'
loop_
_space_group_symop_operation_xyz
x,y,z
-x,1/2+y,-z
-x,-y,-z
x,1/2-y,z
loop_
_atom_site_type_symbol
_atom_site_label
_atom_site_fract_x
_atom_site_fract_y
_atom_site_fract_z
Si Si1 0.680884 0.603911 0.244091
Si Si2 0.559778 0.348118 0.033311
Si Si3 0.544289 0.002556 0.418234
Si Si4 0.945200 0.451527 0.317608
Si Si5 0.202905 0.353882 0.945584
Si Si6 0.895330 0.153829 0.424549
Si Si7 0.527326 0.963522 0.783760
Si Si8 0.667727 0.141794 0.606505
O O1 0.829047 0.533499 0.287701
O O2 0.502229 0.559433 0.195128
O O3 0.865309 0.665336 0.392431
O O4 0.542312 0.662605 0.105792
O O5 0.643052 0.250000 0.106606
O O6 0.774332 0.416570 0.154601
O O7 0.374254 0.384213 0.982645
O O8 0.417098 0.914567 0.374707
O O9 0.810263 0.975783 0.570128
O O10 0.420015 0.024052 0.269349
O O11 0.539268 0.093682 0.463389
O O12 0.965503 0.371182 0.385902
O O13 0.230939 0.250000 0.981067
O O14 0.943802 0.373076 0.765724
O O15 0.269210 0.408473 0.056726
O O16 0.768789 0.250000 0.349690
O O17 0.722945 0.083698 0.359304
O O18 0.608944 0.250000 0.574969
#
# Coordination Sequence:
#
# PCOD8076354 Si02
#       8
#     4   4   4   4   4   4   4   4
#     4  11  20  34  52  86 124 158 192 233 289 360
#     4  11  22  34  54  87 122 160 196 235 291 351
#     4  11  23  43  66  89 118 158 202 254 307 352
#     4  11  20  36  58  86 119 158 191 236 299 360
#     4  10  21  38  60  87 121 158 200 247 293 348
#     4  11  20  33  53  87 127 157 194 238 290 358
#     4  11  21  36  59  88 118 157 197 242 300 359
#     4  10  25  45  65  89 115 154 207 256 305 359
#
# _framework density 19.856921
#
# number of rings (size 3 to 8) (size 9 to 14) (size 15 to 20)
#    0.000    1.250    5.000    3.000    1.750    2.500 
#    0.000    0.000    0.000    0.000    0.000    0.000 
#    0.000    0.000    0.000    0.000    0.000    0.000 
#
# Total GULP energy -396615.455562 kJ/mol
# GULP energy per Si atom -12394.232986 kJ/mol
# Density = 1.981173 g / cm^3
# Si number density = 19.856921 Si / 1000 Ang^3
#
#
#
# Elastic Constant Matrix: (Units=GPa)
#
#
# Indices 1 2 3 4 5 6 
#
# 1 67.8275 29.3836 10.7820 0.0000 -30.6258 0.0000
# 2 29.3836 98.7129 20.2928 0.0000 -9.1498 0.0000
# 3 10.7820 20.2928 72.1867 0.0000 -20.2387 0.0000
# 4 0.0000 0.0000 0.0000 30.0427 0.0000 3.1614
# 5 -30.6258 -9.1498 -20.2387 0.0000 12.3836 0.0000
# 6 0.0000 0.0000 0.0000 3.1614 0.0000 20.3195
#
#
#
# Elastic Compliance Matrix: (Units=1/GPa)
#
#
# Indices 1 2 3 4 5 6 
#
# 1 -0.020428 0.002713 -0.020882 0.000000 -0.082642 0.000000
# 2 0.002713 0.010602 0.001277 0.000000 0.016630 0.000000
# 3 -0.020882 0.001277 0.004427 0.000000 -0.043463 0.000000
# 4 0.000000 0.000000 0.000000 0.033840 0.000000 -0.005265
# 5 -0.082642 0.016630 -0.043463 0.000000 -0.182375 0.000000
# 6 0.000000 0.000000 0.000000 -0.005265 0.000000 0.050033
#
#
# Mechanical properties :
#
#
# Convention : Reuss Voigt Hill
#
# Bulk Modulus (GPa) = -25.52207 39.96045 7.21919
# Shear Modulus (GPa) = -60.11173 24.43375 -17.83899
#
# Velocity S-wave (km/s) = -5.50801 3.51164 -3.00054
# Velocity P-wave (km/s) = 7.30286 6.05062 2.89152
#
# Compressibility (1/GPa) = -0.03918177
#
# Stress axis : x y z
#
# Youngs Moduli (GPa) = -48.95293 94.32432 225.86969
#
# Poissons Ratio (x) = -0.25592 4.71654
# Poissons Ratio (y) = 0.13282 -0.28843
# Poissons Ratio (z) = -1.02222 -0.12045
#
# Static dielectric constant tensor:
#      x y z
#    x 3.556330 0.000000 -0.234800 
#    y 0.000000 3.723230 0.000000 
#    z -0.234800 0.000000 3.846060 
# 
# 
# High freq. dielectric constant tensor:
#      x y z
#    x 1.746910 0.000000 -0.020870 
#    y 0.000000 1.782190 0.000000 
#    z -0.020870 0.000000 1.779540 
# 
# From -- ./inp_files/41678.got.cif
#   From: 2010.06.25/outbox.cif.g09.slc.cpg/sg11_21_cif.got.tgz:41678.got - 2010.06.27 23:14:04.
