data_PCOD8076525
_publ_section_title
;
Structure prediction by ZEFSAII (Michael W. Deem and Ramdas Pophale) SiO2 
 PCOD8076525
Probable space group: P 21/M
;
_chemical_formula_sum "Si O2"
_cell_formula_units_Z 32
_cell_length_a 12.426633
_cell_length_b 21.452075
_cell_length_c 6.477202
_cell_angle_alpha 90.000000
_cell_angle_beta 56.795806
_cell_angle_gamma 90.000000
_cell_volume 1444.749543
_symmetry_space_group_name_H-M "P 21/M"
_symmetry_group_IT_number 11
_symmetry_cell_setting 'monoclinic'
loop_
_space_group_symop_operation_xyz
x,y,z
-x,1/2+y,-z
-x,-y,-z
x,1/2-y,z
loop_
_atom_site_type_symbol
_atom_site_label
_atom_site_fract_x
_atom_site_fract_y
_atom_site_fract_z
Si Si1 0.975375 0.406964 0.443700
Si Si2 0.587306 0.002199 0.206142
Si Si3 0.483381 0.602814 0.024432
Si Si4 0.131347 0.982975 0.096477
Si Si5 0.097680 0.179882 0.642203
Si Si6 0.879718 0.134102 0.143286
Si Si7 0.620301 0.822217 0.558401
Si Si8 0.395592 0.823862 0.489196
O O1 0.042829 0.457739 0.227026
O O2 0.077343 0.369068 0.477039
O O3 0.867564 0.441242 0.695286
O O4 0.904000 0.359737 0.363336
O O5 0.552419 0.949152 0.084319
O O6 0.500000 0.000000 0.500000
O O7 0.587982 0.069304 0.091670
O O8 0.732588 0.990330 0.119939
O O9 0.391541 0.643551 0.268678
O O10 0.588438 0.647897 0.812832
O O11 0.086282 0.936821 0.961505
O O12 0.111071 0.250000 0.537591
O O13 0.227866 0.163081 0.635775
O O14 0.976096 0.180010 0.923134
O O15 0.731628 0.153503 0.252747
O O16 0.592159 0.750000 0.610417
O O17 0.526031 0.846206 0.472631
O O18 0.391579 0.750000 0.464041
#
# Coordination Sequence:
#
# PCOD8076525 Si02
#       8
#     4   4   4   4   4   4   4   4
#     4  10  22  39  63  89 120 164 206 253 310 371
#     4  11  23  37  59  88 124 163 202 255 310 367
#     4  11  22  38  60  89 122 162 209 253 307 372
#     4  10  21  39  59  89 124 159 205 251 306 370
#     4  10  23  41  61  89 122 160 210 262 312 370
#     4  11  22  39  64  93 126 162 204 256 313 371
#     4  10  22  41  63  88 122 162 207 258 309 368
#     4  11  24  42  65  93 127 168 210 255 311 372
#
# _framework density 22.149168
#
# number of rings (size 3 to 8) (size 9 to 14) (size 15 to 20)
#    0.000    1.500    0.000    4.875    0.000    6.000 
#    0.000    2.500    0.000    0.000    0.000    0.000 
#    0.000    0.000    0.000    0.000    0.000    0.000 
#
# Total GULP energy -396625.869988 kJ/mol
# GULP energy per Si atom -12394.558437 kJ/mol
# Density = 2.209876 g / cm^3
# Si number density = 22.149168 Si / 1000 Ang^3
#
#
#
# Elastic Constant Matrix: (Units=GPa)
#
#
# Indices 1 2 3 4 5 6 
#
# 1 117.6933 33.9568 57.6268 0.0000 -10.5160 0.0000
# 2 33.9568 83.8737 36.9813 0.0000 3.8781 0.0000
# 3 57.6268 36.9813 123.1735 0.0000 -11.8241 0.0000
# 4 0.0000 0.0000 0.0000 39.5378 0.0000 4.2401
# 5 -10.5160 3.8781 -11.8241 0.0000 40.3922 0.0000
# 6 0.0000 0.0000 0.0000 4.2401 0.0000 9.7861
#
#
#
# Elastic Compliance Matrix: (Units=1/GPa)
#
#
# Indices 1 2 3 4 5 6 
#
# 1 0.011660 -0.002875 -0.004398 0.000000 0.002024 0.000000
# 2 -0.002875 0.014722 -0.003377 0.000000 -0.003151 0.000000
# 3 -0.004398 -0.003377 0.011433 0.000000 0.002526 0.000000
# 4 0.000000 0.000000 0.000000 0.026525 0.000000 -0.011493
# 5 0.002024 -0.003151 0.002526 0.000000 0.026326 0.000000
# 6 0.000000 0.000000 0.000000 -0.011493 0.000000 0.107165
#
#
# Mechanical properties :
#
#
# Convention : Reuss Voigt Hill
#
# Bulk Modulus (GPa) = 60.55466 64.65227 62.60347
# Shear Modulus (GPa) = 22.25827 31.02159 26.63993
#
# Velocity S-wave (km/s) = 3.17350 3.74649 3.47183
# Velocity P-wave (km/s) = 6.38960 6.92587 6.66313
#
# Compressibility (1/GPa) = 0.01651400
#
# Stress axis : x y z
#
# Youngs Moduli (GPa) = 85.76017 67.92780 87.46968
#
# Poissons Ratio (x) = 0.19532 0.38467
# Poissons Ratio (y) = 0.24659 0.29540
# Poissons Ratio (z) = 0.37715 0.22940
#
# Static dielectric constant tensor:
#      x y z
#    x 3.992390 0.000000 0.049050 
#    y 0.000000 4.017240 0.000000 
#    z 0.049050 0.000000 4.012270 
# 
# 
# High freq. dielectric constant tensor:
#      x y z
#    x 1.865730 0.000000 -0.002590 
#    y 0.000000 1.879250 0.000000 
#    z -0.002590 0.000000 1.872200 
# 
# From -- ./inp_files/5471.got.cif
#   From: 2010.06.25/outbox.cif.g09.slc.cpg/sg11_3_cif.got.tgz:5471.got - 2010.06.27 23:14:04.
