data_PCOD8076175
_publ_section_title
;
Structure prediction by ZEFSAII (Michael W. Deem and Ramdas Pophale) SiO2 
 PCOD8076175
Probable space group: P 21/M
;
_chemical_formula_sum "Si O2"
_cell_formula_units_Z 28
_cell_length_a 9.476029
_cell_length_b 13.527485
_cell_length_c 22.251660
_cell_angle_alpha 90.000000
_cell_angle_beta 152.818235
_cell_angle_gamma 90.000000
_cell_volume 1303.004931
_symmetry_space_group_name_H-M "P 21/M"
_symmetry_group_IT_number 11
_symmetry_cell_setting 'monoclinic'
loop_
_space_group_symop_operation_xyz
x,y,z
-x,1/2+y,-z
-x,-y,-z
x,1/2-y,z
loop_
_atom_site_type_symbol
_atom_site_label
_atom_site_fract_x
_atom_site_fract_y
_atom_site_fract_z
Si Si1 0.792073 0.135260 0.186887
Si Si2 0.511700 0.549933 0.340317
Si Si3 0.783005 0.979964 0.563900
Si Si4 0.835572 0.865168 0.792377
Si Si5 0.144780 0.635053 0.029787
Si Si6 0.794419 0.635119 0.328977
Si Si7 0.901049 0.632714 0.061460
O O1 0.802439 0.250000 0.207026
O O2 0.948674 0.080104 0.301741
O O3 0.964674 0.112163 0.190679
O O4 0.437518 0.100077 0.044979
O O5 0.668613 0.582344 0.462516
O O6 0.478443 0.429644 0.328088
O O7 0.727044 0.585175 0.367737
O O8 0.164562 0.593743 0.206408
O O9 0.500000 0.000000 0.500000
O O10 0.912024 0.085596 0.590942
O O11 0.746494 0.750000 0.763692
O O12 0.033358 0.907928 0.923747
O O13 0.067211 0.750000 0.998285
O O14 0.507774 0.617709 0.175751
O O15 0.956583 0.588705 0.015050
O O16 0.863905 0.750000 0.365450
O O17 0.941619 0.750000 0.075343
#
# Coordination Sequence:
#
# PCOD8076175 Si02
#       7
#     4   4   4   4   4   4   4
#     4  10  23  42  63  92 133 174 216 267 325 386
#     4  11  23  41  68  97 129 170 218 270 324 391
#     4  12  26  44  63  97 131 174 226 265 320 393
#     4  10  21  37  60  93 132 169 210 263 323 382
#     4   8  17  36  62  93 122 160 213 263 323 382
#     4  10  24  45  68  94 131 171 214 273 329 387
#     4   9  20  39  65  96 127 164 215 274 326 383
#
# _framework density 21.488790999999999
#
# number of rings (size 3 to 8) (size 9 to 14) (size 15 to 20)
#    0.000    2.000    1.429    1.714    4.000    5.143 
#    0.000    1.429    0.000    0.000    0.000    0.000 
#    0.000    0.000    0.000    0.000    0.000    0.000 
#
# Total GULP energy -347224.357433 kJ/mol
# GULP energy per Si atom -12400.869908 kJ/mol
# Density = 2.143988 g / cm^3
# Si number density = 21.488791 Si / 1000 Ang^3
#
#
#
# Elastic Constant Matrix: (Units=GPa)
#
#
# Indices 1 2 3 4 5 6 
#
# 1 126.1861 64.9025 56.2184 0.0000 1.9710 0.0000
# 2 64.9025 78.4810 43.1157 0.0000 5.1124 0.0000
# 3 56.2184 43.1157 87.1355 0.0000 -12.8132 0.0000
# 4 0.0000 0.0000 0.0000 30.9802 0.0000 5.0410
# 5 1.9710 5.1124 -12.8132 0.0000 45.1830 0.0000
# 6 0.0000 0.0000 0.0000 5.0410 0.0000 32.0872
#
#
#
# Elastic Compliance Matrix: (Units=1/GPa)
#
#
# Indices 1 2 3 4 5 6 
#
# 1 0.015231 -0.009675 -0.005193 0.000000 -0.001042 0.000000
# 2 -0.009675 0.024624 -0.006564 0.000000 -0.004225 0.000000
# 3 -0.005193 -0.006564 0.019009 0.000000 0.006360 0.000000
# 4 0.000000 0.000000 0.000000 0.033125 0.000000 -0.005204
# 5 -0.001042 -0.004225 0.006360 0.000000 0.024459 0.000000
# 6 0.000000 0.000000 0.000000 -0.005204 0.000000 0.031983
#
#
# Mechanical properties :
#
#
# Convention : Reuss Voigt Hill
#
# Bulk Modulus (GPa) = 62.49159 68.91954 65.70556
# Shear Modulus (GPa) = 25.42875 30.15447 27.79161
#
# Velocity S-wave (km/s) = 3.44372 3.75008 3.60016
# Velocity P-wave (km/s) = 6.70495 7.13392 6.92276
#
# Compressibility (1/GPa) = 0.01600215
#
# Stress axis : x y z
#
# Youngs Moduli (GPa) = 65.65701 40.61066 52.60536
#
# Poissons Ratio (x) = 0.39291 0.27316
# Poissons Ratio (y) = 0.63523 0.34528
# Poissons Ratio (z) = 0.34093 0.26655
#
# Static dielectric constant tensor:
#      x y z
#    x 3.906330 0.000000 -0.165820 
#    y 0.000000 3.903240 0.000000 
#    z -0.165820 0.000000 4.000270 
# 
# 
# High freq. dielectric constant tensor:
#      x y z
#    x 1.840650 0.000000 -0.006510 
#    y 0.000000 1.847890 0.000000 
#    z -0.006510 0.000000 1.849790 
# 
# From -- ./inp_files/26912.got.cif
#   From: 2010.06.25/outbox.cif.g09.slc.cpg/sg11_14_cif.got.tgz:26912.got - 2010.06.27 23:14:04.
