data_PCOD8076254
_publ_section_title
;
Structure prediction by ZEFSAII (Michael W. Deem and Ramdas Pophale) SiO2 
 PCOD8076254
Probable space group: P 21/M
;
_chemical_formula_sum "Si O2"
_cell_formula_units_Z 32
_cell_length_a 11.068975
_cell_length_b 12.764417
_cell_length_c 12.967515
_cell_angle_alpha 90.000000
_cell_angle_beta 62.400673
_cell_angle_gamma 90.000000
_cell_volume 1623.683270
_symmetry_space_group_name_H-M "P 21/M"
_symmetry_group_IT_number 11
_symmetry_cell_setting 'monoclinic'
loop_
_space_group_symop_operation_xyz
x,y,z
-x,1/2+y,-z
-x,-y,-z
x,1/2-y,z
loop_
_atom_site_type_symbol
_atom_site_label
_atom_site_fract_x
_atom_site_fract_y
_atom_site_fract_z
Si Si1 0.608015 0.987919 0.601792
Si Si2 0.381676 0.367149 0.032292
Si Si3 0.069100 0.953964 0.313402
Si Si4 0.643138 0.373973 0.389491
Si Si5 0.097124 0.524822 0.813186
Si Si6 0.124960 0.369355 0.446622
Si Si7 0.143191 0.127493 0.974362
Si Si8 0.371951 0.554758 0.182313
O O1 0.479344 0.913945 0.633260
O O2 0.740213 0.914963 0.554235
O O3 0.630378 0.074980 0.506436
O O4 0.584349 0.051414 0.716149
O O5 0.349679 0.250000 0.081817
O O6 0.264601 0.408472 0.001871
O O7 0.527584 0.367985 0.917539
O O8 0.385016 0.437247 0.132592
O O9 0.217193 0.904483 0.230531
O O10 0.995706 0.876642 0.422252
O O11 0.086521 0.068659 0.357908
O O12 0.985358 0.963639 0.241949
O O13 0.634800 0.250000 0.405262
O O14 0.785234 0.404701 0.281580
O O15 0.161184 0.436227 0.861454
O O16 0.000791 0.602378 0.915658
O O17 0.146866 0.250000 0.405296
O O18 0.152330 0.250000 0.944693
#
# Coordination Sequence:
#
# PCOD8076254 Si02
#       8
#     4   4   4   4   4   4   4   4
#     4  10  22  41  59  89 121 153 200 243 293 354
#     4  10  21  38  61  87 111 152 200 238 290 348
#     4  10  21  38  57  90 118 155 193 239 293 349
#     4  11  23  39  62  88 120 159 197 244 296 349
#     4  11  21  40  60  87 124 152 198 249 287 358
#     4  10  21  38  60  86 120 157 194 238 293 353
#     4  10  22  39  62  86 116 159 200 245 299 350
#     4  10  21  39  61  83 121 152 185 249 291 337
#
# _framework density 19.708276999999999
#
# number of rings (size 3 to 8) (size 9 to 14) (size 15 to 20)
#    0.000    1.750    2.500    1.500    0.000    5.000 
#    0.000    1.875    0.000    0.000    0.000    0.000 
#    0.000    0.000    0.000    0.000    0.000    0.000 
#
# Total GULP energy -396945.477084 kJ/mol
# GULP energy per Si atom -12404.546159 kJ/mol
# Density = 1.966342 g / cm^3
# Si number density = 19.708277 Si / 1000 Ang^3
#
#
#
# Elastic Constant Matrix: (Units=GPa)
#
#
# Indices 1 2 3 4 5 6 
#
# 1 92.5288 15.9446 26.5599 0.0000 -2.9452 0.0000
# 2 15.9446 62.3008 -1.2334 0.0000 10.9835 0.0000
# 3 26.5599 -1.2334 65.9125 0.0000 -0.4116 0.0000
# 4 0.0000 0.0000 0.0000 9.4739 0.0000 0.5563
# 5 -2.9452 10.9835 -0.4116 0.0000 35.1852 0.0000
# 6 0.0000 0.0000 0.0000 0.5563 0.0000 21.0797
#
#
#
# Elastic Compliance Matrix: (Units=1/GPa)
#
#
# Indices 1 2 3 4 5 6 
#
# 1 0.013069 -0.003844 -0.005324 0.000000 0.002232 0.000000
# 2 -0.003844 0.018122 0.001851 0.000000 -0.005957 0.000000
# 3 -0.005324 0.001851 0.017347 0.000000 -0.000820 0.000000
# 4 0.000000 0.000000 0.000000 0.105717 0.000000 -0.002790
# 5 0.002232 -0.005957 -0.000820 0.000000 0.030458 0.000000
# 6 0.000000 0.000000 0.000000 -0.002790 0.000000 0.047513
#
#
# Mechanical properties :
#
#
# Convention : Reuss Voigt Hill
#
# Bulk Modulus (GPa) = 29.49586 33.69827 31.59707
# Shear Modulus (GPa) = 19.36782 25.11249 22.24016
#
# Velocity S-wave (km/s) = 3.13825 3.57348 3.36291
# Velocity P-wave (km/s) = 5.30379 5.84483 5.58087
#
# Compressibility (1/GPa) = 0.03390307
#
# Stress axis : x y z
#
# Youngs Moduli (GPa) = 76.51629 55.18249 57.64823
#
# Poissons Ratio (x) = 0.21210 0.30694
# Poissons Ratio (y) = 0.29410 -0.10669
# Poissons Ratio (z) = 0.40739 -0.10213
#
# Static dielectric constant tensor:
#      x y z
#    x 3.821030 0.000000 -0.094160 
#    y 0.000000 3.294550 0.000000 
#    z -0.094160 0.000000 3.660020 
# 
# 
# High freq. dielectric constant tensor:
#      x y z
#    x 1.783100 0.000000 -0.006150 
#    y 0.000000 1.752450 0.000000 
#    z -0.006150 0.000000 1.779750 
# 
# From -- ./inp_files/35039.got.cif
#   From: 2010.06.25/outbox.cif.g09.slc.cpg/sg11_18_cif.got.tgz:35039.got - 2010.06.27 23:14:04.
