data_PCOD8076480
_publ_section_title
;
Structure prediction by ZEFSAII (Michael W. Deem and Ramdas Pophale) SiO2 
 PCOD8076480
Probable space group: P 21/M
;
_chemical_formula_sum "Si O2"
_cell_formula_units_Z 32
_cell_length_a 27.070185
_cell_length_b 9.108169
_cell_length_c 21.221823
_cell_angle_alpha 90.000000
_cell_angle_beta 161.580777
_cell_angle_gamma 90.000000
_cell_volume 1653.283111
_symmetry_space_group_name_H-M "P 21/M"
_symmetry_group_IT_number 11
_symmetry_cell_setting 'monoclinic'
loop_
_space_group_symop_operation_xyz
x,y,z
-x,1/2+y,-z
-x,-y,-z
x,1/2-y,z
loop_
_atom_site_type_symbol
_atom_site_label
_atom_site_fract_x
_atom_site_fract_y
_atom_site_fract_z
Si Si1 0.903854 0.079982 0.469512
Si Si2 0.403113 0.076673 0.327504
Si Si3 0.178519 0.581512 0.489192
Si Si4 0.537298 0.924086 0.233460
Si Si5 0.090941 0.414260 0.162641
Si Si6 0.553014 0.915430 0.396917
Si Si7 0.955362 0.582383 0.109279
Si Si8 0.235293 0.079318 0.814145
O O1 0.863372 0.250000 0.407497
O O2 0.860469 0.031575 0.487379
O O3 0.087694 0.051908 0.681089
O O4 0.801344 0.978855 0.299948
O O5 0.427389 0.250000 0.362506
O O6 0.500000 0.000000 0.500000
O O7 0.454641 0.025099 0.320804
O O8 0.222505 0.030609 0.114088
O O9 0.234728 0.750000 0.554965
O O10 0.315973 0.482738 0.628038
O O11 0.017170 0.561675 0.255146
O O12 0.535305 0.750000 0.224347
O O13 0.550501 0.972508 0.322230
O O14 0.378806 0.989490 0.014903
O O15 0.025185 0.250000 0.085073
O O16 0.272216 0.416607 0.364651
O O17 0.067228 0.484900 0.201866
O O18 0.000000 0.500000 0.000000
O O19 0.484617 0.750000 0.318653
O O20 0.971260 0.750000 0.106270
O O21 0.279512 0.250000 0.863327
#
# Coordination Sequence:
#
# PCOD8076480 Si02
#       8
#     4   4   4   4   4   4   4   4
#     4   9  20  39  63  90 122 156 195 243 291 344
#     4  11  24  40  61  87 118 154 196 244 297 354
#     4  10  21  39  62  87 117 154 197 243 293 348
#     4  11  23  40  60  87 122 158 196 243 293 346
#     4  11  22  38  60  85 115 152 196 241 291 346
#     4  10  23  41  58  83 119 154 194 243 292 347
#     4  10  22  39  59  86 117 151 193 243 295 348
#     4  10  21  38  63  92 122 157 198 240 288 349
#
# _framework density 19.355426999999999
#
# number of rings (size 3 to 8) (size 9 to 14) (size 15 to 20)
#    0.000    1.750    1.250    2.250    1.750    7.500 
#    0.000    0.000    0.000    0.000    0.000    0.000 
#    0.000    0.000    0.000    0.000    0.000    0.000 
#
# Total GULP energy -396914.444321 kJ/mol
# GULP energy per Si atom -12403.576385 kJ/mol
# Density = 1.931137 g / cm^3
# Si number density = 19.355427 Si / 1000 Ang^3
#
#
#
# Elastic Constant Matrix: (Units=GPa)
#
#
# Indices 1 2 3 4 5 6 
#
# 1 121.8773 50.8530 36.8539 0.0000 -7.7168 0.0000
# 2 50.8530 88.7566 44.7810 0.0000 0.1905 0.0000
# 3 36.8539 44.7810 105.9307 0.0000 -6.1790 0.0000
# 4 0.0000 0.0000 0.0000 28.4696 0.0000 -1.8387
# 5 -7.7168 0.1905 -6.1790 0.0000 26.6667 0.0000
# 6 0.0000 0.0000 0.0000 -1.8387 0.0000 36.5478
#
#
#
# Elastic Compliance Matrix: (Units=1/GPa)
#
#
# Indices 1 2 3 4 5 6 
#
# 1 0.011189 -0.005772 -0.001279 0.000000 0.002983 0.000000
# 2 -0.005772 0.017360 -0.005510 0.000000 -0.003071 0.000000
# 3 -0.001279 -0.005510 0.012362 0.000000 0.002534 0.000000
# 4 0.000000 0.000000 0.000000 0.035240 0.000000 0.001773
# 5 0.002983 -0.003071 0.002534 0.000000 0.038972 0.000000
# 6 0.000000 0.000000 0.000000 0.001773 0.000000 0.027451
#
#
# Mechanical properties :
#
#
# Convention : Reuss Voigt Hill
#
# Bulk Modulus (GPa) = 63.33044 64.61561 63.97302
# Shear Modulus (GPa) = 28.90877 30.60861 29.75869
#
# Velocity S-wave (km/s) = 3.86887 3.98099 3.92533
# Velocity P-wave (km/s) = 7.26280 7.38832 7.32583
#
# Compressibility (1/GPa) = 0.01579020
#
# Stress axis : x y z
#
# Youngs Moduli (GPa) = 89.37527 57.60259 80.89278
#
# Poissons Ratio (x) = 0.33248 0.10343
# Poissons Ratio (y) = 0.51586 0.44571
# Poissons Ratio (z) = 0.11428 0.31739
#
# Static dielectric constant tensor:
#      x y z
#    x 3.773780 0.000000 -0.064260 
#    y 0.000000 3.645470 0.000000 
#    z -0.064260 0.000000 3.570810 
# 
# 
# High freq. dielectric constant tensor:
#      x y z
#    x 1.759160 0.000000 -0.005390 
#    y 0.000000 1.758680 0.000000 
#    z -0.005390 0.000000 1.760280 
# 
# From -- ./inp_files/67212.got.cif
#   From: 2010.06.25/outbox.cif.g09.slc.cpg/sg11_34_cif.got.tgz:67212.got - 2010.06.27 23:14:04.
