data_PCOD8076478
_publ_section_title
;
Structure prediction by ZEFSAII (Michael W. Deem and Ramdas Pophale) SiO2 
 PCOD8076478
Probable space group: P 21/M
;
_chemical_formula_sum "Si O2"
_cell_formula_units_Z 28
_cell_length_a 15.175649
_cell_length_b 9.048037
_cell_length_c 11.730493
_cell_angle_alpha 90.000000
_cell_angle_beta 118.565140
_cell_angle_gamma 90.000000
_cell_volume 1414.646604
_symmetry_space_group_name_H-M "P 21/M"
_symmetry_group_IT_number 11
_symmetry_cell_setting 'monoclinic'
loop_
_space_group_symop_operation_xyz
x,y,z
-x,1/2+y,-z
-x,-y,-z
x,1/2-y,z
loop_
_atom_site_type_symbol
_atom_site_label
_atom_site_fract_x
_atom_site_fract_y
_atom_site_fract_z
Si Si1 0.103694 0.581357 0.575814
Si Si2 0.213478 0.921830 0.868676
Si Si3 0.344863 0.080471 0.432941
Si Si4 0.499246 0.581441 0.668918
Si Si5 0.422948 0.076010 0.036352
Si Si6 0.147915 0.579958 0.349227
Si Si7 0.980329 0.077416 0.108094
O O1 0.077507 0.750000 0.587206
O O2 0.169338 0.518755 0.720974
O O3 0.163658 0.563753 0.494737
O O4 0.000000 0.500000 0.500000
O O5 0.243306 0.750000 0.877241
O O6 0.133985 0.947142 0.921654
O O7 0.311143 0.016403 0.954204
O O8 0.316666 0.250000 0.437490
O O9 0.409803 0.056782 0.360893
O O10 0.405155 0.021073 0.579728
O O11 0.244725 0.987961 0.348499
O O12 0.461187 0.750000 0.642402
O O13 0.539124 0.533989 0.815464
O O14 0.422245 0.250000 0.014181
O O15 0.500000 0.000000 0.000000
O O16 0.136048 0.750000 0.304863
O O17 0.050156 0.492012 0.248576
O O18 0.005223 0.250000 0.111322
O O19 0.000000 0.000000 0.000000
#
# Coordination Sequence:
#
# PCOD8076478 Si02
#       7
#     4   4   4   4   4   4   4
#     4  10  21  39  62  87 120 157 198 248 298 353
#     4  10  23  43  64  90 123 163 205 253 309 364
#     4  10  21  38  63  92 119 155 200 251 305 363
#     4   9  21  42  62  85 119 157 199 251 307 362
#     4  11  25  43  64  90 122 162 207 255 308 366
#     4  11  23  38  61  93 125 161 201 249 307 363
#     4  11  24  42  64  92 128 166 208 255 305 368
#
# _framework density 19.792929000000001
#
# number of rings (size 3 to 8) (size 9 to 14) (size 15 to 20)
#    0.000    1.714    1.429    1.714    4.000    4.000 
#    0.000    0.000    0.000    0.000    0.000    0.000 
#    0.000    0.000    0.000    0.000    0.000    0.000 
#
# Total GULP energy -347312.012103 kJ/mol
# GULP energy per Si atom -12404.000432 kJ/mol
# Density = 1.974788 g / cm^3
# Si number density = 19.792929 Si / 1000 Ang^3
#
#
#
# Elastic Constant Matrix: (Units=GPa)
#
#
# Indices 1 2 3 4 5 6 
#
# 1 98.2209 61.1979 57.3894 0.0000 12.1988 0.0000
# 2 61.1979 112.7622 60.2274 0.0000 6.3222 0.0000
# 3 57.3894 60.2274 123.7758 0.0000 -6.7388 0.0000
# 4 0.0000 0.0000 0.0000 37.5150 0.0000 5.8735
# 5 12.1988 6.3222 -6.7388 0.0000 30.1269 0.0000
# 6 0.0000 0.0000 0.0000 5.8735 0.0000 37.0033
#
#
#
# Elastic Compliance Matrix: (Units=1/GPa)
#
#
# Indices 1 2 3 4 5 6 
#
# 1 0.018610 -0.006561 -0.005843 0.000000 -0.007466 0.000000
# 2 -0.006561 0.014757 -0.004214 0.000000 -0.001383 0.000000
# 3 -0.005843 -0.004214 0.013176 0.000000 0.006197 0.000000
# 4 0.000000 0.000000 0.000000 0.027335 0.000000 -0.004339
# 5 -0.007466 -0.001383 0.006197 0.000000 0.037892 0.000000
# 6 0.000000 0.000000 0.000000 -0.004339 0.000000 0.027713
#
#
# Mechanical properties :
#
#
# Convention : Reuss Voigt Hill
#
# Bulk Modulus (GPa) = 75.14136 76.93202 76.03669
# Shear Modulus (GPa) = 28.22393 31.32532 29.77462
#
# Velocity S-wave (km/s) = 3.78029 3.98257 3.88275
# Velocity P-wave (km/s) = 7.55647 7.75246 7.65509
#
# Compressibility (1/GPa) = 0.01330825
#
# Stress axis : x y z
#
# Youngs Moduli (GPa) = 53.73477 67.76418 75.89570
#
# Poissons Ratio (x) = 0.44458 0.44344
# Poissons Ratio (y) = 0.35254 0.31982
# Poissons Ratio (z) = 0.31396 0.28555
#
# Static dielectric constant tensor:
#      x y z
#    x 3.773730 0.000000 -0.149870 
#    y 0.000000 3.702670 0.000000 
#    z -0.149870 0.000000 3.800020 
# 
# 
# High freq. dielectric constant tensor:
#      x y z
#    x 1.778220 0.000000 -0.002330 
#    y 0.000000 1.777430 0.000000 
#    z -0.002330 0.000000 1.779200 
# 
# From -- ./inp_files/38429.got.cif
#   From: 2010.06.25/outbox.cif.g09.slc.cpg/sg11_20_cif.got.tgz:38429.got - 2010.06.27 23:14:04.
