data_PCOD8076721
_publ_section_title
;
Structure prediction by ZEFSAII (Michael W. Deem and Ramdas Pophale) SiO2 
 PCOD8076721
Probable space group: P 21/M
;
_chemical_formula_sum "Si O2"
_cell_formula_units_Z 20
_cell_length_a 9.370623
_cell_length_b 11.322109
_cell_length_c 13.520006
_cell_angle_alpha 90.000000
_cell_angle_beta 44.364107
_cell_angle_gamma 90.000000
_cell_volume 1002.960441
_symmetry_space_group_name_H-M "P 21/M"
_symmetry_group_IT_number 11
_symmetry_cell_setting 'monoclinic'
loop_
_space_group_symop_operation_xyz
x,y,z
-x,1/2+y,-z
-x,-y,-z
x,1/2-y,z
loop_
_atom_site_type_symbol
_atom_site_label
_atom_site_fract_x
_atom_site_fract_y
_atom_site_fract_z
Si Si1 0.008756 0.877495 0.557704
Si Si2 0.753316 0.618138 0.383220
Si Si3 0.179558 0.493214 0.176985
Si Si4 0.439588 0.943845 0.378727
Si Si5 0.472004 0.111848 0.880625
O O1 0.956816 0.750000 0.529976
O O2 0.239508 0.861618 0.481851
O O3 0.000000 0.000000 0.500000
O O4 0.852334 0.890326 0.725933
O O5 0.811206 0.750000 0.383139
O O6 0.621733 0.568360 0.540509
O O7 0.622317 0.616125 0.348011
O O8 0.962331 0.549522 0.259573
O O9 0.334008 0.590952 0.144259
O O10 0.267483 0.434243 0.034620
O O11 0.506908 0.961619 0.231623
O O12 0.455176 0.250000 0.864531
#
# Coordination Sequence:
#
# PCOD8076721 Si02
#       5
#     4   4   4   4   4
#     4  11  21  36  59  88 117 155 198 245 295 352
#     4  10  21  40  61  86 121 155 196 251 297 352
#     4  10  23  37  57  89 117 154 200 244 291 358
#     4  10  22  38  61  89 116 156 201 239 301 362
#     4  11  21  39  59  83 120 158 196 246 298 352
#
# _framework density 19.940966
#
# number of rings (size 3 to 8) (size 9 to 14) (size 15 to 20)
#    0.000    1.600    2.000    3.000    0.000    4.000 
#    0.000    3.000    0.000    0.000    0.000    0.000 
#    0.000    0.000    0.000    0.000    0.000    0.000 
#
# Total GULP energy -247854.117917 kJ/mol
# GULP energy per Si atom -12392.705896 kJ/mol
# Density = 1.989558 g / cm^3
# Si number density = 19.940966 Si / 1000 Ang^3
#
#
#
# Elastic Constant Matrix: (Units=GPa)
#
#
# Indices 1 2 3 4 5 6 
#
# 1 92.2770 33.5066 38.4067 0.0000 -5.6904 0.0000
# 2 33.5066 125.8935 38.2492 0.0000 -7.4813 0.0000
# 3 38.4067 38.2492 163.1749 0.0000 3.8552 0.0000
# 4 0.0000 0.0000 0.0000 14.5984 0.0000 2.3369
# 5 -5.6904 -7.4813 3.8552 0.0000 29.6795 0.0000
# 6 0.0000 0.0000 0.0000 2.3369 0.0000 14.2365
#
#
#
# Elastic Compliance Matrix: (Units=1/GPa)
#
#
# Indices 1 2 3 4 5 6 
#
# 1 0.012938 -0.002556 -0.002497 0.000000 0.002160 0.000000
# 2 -0.002556 0.009235 -0.001611 0.000000 0.002047 0.000000
# 3 -0.002497 -0.001611 0.007137 0.000000 -0.001812 0.000000
# 4 0.000000 0.000000 0.000000 0.070349 0.000000 -0.011548
# 5 0.002160 0.002047 -0.001812 0.000000 0.034859 0.000000
# 6 0.000000 0.000000 0.000000 -0.011548 0.000000 0.072138
#
#
# Mechanical properties :
#
#
# Convention : Reuss Voigt Hill
#
# Bulk Modulus (GPa) = 62.57926 66.85227 64.71577
# Shear Modulus (GPa) = 22.19159 29.78174 25.98666
#
# Velocity S-wave (km/s) = 3.33958 3.86877 3.61387
# Velocity P-wave (km/s) = 6.80594 7.31809 7.06665
#
# Compressibility (1/GPa) = 0.01597973
#
# Stress axis : x y z
#
# Youngs Moduli (GPa) = 77.29367 108.28597 140.12204
#
# Poissons Ratio (x) = 0.27682 0.34988
# Poissons Ratio (y) = 0.19759 0.22579
# Poissons Ratio (z) = 0.19300 0.17449
#
# Static dielectric constant tensor:
#      x y z
#    x 3.675960 0.000000 -0.084390 
#    y 0.000000 3.662060 0.000000 
#    z -0.084390 0.000000 3.768020 
# 
# 
# High freq. dielectric constant tensor:
#      x y z
#    x 1.773230 0.000000 -0.006120 
#    y 0.000000 1.775840 0.000000 
#    z -0.006120 0.000000 1.781070 
# 
# From -- ./inp_files/31063.got.cif
#   From: 2010.06.25/outbox.cif.g09.slc.cpg/sg11_16_cif.got.tgz:31063.got - 2010.06.27 23:14:04.
