data_PCOD8076757
_publ_section_title
;
Structure prediction by ZEFSAII (Michael W. Deem and Ramdas Pophale) SiO2 
 PCOD8076757
Probable space group: P 21/M
;
_chemical_formula_sum "Si O2"
_cell_formula_units_Z 32
_cell_length_a 15.328588
_cell_length_b 8.576180
_cell_length_c 14.396663
_cell_angle_alpha 90.000000
_cell_angle_beta 55.366960
_cell_angle_gamma 90.000000
_cell_volume 1557.244463
_symmetry_space_group_name_H-M "P 21/M"
_symmetry_group_IT_number 11
_symmetry_cell_setting 'monoclinic'
loop_
_space_group_symop_operation_xyz
x,y,z
-x,1/2+y,-z
-x,-y,-z
x,1/2-y,z
loop_
_atom_site_type_symbol
_atom_site_label
_atom_site_fract_x
_atom_site_fract_y
_atom_site_fract_z
Si Si1 0.042127 0.066592 0.250609
Si Si2 0.641021 0.065805 0.512632
Si Si3 0.849971 0.065210 0.489837
Si Si4 0.546156 0.066707 0.253949
Si Si5 0.710458 0.565935 0.282123
Si Si6 0.211031 0.933462 0.272836
Si Si7 0.543737 0.433898 0.878421
Si Si8 0.951758 0.933468 0.122185
O O1 0.031786 0.250000 0.243797
O O2 0.955178 0.000608 0.376291
O O3 0.157900 0.021641 0.218383
O O4 0.025340 0.987495 0.161944
O O5 0.624520 0.250000 0.535658
O O6 0.748325 0.003625 0.495479
O O7 0.545058 0.977686 0.618769
O O8 0.645705 0.021934 0.401944
O O9 0.848267 0.250000 0.489811
O O10 0.845108 0.005766 0.598744
O O11 0.564251 0.250000 0.242705
O O12 0.655154 0.982570 0.219021
O O13 0.520143 0.011356 0.166395
O O14 0.703538 0.750000 0.301916
O O15 0.831612 0.505841 0.208224
O O16 0.196436 0.750000 0.267636
O O17 0.333474 0.980070 0.204232
O O18 0.527758 0.250000 0.883241
O O19 0.500000 0.500000 0.000000
O O20 0.952496 0.750000 0.114905
O O21 0.000000 0.000000 0.000000
#
# Coordination Sequence:
#
# PCOD8076757 Si02
#       8
#     4   4   4   4   4   4   4   4
#     4  11  22  38  63  95 127 161 202 250 305 366
#     4  11  20  38  65  93 128 166 203 251 310 372
#     4   9  18  35  61  91 124 162 198 242 303 363
#     4  12  25  41  64  95 127 164 208 255 310 373
#     4  11  24  42  64  94 126 162 207 256 311 372
#     4  10  21  40  63  90 125 165 203 246 305 365
#     4  11  24  44  67  90 122 164 210 262 312 364
#     4  11  25  44  66  90 120 161 209 260 309 365
#
# _framework density 20.549118
#
# number of rings (size 3 to 8) (size 9 to 14) (size 15 to 20)
#    0.000    1.250    2.500    3.750    0.000    3.500 
#    0.000    0.625    0.000    0.000    0.000    0.000 
#    0.000    0.000    0.000    0.000    0.000    0.000 
#
# Total GULP energy -396976.679652 kJ/mol
# GULP energy per Si atom -12405.521239 kJ/mol
# Density = 2.050235 g / cm^3
# Si number density = 20.549118 Si / 1000 Ang^3
#
#
#
# Elastic Constant Matrix: (Units=GPa)
#
#
# Indices 1 2 3 4 5 6 
#
# 1 116.4407 19.0944 23.5162 0.0000 28.3458 0.0000
# 2 19.0944 51.3800 20.0299 0.0000 0.1958 0.0000
# 3 23.5162 20.0299 110.9427 0.0000 28.1707 0.0000
# 4 0.0000 0.0000 0.0000 33.5115 0.0000 3.9687
# 5 28.3458 0.1958 28.1707 0.0000 24.9326 0.0000
# 6 0.0000 0.0000 0.0000 3.9687 0.0000 32.0675
#
#
#
# Elastic Compliance Matrix: (Units=1/GPa)
#
#
# Indices 1 2 3 4 5 6 
#
# 1 0.013551 -0.006131 0.002993 0.000000 -0.018740 0.000000
# 2 -0.006131 0.024317 -0.006748 0.000000 0.014404 0.000000
# 3 0.002993 -0.006748 0.014652 0.000000 -0.019904 0.000000
# 4 0.000000 0.000000 0.000000 0.030284 0.000000 -0.003748
# 5 -0.018740 0.014404 -0.019904 0.000000 0.083789 0.000000
# 6 0.000000 0.000000 0.000000 -0.003748 0.000000 0.031648
#
#
# Mechanical properties :
#
#
# Convention : Reuss Voigt Hill
#
# Bulk Modulus (GPa) = 30.53735 44.89381 37.71558
# Shear Modulus (GPa) = 21.84070 32.51052 27.17561
#
# Velocity S-wave (km/s) = 3.26368 3.98186 3.64052
# Velocity P-wave (km/s) = 5.39398 6.56009 6.00541
#
# Compressibility (1/GPa) = 0.03274678
#
# Stress axis : x y z
#
# Youngs Moduli (GPa) = 73.79578 41.12306 68.25130
#
# Poissons Ratio (x) = 0.25214 -0.20428
# Poissons Ratio (y) = 0.45246 0.46058
# Poissons Ratio (z) = -0.22087 0.27751
#
# Static dielectric constant tensor:
#      x y z
#    x 3.945710 0.000000 -0.044720 
#    y 0.000000 3.591010 0.000000 
#    z -0.044720 0.000000 3.828460 
# 
# 
# High freq. dielectric constant tensor:
#      x y z
#    x 1.821130 0.000000 0.006090 
#    y 0.000000 1.797820 0.000000 
#    z 0.006090 0.000000 1.802240 
# 
# From -- ./inp_files/51660.got.cif
#   From: 2010.06.25/outbox.cif.g09.slc.cpg/sg11_26_cif.got.tgz:51660.got - 2010.06.27 23:14:04.
