data_PCOD8076153
_publ_section_title
;
Structure prediction by ZEFSAII (Michael W. Deem and Ramdas Pophale) SiO2 
 PCOD8076153
Probable space group: P 21/M
;
_chemical_formula_sum "Si O2"
_cell_formula_units_Z 24
_cell_length_a 9.051103
_cell_length_b 8.625821
_cell_length_c 20.432414
_cell_angle_alpha 90.000000
_cell_angle_beta 131.838732
_cell_angle_gamma 90.000000
_cell_volume 1188.482036
_symmetry_space_group_name_H-M "P 21/M"
_symmetry_group_IT_number 11
_symmetry_cell_setting 'monoclinic'
loop_
_space_group_symop_operation_xyz
x,y,z
-x,1/2+y,-z
-x,-y,-z
x,1/2-y,z
loop_
_atom_site_type_symbol
_atom_site_label
_atom_site_fract_x
_atom_site_fract_y
_atom_site_fract_z
Si Si1 0.790907 0.067272 0.917975
Si Si2 0.529845 0.431242 0.080010
Si Si3 0.299277 0.930119 0.254980
Si Si4 0.981351 0.929284 0.599050
Si Si5 0.934265 0.571454 0.240509
Si Si6 0.702175 0.070514 0.415188
O O1 0.805864 0.250000 0.925484
O O2 0.736872 0.011274 0.829220
O O3 0.622761 0.010140 0.916541
O O4 0.000000 0.000000 0.000000
O O5 0.486590 0.250000 0.065299
O O6 0.750354 0.461379 0.170595
O O7 0.500000 0.500000 0.000000
O O8 0.359192 0.750000 0.274809
O O9 0.101327 0.963731 0.236685
O O10 0.473724 0.030089 0.338023
O O11 0.974362 0.750000 0.617226
O O12 0.177857 0.969197 0.615467
O O13 0.981279 0.034549 0.663145
O O14 0.786130 0.969671 0.499779
O O15 0.866237 0.750000 0.217314
O O16 0.726624 0.250000 0.440625
#
# Coordination Sequence:
#
# PCOD8076153 Si02
#       6
#     4   4   4   4   4   4
#     4  11  23  41  65  92 123 160 201 247 299 356
#     4  12  25  42  64  91 122 158 201 248 301 358
#     4  10  23  40  59  85 119 157 196 241 294 354
#     4  10  21  38  60  87 118 154 197 244 297 356
#     4  11  23  40  61  88 121 157 199 245 296 355
#     4  10  21  37  60  87 115 152 198 246 296 352
#
# _framework density 20.193828
#
# number of rings (size 3 to 8) (size 9 to 14) (size 15 to 20)
#    0.000    1.333    0.000    5.500    0.000    9.333 
#    0.000    0.000    0.000    0.000    0.000    0.000 
#    0.000    0.000    0.000    0.000    0.000    0.000 
#
# Total GULP energy -297786.308369 kJ/mol
# GULP energy per Si atom -12407.762849 kJ/mol
# Density = 2.014787 g / cm^3
# Si number density = 20.193828 Si / 1000 Ang^3
#
#
#
# Elastic Constant Matrix: (Units=GPa)
#
#
# Indices 1 2 3 4 5 6 
#
# 1 109.1554 16.1478 53.6841 0.0000 -7.3495 0.0000
# 2 16.1478 39.1879 22.0445 0.0000 0.7068 0.0000
# 3 53.6841 22.0445 114.8225 0.0000 -0.4116 0.0000
# 4 0.0000 0.0000 0.0000 39.7797 0.0000 3.1662
# 5 -7.3495 0.7068 -0.4116 0.0000 39.6824 0.0000
# 6 0.0000 0.0000 0.0000 3.1662 0.0000 33.4746
#
#
#
# Elastic Compliance Matrix: (Units=1/GPa)
#
#
# Indices 1 2 3 4 5 6 
#
# 1 0.012234 -0.002095 -0.005310 0.000000 0.002248 0.000000
# 2 -0.002095 0.028979 -0.004588 0.000000 -0.000952 0.000000
# 3 -0.005310 -0.004588 0.012070 0.000000 -0.000776 0.000000
# 4 0.000000 0.000000 0.000000 0.025329 0.000000 -0.002396
# 5 0.002248 -0.000952 -0.000776 0.000000 0.025625 0.000000
# 6 0.000000 0.000000 0.000000 -0.002396 0.000000 0.030100
#
#
# Mechanical properties :
#
#
# Convention : Reuss Voigt Hill
#
# Bulk Modulus (GPa) = 34.13151 49.65761 41.89456
# Shear Modulus (GPa) = 29.74647 34.00662 31.87655
#
# Velocity S-wave (km/s) = 3.84219 4.10812 3.97738
# Velocity P-wave (km/s) = 6.05160 6.86630 6.47179
#
# Compressibility (1/GPa) = 0.02929844
#
# Stress axis : x y z
#
# Youngs Moduli (GPa) = 81.74063 34.50758 82.85343
#
# Poissons Ratio (x) = 0.07229 0.43991
# Poissons Ratio (y) = 0.17123 0.38010
# Poissons Ratio (z) = 0.43401 0.15831
#
# Static dielectric constant tensor:
#      x y z
#    x 3.654860 0.000000 -0.042210 
#    y 0.000000 3.741620 0.000000 
#    z -0.042210 0.000000 3.732220 
# 
# 
# High freq. dielectric constant tensor:
#      x y z
#    x 1.796290 0.000000 -0.002250 
#    y 0.000000 1.797780 0.000000 
#    z -0.002250 0.000000 1.802570 
# 
# From -- ./inp_files/63286.got.cif
#   From: 2010.06.25/outbox.cif.g09.slc.cpg/sg11_32_cif.got.tgz:63286.got - 2010.06.27 23:14:04.
