data_PCOD8076082
_publ_section_title
;
Structure prediction by ZEFSAII (Michael W. Deem and Ramdas Pophale) SiO2 
 PCOD8076082
Probable space group: P 21/M
;
_chemical_formula_sum "Si O2"
_cell_formula_units_Z 24
_cell_length_a 14.653722
_cell_length_b 8.978602
_cell_length_c 10.142167
_cell_angle_alpha 90.000000
_cell_angle_beta 80.451795
_cell_angle_gamma 90.000000
_cell_volume 1315.917966
_symmetry_space_group_name_H-M "P 21/M"
_symmetry_group_IT_number 11
_symmetry_cell_setting 'monoclinic'
loop_
_space_group_symop_operation_xyz
x,y,z
-x,1/2+y,-z
-x,-y,-z
x,1/2-y,z
loop_
_atom_site_type_symbol
_atom_site_label
_atom_site_fract_x
_atom_site_fract_y
_atom_site_fract_z
Si Si1 0.072111 0.925546 0.884912
Si Si2 0.459665 0.074076 0.881364
Si Si3 0.452186 0.423620 0.388983
Si Si4 0.740015 0.579828 0.161942
Si Si5 0.069926 0.575490 0.582974
Si Si6 0.745576 0.582081 0.462654
O O1 0.065048 0.750000 0.902103
O O2 0.051185 0.975431 0.738859
O O3 0.175004 0.976012 0.901845
O O4 0.000000 0.000000 0.000000
O O5 0.475925 0.250000 0.877802
O O6 0.350476 0.036641 0.900039
O O7 0.515144 0.003901 0.748901
O O8 0.500000 0.000000 0.000000
O O9 0.500000 0.500000 0.500000
O O10 0.478891 0.250000 0.380493
O O11 0.341706 0.445605 0.422721
O O12 0.769595 0.750000 0.128731
O O13 0.713303 0.554141 0.320573
O O14 0.058823 0.750000 0.571251
O O15 0.173322 0.530049 0.515708
O O16 0.000000 0.500000 0.500000
O O17 0.783484 0.750000 0.469780
#
# Coordination Sequence:
#
# PCOD8076082 Si02
#       6
#     4   4   4   4   4   4
#     4  10  21  37  59  86 111 143 188 232 278 335
#     4  11  23  40  58  84 118 155 193 236 290 341
#     4  11  21  36  60  88 116 151 192 238 282 336
#     4   9  18  36  59  81 111 149 187 230 280 335
#     4  10  21  37  58  85 114 146 183 230 283 334
#     4   9  18  35  58  84 112 147 187 229 280 333
#
# _framework density 18.238218
#
# number of rings (size 3 to 8) (size 9 to 14) (size 15 to 20)
#    0.000    2.000    1.667    2.000    0.000    4.667 
#    3.000    0.000    0.000    0.000    0.000    0.000 
#    0.000    0.000    0.000    0.000    0.000    0.000 
#
# Total GULP energy -297640.797615 kJ/mol
# GULP energy per Si atom -12401.699901 kJ/mol
# Density = 1.819671 g / cm^3
# Si number density = 18.238218 Si / 1000 Ang^3
#
#
#
# Elastic Constant Matrix: (Units=GPa)
#
#
# Indices 1 2 3 4 5 6 
#
# 1 135.4547 73.9425 79.6754 0.0000 5.9199 0.0000
# 2 73.9425 105.3807 66.5598 0.0000 -0.0837 0.0000
# 3 79.6754 66.5598 122.5891 0.0000 -0.9722 0.0000
# 4 0.0000 0.0000 0.0000 35.0255 0.0000 -0.7152
# 5 5.9199 -0.0837 -0.9722 0.0000 35.0942 0.0000
# 6 0.0000 0.0000 0.0000 -0.7152 0.0000 39.0408
#
#
#
# Elastic Compliance Matrix: (Units=1/GPa)
#
#
# Indices 1 2 3 4 5 6 
#
# 1 0.014509 -0.006412 -0.005969 0.000000 -0.002628 0.000000
# 2 -0.006412 0.017277 -0.005205 0.000000 0.000979 0.000000
# 3 -0.005969 -0.005205 0.014874 0.000000 0.001407 0.000000
# 4 0.000000 0.000000 0.000000 0.028561 0.000000 0.000523
# 5 -0.002628 0.000979 0.001407 0.000000 0.028979 0.000000
# 6 0.000000 0.000000 0.000000 0.000523 0.000000 0.025624
#
#
# Mechanical properties :
#
#
# Convention : Reuss Voigt Hill
#
# Bulk Modulus (GPa) = 87.05609 89.30888 88.18248
# Shear Modulus (GPa) = 29.61603 31.38189 30.49896
#
# Velocity S-wave (km/s) = 4.03407 4.15259 4.09376
# Velocity P-wave (km/s) = 8.33875 8.48919 8.41430
#
# Compressibility (1/GPa) = 0.01148685
#
# Stress axis : x y z
#
# Youngs Moduli (GPa) = 68.92330 57.87950 67.23013
#
# Poissons Ratio (x) = 0.37114 0.40131
# Poissons Ratio (y) = 0.44196 0.34995
# Poissons Ratio (z) = 0.41141 0.30128
#
# Static dielectric constant tensor:
#      x y z
#    x 3.474670 0.000000 -0.029970 
#    y 0.000000 3.214040 0.000000 
#    z -0.029970 0.000000 3.221000 
# 
# 
# High freq. dielectric constant tensor:
#      x y z
#    x 1.713350 0.000000 -0.004620 
#    y 0.000000 1.717890 0.000000 
#    z -0.004620 0.000000 1.695490 
# 
# From -- ./inp_files/20379.got.cif
#   From: 2010.06.25/outbox.cif.g09.slc.cpg/sg11_11_cif.got.tgz:20379.got - 2010.06.27 23:14:04.
