data_PCOD8076454
_publ_section_title
;
Structure prediction by ZEFSAII (Michael W. Deem and Ramdas Pophale) SiO2 
 PCOD8076454
Probable space group: P 21/M
;
_chemical_formula_sum "Si O2"
_cell_formula_units_Z 28
_cell_length_a 9.055997
_cell_length_b 8.732367
_cell_length_c 25.355163
_cell_angle_alpha 90.000000
_cell_angle_beta 43.858842
_cell_angle_gamma 90.000000
_cell_volume 1389.297386
_symmetry_space_group_name_H-M "P 21/M"
_symmetry_group_IT_number 11
_symmetry_cell_setting 'monoclinic'
loop_
_space_group_symop_operation_xyz
x,y,z
-x,1/2+y,-z
-x,-y,-z
x,1/2-y,z
loop_
_atom_site_type_symbol
_atom_site_label
_atom_site_fract_x
_atom_site_fract_y
_atom_site_fract_z
Si Si1 0.768327 0.070867 0.786743
Si Si2 0.323255 0.927812 0.911095
Si Si3 0.346268 0.929414 0.496741
Si Si4 0.099062 0.926992 0.364686
Si Si5 0.081587 0.929181 0.786985
Si Si6 0.524855 0.070816 0.652323
Si Si7 0.010632 0.427563 0.913480
O O1 0.726101 0.250000 0.804859
O O2 0.811759 0.027257 0.715235
O O3 0.563645 0.978800 0.859896
O O4 0.971473 0.021150 0.768161
O O5 0.311242 0.750000 0.899288
O O6 0.227041 0.023259 0.887294
O O7 0.192519 0.962540 0.997829
O O8 0.370365 0.750000 0.493954
O O9 0.416954 0.987214 0.421000
O O10 0.500000 0.000000 0.500000
O O11 0.104201 0.972329 0.569808
O O12 0.031220 0.750000 0.383695
O O13 0.276530 0.966296 0.361766
O O14 0.051685 0.750000 0.785173
O O15 0.328843 0.973316 0.724503
O O16 0.975997 0.975278 0.869639
O O17 0.466062 0.250000 0.668934
O O18 0.031139 0.250000 0.893318
#
# Coordination Sequence:
#
# PCOD8076454 Si02
#       7
#     4   4   4   4   4   4   4
#     4  11  23  39  60  85 117 158 197 241 301 357
#     4  10  21  38  62  91 119 151 196 245 290 344
#     4  11  23  38  60  88 120 156 192 236 289 346
#     4  10  22  40  62  86 114 151 195 240 288 347
#     4  12  25  39  59  87 118 154 198 248 295 346
#     4  10  22  41  62  86 117 153 194 240 295 355
#     4  10  21  39  62  87 119 157 194 238 294 353
#
# _framework density 20.154070000000001
#
# number of rings (size 3 to 8) (size 9 to 14) (size 15 to 20)
#    0.000    1.429    0.000    5.143    0.000    9.714 
#    0.000    0.000    0.000    0.000    0.000    0.000 
#    0.000    0.000    0.000    0.000    0.000    0.000 
#
# Total GULP energy -347425.101954 kJ/mol
# GULP energy per Si atom -12408.039355 kJ/mol
# Density = 2.010820 g / cm^3
# Si number density = 20.154070 Si / 1000 Ang^3
#
#
#
# Elastic Constant Matrix: (Units=GPa)
#
#
# Indices 1 2 3 4 5 6 
#
# 1 120.8721 22.6950 50.7318 0.0000 20.5374 0.0000
# 2 22.6950 49.1577 42.5922 0.0000 14.2072 0.0000
# 3 50.7318 42.5922 104.2333 0.0000 7.7571 0.0000
# 4 0.0000 0.0000 0.0000 35.4720 0.0000 -3.9823
# 5 20.5374 14.2072 7.7571 0.0000 31.5514 0.0000
# 6 0.0000 0.0000 0.0000 -3.9823 0.0000 35.6781
#
#
#
# Elastic Compliance Matrix: (Units=1/GPa)
#
#
# Indices 1 2 3 4 5 6 
#
# 1 0.011556 0.001665 -0.005795 0.000000 -0.006847 0.000000
# 2 0.001665 0.036185 -0.014570 0.000000 -0.013795 0.000000
# 3 -0.005795 -0.014570 0.017927 0.000000 0.005925 0.000000
# 4 0.000000 0.000000 0.000000 0.028549 0.000000 0.003187
# 5 -0.006847 -0.013795 0.005925 0.000000 0.040906 0.000000
# 6 0.000000 0.000000 0.000000 0.003187 0.000000 0.028384
#
#
# Mechanical properties :
#
#
# Convention : Reuss Voigt Hill
#
# Bulk Modulus (GPa) = 35.37560 56.25570 45.81565
# Shear Modulus (GPa) = 23.77207 31.08990 27.43098
#
# Velocity S-wave (km/s) = 3.43814 3.93187 3.69326
# Velocity P-wave (km/s) = 5.77509 6.97038 6.40070
#
# Compressibility (1/GPa) = 0.02826807
#
# Stress axis : x y z
#
# Youngs Moduli (GPa) = 86.53188 27.63589 55.78129
#
# Poissons Ratio (x) = -0.04601 0.32328
# Poissons Ratio (y) = -0.14408 0.81272
# Poissons Ratio (z) = 0.50149 0.40265
#
# Static dielectric constant tensor:
#      x y z
#    x 3.743310 0.000000 0.151030 
#    y 0.000000 3.708160 0.000000 
#    z 0.151030 0.000000 3.679330 
# 
# 
# High freq. dielectric constant tensor:
#      x y z
#    x 1.796920 0.000000 0.003250 
#    y 0.000000 1.790810 0.000000 
#    z 0.003250 0.000000 1.798530 
# 
# From -- ./inp_files/70824.got.cif
#   From: 2010.06.25/outbox.cif.g09.slc.cpg/sg11_36_cif.got.tgz:70824.got - 2010.06.27 23:14:04.
