data_PCOD8076578
_publ_section_title
;
Structure prediction by ZEFSAII (Michael W. Deem and Ramdas Pophale) SiO2 
 PCOD8076578
Probable space group: P 21/M
;
_chemical_formula_sum "Si O2"
_cell_formula_units_Z 28
_cell_length_a 14.530041
_cell_length_b 8.962074
_cell_length_c 12.585546
_cell_angle_alpha 90.000000
_cell_angle_beta 59.615030
_cell_angle_gamma 90.000000
_cell_volume 1413.774789
_symmetry_space_group_name_H-M "P 21/M"
_symmetry_group_IT_number 11
_symmetry_cell_setting 'monoclinic'
loop_
_space_group_symop_operation_xyz
x,y,z
-x,1/2+y,-z
-x,-y,-z
x,1/2-y,z
loop_
_atom_site_type_symbol
_atom_site_label
_atom_site_fract_x
_atom_site_fract_y
_atom_site_fract_z
Si Si1 0.928569 0.926614 0.453855
Si Si2 0.228274 0.922200 0.773611
Si Si3 0.225289 0.075423 0.993490
Si Si4 0.009291 0.578916 0.795274
Si Si5 0.607390 0.924635 0.473744
Si Si6 0.386778 0.073074 0.085681
Si Si7 0.696872 0.923944 0.642666
O O1 0.933156 0.750000 0.461046
O O2 0.810457 0.991887 0.542633
O O3 0.968959 0.971421 0.315027
O O4 0.000000 0.000000 0.500000
O O5 0.262141 0.750000 0.750437
O O6 0.101642 0.943280 0.829106
O O7 0.261712 0.987390 0.867783
O O8 0.290763 0.007298 0.644591
O O9 0.236063 0.250000 0.963793
O O10 0.302266 0.026056 0.044674
O O11 0.103702 0.031408 0.089842
O O12 0.005389 0.750000 0.757592
O O13 0.604665 0.750000 0.450256
O O14 0.614630 0.956238 0.595492
O O15 0.500000 0.000000 0.500000
O O16 0.401201 0.250000 0.081105
O O17 0.344867 0.007002 0.222522
O O18 0.500000 0.000000 0.000000
O O19 0.712976 0.750000 0.651987
#
# Coordination Sequence:
#
# PCOD8076578 Si02
#       7
#     4   4   4   4   4   4   4
#     4  11  21  36  60  89 121 161 202 247 303 365
#     4  11  23  39  62  93 126 160 203 256 305 363
#     4  10  22  40  62  87 123 166 204 249 305 369
#     4  10  21  39  61  89 123 159 201 252 308 366
#     4  11  23  41  64  92 123 161 204 250 307 367
#     4  10  22  41  62  86 116 155 201 248 301 358
#     4   9  20  40  63  85 118 159 196 241 304 366
#
# _framework density 19.805133000000001
#
# number of rings (size 3 to 8) (size 9 to 14) (size 15 to 20)
#    0.000    1.714    1.429    2.571    2.000    4.000 
#    0.000    3.571    0.000    0.000    0.000    0.000 
#    0.000    0.000    0.000    0.000    0.000    0.000 
#
# Total GULP energy -347277.647001 kJ/mol
# GULP energy per Si atom -12402.773107 kJ/mol
# Density = 1.976006 g / cm^3
# Si number density = 19.805133 Si / 1000 Ang^3
#
#
#
# Elastic Constant Matrix: (Units=GPa)
#
#
# Indices 1 2 3 4 5 6 
#
# 1 125.7348 45.1227 45.2129 0.0000 6.3174 0.0000
# 2 45.1227 73.1137 43.7431 0.0000 9.1863 0.0000
# 3 45.2129 43.7431 119.7045 0.0000 16.5634 0.0000
# 4 0.0000 0.0000 0.0000 35.1663 0.0000 -0.5997
# 5 6.3174 9.1863 16.5634 0.0000 37.7348 0.0000
# 6 0.0000 0.0000 0.0000 -0.5997 0.0000 33.1134
#
#
#
# Elastic Compliance Matrix: (Units=1/GPa)
#
#
# Indices 1 2 3 4 5 6 
#
# 1 0.010607 -0.005335 -0.002120 0.000000 0.000453 0.000000
# 2 -0.005335 0.020273 -0.005146 0.000000 -0.001783 0.000000
# 3 -0.002120 -0.005146 0.011512 0.000000 -0.003445 0.000000
# 4 0.000000 0.000000 0.000000 0.028445 0.000000 0.000515
# 5 0.000453 -0.001783 -0.003445 0.000000 0.028371 0.000000
# 6 0.000000 0.000000 0.000000 0.000515 0.000000 0.030209
#
#
# Mechanical properties :
#
#
# Convention : Reuss Voigt Hill
#
# Bulk Modulus (GPa) = 58.17393 65.19005 61.68199
# Shear Modulus (GPa) = 31.18190 33.50120 32.34155
#
# Velocity S-wave (km/s) = 3.97222 4.11730 4.04541
# Velocity P-wave (km/s) = 7.10457 7.45587 7.28234
#
# Compressibility (1/GPa) = 0.01718983
#
# Stress axis : x y z
#
# Youngs Moduli (GPa) = 94.27466 49.32639 86.86726
#
# Poissons Ratio (x) = 0.26317 0.18412
# Poissons Ratio (y) = 0.50298 0.44706
# Poissons Ratio (z) = 0.19982 0.25385
#
# Static dielectric constant tensor:
#      x y z
#    x 3.716880 0.000000 -0.053840 
#    y 0.000000 3.468530 0.000000 
#    z -0.053840 0.000000 3.753320 
# 
# 
# High freq. dielectric constant tensor:
#      x y z
#    x 1.786720 0.000000 0.003230 
#    y 0.000000 1.758860 0.000000 
#    z 0.003230 0.000000 1.781670 
# 
# From -- ./inp_files/37295.got.cif
#   From: 2010.06.25/outbox.cif.g09.slc.cpg/sg11_19_cif.got.tgz:37295.got - 2010.06.27 23:14:04.
