data_PCOD8076090
_publ_section_title
;
Structure prediction by ZEFSAII (Michael W. Deem and Ramdas Pophale) SiO2 
 PCOD8076090
Probable space group: P 21/M
;
_chemical_formula_sum "Si O2"
_cell_formula_units_Z 32
_cell_length_a 11.687298
_cell_length_b 14.547778
_cell_length_c 15.891814
_cell_angle_alpha 90.000000
_cell_angle_beta 144.435521
_cell_angle_gamma 90.000000
_cell_volume 1571.529977
_symmetry_space_group_name_H-M "P 21/M"
_symmetry_group_IT_number 11
_symmetry_cell_setting 'monoclinic'
loop_
_space_group_symop_operation_xyz
x,y,z
-x,1/2+y,-z
-x,-y,-z
x,1/2-y,z
loop_
_atom_site_type_symbol
_atom_site_label
_atom_site_fract_x
_atom_site_fract_y
_atom_site_fract_z
Si Si1 0.633830 0.145164 0.552491
Si Si2 0.078223 0.416549 0.383622
Si Si3 0.521096 0.475228 0.630488
Si Si4 0.443358 0.146946 0.043337
Si Si5 0.561413 0.024182 0.846580
Si Si6 0.186296 0.351118 0.622093
Si Si7 0.957809 0.883621 0.288402
Si Si8 0.750447 0.148028 0.085092
O O1 0.550447 0.250000 0.511776
O O2 0.656545 0.092973 0.656060
O O3 0.846016 0.153238 0.637474
O O4 0.487836 0.079921 0.410107
O O5 0.305945 0.429075 0.498597
O O6 0.052063 0.384258 0.464085
O O7 0.953151 0.507687 0.294217
O O8 0.971541 0.346800 0.255577
O O9 0.609987 0.479144 0.776834
O O10 0.497025 0.250000 0.106281
O O11 0.595443 0.114171 0.062862
O O12 0.459650 0.079451 0.132619
O O13 0.224807 0.149037 0.875651
O O14 0.361249 0.078550 0.744807
O O15 0.738072 0.077500 0.999495
O O16 0.272682 0.250000 0.652461
O O17 0.049125 0.342742 0.621762
O O18 0.693928 0.250000 0.019740
#
# Coordination Sequence:
#
# PCOD8076090 Si02
#       8
#     4   4   4   4   4   4   4   4
#     4  10  21  40  65  85 111 150 197 244 293 347
#     4  10  21  37  58  86 122 153 191 241 296 344
#     4   9  23  41  61  89 113 148 196 244 295 345
#     4  11  22  36  57  86 124 161 198 240 288 347
#     4  11  21  38  59  86 121 158 192 238 293 349
#     4  11  21  34  56  90 125 155 192 240 290 351
#     4  11  20  37  59  85 116 157 198 241 292 343
#     4  11  21  34  56  88 124 163 196 229 288 355
#
# _framework density 20.362323
#
# number of rings (size 3 to 8) (size 9 to 14) (size 15 to 20)
#    0.000    1.500    2.500    3.375    0.000    5.500 
#    0.000    1.875    0.000    0.000    0.000    0.000 
#    0.000    0.000    0.000    0.000    0.000    0.000 
#
# Total GULP energy -396777.902995 kJ/mol
# GULP energy per Si atom -12399.309469 kJ/mol
# Density = 2.031598 g / cm^3
# Si number density = 20.362323 Si / 1000 Ang^3
#
#
#
# Elastic Constant Matrix: (Units=GPa)
#
#
# Indices 1 2 3 4 5 6 
#
# 1 82.6445 43.3353 36.8514 0.0000 -31.1091 0.0000
# 2 43.3353 135.7230 38.9196 0.0000 -20.3568 0.0000
# 3 36.8514 38.9196 108.5604 0.0000 -25.3842 0.0000
# 4 0.0000 0.0000 0.0000 18.6906 0.0000 -0.8461
# 5 -31.1091 -20.3568 -25.3842 0.0000 34.5353 0.0000
# 6 0.0000 0.0000 0.0000 -0.8461 0.0000 25.1725
#
#
#
# Elastic Compliance Matrix: (Units=1/GPa)
#
#
# Indices 1 2 3 4 5 6 
#
# 1 0.020580 -0.003731 -0.002207 0.000000 0.014717 0.000000
# 2 -0.003731 0.009199 -0.001871 0.000000 0.000686 0.000000
# 3 -0.002207 -0.001871 0.011965 0.000000 0.005703 0.000000
# 4 0.000000 0.000000 0.000000 0.053584 0.000000 0.001801
# 5 0.014717 0.000686 0.005703 0.000000 0.046810 0.000000
# 6 0.000000 0.000000 0.000000 0.001801 0.000000 0.039786
#
#
# Mechanical properties :
#
#
# Convention : Reuss Voigt Hill
#
# Bulk Modulus (GPa) = 38.27602 62.79339 50.53470
# Shear Modulus (GPa) = 24.24232 29.53447 26.88839
#
# Velocity S-wave (km/s) = 3.45417 3.81260 3.63781
# Velocity P-wave (km/s) = 5.89463 7.09128 6.52047
#
# Compressibility (1/GPa) = 0.02612602
#
# Stress axis : x y z
#
# Youngs Moduli (GPa) = 48.59007 108.71243 83.57652
#
# Poissons Ratio (x) = 0.40558 0.18448
# Poissons Ratio (y) = 0.18128 0.15636
# Poissons Ratio (z) = 0.10726 0.20338
#
# Static dielectric constant tensor:
#      x y z
#    x 3.533540 0.000000 -0.191010 
#    y 0.000000 3.930660 0.000000 
#    z -0.191010 0.000000 3.582100 
# 
# 
# High freq. dielectric constant tensor:
#      x y z
#    x 1.771250 0.000000 -0.011150 
#    y 0.000000 1.816020 0.000000 
#    z -0.011150 0.000000 1.784420 
# 
# From -- ./inp_files/47622.got.cif
#   From: 2010.06.25/outbox.cif.g09.slc.cpg/sg11_24_cif.got.tgz:47622.got - 2010.06.27 23:14:04.
