data_PCOD8076408
_publ_section_title
;
Structure prediction by ZEFSAII (Michael W. Deem and Ramdas Pophale) SiO2 
 PCOD8076408
Probable space group: P 21/M
;
_chemical_formula_sum "Si O2"
_cell_formula_units_Z 20
_cell_length_a 5.094634
_cell_length_b 8.604855
_cell_length_c 25.258781
_cell_angle_alpha 90.000000
_cell_angle_beta 59.735853
_cell_angle_gamma 90.000000
_cell_volume 956.395293
_symmetry_space_group_name_H-M "P 21/M"
_symmetry_group_IT_number 11
_symmetry_cell_setting 'monoclinic'
loop_
_space_group_symop_operation_xyz
x,y,z
-x,1/2+y,-z
-x,-y,-z
x,1/2-y,z
loop_
_atom_site_type_symbol
_atom_site_label
_atom_site_fract_x
_atom_site_fract_y
_atom_site_fract_z
Si Si1 0.669423 0.569269 0.532306
Si Si2 0.722702 0.068360 0.129066
Si Si3 0.302134 0.070990 0.662691
Si Si4 0.395013 0.570685 0.258488
Si Si5 0.623418 0.433864 0.932995
O O1 0.500000 0.500000 0.500000
O O2 0.697977 0.750000 0.520832
O O3 0.492653 0.536078 0.604327
O O4 0.000000 0.500000 0.500000
O O5 0.734928 0.250000 0.114748
O O6 0.490431 0.038020 0.200389
O O7 0.616082 0.976966 0.088004
O O8 0.052166 0.008523 0.113431
O O9 0.374738 0.250000 0.641986
O O10 0.392230 0.031722 0.713523
O O11 0.949319 0.032449 0.690584
O O12 0.428047 0.750000 0.237458
O O13 0.657105 0.250000 0.933167
O O14 0.500000 0.500000 0.000000
#
# Coordination Sequence:
#
# PCOD8076408 Si02
#       5
#     4   4   4   4   4
#     4  12  25  42  65  93 127 165 209 258 313 372
#     4  12  25  42  65  96 130 165 209 260 311 368
#     4  10  21  38  61  89 123 161 205 254 309 368
#     4  10  21  38  61  89 123 164 204 250 309 370
#     4  12  25  44  67  93 127 167 211 258 313 374
#
# _framework density 20.911853000000001
#
# number of rings (size 3 to 8) (size 9 to 14) (size 15 to 20)
#    0.000    0.800    0.000    8.400    0.000    4.800 
#    0.000    0.000    0.000    0.000    0.000    0.000 
#    0.000    0.000    0.000    0.000    0.000    0.000 
#
# Total GULP energy -248180.304259 kJ/mol
# GULP energy per Si atom -12409.015213 kJ/mol
# Density = 2.086426 g / cm^3
# Si number density = 20.911853 Si / 1000 Ang^3
#
#
#
# Elastic Constant Matrix: (Units=GPa)
#
#
# Indices 1 2 3 4 5 6 
#
# 1 107.2857 36.3575 17.9590 0.0000 -2.2072 0.0000
# 2 36.3575 135.1435 51.2252 0.0000 -3.3045 0.0000
# 3 17.9590 51.2252 96.0475 0.0000 -1.0561 0.0000
# 4 0.0000 0.0000 0.0000 43.2369 0.0000 -0.3122
# 5 -2.2072 -3.3045 -1.0561 0.0000 31.4650 0.0000
# 6 0.0000 0.0000 0.0000 -0.3122 0.0000 31.4954
#
#
#
# Elastic Compliance Matrix: (Units=1/GPa)
#
#
# Indices 1 2 3 4 5 6 
#
# 1 0.010286 -0.002544 -0.000562 0.000000 0.000436 0.000000
# 2 -0.002544 0.009924 -0.004809 0.000000 0.000702 0.000000
# 3 -0.000562 -0.004809 0.013080 0.000000 -0.000105 0.000000
# 4 0.000000 0.000000 0.000000 0.023130 0.000000 0.000229
# 5 0.000436 0.000702 -0.000105 0.000000 0.031882 0.000000
# 6 0.000000 0.000000 0.000000 0.000229 0.000000 0.031753
#
#
# Mechanical properties :
#
#
# Convention : Reuss Voigt Hill
#
# Bulk Modulus (GPa) = 57.27219 61.06225 59.16722
# Shear Modulus (GPa) = 35.28447 36.76849 36.02648
#
# Velocity S-wave (km/s) = 4.11213 4.19771 4.15514
# Velocity P-wave (km/s) = 7.07057 7.26344 7.16766
#
# Compressibility (1/GPa) = 0.01746048
#
# Stress axis : x y z
#
# Youngs Moduli (GPa) = 97.22049 100.76579 76.44990
#
# Poissons Ratio (x) = 0.25630 0.04296
# Poissons Ratio (y) = 0.24729 0.36768
# Poissons Ratio (z) = 0.05463 0.48463
#
# Static dielectric constant tensor:
#      x y z
#    x 4.078620 0.000000 -0.008100 
#    y 0.000000 3.735840 0.000000 
#    z -0.008100 0.000000 3.804990 
# 
# 
# High freq. dielectric constant tensor:
#      x y z
#    x 1.840040 0.000000 -0.000560 
#    y 0.000000 1.821870 0.000000 
#    z -0.000560 0.000000 1.831000 
# 
# From -- ./inp_files/7474.got.cif
#   From: 2010.06.25/outbox.cif.g09.slc.cpg/sg11_4_cif.got.tgz:7474.got - 2010.06.27 23:14:04.
