data_PCOD8076534
_publ_section_title
;
Structure prediction by ZEFSAII (Michael W. Deem and Ramdas Pophale) SiO2 
 PCOD8076534
Probable space group: P 21/M
;
_chemical_formula_sum "Si O2"
_cell_formula_units_Z 28
_cell_length_a 20.535253
_cell_length_b 8.931494
_cell_length_c 23.481458
_cell_angle_alpha 90.000000
_cell_angle_beta 19.426432
_cell_angle_gamma 90.000000
_cell_volume 1432.407377
_symmetry_space_group_name_H-M "P 21/M"
_symmetry_group_IT_number 11
_symmetry_cell_setting 'monoclinic'
loop_
_space_group_symop_operation_xyz
x,y,z
-x,1/2+y,-z
-x,-y,-z
x,1/2-y,z
loop_
_atom_site_type_symbol
_atom_site_label
_atom_site_fract_x
_atom_site_fract_y
_atom_site_fract_z
Si Si1 0.410082 0.920721 0.730804
Si Si2 0.827315 0.071927 0.384956
Si Si3 0.547584 0.584475 0.018939
Si Si4 0.311762 0.577216 0.682548
Si Si5 0.894706 0.073208 0.757634
Si Si6 0.015798 0.927735 0.117772
Si Si7 0.126994 0.587859 0.353406
O O1 0.479147 0.750000 0.684211
O O2 0.312627 0.936525 0.749539
O O3 0.599604 0.026663 0.576532
O O4 0.243499 0.965596 0.914873
O O5 0.841613 0.250000 0.368780
O O6 0.926806 0.011181 0.360150
O O7 0.946403 0.000108 0.234266
O O8 0.639059 0.750000 0.933338
O O9 0.328509 0.600160 0.222866
O O10 0.500000 0.500000 0.000000
O O11 0.681768 0.489982 0.953499
O O12 0.500000 0.500000 0.500000
O O13 0.307434 0.750000 0.666173
O O14 0.117795 0.493141 0.822067
O O15 0.910952 0.250000 0.754395
O O16 0.877709 0.016551 0.706018
O O17 0.985022 0.750000 0.147090
O O18 0.034258 0.750000 0.419689
O O19 0.000000 0.500000 0.500000
#
# Coordination Sequence:
#
# PCOD8076534 Si02
#       7
#     4   4   4   4   4   4   4
#     4  10  23  42  64  89 122 163 206 254 307 366
#     4  12  25  41  63  89 122 164 205 255 309 368
#     4   9  17  32  54  81 109 142 184 231 280 337
#     4  11  21  36  62  93 123 161 204 254 311 364
#     4  10  21  39  60  83 114 155 197 240 293 357
#     4  11  23  41  64  90 122 162 206 255 308 366
#     4   9  19  34  56  86 117 148 186 236 288 342
#
# _framework density 19.547512000000001
#
# number of rings (size 3 to 8) (size 9 to 14) (size 15 to 20)
#    0.000    1.714    1.429    4.286    0.000    5.143 
#    2.571    0.000    0.000    0.000    0.000    0.000 
#    0.000    0.000    0.000    0.000    0.000    0.000 
#
# Total GULP energy -346884.634081 kJ/mol
# GULP energy per Si atom -12388.736931 kJ/mol
# Density = 1.950302 g / cm^3
# Si number density = 19.547512 Si / 1000 Ang^3
#
#
#
# Elastic Constant Matrix: (Units=GPa)
#
#
# Indices 1 2 3 4 5 6 
#
# 1 84.1754 43.3784 50.0859 0.0000 -17.4732 0.0000
# 2 43.3784 140.5932 71.0404 0.0000 -9.2235 0.0000
# 3 50.0859 71.0404 126.3051 0.0000 -0.2043 0.0000
# 4 0.0000 0.0000 0.0000 33.6283 0.0000 -6.2636
# 5 -17.4732 -9.2235 -0.2043 0.0000 25.5906 0.0000
# 6 0.0000 0.0000 0.0000 -6.2636 0.0000 34.0195
#
#
#
# Elastic Compliance Matrix: (Units=1/GPa)
#
#
# Indices 1 2 3 4 5 6 
#
# 1 0.019358 -0.001792 -0.006648 0.000000 0.012518 0.000000
# 2 -0.001792 0.010433 -0.005154 0.000000 0.002496 0.000000
# 3 -0.006648 -0.005154 0.013442 0.000000 -0.006289 0.000000
# 4 0.000000 0.000000 0.000000 0.030793 0.000000 0.005670
# 5 0.012518 0.002496 -0.006289 0.000000 0.048474 0.000000
# 6 0.000000 0.000000 0.000000 0.005670 0.000000 0.030439
#
#
# Mechanical properties :
#
#
# Convention : Reuss Voigt Hill
#
# Bulk Modulus (GPa) = 62.32178 75.56478 68.94328
# Shear Modulus (GPa) = 26.95782 31.08561 29.02171
#
# Velocity S-wave (km/s) = 3.71764 3.99213 3.85733
# Velocity P-wave (km/s) = 7.09783 7.74535 7.42865
#
# Compressibility (1/GPa) = 0.01604575
#
# Stress axis : x y z
#
# Youngs Moduli (GPa) = 51.65873 95.84545 74.39336
#
# Poissons Ratio (x) = 0.17177 0.49457
# Poissons Ratio (y) = 0.09258 0.38339
# Poissons Ratio (z) = 0.34343 0.49395
#
# Static dielectric constant tensor:
#      x y z
#    x 3.459280 0.000000 -0.246810 
#    y 0.000000 4.117770 0.000000 
#    z -0.246810 0.000000 3.940850 
# 
# 
# High freq. dielectric constant tensor:
#      x y z
#    x 1.746330 0.000000 -0.014640 
#    y 0.000000 1.776440 0.000000 
#    z -0.014640 0.000000 1.764780 
# 
# From -- ./inp_files/69784.got.cif
#   From: 2010.06.25/outbox.cif.g09.slc.cpg/sg11_35_cif.got.tgz:69784.got - 2010.06.27 23:14:04.
