data_PCOD8076540
_publ_section_title
;
Structure prediction by ZEFSAII (Michael W. Deem and Ramdas Pophale) SiO2 
 PCOD8076540
Probable space group: P 21/M
;
_chemical_formula_sum "Si O2"
_cell_formula_units_Z 24
_cell_length_a 22.169789
_cell_length_b 8.790419
_cell_length_c 15.743998
_cell_angle_alpha 90.000000
_cell_angle_beta 23.120786
_cell_angle_gamma 90.000000
_cell_volume 1204.799436
_symmetry_space_group_name_H-M "P 21/M"
_symmetry_group_IT_number 11
_symmetry_cell_setting 'monoclinic'
loop_
_space_group_symop_operation_xyz
x,y,z
-x,1/2+y,-z
-x,-y,-z
x,1/2-y,z
loop_
_atom_site_type_symbol
_atom_site_label
_atom_site_fract_x
_atom_site_fract_y
_atom_site_fract_z
Si Si1 0.880989 0.427730 0.090757
Si Si2 0.462292 0.928119 0.459671
Si Si3 0.278349 0.069813 0.004812
Si Si4 0.596064 0.426387 0.994820
Si Si5 0.029009 0.570649 0.212294
Si Si6 0.709895 0.074073 0.659909
O O1 0.909073 0.250000 0.056817
O O2 0.710729 0.472722 0.342773
O O3 0.000000 0.500000 0.000000
O O4 0.905825 0.486136 0.962596
O O5 0.480299 0.750000 0.448154
O O6 0.500000 0.000000 0.500000
O O7 0.578672 0.988046 0.237402
O O8 0.278008 0.250000 0.017612
O O9 0.291321 0.989250 0.078807
O O10 0.119347 0.018269 0.168691
O O11 0.558121 0.250000 0.058424
O O12 0.683969 0.452944 0.792982
O O13 0.438101 0.520751 0.201539
O O14 0.051294 0.750000 0.196268
O O15 0.851040 0.528178 0.447510
O O16 0.741663 0.250000 0.597407
#
# Coordination Sequence:
#
# PCOD8076540 Si02
#       6
#     4   4   4   4   4   4
#     4  10  23  40  58  86 120 156 197 241 292 349
#     4  10  21  39  60  85 118 156 196 240 290 346
#     4  11  23  38  61  91 120 158 201 245 296 350
#     4  10  22  41  64  90 119 155 196 242 298 356
#     4  11  23  40  61  88 121 158 199 247 297 350
#     4  10  22  41  64  89 120 155 195 245 297 354
#
# _framework density 19.920328999999999
#
# number of rings (size 3 to 8) (size 9 to 14) (size 15 to 20)
#    0.000    1.667    1.667    2.000    2.333    5.333 
#    0.000    0.000    0.000    0.000    0.000    0.000 
#    0.000    0.000    0.000    0.000    0.000    0.000 
#
# Total GULP energy -297734.895300 kJ/mol
# GULP energy per Si atom -12405.620637 kJ/mol
# Density = 1.987499 g / cm^3
# Si number density = 19.920329 Si / 1000 Ang^3
#
#
#
# Elastic Constant Matrix: (Units=GPa)
#
#
# Indices 1 2 3 4 5 6 
#
# 1 90.4688 24.9565 -3.3467 0.0000 -15.0024 0.0000
# 2 24.9565 50.5444 15.2451 0.0000 3.7448 0.0000
# 3 -3.3467 15.2451 66.7375 0.0000 -6.2023 0.0000
# 4 0.0000 0.0000 0.0000 34.2275 0.0000 -5.7294
# 5 -15.0024 3.7448 -6.2023 0.0000 26.2072 0.0000
# 6 0.0000 0.0000 0.0000 -5.7294 0.0000 39.1768
#
#
#
# Elastic Compliance Matrix: (Units=1/GPa)
#
#
# Indices 1 2 3 4 5 6 
#
# 1 0.015842 -0.009915 0.004125 0.000000 0.011462 0.000000
# 2 -0.009915 0.027934 -0.007952 0.000000 -0.011550 0.000000
# 3 0.004125 -0.007952 0.017722 0.000000 0.007692 0.000000
# 4 0.000000 0.000000 0.000000 0.029949 0.000000 0.004380
# 5 0.011462 -0.011550 0.007692 0.000000 0.048189 0.000000
# 6 0.000000 0.000000 0.000000 0.004380 0.000000 0.026166
#
#
# Mechanical properties :
#
#
# Convention : Reuss Voigt Hill
#
# Bulk Modulus (GPa) = 29.39989 31.27340 30.33664
# Shear Modulus (GPa) = 24.43481 31.31535 27.87508
#
# Velocity S-wave (km/s) = 3.50612 3.96918 3.74482
# Velocity P-wave (km/s) = 5.58402 6.06129 5.82754
#
# Compressibility (1/GPa) = 0.03401374
#
# Stress axis : x y z
#
# Youngs Moduli (GPa) = 63.12323 35.79817 56.42637
#
# Poissons Ratio (x) = 0.35495 -0.23274
# Poissons Ratio (y) = 0.62589 0.44869
# Poissons Ratio (z) = -0.26036 0.28466
#
# Static dielectric constant tensor:
#      x y z
#    x 3.606620 0.000000 0.102220 
#    y 0.000000 3.583590 0.000000 
#    z 0.102220 0.000000 3.803170 
# 
# 
# High freq. dielectric constant tensor:
#      x y z
#    x 1.782910 0.000000 -0.004200 
#    y 0.000000 1.780940 0.000000 
#    z -0.004200 0.000000 1.783150 
# 
# From -- ./inp_files/61848.got.cif
#   From: 2010.06.25/outbox.cif.g09.slc.cpg/sg11_31_cif.got.tgz:61848.got - 2010.06.27 23:14:04.
