data_PCOD8076010
_publ_section_title
;
Structure prediction by ZEFSAII (Michael W. Deem and Ramdas Pophale) SiO2 
 PCOD8076010
Probable space group: P 21/M
;
_chemical_formula_sum "Si O2"
_cell_formula_units_Z 28
_cell_length_a 19.316991
_cell_length_b 8.839866
_cell_length_c 15.275585
_cell_angle_alpha 90.000000
_cell_angle_beta 36.254017
_cell_angle_gamma 90.000000
_cell_volume 1542.550884
_symmetry_space_group_name_H-M "P 21/M"
_symmetry_group_IT_number 11
_symmetry_cell_setting 'monoclinic'
loop_
_space_group_symop_operation_xyz
x,y,z
-x,1/2+y,-z
-x,-y,-z
x,1/2-y,z
loop_
_atom_site_type_symbol
_atom_site_label
_atom_site_fract_x
_atom_site_fract_y
_atom_site_fract_z
Si Si1 0.252398 0.423199 0.611385
Si Si2 0.375311 0.928491 0.643931
Si Si3 0.376881 0.575643 0.140580
Si Si4 0.990528 0.076072 0.915547
Si Si5 0.616381 0.572800 0.695008
Si Si6 0.344694 0.575589 0.981653
Si Si7 0.230184 0.071715 0.941687
O O1 0.290156 0.250000 0.592729
O O2 0.286019 0.527708 0.658495
O O3 0.113487 0.434296 0.739354
O O4 0.317791 0.485608 0.458756
O O5 0.387569 0.750000 0.638323
O O6 0.500000 0.000000 0.500000
O O7 0.328155 0.992032 0.783064
O O8 0.397295 0.750000 0.139308
O O9 0.319530 0.501472 0.285611
O O10 0.500000 0.500000 0.000000
O O11 0.304538 0.552821 0.124059
O O12 0.951102 0.250000 0.967999
O O13 0.000000 0.000000 0.000000
O O14 0.898063 0.988638 0.950297
O O15 0.631675 0.750000 0.690039
O O16 0.479987 0.526518 0.829288
O O17 0.328856 0.750000 0.969565
O O18 0.260204 0.469361 0.011092
O O19 0.233658 0.250000 0.922887
#
# Coordination Sequence:
#
# PCOD8076010 Si02
#       7
#     4   4   4   4   4   4   4
#     4  10  21  37  57  80 108 142 182 224 269 322
#     4  12  24  37  55  78 109 143 176 219 271 326
#     4   9  17  30  51  78 109 143 176 215 262 321
#     4  11  22  38  59  79 105 143 188 231 272 320
#     4   9  18  33  54  81 112 142 173 217 270 326
#     4   9  18  33  53  79 111 144 177 217 271 324
#     4  12  24  37  55  79 108 142 184 229 273 322
#
# _framework density 18.15175
#
# number of rings (size 3 to 8) (size 9 to 14) (size 15 to 20)
#    0.000    1.714    1.429    5.143    0.000    5.143 
#    0.000    0.000    0.000    0.857    0.000    0.000 
#    0.000    0.000    0.000    0.000    0.000    0.000 
#
# Total GULP energy -347212.178316 kJ/mol
# GULP energy per Si atom -12400.434940 kJ/mol
# Density = 1.811044 g / cm^3
# Si number density = 18.151750 Si / 1000 Ang^3
#
#
#
# Elastic Constant Matrix: (Units=GPa)
#
#
# Indices 1 2 3 4 5 6 
#
# 1 112.0385 51.5236 31.5834 0.0000 8.5575 0.0000
# 2 51.5236 113.5863 19.0098 0.0000 1.1693 0.0000
# 3 31.5834 19.0098 37.1664 0.0000 -0.1572 0.0000
# 4 0.0000 0.0000 0.0000 25.4321 0.0000 3.4431
# 5 8.5575 1.1693 -0.1572 0.0000 30.3497 0.0000
# 6 0.0000 0.0000 0.0000 3.4431 0.0000 36.0730
#
#
#
# Elastic Compliance Matrix: (Units=1/GPa)
#
#
# Indices 1 2 3 4 5 6 
#
# 1 0.014104 -0.004757 -0.009569 0.000000 -0.003843 0.000000
# 2 -0.004757 0.011237 -0.001702 0.000000 0.000899 0.000000
# 3 -0.009569 -0.001702 0.035920 0.000000 0.002950 0.000000
# 4 0.000000 0.000000 0.000000 0.039835 0.000000 -0.003802
# 5 -0.003843 0.000899 0.002950 0.000000 0.034014 0.000000
# 6 0.000000 0.000000 0.000000 -0.003802 0.000000 0.028084
#
#
# Mechanical properties :
#
#
# Convention : Reuss Voigt Hill
#
# Bulk Modulus (GPa) = 34.23795 51.89166 43.06480
# Shear Modulus (GPa) = 24.39222 29.08259 26.73741
#
# Velocity S-wave (km/s) = 3.66976 4.00708 3.84212
# Velocity P-wave (km/s) = 6.07118 7.07522 6.59234
#
# Compressibility (1/GPa) = 0.02920735
#
# Stress axis : x y z
#
# Youngs Moduli (GPa) = 70.90259 88.99131 27.83962
#
# Poissons Ratio (x) = 0.42330 0.26638
# Poissons Ratio (y) = 0.33726 0.04737
# Poissons Ratio (z) = 0.67844 0.15143
#
# Static dielectric constant tensor:
#      x y z
#    x 3.563920 0.000000 0.232750 
#    y 0.000000 3.538420 0.000000 
#    z 0.232750 0.000000 3.460420 
# 
# 
# High freq. dielectric constant tensor:
#      x y z
#    x 1.702060 0.000000 0.015700 
#    y 0.000000 1.711480 0.000000 
#    z 0.015700 0.000000 1.684620 
# 
# From -- ./inp_files/53205.got.cif
#   From: 2010.06.25/outbox.cif.g09.slc.cpg/sg11_27_cif.got.tgz:53205.got - 2010.06.27 23:14:04.
