data_PCOD8076449
_publ_section_title
;
Structure prediction by ZEFSAII (Michael W. Deem and Ramdas Pophale) SiO2 
 PCOD8076449
Probable space group: P 21/M
;
_chemical_formula_sum "Si O2"
_cell_formula_units_Z 32
_cell_length_a 15.531042
_cell_length_b 8.706280
_cell_length_c 26.021297
_cell_angle_alpha 90.000000
_cell_angle_beta 27.004121
_cell_angle_gamma 90.000000
_cell_volume 1597.608008
_symmetry_space_group_name_H-M "P 21/M"
_symmetry_group_IT_number 11
_symmetry_cell_setting 'monoclinic'
loop_
_space_group_symop_operation_xyz
x,y,z
-x,1/2+y,-z
-x,-y,-z
x,1/2-y,z
loop_
_atom_site_type_symbol
_atom_site_label
_atom_site_fract_x
_atom_site_fract_y
_atom_site_fract_z
Si Si1 0.660432 0.427771 0.449474
Si Si2 0.966318 0.930425 0.462479
Si Si3 0.086024 0.427997 0.212927
Si Si4 0.742035 0.070335 0.779770
Si Si5 0.873872 0.073728 0.999135
Si Si6 0.665677 0.428176 0.006245
Si Si7 0.744977 0.426639 0.180136
Si Si8 0.626665 0.070239 0.582645
O O1 0.500000 0.500000 0.500000
O O2 0.612594 0.250000 0.477931
O O3 0.656340 0.495453 0.509387
O O4 0.866647 0.459774 0.315213
O O5 0.957342 0.750000 0.472798
O O6 0.136607 0.980469 0.334230
O O7 0.000000 0.000000 0.500000
O O8 0.766494 0.986033 0.547089
O O9 0.117092 0.250000 0.211075
O O10 0.138216 0.533476 0.233291
O O11 0.213330 0.469595 0.096774
O O12 0.691915 0.250000 0.805239
O O13 0.552893 0.970872 0.881675
O O14 0.942496 0.250000 0.961468
O O15 0.758948 0.038922 0.112135
O O16 0.733603 0.034368 0.027435
O O17 0.057052 0.965691 0.897448
O O18 0.692318 0.250000 0.977869
O O19 0.693696 0.250000 0.218558
O O20 0.586997 0.537313 0.286991
O O21 0.670152 0.250000 0.562032
#
# Coordination Sequence:
#
# PCOD8076449 Si02
#       8
#     4   4   4   4   4   4   4   4
#     4  10  24  42  64  92 126 166 207 255 311 369
#     4  11  25  43  66  96 128 166 210 258 312 374
#     4  11  23  43  65  90 123 161 205 254 309 366
#     4  11  24  43  65  92 122 159 205 253 307 367
#     4   9  21  41  60  87 122 161 203 250 306 363
#     4  11  24  40  63  91 122 161 204 255 310 365
#     4  10  21  38  62  90 122 162 204 251 306 362
#     4  11  23  42  65  94 128 167 208 255 314 374
#
# _framework density 20.029942999999999
#
# number of rings (size 3 to 8) (size 9 to 14) (size 15 to 20)
#    0.000    1.500    1.250    2.625    3.500    5.000 
#    0.000    0.000    0.000    0.000    0.000    0.000 
#    0.000    0.000    0.000    0.000    0.000    0.000 
#
# Total GULP energy -396988.257817 kJ/mol
# GULP energy per Si atom -12405.883057 kJ/mol
# Density = 1.998435 g / cm^3
# Si number density = 20.029943 Si / 1000 Ang^3
#
#
#
# Elastic Constant Matrix: (Units=GPa)
#
#
# Indices 1 2 3 4 5 6 
#
# 1 108.8498 22.6659 29.1134 0.0000 -8.6093 0.0000
# 2 22.6659 43.2249 27.5115 0.0000 -0.9056 0.0000
# 3 29.1134 27.5115 108.0389 0.0000 -6.1044 0.0000
# 4 0.0000 0.0000 0.0000 34.5834 0.0000 -2.9713
# 5 -8.6093 -0.9056 -6.1044 0.0000 27.3172 0.0000
# 6 0.0000 0.0000 0.0000 -2.9713 0.0000 36.8014
#
#
#
# Elastic Compliance Matrix: (Units=1/GPa)
#
#
# Indices 1 2 3 4 5 6 
#
# 1 0.010795 -0.004598 -0.001574 0.000000 0.002898 0.000000
# 2 -0.004598 0.029580 -0.006401 0.000000 -0.001899 0.000000
# 3 -0.001574 -0.006401 0.011414 0.000000 0.001842 0.000000
# 4 0.000000 0.000000 0.000000 0.029118 0.000000 0.002351
# 5 0.002898 -0.001899 0.001842 0.000000 0.037869 0.000000
# 6 0.000000 0.000000 0.000000 0.002351 0.000000 0.027363
#
#
# Mechanical properties :
#
#
# Convention : Reuss Voigt Hill
#
# Bulk Modulus (GPa) = 37.53299 46.52168 42.02733
# Shear Modulus (GPa) = 27.75246 31.79526 29.77386
#
# Velocity S-wave (km/s) = 3.72633 3.98852 3.85966
# Velocity P-wave (km/s) = 6.10682 6.66990 6.39456
#
# Compressibility (1/GPa) = 0.02664323
#
# Stress axis : x y z
#
# Youngs Moduli (GPa) = 92.63873 33.80690 87.61055
#
# Poissons Ratio (x) = 0.15543 0.13793
# Poissons Ratio (y) = 0.42592 0.56077
# Poissons Ratio (z) = 0.14585 0.21639
#
# Static dielectric constant tensor:
#      x y z
#    x 3.728290 0.000000 0.103290 
#    y 0.000000 3.635390 0.000000 
#    z 0.103290 0.000000 3.709520 
# 
# 
# High freq. dielectric constant tensor:
#      x y z
#    x 1.789210 0.000000 -0.000200 
#    y 0.000000 1.786820 0.000000 
#    z -0.000200 0.000000 1.792710 
# 
# From -- ./inp_files/69055.got.cif
#   From: 2010.06.25/outbox.cif.g09.slc.cpg/sg11_35_cif.got.tgz:69055.got - 2010.06.27 23:14:04.
