data_PCOD8076612
_publ_section_title
;
Structure prediction by ZEFSAII (Michael W. Deem and Ramdas Pophale) SiO2 
 PCOD8076612
Probable space group: P 21/M
;
_chemical_formula_sum "Si O2"
_cell_formula_units_Z 28
_cell_length_a 18.191168
_cell_length_b 8.686287
_cell_length_c 15.122964
_cell_angle_alpha 90.000000
_cell_angle_beta 35.444082
_cell_angle_gamma 90.000000
_cell_volume 1385.769131
_symmetry_space_group_name_H-M "P 21/M"
_symmetry_group_IT_number 11
_symmetry_cell_setting 'monoclinic'
loop_
_space_group_symop_operation_xyz
x,y,z
-x,1/2+y,-z
-x,-y,-z
x,1/2-y,z
loop_
_atom_site_type_symbol
_atom_site_label
_atom_site_fract_x
_atom_site_fract_y
_atom_site_fract_z
Si Si1 0.914769 0.931459 0.462244
Si Si2 0.789084 0.574151 0.408609
Si Si3 0.501108 0.925484 0.725703
Si Si4 0.133936 0.930442 0.841400
Si Si5 0.161447 0.430257 0.272679
Si Si6 0.553882 0.930876 0.036979
Si Si7 0.611437 0.567946 0.330088
O O1 0.913429 0.750000 0.465133
O O2 0.831755 0.990905 0.461873
O O3 0.852883 0.996202 0.613336
O O4 0.058624 0.989842 0.310277
O O5 0.835720 0.750000 0.347949
O O6 0.638635 0.566379 0.546901
O O7 0.851194 0.461519 0.276957
O O8 0.453460 0.750000 0.778813
O O9 0.511298 0.995379 0.813737
O O10 0.407913 0.021192 0.753499
O O11 0.136205 0.750000 0.859046
O O12 0.249832 0.009649 0.779240
O O13 0.000000 0.000000 0.000000
O O14 0.135844 0.250000 0.297185
O O15 0.298215 0.472088 0.101216
O O16 0.529160 0.750000 0.060167
O O17 0.500000 0.000000 0.000000
O O18 0.500000 0.500000 0.500000
O O19 0.607337 0.750000 0.344214
#
# Coordination Sequence:
#
# PCOD8076612 Si02
#       7
#     4   4   4   4   4   4   4
#     4   9  18  34  58  84 112 153 199 246 301 369
#     4  10  21  39  62  88 122 160 205 257 314 382
#     4  11  23  40  65  94 126 168 213 261 320 383
#     4  12  26  44  67  95 129 168 211 266 329 390
#     4   9  19  36  55  80 115 156 196 246 307 365
#     4  11  23  39  59  86 124 163 207 262 318 379
#     4  12  24  43  69  98 130 168 216 268 324 390
#
# _framework density 20.205385
#
# number of rings (size 3 to 8) (size 9 to 14) (size 15 to 20)
#    0.000    1.429    1.429    4.286    0.000    5.714 
#    0.000    5.714    0.000    0.000    0.000    0.000 
#    0.000    0.000    0.000    0.000    0.000    0.000 
#
# Total GULP energy -347281.401934 kJ/mol
# GULP energy per Si atom -12402.907212 kJ/mol
# Density = 2.015940 g / cm^3
# Si number density = 20.205385 Si / 1000 Ang^3
#
#
#
# Elastic Constant Matrix: (Units=GPa)
#
#
# Indices 1 2 3 4 5 6 
#
# 1 127.2968 48.8582 35.8214 0.0000 -3.8858 0.0000
# 2 48.8582 118.3323 48.1679 0.0000 -2.1425 0.0000
# 3 35.8214 48.1679 94.8837 0.0000 -1.3128 0.0000
# 4 0.0000 0.0000 0.0000 34.6028 0.0000 0.2418
# 5 -3.8858 -2.1425 -1.3128 0.0000 28.3375 0.0000
# 6 0.0000 0.0000 0.0000 0.2418 0.0000 37.8805
#
#
#
# Elastic Compliance Matrix: (Units=1/GPa)
#
#
# Indices 1 2 3 4 5 6 
#
# 1 0.009666 -0.003143 -0.002040 0.000000 0.000993 0.000000
# 2 -0.003143 0.011682 -0.004741 0.000000 0.000233 0.000000
# 3 -0.002040 -0.004741 0.013716 0.000000 -0.000003 0.000000
# 4 0.000000 0.000000 0.000000 0.028901 0.000000 -0.000184
# 5 0.000993 0.000233 -0.000003 0.000000 0.035443 0.000000
# 6 0.000000 0.000000 0.000000 -0.000184 0.000000 0.026400
#
#
# Mechanical properties :
#
#
# Convention : Reuss Voigt Hill
#
# Bulk Modulus (GPa) = 65.71472 67.35641 66.53557
# Shear Modulus (GPa) = 33.17232 34.00851 33.59042
#
# Velocity S-wave (km/s) = 4.05626 4.10706 4.08174
# Velocity P-wave (km/s) = 7.38455 7.47655 7.43069
#
# Compressibility (1/GPa) = 0.01521729
#
# Stress axis : x y z
#
# Youngs Moduli (GPa) = 103.45248 85.59906 72.90684
#
# Poissons Ratio (x) = 0.26901 0.14874
# Poissons Ratio (y) = 0.32511 0.34564
# Poissons Ratio (z) = 0.21106 0.40582
#
# Static dielectric constant tensor:
#      x y z
#    x 3.895920 0.000000 -0.109750 
#    y 0.000000 3.687030 0.000000 
#    z -0.109750 0.000000 4.278120 
# 
# 
# High freq. dielectric constant tensor:
#      x y z
#    x 1.802920 0.000000 -0.000790 
#    y 0.000000 1.789950 0.000000 
#    z -0.000790 0.000000 1.785500 
# 
# From -- ./inp_files/53223.got.cif
#   From: 2010.06.25/outbox.cif.g09.slc.cpg/sg11_27_cif.got.tgz:53223.got - 2010.06.27 23:14:04.
