data_PCOD8076332
_publ_section_title
;
Structure prediction by ZEFSAII (Michael W. Deem and Ramdas Pophale) SiO2 
 PCOD8076332
Probable space group: P 21/M
;
_chemical_formula_sum "Si O2"
_cell_formula_units_Z 32
_cell_length_a 12.171347
_cell_length_b 9.048706
_cell_length_c 14.434436
_cell_angle_alpha 90.000000
_cell_angle_beta 90.074981
_cell_angle_gamma 90.000000
_cell_volume 1589.734391
_symmetry_space_group_name_H-M "P 21/M"
_symmetry_group_IT_number 11
_symmetry_cell_setting 'monoclinic'
loop_
_space_group_symop_operation_xyz
x,y,z
-x,1/2+y,-z
-x,-y,-z
x,1/2-y,z
loop_
_atom_site_type_symbol
_atom_site_label
_atom_site_fract_x
_atom_site_fract_y
_atom_site_fract_z
Si Si1 0.709287 0.079057 0.642135
Si Si2 0.496339 0.583816 0.860164
Si Si3 0.115960 0.923580 0.511498
Si Si4 0.280181 0.080427 0.861907
Si Si5 0.711509 0.079501 0.853102
Si Si6 0.277175 0.419613 0.642456
Si Si7 0.493392 0.916277 0.639843
Si Si8 0.116109 0.923091 0.991711
O O1 0.676511 0.250000 0.636129
O O2 0.814627 0.041543 0.580660
O O3 0.738248 0.033368 0.747517
O O4 0.605642 0.988139 0.602563
O O5 0.486597 0.750000 0.898612
O O6 0.394043 0.489929 0.898518
O O7 0.610042 0.512804 0.895122
O O8 0.495217 0.580694 0.750002
O O9 0.100369 0.750000 0.527154
O O10 0.174823 0.991983 0.600892
O O11 0.000000 0.000000 0.500000
O O12 0.276443 0.250000 0.893927
O O13 0.269454 0.065390 0.752242
O O14 0.179138 0.991939 0.904865
O O15 0.676964 0.250000 0.858631
O O16 0.818731 0.045079 0.913325
O O17 0.272801 0.250000 0.610563
O O18 0.389669 0.490446 0.603567
O O19 0.482989 0.750000 0.601568
O O20 0.100381 0.750000 0.974069
O O21 0.000000 0.000000 0.000000
#
# Coordination Sequence:
#
# PCOD8076332 Si02
#       8
#     4   4   4   4   4   4   4   4
#     4   9  19  37  59  82 111 147 184 224 275 335
#     4   9  17  31  55  87 117 143 178 226 278 333
#     4  11  24  40  58  82 112 148 192 238 281 331
#     4  10  21  38  60  84 113 150 188 229 280 335
#     4   9  19  37  59  82 111 147 184 224 275 335
#     4  10  21  38  60  84 113 150 188 229 280 335
#     4   9  17  31  55  87 117 143 178 226 278 333
#     4  11  24  40  58  82 112 148 192 238 281 331
#
# _framework density 20.129149999999999
#
# number of rings (size 3 to 8) (size 9 to 14) (size 15 to 20)
#    0.000    2.250    0.000    2.250    0.000    8.500 
#    0.000    2.500    0.000    0.000    0.000    0.000 
#    0.000    0.000    0.000    0.000    0.000    0.000 
#
# Total GULP energy -396921.200857 kJ/mol
# GULP energy per Si atom -12403.787527 kJ/mol
# Density = 2.008334 g / cm^3
# Si number density = 20.129150 Si / 1000 Ang^3
#
#
#
# Elastic Constant Matrix: (Units=GPa)
#
#
# Indices 1 2 3 4 5 6 
#
# 1 168.3333 90.0411 33.7172 0.0000 -17.8931 0.0000
# 2 90.0411 149.0792 40.1108 0.0000 -14.5905 0.0000
# 3 33.7172 40.1108 46.7070 0.0000 -12.1247 0.0000
# 4 0.0000 0.0000 0.0000 26.1974 0.0000 -0.1128
# 5 -17.8931 -14.5905 -12.1247 0.0000 12.3598 0.0000
# 6 0.0000 0.0000 0.0000 -0.1128 0.0000 45.7985
#
#
#
# Elastic Compliance Matrix: (Units=1/GPa)
#
#
# Indices 1 2 3 4 5 6 
#
# 1 0.009419 -0.004757 -0.000848 0.000000 0.007188 0.000000
# 2 -0.004757 0.011273 -0.006145 0.000000 0.000392 0.000000
# 3 -0.000848 -0.006145 0.033672 0.000000 0.024550 0.000000
# 4 0.000000 0.000000 0.000000 0.038172 0.000000 0.000094
# 5 0.007188 0.000392 0.024550 0.000000 0.115860 0.000000
# 6 0.000000 0.000000 0.000000 0.000094 0.000000 0.021835
#
#
# Mechanical properties :
#
#
# Convention : Reuss Voigt Hill
#
# Bulk Modulus (GPa) = 32.40032 76.87308 54.63670
# Shear Modulus (GPa) = 18.93794 30.22115 24.57954
#
# Velocity S-wave (km/s) = 3.07061 3.87895 3.49820
# Velocity P-wave (km/s) = 5.35749 7.63770 6.59686
#
# Compressibility (1/GPa) = 0.03086389
#
# Stress axis : x y z
#
# Youngs Moduli (GPa) = 106.16552 88.70846 29.69801
#
# Poissons Ratio (x) = 0.42202 0.02519
# Poissons Ratio (y) = 0.50507 0.18249
# Poissons Ratio (z) = 0.09005 0.54509
#
# Static dielectric constant tensor:
#      x y z
#    x 3.653080 0.000000 -0.001200 
#    y 0.000000 3.848420 0.000000 
#    z -0.001200 0.000000 3.650920 
# 
# 
# High freq. dielectric constant tensor:
#      x y z
#    x 1.783370 0.000000 0.000510 
#    y 0.000000 1.796470 0.000000 
#    z 0.000510 0.000000 1.783490 
# 
# From -- ./inp_files/49367.got.cif
#   From: 2010.06.25/outbox.cif.g09.slc.cpg/sg11_25_cif.got.tgz:49367.got - 2010.06.27 23:14:04.
