data_PCOD8076774
_publ_section_title
;
Structure prediction by ZEFSAII (Michael W. Deem and Ramdas Pophale) SiO2 
 PCOD8076774
Probable space group: P 21/M
;
_chemical_formula_sum "Si O2"
_cell_formula_units_Z 28
_cell_length_a 9.765325
_cell_length_b 8.560827
_cell_length_c 21.712042
_cell_angle_alpha 90.000000
_cell_angle_beta 132.858639
_cell_angle_gamma 90.000000
_cell_volume 1330.537984
_symmetry_space_group_name_H-M "P 21/M"
_symmetry_group_IT_number 11
_symmetry_cell_setting 'monoclinic'
loop_
_space_group_symop_operation_xyz
x,y,z
-x,1/2+y,-z
-x,-y,-z
x,1/2-y,z
loop_
_atom_site_type_symbol
_atom_site_label
_atom_site_fract_x
_atom_site_fract_y
_atom_site_fract_z
Si Si1 0.735956 0.567202 0.805134
Si Si2 0.431735 0.567277 0.128409
Si Si3 0.215189 0.931257 0.821116
Si Si4 0.556743 0.432941 0.631451
Si Si5 0.850036 0.433874 0.501518
Si Si6 0.155083 0.934409 0.939631
Si Si7 0.847173 0.569522 0.632263
O O1 0.728175 0.750000 0.786011
O O2 0.597317 0.528135 0.818069
O O3 0.680643 0.469969 0.728631
O O4 0.943352 0.513726 0.888945
O O5 0.397398 0.750000 0.129653
O O6 0.643468 0.538295 0.173461
O O7 0.291838 0.497467 0.033708
O O8 0.274675 0.750000 0.834939
O O9 0.217724 0.995016 0.891765
O O10 0.008957 0.956194 0.731602
O O11 0.535449 0.250000 0.615911
O O12 0.354019 0.506006 0.578970
O O13 0.654895 0.501805 0.600619
O O14 0.852727 0.250000 0.496807
O O15 0.904197 0.483381 0.587111
O O16 0.000000 0.500000 0.500000
O O17 0.170386 0.750000 0.944058
O O18 0.815229 0.750000 0.606998
#
# Coordination Sequence:
#
# PCOD8076774 Si02
#       7
#     4   4   4   4   4   4   4
#     4  11  22  41  65  90 125 171 218 264 323 385
#     4  11  23  37  58  92 131 167 213 271 324 377
#     4  10  21  40  64  90 125 171 216 259 316 382
#     4  12  25  44  69  99 131 167 216 266 320 382
#     4  12  27  47  71 101 136 170 209 259 318 379
#     4   9  19  39  63  89 123 166 217 268 318 379
#     4  11  23  44  71  97 130 173 218 262 317 382
#
# _framework density 21.044118999999998
#
# number of rings (size 3 to 8) (size 9 to 14) (size 15 to 20)
#    0.000    1.143    1.429    5.143    2.000    1.143 
#    0.000    2.857    0.000    0.000    0.000    0.000 
#    0.000    0.000    0.000    0.000    0.000    0.000 
#
# Total GULP energy -347374.215239 kJ/mol
# GULP energy per Si atom -12406.221973 kJ/mol
# Density = 2.099622 g / cm^3
# Si number density = 21.044119 Si / 1000 Ang^3
#
#
#
# Elastic Constant Matrix: (Units=GPa)
#
#
# Indices 1 2 3 4 5 6 
#
# 1 156.7744 50.1794 31.7655 0.0000 -8.7488 0.0000
# 2 50.1794 127.5878 36.5743 0.0000 -6.7264 0.0000
# 3 31.7655 36.5743 78.3580 0.0000 -5.1254 0.0000
# 4 0.0000 0.0000 0.0000 30.6092 0.0000 0.2127
# 5 -8.7488 -6.7264 -5.1254 0.0000 44.2090 0.0000
# 6 0.0000 0.0000 0.0000 0.2127 0.0000 32.7223
#
#
#
# Elastic Compliance Matrix: (Units=1/GPa)
#
#
# Indices 1 2 3 4 5 6 
#
# 1 0.007579 -0.002388 -0.001898 0.000000 0.000916 0.000000
# 2 -0.002388 0.009836 -0.003583 0.000000 0.000609 0.000000
# 3 -0.001898 -0.003583 0.015259 0.000000 0.000848 0.000000
# 4 0.000000 0.000000 0.000000 0.032671 0.000000 -0.000212
# 5 0.000916 0.000609 0.000848 0.000000 0.022992 0.000000
# 6 0.000000 0.000000 0.000000 -0.000212 0.000000 0.030562
#
#
# Mechanical properties :
#
#
# Convention : Reuss Voigt Hill
#
# Bulk Modulus (GPa) = 59.04608 66.63984 62.84296
# Shear Modulus (GPa) = 35.64229 37.78816 36.71522
#
# Velocity S-wave (km/s) = 4.11992 4.24212 4.18147
# Velocity P-wave (km/s) = 7.12396 7.46523 7.29659
#
# Compressibility (1/GPa) = 0.01693593
#
# Stress axis : x y z
#
# Youngs Moduli (GPa) = 131.94918 101.66425 65.53437
#
# Poissons Ratio (x) = 0.24281 0.12436
# Poissons Ratio (y) = 0.31514 0.23482
# Poissons Ratio (z) = 0.25038 0.36428
#
# Static dielectric constant tensor:
#      x y z
#    x 3.856020 0.000000 -0.041250 
#    y 0.000000 3.693850 0.000000 
#    z -0.041250 0.000000 3.960190 
# 
# 
# High freq. dielectric constant tensor:
#      x y z
#    x 1.838500 0.000000 -0.002010 
#    y 0.000000 1.817190 0.000000 
#    z -0.002010 0.000000 1.835100 
# 
# From -- ./inp_files/63396.got.cif
#   From: 2010.06.25/outbox.cif.g09.slc.cpg/sg11_32_cif.got.tgz:63396.got - 2010.06.27 23:14:04.
