data_PCOD8076918
_publ_section_title
;
Structure prediction by ZEFSAII (Michael W. Deem and Ramdas Pophale) SiO2 
 PCOD8076918
Probable space group: P 21/M
;
_chemical_formula_sum "Si O2"
_cell_formula_units_Z 12
_cell_length_a 7.108214
_cell_length_b 9.412555
_cell_length_c 10.818255
_cell_angle_alpha 90.000000
_cell_angle_beta 141.574331
_cell_angle_gamma 90.000000
_cell_volume 449.847740
_symmetry_space_group_name_H-M "P 21/M"
_symmetry_group_IT_number 11
_symmetry_cell_setting 'monoclinic'
loop_
_space_group_symop_operation_xyz
x,y,z
-x,1/2+y,-z
-x,-y,-z
x,1/2-y,z
loop_
_atom_site_type_symbol
_atom_site_label
_atom_site_fract_x
_atom_site_fract_y
_atom_site_fract_z
Si Si1 0.583719 0.750000 0.477476
Si Si2 0.011994 0.250000 0.675456
Si Si3 0.117735 0.750000 0.934314
Si Si4 0.398368 0.048692 0.734389
Si Si5 0.634238 0.750000 0.893151
O O1 0.331957 0.750000 0.455992
O O2 0.912048 0.750000 0.708043
O O3 0.551910 0.608176 0.378909
O O4 0.080615 0.108217 0.627625
O O5 0.258506 0.250000 0.911493
O O6 0.933154 0.750000 0.965957
O O7 0.325719 0.609420 0.039747
O O8 0.413565 0.880037 0.746097
#
# Coordination Sequence:
#
# PCOD8076918 Si02
#       5
#     2   2   2   4   2
#     4  10  22  46  68 103 133 174 237 275 343 404
#     4  10  21  44  70  93 140 179 228 281 331 412
#     4  10  22  42  73  98 132 183 225 284 335 407
#     4  10  24  45  69  99 137 180 225 283 340 408
#     4  12  21  44  71 100 137 182 222 280 351 405
#
# _framework density 26.675692999999999
#
# number of rings (size 3 to 8) (size 9 to 14) (size 15 to 20)
#    0.000    2.000    3.333    2.000    0.000    1.333 
#   12.000    1.667    0.000    0.000    0.000    0.000 
#    0.000    0.000    0.000    0.000    0.000    0.000 
#
# Total GULP energy -148869.177732 kJ/mol
# GULP energy per Si atom -12405.764811 kJ/mol
# Density = 2.661498 g / cm^3
# Si number density = 26.675693 Si / 1000 Ang^3
#
#
#
# Elastic Constant Matrix: (Units=GPa)
#
#
# Indices 1 2 3 4 5 6 
#
# 1 133.9045 42.1478 24.8852 0.0000 15.9972 0.0000
# 2 42.1478 207.0750 24.8331 0.0000 13.1442 0.0000
# 3 24.8852 24.8331 139.0445 0.0000 15.2108 0.0000
# 4 0.0000 0.0000 0.0000 -30.9175 0.0000 -1.4274
# 5 15.9972 13.1442 15.2108 0.0000 40.7281 0.0000
# 6 0.0000 0.0000 0.0000 -1.4274 0.0000 15.1164
#
#
#
# Elastic Compliance Matrix: (Units=1/GPa)
#
#
# Indices 1 2 3 4 5 6 
#
# 1 0.008396 -0.001435 -0.000976 0.000000 -0.002470 0.000000
# 2 -0.001435 0.005249 -0.000581 0.000000 -0.000913 0.000000
# 3 -0.000976 -0.000581 0.007723 0.000000 -0.002314 0.000000
# 4 0.000000 0.000000 0.000000 -0.032204 0.000000 -0.003041
# 5 -0.002470 -0.000913 -0.002314 0.000000 0.026682 0.000000
# 6 0.000000 0.000000 0.000000 -0.003041 0.000000 0.065866
#
#
# Mechanical properties :
#
#
# Convention : Reuss Voigt Hill
#
# Bulk Modulus (GPa) = 64.99962 73.75067 69.37515
# Shear Modulus (GPa) = 53.86471 30.86260 42.36366
#
# Velocity S-wave (km/s) = 4.49847 3.40510 3.98942
# Velocity P-wave (km/s) = 7.16946 6.57014 6.87633
#
# Compressibility (1/GPa) = 0.01538471
#
# Stress axis : x y z
#
# Youngs Moduli (GPa) = 119.10101 190.51670 129.47556
#
# Poissons Ratio (x) = 0.27341 0.12639
# Poissons Ratio (y) = 0.17092 0.07518
# Poissons Ratio (z) = 0.11626 0.11063
#
# Static dielectric constant tensor:
#      x y z
#    x 4.922700 0.000000 -0.010790 
#    y 0.000000 4.605560 0.000000 
#    z -0.010790 0.000000 4.818090 
# 
# 
# High freq. dielectric constant tensor:
#      x y z
#    x 2.083710 0.000000 -0.001770 
#    y 0.000000 2.057870 0.000000 
#    z -0.001770 0.000000 2.099200 
# 
# From -- ./inp_files/46394.got.cif
#   From: 2010.06.25/outbox.cif.g09.slc.cpg/sg11_24_cif.got.tgz:46394.got - 2010.06.27 23:14:04.
