data_PCOD8076531
_publ_section_title
;
Structure prediction by ZEFSAII (Michael W. Deem and Ramdas Pophale) SiO2 
 PCOD8076531
Probable space group: P 21/M
;
_chemical_formula_sum "Si O2"
_cell_formula_units_Z 32
_cell_length_a 30.132705
_cell_length_b 8.870386
_cell_length_c 10.872838
_cell_angle_alpha 90.000000
_cell_angle_beta 145.908807
_cell_angle_gamma 90.000000
_cell_volume 1628.951834
_symmetry_space_group_name_H-M "P 21/M"
_symmetry_group_IT_number 11
_symmetry_cell_setting 'monoclinic'
loop_
_space_group_symop_operation_xyz
x,y,z
-x,1/2+y,-z
-x,-y,-z
x,1/2-y,z
loop_
_atom_site_type_symbol
_atom_site_label
_atom_site_fract_x
_atom_site_fract_y
_atom_site_fract_z
Si Si1 0.447584 0.929396 0.769702
Si Si2 0.000862 0.918750 0.128631
Si Si3 0.475412 0.428086 0.313306
Si Si4 0.833987 0.081155 0.367780
Si Si5 0.916189 0.421116 0.320555
Si Si6 0.704403 0.570914 0.477168
Si Si7 0.139171 0.578394 0.070035
Si Si8 0.309463 0.427363 0.832621
O O1 0.453078 0.750000 0.795906
O O2 0.474364 0.977923 0.692792
O O3 0.357872 0.987400 0.577286
O O4 0.500000 0.000000 0.000000
O O5 0.966236 0.750000 0.039823
O O6 0.091762 0.916026 0.372785
O O7 0.000000 0.000000 0.000000
O O8 0.947161 0.014463 0.097150
O O9 0.500000 0.500000 0.500000
O O10 0.481317 0.250000 0.343552
O O11 0.386373 0.484153 0.082110
O O12 0.799841 0.250000 0.271014
O O13 0.863089 0.006881 0.306678
O O14 0.767276 0.977608 0.271049
O O15 0.936817 0.250000 0.406002
O O16 0.000000 0.500000 0.500000
O O17 0.858850 0.427953 0.072206
O O18 0.693991 0.750000 0.465528
O O19 0.792618 0.525205 0.718002
O O20 0.689816 0.511292 0.305224
O O21 0.148421 0.750000 0.139524
O O22 0.309250 0.250000 0.823776
#
# Coordination Sequence:
#
# PCOD8076531 Si02
#       8
#     4   4   4   4   4   4   4   4
#     4  11  22  41  68  96 130 169 215 265 319 383
#     4  11  22  37  57  82 117 156 200 250 301 363
#     4  10  23  43  65  95 132 168 211 263 315 382
#     4  10  22  38  58  85 116 156 204 248 301 368
#     4  10  21  39  60  82 115 156 203 254 304 365
#     4  11  23  41  64  92 127 164 209 262 314 371
#     4  11  23  38  59  89 121 155 201 256 310 365
#     4  10  22  41  61  87 124 161 203 256 310 365
#
# _framework density 19.644534
#
# number of rings (size 3 to 8) (size 9 to 14) (size 15 to 20)
#    0.000    1.500    2.500    2.250    0.000    7.500 
#    0.000    3.750    0.000    0.000    0.000    0.000 
#    0.000    0.000    0.000    0.000    0.000    0.000 
#
# Total GULP energy -396749.656218 kJ/mol
# GULP energy per Si atom -12398.426757 kJ/mol
# Density = 1.959982 g / cm^3
# Si number density = 19.644534 Si / 1000 Ang^3
#
#
#
# Elastic Constant Matrix: (Units=GPa)
#
#
# Indices 1 2 3 4 5 6 
#
# 1 153.8870 41.6180 57.4950 0.0000 -1.8511 0.0000
# 2 41.6180 62.6086 32.8972 0.0000 -4.1964 0.0000
# 3 57.4950 32.8972 109.6540 0.0000 -1.4033 0.0000
# 4 0.0000 0.0000 0.0000 35.0211 0.0000 3.0277
# 5 -1.8511 -4.1964 -1.4033 0.0000 38.6958 0.0000
# 6 0.0000 0.0000 0.0000 3.0277 0.0000 32.8082
#
#
#
# Elastic Compliance Matrix: (Units=1/GPa)
#
#
# Indices 1 2 3 4 5 6 
#
# 1 0.008891 -0.004119 -0.003428 0.000000 -0.000146 0.000000
# 2 -0.004119 0.021003 -0.004117 0.000000 0.001931 0.000000
# 3 -0.003428 -0.004117 0.012150 0.000000 -0.000170 0.000000
# 4 0.000000 0.000000 0.000000 0.028784 0.000000 -0.002656
# 5 -0.000146 0.001931 -0.000170 0.000000 0.026039 0.000000
# 6 0.000000 0.000000 0.000000 -0.002656 0.000000 0.030725
#
#
# Mechanical properties :
#
#
# Convention : Reuss Voigt Hill
#
# Bulk Modulus (GPa) = 53.42837 65.57447 59.50142
# Shear Modulus (GPa) = 31.81510 34.24764 33.03137
#
# Velocity S-wave (km/s) = 4.02872 4.17989 4.10500
# Velocity P-wave (km/s) = 6.99266 7.53315 7.26793
#
# Compressibility (1/GPa) = 0.01871665
#
# Stress axis : x y z
#
# Youngs Moduli (GPa) = 112.47018 47.61302 82.30486
#
# Poissons Ratio (x) = 0.19611 0.28215
# Poissons Ratio (y) = 0.46324 0.33882
# Poissons Ratio (z) = 0.38557 0.19601
#
# Static dielectric constant tensor:
#      x y z
#    x 3.721600 0.000000 -0.083290 
#    y 0.000000 3.622840 0.000000 
#    z -0.083290 0.000000 3.542460 
# 
# 
# High freq. dielectric constant tensor:
#      x y z
#    x 1.780990 0.000000 -0.001950 
#    y 0.000000 1.764140 0.000000 
#    z -0.001950 0.000000 1.767260 
# 
# From -- ./inp_files/45319.got.cif
#   From: 2010.06.25/outbox.cif.g09.slc.cpg/sg11_23_cif.got.tgz:45319.got - 2010.06.27 23:14:04.
