data_PCOD8076638
_publ_section_title
;
Structure prediction by ZEFSAII (Michael W. Deem and Ramdas Pophale) SiO2 
 PCOD8076638
Probable space group: P 21/M
;
_chemical_formula_sum "Si O2"
_cell_formula_units_Z 28
_cell_length_a 15.667935
_cell_length_b 8.849369
_cell_length_c 19.700975
_cell_angle_alpha 90.000000
_cell_angle_beta 149.864006
_cell_angle_gamma 90.000000
_cell_volume 1371.394290
_symmetry_space_group_name_H-M "P 21/M"
_symmetry_group_IT_number 11
_symmetry_cell_setting 'monoclinic'
loop_
_space_group_symop_operation_xyz
x,y,z
-x,1/2+y,-z
-x,-y,-z
x,1/2-y,z
loop_
_atom_site_type_symbol
_atom_site_label
_atom_site_fract_x
_atom_site_fract_y
_atom_site_fract_z
Si Si1 0.475139 0.076681 0.174211
Si Si2 0.482426 0.074421 0.415328
Si Si3 0.028311 0.070903 0.681485
Si Si4 0.908203 0.927302 0.121099
Si Si5 0.323080 0.428030 0.570649
Si Si6 0.094068 0.075778 0.127142
Si Si7 0.360183 0.924737 0.856693
O O1 0.480189 0.250000 0.203205
O O2 0.588356 0.055796 0.185709
O O3 0.542167 0.968037 0.278775
O O4 0.283781 0.025137 0.027324
O O5 0.529717 0.250000 0.453324
O O6 0.294590 0.050581 0.255976
O O7 0.500000 0.000000 0.500000
O O8 0.617456 0.994286 0.459991
O O9 0.025756 0.250000 0.672371
O O10 0.050141 0.019441 0.774320
O O11 0.181326 0.006871 0.742140
O O12 0.856456 0.001748 0.533013
O O13 0.933990 0.750000 0.130667
O O14 0.037988 0.007910 0.160174
O O15 0.303528 0.250000 0.550833
O O16 0.045079 0.250000 0.092922
O O17 0.000000 0.000000 0.000000
O O18 0.345507 0.750000 0.867065
O O19 0.500000 0.000000 0.000000
#
# Coordination Sequence:
#
# PCOD8076638 Si02
#       7
#     4   4   4   4   4   4   4
#     4  10  22  42  64  90 126 168 208 255 312 374
#     4  11  24  43  65  90 124 167 210 259 312 374
#     4  11  23  42  66  93 125 165 207 256 313 372
#     4  10  21  39  63  90 120 158 206 253 307 367
#     4  12  26  42  62  94 127 164 211 260 316 377
#     4  11  24  39  59  89 122 158 203 253 309 366
#     4  11  22  40  66  96 129 164 209 259 311 373
#
# _framework density 20.417176999999999
#
# number of rings (size 3 to 8) (size 9 to 14) (size 15 to 20)
#    0.000    1.143    1.429    4.714    0.000   11.429 
#    0.000    0.000    0.000    0.000    0.000    0.000 
#    0.000    0.000    0.000    0.000    0.000    0.000 
#
# Total GULP energy -347417.847913 kJ/mol
# GULP energy per Si atom -12407.780283 kJ/mol
# Density = 2.037071 g / cm^3
# Si number density = 20.417177 Si / 1000 Ang^3
#
#
#
# Elastic Constant Matrix: (Units=GPa)
#
#
# Indices 1 2 3 4 5 6 
#
# 1 67.4613 32.1991 6.1545 0.0000 9.8327 0.0000
# 2 32.1991 103.2845 30.8636 0.0000 2.5835 0.0000
# 3 6.1545 30.8636 73.7990 0.0000 4.8672 0.0000
# 4 0.0000 0.0000 0.0000 35.3513 0.0000 2.1609
# 5 9.8327 2.5835 4.8672 0.0000 40.1587 0.0000
# 6 0.0000 0.0000 0.0000 2.1609 0.0000 40.0845
#
#
#
# Elastic Compliance Matrix: (Units=1/GPa)
#
#
# Indices 1 2 3 4 5 6 
#
# 1 0.018152 -0.005925 0.001242 0.000000 -0.004214 0.000000
# 2 -0.005925 0.012999 -0.005023 0.000000 0.001223 0.000000
# 3 0.001242 -0.005023 0.015671 0.000000 -0.001880 0.000000
# 4 0.000000 0.000000 0.000000 0.028381 0.000000 -0.001530
# 5 -0.004214 0.001223 -0.001880 0.000000 0.026082 0.000000
# 6 0.000000 0.000000 0.000000 -0.001530 0.000000 0.025030
#
#
# Mechanical properties :
#
#
# Convention : Reuss Voigt Hill
#
# Bulk Modulus (GPa) = 36.48145 42.55327 39.51736
# Shear Modulus (GPa) = 32.28627 34.80740 33.54684
#
# Velocity S-wave (km/s) = 3.98091 4.13341 4.05788
# Velocity P-wave (km/s) = 6.24796 6.60812 6.43056
#
# Compressibility (1/GPa) = 0.02741119
#
# Stress axis : x y z
#
# Youngs Moduli (GPa) = 55.09035 76.92657 63.81024
#
# Poissons Ratio (x) = 0.45576 -0.07924
# Poissons Ratio (y) = 0.32639 0.32052
# Poissons Ratio (z) = -0.06841 0.38641
#
# Static dielectric constant tensor:
#      x y z
#    x 3.790320 0.000000 0.047950 
#    y 0.000000 3.838060 0.000000 
#    z 0.047950 0.000000 3.706630 
# 
# 
# High freq. dielectric constant tensor:
#      x y z
#    x 1.808530 0.000000 0.005470 
#    y 0.000000 1.804470 0.000000 
#    z 0.005470 0.000000 1.811140 
# 
# From -- ./inp_files/65441.got.cif
#   From: 2010.06.25/outbox.cif.g09.slc.cpg/sg11_33_cif.got.tgz:65441.got - 2010.06.27 23:14:04.
