data_PCOD8076704
_publ_section_title
;
Structure prediction by ZEFSAII (Michael W. Deem and Ramdas Pophale) SiO2 
 PCOD8076704
Probable space group: P 21/M
;
_chemical_formula_sum "Si O2"
_cell_formula_units_Z 32
_cell_length_a 16.076414
_cell_length_b 8.332926
_cell_length_c 24.314645
_cell_angle_alpha 90.000000
_cell_angle_beta 29.324707
_cell_angle_gamma 90.000000
_cell_volume 1595.278769
_symmetry_space_group_name_H-M "P 21/M"
_symmetry_group_IT_number 11
_symmetry_cell_setting 'monoclinic'
loop_
_space_group_symop_operation_xyz
x,y,z
-x,1/2+y,-z
-x,-y,-z
x,1/2-y,z
loop_
_atom_site_type_symbol
_atom_site_label
_atom_site_fract_x
_atom_site_fract_y
_atom_site_fract_z
Si Si1 0.078998 0.934133 0.656247
Si Si2 0.051377 0.437985 0.150589
Si Si3 0.426619 0.068721 0.487350
Si Si4 0.027301 0.062897 0.566392
Si Si5 0.184918 0.935607 0.892087
Si Si6 0.358403 0.935645 0.907944
Si Si7 0.270403 0.063439 0.331536
Si Si8 0.738410 0.931075 0.261211
O O1 0.037591 0.750000 0.667006
O O2 0.973369 0.992778 0.771165
O O3 0.277283 0.953488 0.553854
O O4 0.039527 0.036158 0.624492
O O5 0.016353 0.250000 0.166366
O O6 0.914506 0.524923 0.190290
O O7 0.244013 0.477300 0.020512
O O8 0.357694 0.250000 0.531664
O O9 0.500000 0.000000 0.500000
O O10 0.589681 0.059755 0.355185
O O11 0.001078 0.250000 0.569583
O O12 0.192579 0.002119 0.435468
O O13 0.862388 0.969519 0.640320
O O14 0.193827 0.750000 0.868218
O O15 0.271507 0.961836 0.900022
O O16 0.260158 0.058246 0.804848
O O17 0.000000 0.000000 0.000000
O O18 0.366777 0.750000 0.920366
O O19 0.547806 0.012894 0.791588
O O20 0.306863 0.250000 0.317009
O O21 0.691182 0.750000 0.306569
#
# Coordination Sequence:
#
# PCOD8076704 Si02
#       8
#     4   4   4   4   4   4   4   4
#     4  11  24  41  61  89 122 160 203 248 301 359
#     4  11  23  39  60  84 119 161 204 253 300 352
#     4  12  24  39  59  85 119 159 204 251 298 356
#     4  10  21  39  66  95 121 154 194 244 303 363
#     4  11  22  36  56  84 119 159 203 249 299 356
#     4  10  22  39  61  87 119 159 202 248 304 364
#     4   9  20  41  65  91 122 155 190 243 307 363
#     4  12  24  38  56  81 117 162 206 251 302 355
#
# _framework density 20.059189
#
# number of rings (size 3 to 8) (size 9 to 14) (size 15 to 20)
#    0.000    1.250    2.500    3.750    1.750    3.000 
#    0.000    0.625    0.000    0.000    0.000    0.000 
#    0.000    0.000    0.000    0.000    0.000    0.000 
#
# Total GULP energy -396509.225866 kJ/mol
# GULP energy per Si atom -12390.913308 kJ/mol
# Density = 2.001353 g / cm^3
# Si number density = 20.059189 Si / 1000 Ang^3
#
#
#
# Elastic Constant Matrix: (Units=GPa)
#
#
# Indices 1 2 3 4 5 6 
#
# 1 96.2552 14.8530 53.9997 0.0000 13.1639 0.0000
# 2 14.8530 53.8995 18.2654 0.0000 3.5470 0.0000
# 3 53.9997 18.2654 159.4608 0.0000 3.2056 0.0000
# 4 0.0000 0.0000 0.0000 30.3547 0.0000 0.9886
# 5 13.1639 3.5470 3.2056 0.0000 34.8228 0.0000
# 6 0.0000 0.0000 0.0000 0.9886 0.0000 27.5065
#
#
#
# Elastic Compliance Matrix: (Units=1/GPa)
#
#
# Indices 1 2 3 4 5 6 
#
# 1 0.013762 -0.002020 -0.004337 0.000000 -0.004598 0.000000
# 2 -0.002020 0.019708 -0.001551 0.000000 -0.001101 0.000000
# 3 -0.004337 -0.001551 0.007896 0.000000 0.001071 0.000000
# 4 0.000000 0.000000 0.000000 0.032982 0.000000 -0.001185
# 5 -0.004598 -0.001101 0.001071 0.000000 0.030468 0.000000
# 6 0.000000 0.000000 0.000000 -0.001185 0.000000 0.036398
#
#
# Mechanical properties :
#
#
# Convention : Reuss Voigt Hill
#
# Bulk Modulus (GPa) = 39.13906 53.76130 46.45018
# Shear Modulus (GPa) = 30.20280 33.36996 31.78638
#
# Velocity S-wave (km/s) = 3.88452 4.08312 3.98506
# Velocity P-wave (km/s) = 6.29869 7.00633 6.66191
#
# Compressibility (1/GPa) = 0.02554992
#
# Stress axis : x y z
#
# Youngs Moduli (GPa) = 72.66139 50.74111 126.64870
#
# Poissons Ratio (x) = 0.10251 0.54923
# Poissons Ratio (y) = 0.14680 0.19645
# Poissons Ratio (z) = 0.31511 0.07871
#
# Static dielectric constant tensor:
#      x y z
#    x 3.409530 0.000000 0.133340 
#    y 0.000000 3.261470 0.000000 
#    z 0.133340 0.000000 3.845150 
# 
# 
# High freq. dielectric constant tensor:
#      x y z
#    x 1.770490 0.000000 0.013740 
#    y 0.000000 1.781110 0.000000 
#    z 0.013740 0.000000 1.796250 
# 
# From -- ./inp_files/69037.got.cif
#   From: 2010.06.25/outbox.cif.g09.slc.cpg/sg11_35_cif.got.tgz:69037.got - 2010.06.27 23:14:04.
