data_PCOD8076647
_publ_section_title
;
Structure prediction by ZEFSAII (Michael W. Deem and Ramdas Pophale) SiO2 
 PCOD8076647
Probable space group: P 21/M
;
_chemical_formula_sum "Si O2"
_cell_formula_units_Z 28
_cell_length_a 15.473295
_cell_length_b 8.743198
_cell_length_c 11.749335
_cell_angle_alpha 90.000000
_cell_angle_beta 121.112262
_cell_angle_gamma 90.000000
_cell_volume 1360.879194
_symmetry_space_group_name_H-M "P 21/M"
_symmetry_group_IT_number 11
_symmetry_cell_setting 'monoclinic'
loop_
_space_group_symop_operation_xyz
x,y,z
-x,1/2+y,-z
-x,-y,-z
x,1/2-y,z
loop_
_atom_site_type_symbol
_atom_site_label
_atom_site_fract_x
_atom_site_fract_y
_atom_site_fract_z
Si Si1 0.839683 0.074555 0.132580
Si Si2 0.519050 0.074627 0.191897
Si Si3 0.963711 0.572088 0.592919
Si Si4 0.209289 0.568245 0.381076
Si Si5 0.429657 0.070781 0.547181
Si Si6 0.891244 0.071265 0.918624
Si Si7 0.348607 0.074885 0.897698
O O1 0.807849 0.250000 0.131432
O O2 0.952749 0.044754 0.253075
O O3 0.766314 0.965025 0.152879
O O4 0.831452 0.031552 0.993740
O O5 0.530060 0.250000 0.238624
O O6 0.515451 0.962901 0.296596
O O7 0.614600 0.033357 0.178623
O O8 0.415462 0.045047 0.054768
O O9 0.942145 0.750000 0.558421
O O10 0.861072 0.492897 0.565166
O O11 0.000000 0.500000 0.500000
O O12 0.211326 0.750000 0.387874
O O13 0.320700 0.506037 0.474394
O O14 0.169974 0.507714 0.231663
O O15 0.418531 0.250000 0.519330
O O16 0.500000 0.000000 0.500000
O O17 0.907302 0.250000 0.916892
O O18 0.000000 0.000000 0.000000
O O19 0.356524 0.250000 0.862872
#
# Coordination Sequence:
#
# PCOD8076647 Si02
#       7
#     4   4   4   4   4   4   4
#     4  10  22  39  61  91 126 166 207 256 314 372
#     4  10  22  43  66  92 126 164 210 262 316 377
#     4  11  24  42  64  92 130 173 216 263 314 378
#     4  11  24  43  67  96 128 167 211 263 321 382
#     4  12  27  46  68  94 127 168 214 265 320 384
#     4  10  21  39  63  91 123 160 203 251 306 365
#     4  10  22  39  64  96 125 163 209 260 317 373
#
# _framework density 20.574935
#
# number of rings (size 3 to 8) (size 9 to 14) (size 15 to 20)
#    0.000    1.429    1.429    3.000    4.000    4.000 
#    0.000    0.000    0.000    0.000    0.000    0.000 
#    0.000    0.000    0.000    0.000    0.000    0.000 
#
# Total GULP energy -347349.648238 kJ/mol
# GULP energy per Si atom -12405.344580 kJ/mol
# Density = 2.052811 g / cm^3
# Si number density = 20.574935 Si / 1000 Ang^3
#
#
#
# Elastic Constant Matrix: (Units=GPa)
#
#
# Indices 1 2 3 4 5 6 
#
# 1 136.3329 49.1611 36.2654 0.0000 -1.3945 0.0000
# 2 49.1611 92.2698 36.0610 0.0000 -2.2270 0.0000
# 3 36.2654 36.0610 79.4081 0.0000 -16.7535 0.0000
# 4 0.0000 0.0000 0.0000 31.4875 0.0000 -1.2738
# 5 -1.3945 -2.2270 -16.7535 0.0000 29.6506 0.0000
# 6 0.0000 0.0000 0.0000 -1.2738 0.0000 38.8490
#
#
#
# Elastic Compliance Matrix: (Units=1/GPa)
#
#
# Indices 1 2 3 4 5 6 
#
# 1 0.009516 -0.003996 -0.002839 0.000000 -0.001456 0.000000
# 2 -0.003996 0.015050 -0.005462 0.000000 -0.002144 0.000000
# 3 -0.002839 -0.005462 0.018455 0.000000 0.009884 0.000000
# 4 0.000000 0.000000 0.000000 0.031801 0.000000 0.001043
# 5 -0.001456 -0.002144 0.009884 0.000000 0.039081 0.000000
# 6 0.000000 0.000000 0.000000 0.001043 0.000000 0.025775
#
#
# Mechanical properties :
#
#
# Convention : Reuss Voigt Hill
#
# Bulk Modulus (GPa) = 54.26405 61.22063 57.74234
# Shear Modulus (GPa) = 29.34043 32.43230 30.88636
#
# Velocity S-wave (km/s) = 3.78038 3.97457 3.87869
# Velocity P-wave (km/s) = 6.74434 7.13320 6.94149
#
# Compressibility (1/GPa) = 0.01842841
#
# Stress axis : x y z
#
# Youngs Moduli (GPa) = 105.08520 66.44692 54.18531
#
# Poissons Ratio (x) = 0.26552 0.15381
# Poissons Ratio (y) = 0.41991 0.29594
# Poissons Ratio (z) = 0.29830 0.36291
#
# Static dielectric constant tensor:
#      x y z
#    x 3.645530 0.000000 -0.131630 
#    y 0.000000 3.730850 0.000000 
#    z -0.131630 0.000000 4.033000 
# 
# 
# High freq. dielectric constant tensor:
#      x y z
#    x 1.810670 0.000000 -0.005010 
#    y 0.000000 1.809900 0.000000 
#    z -0.005010 0.000000 1.813320 
# 
# From -- ./inp_files/38401.got.cif
#   From: 2010.06.25/outbox.cif.g09.slc.cpg/sg11_20_cif.got.tgz:38401.got - 2010.06.27 23:14:04.
