data_PCOD8076092
_publ_section_title
;
Structure prediction by ZEFSAII (Michael W. Deem and Ramdas Pophale) SiO2 
 PCOD8076092
Probable space group: P 21/M
;
_chemical_formula_sum "Si O2"
_cell_formula_units_Z 28
_cell_length_a 10.796400
_cell_length_b 21.784484
_cell_length_c 6.567402
_cell_angle_alpha 90.000000
_cell_angle_beta 74.656452
_cell_angle_gamma 90.000000
_cell_volume 1489.558258
_symmetry_space_group_name_H-M "P 21/M"
_symmetry_group_IT_number 11
_symmetry_cell_setting 'monoclinic'
loop_
_space_group_symop_operation_xyz
x,y,z
-x,1/2+y,-z
-x,-y,-z
x,1/2-y,z
loop_
_atom_site_type_symbol
_atom_site_label
_atom_site_fract_x
_atom_site_fract_y
_atom_site_fract_z
Si Si1 0.011460 0.366519 0.654814
Si Si2 0.560119 0.468175 0.671526
Si Si3 0.070277 0.681131 0.906766
Si Si4 0.126484 0.026481 0.849755
Si Si5 0.193899 0.912827 0.569052
Si Si6 0.661703 0.934695 0.940900
Si Si7 0.820929 0.680330 0.768119
O O1 0.101847 0.410905 0.743594
O O2 0.107228 0.325220 0.480091
O O3 0.909971 0.403230 0.562240
O O4 0.928965 0.325617 0.849074
O O5 0.500000 0.500000 0.500000
O O6 0.660509 0.413215 0.577156
O O7 0.626839 0.523360 0.764794
O O8 0.455784 0.431656 0.850415
O O9 0.108424 0.750000 0.827967
O O10 0.175389 0.637121 0.756089
O O11 0.926676 0.664888 0.893997
O O12 0.182411 0.980865 0.660018
O O13 0.219919 0.033917 0.998686
O O14 0.000000 0.000000 0.000000
O O15 0.701860 0.866606 0.844981
O O16 0.768653 0.750000 0.812076
#
# Coordination Sequence:
#
# PCOD8076092 Si02
#       7
#     4   4   4   4   4   4   4
#     4  11  20  35  59  90 123 154 184 241 310 356
#     4  11  24  41  61  84 119 159 200 242 297 347
#     4  10  21  37  58  87 123 155 192 242 297 361
#     4  12  19  34  58  93 121 145 186 248 307 355
#     4  11  22  36  58  86 120 156 198 237 293 357
#     4  11  23  39  60  89 121 156 198 249 297 350
#     4  10  21  38  59  89 121 156 198 241 297 363
#
# _framework density 18.797521
#
# number of rings (size 3 to 8) (size 9 to 14) (size 15 to 20)
#    0.000    1.143    4.286    3.429    0.000    0.571 
#    0.000    0.714    0.000    2.571    0.000    0.000 
#    0.000    0.000    0.000    0.000    0.000    0.000 
#
# Total GULP energy -347203.501832 kJ/mol
# GULP energy per Si atom -12400.125065 kJ/mol
# Density = 1.875474 g / cm^3
# Si number density = 18.797521 Si / 1000 Ang^3
#
#
#
# Elastic Constant Matrix: (Units=GPa)
#
#
# Indices 1 2 3 4 5 6 
#
# 1 98.5517 47.7304 51.2052 0.0000 -5.0621 0.0000
# 2 47.7304 102.7561 51.2494 0.0000 -14.0153 0.0000
# 3 51.2052 51.2494 128.6054 0.0000 -5.3221 0.0000
# 4 0.0000 0.0000 0.0000 26.4039 0.0000 -4.7341
# 5 -5.0621 -14.0153 -5.3221 0.0000 42.6916 0.0000
# 6 0.0000 0.0000 0.0000 -4.7341 0.0000 22.8378
#
#
#
# Elastic Compliance Matrix: (Units=1/GPa)
#
#
# Indices 1 2 3 4 5 6 
#
# 1 0.014478 -0.004857 -0.003844 0.000000 -0.000357 0.000000
# 2 -0.004857 0.014287 -0.003608 0.000000 0.003665 0.000000
# 3 -0.003844 -0.003608 0.010732 0.000000 -0.000302 0.000000
# 4 0.000000 0.000000 0.000000 0.039335 0.000000 0.008154
# 5 -0.000357 0.003665 -0.000302 0.000000 0.024547 0.000000
# 6 0.000000 0.000000 0.000000 0.008154 0.000000 0.045477
#
#
# Mechanical properties :
#
#
# Convention : Reuss Voigt Hill
#
# Bulk Modulus (GPa) = 67.20710 70.03148 68.61929
# Shear Modulus (GPa) = 28.02173 30.36851 29.19512
#
# Velocity S-wave (km/s) = 3.86517 4.02376 3.94526
# Velocity P-wave (km/s) = 7.46660 7.67621 7.57213
#
# Compressibility (1/GPa) = 0.01487938
#
# Stress axis : x y z
#
# Youngs Moduli (GPa) = 69.07040 69.99357 93.18345
#
# Poissons Ratio (x) = 0.33993 0.35819
# Poissons Ratio (y) = 0.33545 0.33621
# Poissons Ratio (z) = 0.26550 0.25254
#
# Static dielectric constant tensor:
#      x y z
#    x 3.474660 0.000000 0.410100 
#    y 0.000000 3.413010 0.000000 
#    z 0.410100 0.000000 5.010320 
# 
# 
# High freq. dielectric constant tensor:
#      x y z
#    x 1.711430 0.000000 0.003670 
#    y 0.000000 1.722300 0.000000 
#    z 0.003670 0.000000 1.753680 
# 
# From -- ./inp_files/5031.got.cif
#   From: 2010.06.25/outbox.cif.g09.slc.cpg/sg11_3_cif.got.tgz:5031.got - 2010.06.27 23:14:04.
