data_PCOD8076868
_publ_section_title
;
Structure prediction by ZEFSAII (Michael W. Deem and Ramdas Pophale) SiO2 
 PCOD8076868
Probable space group: P 21/M
;
_chemical_formula_sum "Si O2"
_cell_formula_units_Z 28
_cell_length_a 11.153516
_cell_length_b 18.795443
_cell_length_c 5.495790
_cell_angle_alpha 90.000000
_cell_angle_beta 98.412566
_cell_angle_gamma 90.000000
_cell_volume 1139.715036
_symmetry_space_group_name_H-M "P 21/M"
_symmetry_group_IT_number 11
_symmetry_cell_setting 'monoclinic'
loop_
_space_group_symop_operation_xyz
x,y,z
-x,1/2+y,-z
-x,-y,-z
x,1/2-y,z
loop_
_atom_site_type_symbol
_atom_site_label
_atom_site_fract_x
_atom_site_fract_y
_atom_site_fract_z
Si Si1 0.805638 0.628927 0.552444
Si Si2 0.599370 0.433586 0.597079
Si Si3 0.078072 0.856895 0.676187
Si Si4 0.422526 0.169156 0.741828
Si Si5 0.221365 0.511874 0.712366
Si Si6 0.791047 0.173286 0.795565
Si Si7 0.637360 0.925708 0.868956
O O1 0.936082 0.663604 0.627701
O O2 0.724056 0.670335 0.326751
O O3 0.820270 0.545776 0.497668
O O4 0.720441 0.633293 0.763401
O O5 0.484143 0.378253 0.539750
O O6 0.667079 0.441003 0.359974
O O7 0.693520 0.390135 0.800854
O O8 0.562475 0.513827 0.688273
O O9 0.102967 0.940549 0.725110
O O10 0.130593 0.834433 0.429164
O O11 0.130181 0.820114 0.933827
O O12 0.472140 0.250000 0.774880
O O13 0.453849 0.119751 0.986726
O O14 0.264366 0.474302 0.967193
O O15 0.724430 0.250000 0.752434
#
# Coordination Sequence:
#
# PCOD8076868 Si02
#       7
#     4   4   4   4   4   4   4
#     4  10  24  40  62  94 132 175 219 272 336 413
#     4  10  21  42  67  95 130 169 229 290 343 396
#     4  11  23  42  67  99 138 178 227 279 343 411
#     4  11  25  42  62  92 135 181 223 273 341 419
#     4   9  20  39  66  99 124 167 215 288 342 396
#     4  11  24  42  67  99 134 181 233 289 346 399
#     4  10  21  41  66  99 126 169 226 282 339 398
#
# _framework density 24.567544999999999
#
# number of rings (size 3 to 8) (size 9 to 14) (size 15 to 20)
#    0.000    1.714    1.429    1.714    4.000    8.571 
#    0.000    0.000    0.000    0.000    0.000    0.000 
#    0.000    0.000    0.000    0.000    0.000    0.000 
#
# Total GULP energy -346885.088530 kJ/mol
# GULP energy per Si atom -12388.753162 kJ/mol
# Density = 2.451163 g / cm^3
# Si number density = 24.567545 Si / 1000 Ang^3
#
#
#
# Elastic Constant Matrix: (Units=GPa)
#
#
# Indices 1 2 3 4 5 6 
#
# 1 110.5419 24.7443 13.1002 0.0000 6.8919 0.0000
# 2 24.7443 151.2012 20.4052 0.0000 -9.2802 0.0000
# 3 13.1002 20.4052 92.6835 0.0000 -1.4061 0.0000
# 4 0.0000 0.0000 0.0000 580.2208 0.0000 -172.7721
# 5 6.8919 -9.2802 -1.4061 0.0000 28.0877 0.0000
# 6 0.0000 0.0000 0.0000 -172.7721 0.0000 63.8961
#
#
#
# Elastic Compliance Matrix: (Units=1/GPa)
#
#
# Indices 1 2 3 4 5 6 
#
# 1 0.009723 -0.001631 -0.001060 0.000000 -0.002978 0.000000
# 2 -0.001631 0.007226 -0.001319 0.000000 0.002721 0.000000
# 3 -0.001060 -0.001319 0.011236 0.000000 0.000387 0.000000
# 4 0.000000 0.000000 0.000000 0.008845 0.000000 0.023917
# 5 -0.002978 0.002721 0.000387 0.000000 0.037252 0.000000
# 6 0.000000 0.000000 0.000000 0.023917 0.000000 0.080322
#
#
# Mechanical properties :
#
#
# Convention : Reuss Voigt Hill
#
# Bulk Modulus (GPa) = 49.59448 52.32511 50.95979
# Shear Modulus (GPa) = 29.52556 154.18606 91.85581
#
# Velocity S-wave (km/s) = 3.47048 7.93072 6.12130
# Velocity P-wave (km/s) = 6.02410 10.25702 8.41119
#
# Compressibility (1/GPa) = 0.02016354
#
# Stress axis : x y z
#
# Youngs Moduli (GPa) = 102.85213 138.39636 89.00321
#
# Poissons Ratio (x) = 0.22569 0.09438
# Poissons Ratio (y) = 0.16773 0.11740
# Poissons Ratio (z) = 0.10906 0.18255
#
# Static dielectric constant tensor:
#      x y z
#    x 4.265260 0.000000 0.045060 
#    y 0.000000 4.382420 0.000000 
#    z 0.045060 0.000000 4.463230 
# 
# 
# High freq. dielectric constant tensor:
#      x y z
#    x 1.964010 0.000000 0.007710 
#    y 0.000000 1.978910 0.000000 
#    z 0.007710 0.000000 1.981360 
# 
# From -- ./inp_files/4898.got.cif
#   From: 2010.06.25/outbox.cif.g09.slc.cpg/sg11_3_cif.got.tgz:4898.got - 2010.06.27 23:14:04.
