data_PCOD8076517
_publ_section_title
;
Structure prediction by ZEFSAII (Michael W. Deem and Ramdas Pophale) SiO2 
 PCOD8076517
Probable space group: P 21/M
;
_chemical_formula_sum "Si O2"
_cell_formula_units_Z 32
_cell_length_a 18.759660
_cell_length_b 14.449898
_cell_length_c 13.117778
_cell_angle_alpha 90.000000
_cell_angle_beta 152.988902
_cell_angle_gamma 90.000000
_cell_volume 1614.960275
_symmetry_space_group_name_H-M "P 21/M"
_symmetry_group_IT_number 11
_symmetry_cell_setting 'monoclinic'
loop_
_space_group_symop_operation_xyz
x,y,z
-x,1/2+y,-z
-x,-y,-z
x,1/2-y,z
loop_
_atom_site_type_symbol
_atom_site_label
_atom_site_fract_x
_atom_site_fract_y
_atom_site_fract_z
Si Si1 0.302450 0.648439 0.436609
Si Si2 0.847805 0.857122 0.057984
Si Si3 0.247004 0.004809 0.744836
Si Si4 0.013804 0.138962 0.548083
Si Si5 0.592756 0.496524 0.268092
Si Si6 0.033938 0.098375 0.997733
Si Si7 0.357093 0.145597 0.501968
Si Si8 0.525557 0.858098 0.557046
O O1 0.377705 0.750000 0.549663
O O2 0.343573 0.589518 0.587400
O O3 0.372010 0.604642 0.420080
O O4 0.119057 0.660814 0.184039
O O5 0.883252 0.750000 0.081243
O O6 0.905293 0.885911 0.241989
O O7 0.938089 0.915246 0.087168
O O8 0.664831 0.880622 0.813712
O O9 0.129687 0.092710 0.611708
O O10 0.297575 0.000637 0.691561
O O11 0.157295 0.910719 0.667734
O O12 0.407975 0.016549 0.012613
O O13 0.996247 0.250000 0.506709
O O14 0.615979 0.590174 0.360694
O O15 0.175799 0.147501 0.236793
O O16 0.000000 0.000000 0.000000
O O17 0.410883 0.250000 0.593895
O O18 0.453211 0.098207 0.529195
O O19 0.518783 0.750000 0.525021
#
# Coordination Sequence:
#
# PCOD8076517 Si02
#       8
#     4   4   4   4   4   4   4   4
#     4  11  21  36  59  89 119 149 195 248 287 339
#     4   9  17  33  58  82 109 148 190 230 282 346
#     4  10  24  41  59  89 123 145 201 265 288 351
#     4  10  21  41  66  87 113 156 197 247 310 348
#     4  11  23  40  59  88 119 158 199 244 306 348
#     4  11  20  34  53  87 120 149 187 234 283 347
#     4  10  21  39  57  79 119 164 193 225 288 364
#     4   8  17  33  54  83 115 145 186 234 278 339
#
# _framework density 19.814729
#
# number of rings (size 3 to 8) (size 9 to 14) (size 15 to 20)
#    0.000    2.000    1.250    3.375    0.000    4.500 
#    2.250    2.500    0.000    1.500    0.000    0.000 
#    0.000    0.000    0.000    0.000    0.000    0.000 
#
# Total GULP energy -396594.504827 kJ/mol
# GULP energy per Si atom -12393.578276 kJ/mol
# Density = 1.976963 g / cm^3
# Si number density = 19.814729 Si / 1000 Ang^3
#
#
#
# Elastic Constant Matrix: (Units=GPa)
#
#
# Indices 1 2 3 4 5 6 
#
# 1 142.5187 42.6659 52.3156 0.0000 15.7975 0.0000
# 2 42.6659 93.0087 19.4391 0.0000 -8.2456 0.0000
# 3 52.3156 19.4391 73.8006 0.0000 10.9846 0.0000
# 4 0.0000 0.0000 0.0000 -370.3688 0.0000 -95.0601
# 5 15.7975 -8.2456 10.9846 0.0000 24.2837 0.0000
# 6 0.0000 0.0000 0.0000 -95.0601 0.0000 7.0089
#
#
#
# Elastic Compliance Matrix: (Units=1/GPa)
#
#
# Indices 1 2 3 4 5 6 
#
# 1 0.011170 -0.004449 -0.005833 0.000000 -0.006139 0.000000
# 2 -0.004449 0.013907 -0.001761 0.000000 0.008413 0.000000
# 3 -0.005833 -0.001761 0.018949 0.000000 -0.005375 0.000000
# 4 0.000000 0.000000 0.000000 -0.000603 0.000000 -0.008172
# 5 -0.006139 0.008413 -0.005375 0.000000 0.050462 0.000000
# 6 0.000000 0.000000 0.000000 -0.008172 0.000000 0.031840
#
#
# Mechanical properties :
#
#
# Convention : Reuss Voigt Hill
#
# Bulk Modulus (GPa) = 50.15266 59.79660 54.97463
# Shear Modulus (GPa) = 31.95775 -54.82142 -11.43183
#
# Velocity S-wave (km/s) = 4.02036 -5.26565 -2.40456
# Velocity P-wave (km/s) = 6.84958 2.59346 4.48279
#
# Compressibility (1/GPa) = 0.01993912
#
# Stress axis : x y z
#
# Youngs Moduli (GPa) = 89.52480 71.90787 52.77457
#
# Poissons Ratio (x) = 0.31994 0.30781
# Poissons Ratio (y) = 0.39832 0.09295
# Poissons Ratio (z) = 0.52216 0.12665
#
# Static dielectric constant tensor:
#      x y z
#    x 0.724890 0.000000 -2.545710 
#    y 0.000000 3.819870 0.000000 
#    z -2.545710 0.000000 1.322210 
# 
# 
# High freq. dielectric constant tensor:
#      x y z
#    x 1.787710 0.000000 0.011650 
#    y 0.000000 1.767460 0.000000 
#    z 0.011650 0.000000 1.762850 
# 
# From -- ./inp_files/41702.got.cif
#   From: 2010.06.25/outbox.cif.g09.slc.cpg/sg11_21_cif.got.tgz:41702.got - 2010.06.27 23:14:04.
