data_PCOD8076816
_publ_section_title
;
Structure prediction by ZEFSAII (Michael W. Deem and Ramdas Pophale) SiO2 
 PCOD8076816
Probable space group: P 21/M
;
_chemical_formula_sum "Si O2"
_cell_formula_units_Z 32
_cell_length_a 16.180989
_cell_length_b 8.750269
_cell_length_c 24.212004
_cell_angle_alpha 90.000000
_cell_angle_beta 151.375660
_cell_angle_gamma 90.000000
_cell_volume 1642.296092
_symmetry_space_group_name_H-M "P 21/M"
_symmetry_group_IT_number 11
_symmetry_cell_setting 'monoclinic'
loop_
_space_group_symop_operation_xyz
x,y,z
-x,1/2+y,-z
-x,-y,-z
x,1/2-y,z
loop_
_atom_site_type_symbol
_atom_site_label
_atom_site_fract_x
_atom_site_fract_y
_atom_site_fract_z
Si Si1 0.767713 0.581995 0.757008
Si Si2 0.412774 0.583467 0.498645
Si Si3 0.252449 0.571804 0.663129
Si Si4 0.816268 0.425798 0.893683
Si Si5 0.967501 0.426856 0.569171
Si Si6 0.074156 0.429736 0.337235
Si Si7 0.647931 0.928799 0.898712
Si Si8 0.045916 0.431562 0.841891
O O1 0.849233 0.750000 0.820115
O O2 0.568875 0.613811 0.630614
O O3 0.747514 0.457799 0.792806
O O4 0.878729 0.510091 0.772012
O O5 0.500000 0.500000 0.500000
O O6 0.331104 0.750000 0.434708
O O7 0.270912 0.476146 0.442654
O O8 0.217568 0.750000 0.655531
O O9 0.198947 0.537843 0.567718
O O10 0.449334 0.526059 0.792583
O O11 0.139656 0.466699 0.636710
O O12 0.829839 0.250000 0.914457
O O13 0.697206 0.497709 0.870036
O O14 0.000000 0.500000 0.000000
O O15 0.969492 0.250000 0.587413
O O16 0.970773 0.525205 0.626700
O O17 0.050651 0.250000 0.315992
O O18 0.949633 0.512777 0.219222
O O19 0.667025 0.750000 0.902189
O O20 0.776565 0.983884 0.023338
O O21 0.026499 0.250000 0.833545
#
# Coordination Sequence:
#
# PCOD8076816 Si02
#       8
#     4   4   4   4   4   4   4   4
#     4  11  23  38  56  80 116 158 200 249 302 352
#     4  11  23  38  58  83 116 157 202 247 297 354
#     4   9  20  41  67  93 122 152 186 239 303 360
#     4  12  24  37  56  83 118 160 205 249 293 349
#     4  10  21  40  66  94 122 153 192 239 297 361
#     4  12  25  40  60  87 122 160 203 249 298 354
#     4  10  22  40  62  89 119 156 200 247 301 358
#     4  11  22  38  61  85 118 160 204 248 296 355
#
# _framework density 19.484915000000001
#
# number of rings (size 3 to 8) (size 9 to 14) (size 15 to 20)
#    0.000    1.250    2.500    3.750    1.750    3.000 
#    0.000    0.625    0.000    0.000    0.000    0.000 
#    0.000    0.000    0.000    0.000    0.000    0.000 
#
# Total GULP energy -396613.030445 kJ/mol
# GULP energy per Si atom -12394.157201 kJ/mol
# Density = 1.944057 g / cm^3
# Si number density = 19.484915 Si / 1000 Ang^3
#
#
#
# Elastic Constant Matrix: (Units=GPa)
#
#
# Indices 1 2 3 4 5 6 
#
# 1 95.0837 30.5769 36.9315 0.0000 -12.4710 0.0000
# 2 30.5769 37.8894 23.9110 0.0000 9.6206 0.0000
# 3 36.9315 23.9110 103.1731 0.0000 -0.7988 0.0000
# 4 0.0000 0.0000 0.0000 24.7085 0.0000 -0.4715
# 5 -12.4710 9.6206 -0.7988 0.0000 27.2182 0.0000
# 6 0.0000 0.0000 0.0000 -0.4715 0.0000 33.3324
#
#
#
# Elastic Compliance Matrix: (Units=1/GPa)
#
#
# Indices 1 2 3 4 5 6 
#
# 1 0.019156 -0.017556 -0.002673 0.000000 0.014904 0.000000
# 2 -0.017556 0.050795 -0.005690 0.000000 -0.026165 0.000000
# 3 -0.002673 -0.005690 0.011977 0.000000 0.001138 0.000000
# 4 0.000000 0.000000 0.000000 0.040483 0.000000 0.000573
# 5 0.014904 -0.026165 0.001138 0.000000 0.052851 0.000000
# 6 0.000000 0.000000 0.000000 0.000573 0.000000 0.030009
#
#
# Mechanical properties :
#
#
# Convention : Reuss Voigt Hill
#
# Bulk Modulus (GPa) = 33.23465 46.55387 39.89426
# Shear Modulus (GPa) = 18.71685 26.70028 22.70857
#
# Velocity S-wave (km/s) = 3.10269 3.70578 3.41756
# Velocity P-wave (km/s) = 5.47076 6.50035 6.00765
#
# Compressibility (1/GPa) = 0.03008908
#
# Stress axis : x y z
#
# Youngs Moduli (GPa) = 52.20380 19.68681 83.49511
#
# Poissons Ratio (x) = 0.34563 0.22316
# Poissons Ratio (y) = 0.91651 0.47511
# Poissons Ratio (z) = 0.13953 0.11202
#
# Static dielectric constant tensor:
#      x y z
#    x 3.255880 0.000000 -0.220590 
#    y 0.000000 1.849910 0.000000 
#    z -0.220590 0.000000 -2.040870 
# 
# 
# High freq. dielectric constant tensor:
#      x y z
#    x 1.746910 0.000000 -0.011280 
#    y 0.000000 1.772730 0.000000 
#    z -0.011280 0.000000 1.765270 
# 
# From -- ./inp_files/69086.got.cif
#   From: 2010.06.25/outbox.cif.g09.slc.cpg/sg11_35_cif.got.tgz:69086.got - 2010.06.27 23:14:04.
