data_PCOD8076220
_publ_section_title
;
Structure prediction by ZEFSAII (Michael W. Deem and Ramdas Pophale) SiO2 
 PCOD8076220
Probable space group: P 21/M
;
_chemical_formula_sum "Si O2"
_cell_formula_units_Z 24
_cell_length_a 21.281329
_cell_length_b 11.296822
_cell_length_c 21.281551
_cell_angle_alpha 90.000000
_cell_angle_beta 14.021451
_cell_angle_gamma 90.000000
_cell_volume 1239.610085
_symmetry_space_group_name_H-M "P 21/M"
_symmetry_group_IT_number 11
_symmetry_cell_setting 'monoclinic'
loop_
_space_group_symop_operation_xyz
x,y,z
-x,1/2+y,-z
-x,-y,-z
x,1/2-y,z
loop_
_atom_site_type_symbol
_atom_site_label
_atom_site_fract_x
_atom_site_fract_y
_atom_site_fract_z
Si Si1 0.661226 0.110447 0.661402
Si Si2 0.934638 0.116161 0.934600
Si Si3 0.154862 0.750000 0.155080
Si Si4 0.696099 0.750000 0.696270
Si Si5 0.476954 0.385998 0.476880
Si Si6 0.728944 0.989614 0.728968
Si Si7 0.871739 0.997083 0.871537
O O1 0.659366 0.250000 0.659567
O O2 0.698241 0.074499 0.698290
O O3 0.892850 0.063385 0.393464
O O4 0.393254 0.063370 0.893082
O O5 0.919758 0.250000 0.919785
O O6 0.205906 0.099262 0.705405
O O7 0.909808 0.004706 0.909697
O O8 0.705439 0.099227 0.205866
O O9 0.924630 0.750000 0.426423
O O10 0.134104 0.635229 0.134346
O O11 0.426215 0.750000 0.924846
O O12 0.719045 0.857161 0.719158
O O13 0.500000 0.500000 0.500000
O O14 0.492233 0.250000 0.492091
O O15 0.000000 0.000000 0.500000
O O16 0.500000 0.000000 0.000000
#
# Coordination Sequence:
#
# PCOD8076220 Si02
#       7
#     4   4   2   2   4   4   4
#     4  12  27  45  62  88 131 171 199 251 324 389
#     4  10  21  37  65  96 123 159 212 266 306 354
#     4  12  20  40  66  96 120 148 196 269 322 353
#     4  12  24  42  62  94 120 150 212 259 308 371
#     4  10  21  39  61  93 132 171 211 256 310 365
#     4  12  26  42  62  88 116 161 205 257 308 373
#     4  12  22  43  67  95 123 159 209 261 316 371
#
# _framework density 19.360927
#
# number of rings (size 3 to 8) (size 9 to 14) (size 15 to 20)
#    0.000    0.667    4.167    4.000    2.333    0.000 
#    0.000    5.000    0.000    0.000    0.000    0.000 
#    0.000    0.000    0.000    0.000    0.000    0.000 
#
# Total GULP energy -297368.287966 kJ/mol
# GULP energy per Si atom -12390.345332 kJ/mol
# Density = 1.931686 g / cm^3
# Si number density = 19.360927 Si / 1000 Ang^3
#
#
#
# Elastic Constant Matrix: (Units=GPa)
#
#
# Indices 1 2 3 4 5 6 
#
# 1 113.5817 67.0624 69.3108 0.0000 -0.2350 0.0000
# 2 67.0624 168.5182 54.8616 0.0000 1.1139 0.0000
# 3 69.3108 54.8616 192.6886 0.0000 -6.6167 0.0000
# 4 0.0000 0.0000 0.0000 40.5872 0.0000 0.9536
# 5 -0.2350 1.1139 -6.6167 0.0000 24.3502 0.0000
# 6 0.0000 0.0000 0.0000 0.9536 0.0000 51.1315
#
#
#
# Elastic Compliance Matrix: (Units=1/GPa)
#
#
# Indices 1 2 3 4 5 6 
#
# 1 0.013525 -0.004173 -0.003700 0.000000 -0.000684 0.000000
# 2 -0.004173 0.007844 -0.000753 0.000000 -0.000604 0.000000
# 3 -0.003700 -0.000753 0.006798 0.000000 0.001846 0.000000
# 4 0.000000 0.000000 0.000000 0.024649 0.000000 -0.000460
# 5 -0.000684 -0.000604 0.001846 0.000000 0.041590 0.000000
# 6 0.000000 0.000000 0.000000 -0.000460 0.000000 0.019566
#
#
# Mechanical properties :
#
#
# Convention : Reuss Voigt Hill
#
# Bulk Modulus (GPa) = 91.62054 95.25087 93.43570
# Shear Modulus (GPa) = 37.07467 42.11737 39.59602
#
# Velocity S-wave (km/s) = 4.38073 4.66916 4.52724
# Velocity P-wave (km/s) = 8.54476 8.85281 8.70015
#
# Compressibility (1/GPa) = 0.01091458
#
# Stress axis : x y z
#
# Youngs Moduli (GPa) = 73.93863 127.48801 147.09174
#
# Poissons Ratio (x) = 0.53202 0.54427
# Poissons Ratio (y) = 0.30855 0.11075
# Poissons Ratio (z) = 0.27359 0.09599
#
# Static dielectric constant tensor:
#      x y z
#    x 5.347340 0.000000 0.016220 
#    y 0.000000 4.096540 0.000000 
#    z 0.016220 0.000000 5.438380 
# 
# 
# High freq. dielectric constant tensor:
#      x y z
#    x 1.754690 0.000000 -0.002490 
#    y 0.000000 1.765980 0.000000 
#    z -0.002490 0.000000 1.782990 
# 
# From -- ./inp_files/9380.got.cif
#   From: 2010.06.25/outbox.cif.g09.slc.cpg/sg11_5_cif.got.tgz:9380.got - 2010.06.27 23:14:04.
