data_PCOD8076395
_publ_section_title
;
Structure prediction by ZEFSAII (Michael W. Deem and Ramdas Pophale) SiO2 
 PCOD8076395
Probable space group: P 21/M
;
_chemical_formula_sum "Si O2"
_cell_formula_units_Z 32
_cell_length_a 23.720607
_cell_length_b 8.993682
_cell_length_c 13.688011
_cell_angle_alpha 90.000000
_cell_angle_beta 29.998832
_cell_angle_gamma 90.000000
_cell_volume 1460.018440
_symmetry_space_group_name_H-M "P 21/M"
_symmetry_group_IT_number 11
_symmetry_cell_setting 'monoclinic'
loop_
_space_group_symop_operation_xyz
x,y,z
-x,1/2+y,-z
-x,-y,-z
x,1/2-y,z
loop_
_atom_site_type_symbol
_atom_site_label
_atom_site_fract_x
_atom_site_fract_y
_atom_site_fract_z
Si Si1 0.003815 0.924263 0.210767
Si Si2 0.225215 0.583756 0.092684
Si Si3 0.349681 0.415170 0.183941
Si Si4 0.456901 0.583753 0.860996
Si Si5 0.781616 0.924264 0.432969
Si Si6 0.343764 0.574289 0.542893
Si Si7 0.116704 0.415175 0.416921
Si Si8 0.230446 0.074291 0.882898
O O1 0.026232 0.750000 0.160759
O O2 0.899209 0.978602 0.302390
O O3 0.982806 0.957352 0.357801
O O4 0.111511 0.019191 0.017180
O O5 0.195268 0.750000 0.101201
O O6 0.122507 0.527794 0.316437
O O7 0.338051 0.582831 0.985861
O O8 0.244150 0.476030 0.973563
O O9 0.401234 0.250000 0.099621
O O10 0.323410 0.457360 0.335983
O O11 0.230981 0.418972 0.307066
O O12 0.438553 0.527809 0.000395
O O13 0.508277 0.750000 0.788190
O O14 0.538155 0.476015 0.679567
O O15 0.786797 0.750000 0.400198
O O16 0.759823 0.019168 0.368857
O O17 0.341677 0.750000 0.557147
O O18 0.330001 0.500009 0.669995
O O19 0.097928 0.250000 0.402928
O O20 0.240531 0.250000 0.860646
#
# Coordination Sequence:
#
# PCOD8076395 Si02
#       8
#     4   4   4   4   4   4   4   4
#     4   9  19  38  63  89 119 153 189 234 285 336
#     4  10  21  38  61  88 118 151 188 234 286 340
#     4   8  15  31  57  88 119 150 185 227 279 338
#     4  10  21  38  61  88 118 151 188 234 286 340
#     4   9  19  38  63  89 119 153 189 234 285 336
#     4  12  26  42  60  82 112 151 196 243 286 338
#     4   8  15  31  57  88 119 150 185 227 279 338
#     4  12  26  42  60  82 112 151 196 243 286 338
#
# _framework density 21.917532999999999
#
# number of rings (size 3 to 8) (size 9 to 14) (size 15 to 20)
#    0.000    2.250    0.000    4.500    0.000    5.000 
#    0.000    2.500    0.000    0.000    0.000    0.000 
#    0.000    0.000    0.000    0.000    0.000    0.000 
#
# Total GULP energy -396850.277290 kJ/mol
# GULP energy per Si atom -12401.571165 kJ/mol
# Density = 2.186765 g / cm^3
# Si number density = 21.917533 Si / 1000 Ang^3
#
#
#
# Elastic Constant Matrix: (Units=GPa)
#
#
# Indices 1 2 3 4 5 6 
#
# 1 27.8493 21.0862 0.5220 0.0000 19.1484 0.0000
# 2 21.0862 140.5998 43.6203 0.0000 16.8248 0.0000
# 3 0.5220 43.6203 82.1875 0.0000 21.4252 0.0000
# 4 0.0000 0.0000 0.0000 39.3940 0.0000 4.1250
# 5 19.1484 16.8248 21.4252 0.0000 28.2054 0.0000
# 6 0.0000 0.0000 0.0000 4.1250 0.0000 33.8688
#
#
#
# Elastic Compliance Matrix: (Units=1/GPa)
#
#
# Indices 1 2 3 4 5 6 
#
# 1 0.104176 -0.014555 0.028974 0.000000 -0.084051 0.000000
# 2 -0.014555 0.010644 -0.008077 0.000000 0.009667 0.000000
# 3 0.028974 -0.008077 0.025115 0.000000 -0.033930 0.000000
# 4 0.000000 0.000000 0.000000 0.025712 0.000000 -0.003132
# 5 -0.084051 0.009667 -0.033930 0.000000 0.112523 0.000000
# 6 0.000000 0.000000 0.000000 -0.003132 0.000000 0.029907
#
#
# Mechanical properties :
#
#
# Convention : Reuss Voigt Hill
#
# Bulk Modulus (GPa) = 6.55221 42.34375 24.44798
# Shear Modulus (GPa) = 14.43975 32.65418 23.54696
#
# Velocity S-wave (km/s) = 2.56954 3.86407 3.28127
# Velocity P-wave (km/s) = 3.43502 6.26654 5.05316
#
# Compressibility (1/GPa) = 0.15262018
#
# Stress axis : x y z
#
# Youngs Moduli (GPa) = 9.59916 93.94754 39.81650
#
# Poissons Ratio (x) = 1.36738 -1.15365
# Poissons Ratio (y) = 0.13971 0.32160
# Poissons Ratio (z) = -0.27813 0.75881
#
# Static dielectric constant tensor:
#      x y z
#    x 3.875210 0.000000 0.095700 
#    y 0.000000 3.927570 0.000000 
#    z 0.095700 0.000000 4.003130 
# 
# 
# High freq. dielectric constant tensor:
#      x y z
#    x 1.865840 0.000000 -0.000580 
#    y 0.000000 1.852580 0.000000 
#    z -0.000580 0.000000 1.865040 
# 
# From -- ./inp_files/56143.got.cif
#   From: 2010.06.25/outbox.cif.g09.slc.cpg/sg11_29_cif.got.tgz:56143.got - 2010.06.27 23:14:04.
