data_PCOD8076698
_publ_section_title
;
Structure prediction by ZEFSAII (Michael W. Deem and Ramdas Pophale) SiO2 
 PCOD8076698
Probable space group: P 21/M
;
_chemical_formula_sum "Si O2"
_cell_formula_units_Z 32
_cell_length_a 11.801311
_cell_length_b 8.575839
_cell_length_c 14.960474
_cell_angle_alpha 90.000000
_cell_angle_beta 91.583740
_cell_angle_gamma 90.000000
_cell_volume 1513.513488
_symmetry_space_group_name_H-M "P 21/M"
_symmetry_group_IT_number 11
_symmetry_cell_setting 'monoclinic'
loop_
_space_group_symop_operation_xyz
x,y,z
-x,1/2+y,-z
-x,-y,-z
x,1/2-y,z
loop_
_atom_site_type_symbol
_atom_site_label
_atom_site_fract_x
_atom_site_fract_y
_atom_site_fract_z
Si Si1 0.319256 0.570905 0.587338
Si Si2 0.923761 0.568154 0.420387
Si Si3 0.058088 0.930042 0.129989
Si Si4 0.522519 0.930910 0.266752
Si Si5 0.419936 0.566756 0.921274
Si Si6 0.099040 0.429126 0.307881
Si Si7 0.317990 0.931233 0.387389
Si Si8 0.163596 0.567757 0.942615
O O1 0.340707 0.750000 0.614402
O O2 0.187442 0.535130 0.585676
O O3 0.375512 0.462424 0.662918
O O4 0.366534 0.536737 0.488196
O O5 0.896169 0.750000 0.433622
O O6 0.000000 0.500000 0.500000
O O7 0.993216 0.539359 0.331080
O O8 0.066165 0.750000 0.155140
O O9 0.128143 0.968556 0.042852
O O10 0.123922 0.031208 0.205460
O O11 0.925704 0.978055 0.122003
O O12 0.520994 0.750000 0.241950
O O13 0.408717 0.982959 0.315293
O O14 0.532481 0.025109 0.175195
O O15 0.419013 0.750000 0.933626
O O16 0.500000 0.500000 0.000000
O O17 0.290803 0.503456 0.928553
O O18 0.066285 0.250000 0.320657
O O19 0.207187 0.464747 0.371647
O O20 0.285236 0.750000 0.376397
O O21 0.155125 0.750000 0.919791
#
# Coordination Sequence:
#
# PCOD8076698 Si02
#       8
#     4   4   4   4   4   4   4   4
#     4  11  23  42  68  96 129 171 215 268 321 379
#     4  12  24  41  63  92 128 168 211 257 313 375
#     4  10  21  39  65  94 125 162 206 261 317 381
#     4  11  25  44  67  96 129 171 218 268 323 382
#     4  11  25  45  67  94 128 168 215 268 322 386
#     4  12  25  39  62  94 129 169 212 261 316 382
#     4  10  23  43  66  92 129 172 219 269 320 377
#     4   9  21  42  65  90 124 163 207 260 320 380
#
# _framework density 21.142855999999998
#
# number of rings (size 3 to 8) (size 9 to 14) (size 15 to 20)
#    0.000    1.250    1.250    4.125    3.500    3.000 
#    0.000    0.000    0.000    0.000    0.000    0.000 
#    0.000    0.000    0.000    0.000    0.000    0.000 
#
# Total GULP energy -396912.780846 kJ/mol
# GULP energy per Si atom -12403.524401 kJ/mol
# Density = 2.109473 g / cm^3
# Si number density = 21.142856 Si / 1000 Ang^3
#
#
#
# Elastic Constant Matrix: (Units=GPa)
#
#
# Indices 1 2 3 4 5 6 
#
# 1 96.2408 15.1553 35.7384 0.0000 -10.5600 0.0000
# 2 15.1553 57.8238 25.7304 0.0000 -0.3850 0.0000
# 3 35.7384 25.7304 115.4730 0.0000 0.7040 0.0000
# 4 0.0000 0.0000 0.0000 38.4271 0.0000 4.1365
# 5 -10.5600 -0.3850 0.7040 0.0000 32.7638 0.0000
# 6 0.0000 0.0000 0.0000 4.1365 0.0000 33.6051
#
#
#
# Elastic Compliance Matrix: (Units=1/GPa)
#
#
# Indices 1 2 3 4 5 6 
#
# 1 0.012393 -0.001669 -0.003488 0.000000 0.004050 0.000000
# 2 -0.001669 0.019425 -0.003811 0.000000 -0.000228 0.000000
# 3 -0.003488 -0.003811 0.010597 0.000000 -0.001397 0.000000
# 4 0.000000 0.000000 0.000000 0.026373 0.000000 -0.003246
# 5 0.004050 -0.000228 -0.001397 0.000000 0.031854 0.000000
# 6 0.000000 0.000000 0.000000 -0.003246 0.000000 0.030157
#
#
# Mechanical properties :
#
#
# Convention : Reuss Voigt Hill
#
# Bulk Modulus (GPa) = 40.84963 46.97619 43.91291
# Shear Modulus (GPa) = 31.86830 33.82009 32.84420
#
# Velocity S-wave (km/s) = 3.88659 4.00384 3.94565
# Velocity P-wave (km/s) = 6.28518 6.60613 6.44765
#
# Compressibility (1/GPa) = 0.02448003
#
# Stress axis : x y z
#
# Youngs Moduli (GPa) = 80.68952 51.47884 94.36357
#
# Poissons Ratio (x) = 0.08591 0.32918
# Poissons Ratio (y) = 0.13467 0.35958
# Poissons Ratio (z) = 0.28148 0.19616
#
# Static dielectric constant tensor:
#      x y z
#    x 3.963060 0.000000 -0.161140 
#    y 0.000000 3.795630 0.000000 
#    z -0.161140 0.000000 4.062400 
# 
# 
# High freq. dielectric constant tensor:
#      x y z
#    x 1.830230 0.000000 -0.003450 
#    y 0.000000 1.829210 0.000000 
#    z -0.003450 0.000000 1.841310 
# 
# From -- ./inp_files/49328.got.cif
#   From: 2010.06.25/outbox.cif.g09.slc.cpg/sg11_25_cif.got.tgz:49328.got - 2010.06.27 23:14:04.
