data_PCOD8076102
_publ_section_title
;
Structure prediction by ZEFSAII (Michael W. Deem and Ramdas Pophale) SiO2 
 PCOD8076102
Probable space group: P 21/M
;
_chemical_formula_sum "Si O2"
_cell_formula_units_Z 32
_cell_length_a 18.219760
_cell_length_b 13.544868
_cell_length_c 12.083394
_cell_angle_alpha 90.000000
_cell_angle_beta 30.958628
_cell_angle_gamma 90.000000
_cell_volume 1533.992958
_symmetry_space_group_name_H-M "P 21/M"
_symmetry_group_IT_number 11
_symmetry_cell_setting 'monoclinic'
loop_
_space_group_symop_operation_xyz
x,y,z
-x,1/2+y,-z
-x,-y,-z
x,1/2-y,z
loop_
_atom_site_type_symbol
_atom_site_label
_atom_site_fract_x
_atom_site_fract_y
_atom_site_fract_z
Si Si1 0.928331 0.961506 0.826361
Si Si2 0.526189 0.367442 0.336063
Si Si3 0.465048 0.866096 0.222537
Si Si4 0.792016 0.865057 0.212415
Si Si5 0.028076 0.635934 0.083945
Si Si6 0.336879 0.634613 0.616141
Si Si7 0.211042 0.634932 0.383615
Si Si8 0.293723 0.987872 0.067972
O O1 0.064198 0.891457 0.634908
O O2 0.831981 0.919373 0.048851
O O3 0.979277 0.071838 0.794478
O O4 0.833496 0.965238 0.839067
O O5 0.539267 0.250000 0.308948
O O6 0.362189 0.402449 0.548220
O O7 0.595869 0.408876 0.358770
O O8 0.608091 0.412818 0.126868
O O9 0.498733 0.750000 0.181135
O O10 0.413237 0.908049 0.408634
O O11 0.344188 0.890749 0.289608
O O12 0.610345 0.923716 0.005653
O O13 0.791518 0.750000 0.186289
O O14 0.897592 0.892238 0.174720
O O15 0.026576 0.750000 0.123147
O O16 0.169082 0.610130 0.830287
O O17 0.363508 0.750000 0.580273
O O18 0.209314 0.750000 0.355646
O O19 0.220547 0.571135 0.261171
#
# Coordination Sequence:
#
# PCOD8076102 Si02
#       8
#     4   4   4   4   4   4   4   4
#     4  12  24  39  66  95 126 166 219 264 319 370
#     4  10  21  37  60  93 131 167 201 253 325 386
#     4  10  23  42  66  94 126 164 212 265 316 375
#     4  10  22  38  59  93 131 167 208 263 322 377
#     4  10  21  37  58  92 134 171 210 255 317 380
#     4   9  17  34  59  89 126 164 201 248 311 378
#     4  11  26  48  67  88 122 172 221 265 317 376
#     4  12  25  41  66  93 129 166 218 259 318 375
#
# _framework density 20.860592
#
# number of rings (size 3 to 8) (size 9 to 14) (size 15 to 20)
#    0.000    1.500    1.250    3.375    3.500    5.500 
#    0.000    0.625    0.000    0.000    0.000    0.000 
#    0.000    0.000    0.000    0.000    0.000    0.000 
#
# Total GULP energy -396943.699931 kJ/mol
# GULP energy per Si atom -12404.490623 kJ/mol
# Density = 2.081311 g / cm^3
# Si number density = 20.860592 Si / 1000 Ang^3
#
#
#
# Elastic Constant Matrix: (Units=GPa)
#
#
# Indices 1 2 3 4 5 6 
#
# 1 86.0092 31.3959 18.4488 0.0000 -20.9632 0.0000
# 2 31.3959 64.4112 31.7960 0.0000 -7.0740 0.0000
# 3 18.4488 31.7960 54.9901 0.0000 -10.9714 0.0000
# 4 0.0000 0.0000 0.0000 36.2036 0.0000 3.7890
# 5 -20.9632 -7.0740 -10.9714 0.0000 34.3857 0.0000
# 6 0.0000 0.0000 0.0000 3.7890 0.0000 24.1800
#
#
#
# Elastic Compliance Matrix: (Units=1/GPa)
#
#
# Indices 1 2 3 4 5 6 
#
# 1 0.016246 -0.007181 0.000409 0.000000 0.008557 0.000000
# 2 -0.007181 0.024908 -0.012650 0.000000 -0.003290 0.000000
# 3 0.000409 -0.012650 0.026585 0.000000 0.006129 0.000000
# 4 0.000000 0.000000 0.000000 0.028082 0.000000 -0.004400
# 5 0.008557 -0.003290 0.006129 0.000000 0.035578 0.000000
# 6 0.000000 0.000000 0.000000 -0.004400 0.000000 0.042046
#
#
# Mechanical properties :
#
#
# Convention : Reuss Voigt Hill
#
# Bulk Modulus (GPa) = 34.60630 40.96578 37.78604
# Shear Modulus (GPa) = 22.53062 27.20518 24.86790
#
# Velocity S-wave (km/s) = 3.28999 3.61521 3.45643
# Velocity P-wave (km/s) = 5.57291 6.09154 5.83799
#
# Compressibility (1/GPa) = 0.02889647
#
# Stress axis : x y z
#
# Youngs Moduli (GPa) = 61.55417 40.14698 37.61525
#
# Poissons Ratio (x) = 0.28829 -0.01538
# Poissons Ratio (y) = 0.44201 0.47582
# Poissons Ratio (z) = -0.02517 0.50784
#
# Static dielectric constant tensor:
#      x y z
#    x 3.858290 0.000000 -0.122780 
#    y 0.000000 3.898280 0.000000 
#    z -0.122780 0.000000 3.756090 
# 
# 
# High freq. dielectric constant tensor:
#      x y z
#    x 1.819950 0.000000 -0.016050 
#    y 0.000000 1.833560 0.000000 
#    z -0.016050 0.000000 1.810100 
# 
# From -- ./inp_files/41629.got.cif
#   From: 2010.06.25/outbox.cif.g09.slc.cpg/sg11_21_cif.got.tgz:41629.got - 2010.06.27 23:14:04.
