data_PCOD8076201
_publ_section_title
;
Structure prediction by ZEFSAII (Michael W. Deem and Ramdas Pophale) SiO2 
 PCOD8076201
Probable space group: P 21/M
;
_chemical_formula_sum "Si O2"
_cell_formula_units_Z 28
_cell_length_a 15.495583
_cell_length_b 9.050258
_cell_length_c 11.725767
_cell_angle_alpha 90.000000
_cell_angle_beta 120.703423
_cell_angle_gamma 90.000000
_cell_volume 1413.899618
_symmetry_space_group_name_H-M "P 21/M"
_symmetry_group_IT_number 11
_symmetry_cell_setting 'monoclinic'
loop_
_space_group_symop_operation_xyz
x,y,z
-x,1/2+y,-z
-x,-y,-z
x,1/2-y,z
loop_
_atom_site_type_symbol
_atom_site_label
_atom_site_fract_x
_atom_site_fract_y
_atom_site_fract_z
Si Si1 0.076042 0.921173 0.467317
Si Si2 0.605235 0.078346 0.087942
Si Si3 0.154423 0.077316 0.094197
Si Si4 0.028640 0.582135 0.179469
Si Si5 0.710816 0.573699 0.369895
Si Si6 0.529844 0.579056 0.403829
Si Si7 0.341236 0.583203 0.129715
O O1 0.092879 0.750000 0.513430
O O2 0.022282 0.934569 0.309757
O O3 0.181125 0.005303 0.533325
O O4 0.000000 0.000000 0.500000
O O5 0.589311 0.250000 0.110323
O O6 0.669482 0.994900 0.225716
O O7 0.665101 0.063733 0.010050
O O8 0.500000 0.000000 0.000000
O O9 0.158530 0.250000 0.110669
O O10 0.121141 0.011933 0.193259
O O11 0.264649 0.024999 0.138527
O O12 0.076494 0.024783 0.943861
O O13 0.047362 0.750000 0.154374
O O14 0.717876 0.750000 0.359838
O O15 0.638462 0.530939 0.427493
O O16 0.500000 0.500000 0.500000
O O17 0.530536 0.750000 0.434534
O O18 0.451566 0.542074 0.250246
O O19 0.313605 0.750000 0.145791
#
# Coordination Sequence:
#
# PCOD8076201 Si02
#       7
#     4   4   4   4   4   4   4
#     4  11  25  44  65  92 124 165 212 259 314 373
#     4  11  22  40  64  91 122 161 205 251 305 364
#     4  10  21  37  62  93 119 154 201 251 306 363
#     4   9  21  42  62  85 121 159 200 252 308 365
#     4  11  24  44  65  91 127 165 208 263 315 369
#     4  10  23  42  62  89 127 166 206 252 306 366
#     4  10  22  40  60  88 124 160 197 247 306 363
#
# _framework density 19.803386
#
# number of rings (size 3 to 8) (size 9 to 14) (size 15 to 20)
#    0.000    1.714    1.429    1.714    4.000    4.571 
#    0.000    0.000    0.000    0.000    0.000    0.000 
#    0.000    0.000    0.000    0.000    0.000    0.000 
#
# Total GULP energy -347265.985127 kJ/mol
# GULP energy per Si atom -12402.356612 kJ/mol
# Density = 1.975831 g / cm^3
# Si number density = 19.803386 Si / 1000 Ang^3
#
#
#
# Elastic Constant Matrix: (Units=GPa)
#
#
# Indices 1 2 3 4 5 6 
#
# 1 146.5295 67.5209 38.7832 0.0000 -1.4409 0.0000
# 2 67.5209 108.3686 40.3588 0.0000 -6.0731 0.0000
# 3 38.7832 40.3588 78.0277 0.0000 -10.6464 0.0000
# 4 0.0000 0.0000 0.0000 36.3510 0.0000 0.5246
# 5 -1.4409 -6.0731 -10.6464 0.0000 30.4735 0.0000
# 6 0.0000 0.0000 0.0000 0.5246 0.0000 39.9784
#
#
#
# Elastic Compliance Matrix: (Units=1/GPa)
#
#
# Indices 1 2 3 4 5 6 
#
# 1 0.009910 -0.005385 -0.002334 0.000000 -0.001420 0.000000
# 2 -0.005385 0.014357 -0.004614 0.000000 0.000995 0.000000
# 3 -0.002334 -0.004614 0.017034 0.000000 0.004921 0.000000
# 4 0.000000 0.000000 0.000000 0.027515 0.000000 -0.000361
# 5 -0.001420 0.000995 0.004921 0.000000 0.034666 0.000000
# 6 0.000000 0.000000 0.000000 -0.000361 0.000000 0.025018
#
#
# Mechanical properties :
#
#
# Convention : Reuss Voigt Hill
#
# Bulk Modulus (GPa) = 60.11293 69.58353 64.84823
# Shear Modulus (GPa) = 31.50412 33.77810 32.64111
#
# Velocity S-wave (km/s) = 3.99287 4.13446 4.06428
# Velocity P-wave (km/s) = 7.18875 7.61611 7.40551
#
# Compressibility (1/GPa) = 0.01663536
#
# Stress axis : x y z
#
# Youngs Moduli (GPa) = 100.91167 69.65362 58.70618
#
# Poissons Ratio (x) = 0.37506 0.13703
# Poissons Ratio (y) = 0.54338 0.27085
# Poissons Ratio (z) = 0.23554 0.32136
#
# Static dielectric constant tensor:
#      x y z
#    x 3.571290 0.000000 -0.128220 
#    y 0.000000 3.735020 0.000000 
#    z -0.128220 0.000000 3.526230 
# 
# 
# High freq. dielectric constant tensor:
#      x y z
#    x 1.778340 0.000000 -0.001720 
#    y 0.000000 1.780200 0.000000 
#    z -0.001720 0.000000 1.777270 
# 
# From -- ./inp_files/38407.got.cif
#   From: 2010.06.25/outbox.cif.g09.slc.cpg/sg11_20_cif.got.tgz:38407.got - 2010.06.27 23:14:04.
