data_PCOD8076252
_publ_section_title
;
Structure prediction by ZEFSAII (Michael W. Deem and Ramdas Pophale) SiO2 
 PCOD8076252
Probable space group: P 21/M
;
_chemical_formula_sum "Si O2"
_cell_formula_units_Z 24
_cell_length_a 13.378189
_cell_length_b 13.312877
_cell_length_c 16.482961
_cell_angle_alpha 90.000000
_cell_angle_beta 24.652988
_cell_angle_gamma 90.000000
_cell_volume 1224.523269
_symmetry_space_group_name_H-M "P 21/M"
_symmetry_group_IT_number 11
_symmetry_cell_setting 'monoclinic'
loop_
_space_group_symop_operation_xyz
x,y,z
-x,1/2+y,-z
-x,-y,-z
x,1/2-y,z
loop_
_atom_site_type_symbol
_atom_site_label
_atom_site_fract_x
_atom_site_fract_y
_atom_site_fract_z
Si Si1 0.793317 0.007556 0.409585
Si Si2 0.660680 0.638215 0.248596
Si Si3 0.007250 0.864359 0.137878
Si Si4 0.097464 0.998654 0.337265
Si Si5 0.763738 0.559633 0.002710
Si Si6 0.471265 0.368048 0.978752
O O1 0.531230 0.052186 0.591298
O O2 0.862929 0.997562 0.452952
O O3 0.981128 0.083979 0.228207
O O4 0.812743 0.899033 0.349966
O O5 0.553662 0.750000 0.341384
O O6 0.890116 0.622099 0.135977
O O7 0.741912 0.630670 0.095900
O O8 0.089154 0.750000 0.093413
O O9 0.237160 0.939760 0.972600
O O10 0.258998 0.900772 0.195774
O O11 0.271583 0.093591 0.190140
O O12 0.000000 0.000000 0.500000
O O13 0.558837 0.583164 0.088561
O O14 0.451704 0.250000 0.989139
#
# Coordination Sequence:
#
# PCOD8076252 Si02
#       6
#     4   4   4   4   4   4
#     4   9  21  36  57  79 116 146 187 235 279 331
#     4  11  20  34  59  86 114 149 188 232 282 338
#     4   9  20  38  56  80 115 154 190 229 282 335
#     4  10  21  38  57  85 113 147 189 236 285 340
#     4   9  20  36  58  84 115 144 186 235 280 332
#     4  10  21  38  58  86 115 148 188 235 288 342
#
# _framework density 19.599463
#
# number of rings (size 3 to 8) (size 9 to 14) (size 15 to 20)
#    1.000    1.333    0.000    2.500    0.000    4.667 
#    0.000    0.833    0.000    2.000    0.000    0.000 
#    0.000    0.000    0.000    0.000    0.000    0.000 
#
# Total GULP energy -297385.711453 kJ/mol
# GULP energy per Si atom -12391.071311 kJ/mol
# Density = 1.955485 g / cm^3
# Si number density = 19.599463 Si / 1000 Ang^3
#
#
#
# Elastic Constant Matrix: (Units=GPa)
#
#
# Indices 1 2 3 4 5 6 
#
# 1 49.8710 30.8809 4.6039 0.0000 11.0829 0.0000
# 2 30.8809 126.0333 14.8082 0.0000 -12.7546 0.0000
# 3 4.6039 14.8082 36.5563 0.0000 8.2191 0.0000
# 4 0.0000 0.0000 0.0000 25.0128 0.0000 -0.3584
# 5 11.0829 -12.7546 8.2191 0.0000 30.4953 0.0000
# 6 0.0000 0.0000 0.0000 -0.3584 0.0000 22.0414
#
#
#
# Elastic Compliance Matrix: (Units=1/GPa)
#
#
# Indices 1 2 3 4 5 6 
#
# 1 0.028615 -0.008934 0.003400 0.000000 -0.015053 0.000000
# 2 -0.008934 0.011798 -0.005848 0.000000 0.009758 0.000000
# 3 0.003400 -0.005848 0.032067 0.000000 -0.012324 0.000000
# 4 0.000000 0.000000 0.000000 0.039989 0.000000 0.000650
# 5 -0.015053 0.009758 -0.012324 0.000000 0.045665 0.000000
# 6 0.000000 0.000000 0.000000 0.000650 0.000000 0.045380
#
#
# Mechanical properties :
#
#
# Convention : Reuss Voigt Hill
#
# Bulk Modulus (GPa) = 20.11463 34.78297 27.44880
# Shear Modulus (GPa) = 20.58886 26.32107 23.45496
#
# Velocity S-wave (km/s) = 3.24463 3.66860 3.46311
# Velocity P-wave (km/s) = 4.93173 5.97748 5.47961
#
# Compressibility (1/GPa) = 0.04971507
#
# Stress axis : x y z
#
# Youngs Moduli (GPa) = 34.94649 84.76012 31.18513
#
# Poissons Ratio (x) = 0.75725 -0.10602
# Poissons Ratio (y) = 0.31222 0.18236
# Poissons Ratio (z) = -0.11880 0.49566
#
# Static dielectric constant tensor:
#      x y z
#    x 3.651550 0.000000 0.082180 
#    y 0.000000 3.395310 0.000000 
#    z 0.082180 0.000000 3.300410 
# 
# 
# High freq. dielectric constant tensor:
#      x y z
#    x 1.777960 0.000000 0.008100 
#    y 0.000000 1.748280 0.000000 
#    z 0.008100 0.000000 1.740610 
# 
# From -- ./inp_files/50312.got.cif
#   From: 2010.06.25/outbox.cif.g09.slc.cpg/sg11_26_cif.got.tgz:50312.got - 2010.06.27 23:14:04.
