data_PCOD8076344
_publ_section_title
;
Structure prediction by ZEFSAII (Michael W. Deem and Ramdas Pophale) SiO2 
 PCOD8076344
Probable space group: P 21/M
;
_chemical_formula_sum "Si O2"
_cell_formula_units_Z 32
_cell_length_a 23.154076
_cell_length_b 13.735468
_cell_length_c 9.010909
_cell_angle_alpha 90.000000
_cell_angle_beta 32.851543
_cell_angle_gamma 90.000000
_cell_volume 1554.571030
_symmetry_space_group_name_H-M "P 21/M"
_symmetry_group_IT_number 11
_symmetry_cell_setting 'monoclinic'
loop_
_space_group_symop_operation_xyz
x,y,z
-x,1/2+y,-z
-x,-y,-z
x,1/2-y,z
loop_
_atom_site_type_symbol
_atom_site_label
_atom_site_fract_x
_atom_site_fract_y
_atom_site_fract_z
Si Si1 0.643523 0.359226 0.386807
Si Si2 0.251020 0.489035 0.051576
Si Si3 0.336490 0.634673 0.320068
Si Si4 0.425339 0.134569 0.213228
Si Si5 0.144188 0.539706 0.564316
Si Si6 0.605499 0.639490 0.047770
Si Si7 0.770349 0.862868 0.173702
Si Si8 0.928324 0.861996 0.096804
O O1 0.683765 0.250000 0.271947
O O2 0.682174 0.392470 0.467125
O O3 0.517586 0.364331 0.646397
O O4 0.692165 0.422596 0.152035
O O5 0.158715 0.532443 0.355617
O O6 0.333985 0.430577 0.972061
O O7 0.199169 0.418597 0.041535
O O8 0.327229 0.750000 0.313988
O O9 0.251871 0.578579 0.404595
O O10 0.454684 0.595620 0.017807
O O11 0.432169 0.250000 0.191446
O O12 0.344342 0.098973 0.516063
O O13 0.377752 0.101088 0.157053
O O14 0.116608 0.430696 0.677317
O O15 0.051614 0.615724 0.801000
O O16 0.648466 0.750000 0.972193
O O17 0.760700 0.750000 0.156716
O O18 0.863635 0.883718 0.087629
O O19 0.915342 0.750000 0.175839
#
# Coordination Sequence:
#
# PCOD8076344 Si02
#       8
#     4   4   4   4   4   4   4   4
#     4   9  20  36  53  78 119 164 197 230 277 335
#     4  12  23  34  54  86 121 149 184 235 291 344
#     4   9  18  37  62  87 117 154 197 239 277 325
#     4   8  16  33  59  87 118 157 196 232 271 327
#     4  11  24  39  62  91 113 143 190 240 290 344
#     4   9  18  34  54  81 118 159 199 234 275 329
#     4  10  21  38  60  86 118 156 192 229 281 341
#     4  10  23  45  66  82 108 147 194 243 284 333
#
# _framework density 20.584455999999999
#
# number of rings (size 3 to 8) (size 9 to 14) (size 15 to 20)
#    0.000    2.250    0.000    4.125    0.000    5.500 
#    0.000    5.625    0.000    3.000    0.000    0.000 
#    0.000    0.000    0.000    0.000    0.000    0.000 
#
# Total GULP energy -396822.595242 kJ/mol
# GULP energy per Si atom -12400.706101 kJ/mol
# Density = 2.053760 g / cm^3
# Si number density = 20.584456 Si / 1000 Ang^3
#
#
#
# Elastic Constant Matrix: (Units=GPa)
#
#
# Indices 1 2 3 4 5 6 
#
# 1 70.8836 17.7337 37.3520 0.0000 -3.5896 0.0000
# 2 17.7337 49.7918 29.2759 0.0000 -2.2453 0.0000
# 3 37.3520 29.2759 56.5626 0.0000 1.7936 0.0000
# 4 0.0000 0.0000 0.0000 16.8527 0.0000 2.9006
# 5 -3.5896 -2.2453 1.7936 0.0000 29.3345 0.0000
# 6 0.0000 0.0000 0.0000 2.9006 0.0000 37.1679
#
#
#
# Elastic Compliance Matrix: (Units=1/GPa)
#
#
# Indices 1 2 3 4 5 6 
#
# 1 0.022071 0.001362 -0.015399 0.000000 0.003747 0.000000
# 2 0.001362 0.029243 -0.016143 0.000000 0.003392 0.000000
# 3 -0.015399 -0.016143 0.036373 0.000000 -0.005344 0.000000
# 4 0.000000 0.000000 0.000000 0.060146 0.000000 -0.004694
# 5 0.003747 0.003392 -0.005344 0.000000 0.035134 0.000000
# 6 0.000000 0.000000 0.000000 -0.004694 0.000000 0.027271
#
#
# Mechanical properties :
#
#
# Convention : Reuss Voigt Hill
#
# Bulk Modulus (GPa) = 36.59223 38.44011 37.51617
# Shear Modulus (GPa) = 17.87594 22.86278 20.36936
#
# Velocity S-wave (km/s) = 2.95009 3.33630 3.14912
# Velocity P-wave (km/s) = 5.42395 5.79276 5.61139
#
# Compressibility (1/GPa) = 0.02732821
#
# Stress axis : x y z
#
# Youngs Moduli (GPa) = 45.30851 34.19647 27.49302
#
# Poissons Ratio (x) = -0.04658 0.42336
# Poissons Ratio (y) = -0.06172 0.44381
# Poissons Ratio (z) = 0.69769 0.55202
#
# Static dielectric constant tensor:
#      x y z
#    x 3.642540 0.000000 0.062290 
#    y 0.000000 3.874910 0.000000 
#    z 0.062290 0.000000 3.797690 
# 
# 
# High freq. dielectric constant tensor:
#      x y z
#    x 1.795410 0.000000 0.002150 
#    y 0.000000 1.823990 0.000000 
#    z 0.002150 0.000000 1.794550 
# 
# From -- ./inp_files/27770.got.cif
#   From: 2010.06.25/outbox.cif.g09.slc.cpg/sg11_14_cif.got.tgz:27770.got - 2010.06.27 23:14:04.
