data_PCOD8076195
_publ_section_title
;
Structure prediction by ZEFSAII (Michael W. Deem and Ramdas Pophale) SiO2 
 PCOD8076195
Probable space group: P 21/M
;
_chemical_formula_sum "Si O2"
_cell_formula_units_Z 24
_cell_length_a 8.771081
_cell_length_b 26.995520
_cell_length_c 9.551963
_cell_angle_alpha 90.000000
_cell_angle_beta 148.906971
_cell_angle_gamma 90.000000
_cell_volume 1168.014395
_symmetry_space_group_name_H-M "P 21/M"
_symmetry_group_IT_number 11
_symmetry_cell_setting 'monoclinic'
loop_
_space_group_symop_operation_xyz
x,y,z
-x,1/2+y,-z
-x,-y,-z
x,1/2-y,z
loop_
_atom_site_type_symbol
_atom_site_label
_atom_site_fract_x
_atom_site_fract_y
_atom_site_fract_z
Si Si1 0.291403 0.528654 0.442810
Si Si2 0.979822 0.064313 0.302697
Si Si3 0.238136 0.093403 0.045196
Si Si4 0.198432 0.149263 0.285559
Si Si5 0.357800 0.391679 0.825807
Si Si6 0.421985 0.806788 0.189378
O O1 0.500000 0.500000 0.500000
O O2 0.499419 0.554787 0.719794
O O3 0.067469 0.492619 0.349387
O O4 0.084611 0.567597 0.196709
O O5 0.146281 0.095773 0.314418
O O6 0.075958 0.083058 0.531540
O O7 0.629923 0.070958 0.013699
O O8 0.258412 0.139059 0.169624
O O9 0.283280 0.116847 0.928408
O O10 0.478239 0.175258 0.577947
O O11 0.927135 0.186216 0.095406
O O12 0.416354 0.338017 0.804525
O O13 0.504649 0.750000 0.228933
#
# Coordination Sequence:
#
# PCOD8076195 Si02
#       6
#     4   4   4   4   4   4
#     4  12  24  36  60  87 122 166 210 242 273 339
#     4  10  21  38  57  83 119 164 202 233 279 345
#     4  12  24  38  59  89 124 159 198 248 298 332
#     4  10  21  37  62  86 116 151 196 242 290 351
#     4  10  23  39  59  87 120 155 191 248 306 344
#     4  10  21  41  65  87 111 150 196 240 301 376
#
# _framework density 20.547692000000001
#
# number of rings (size 3 to 8) (size 9 to 14) (size 15 to 20)
#    0.000    1.333    1.667    4.000    4.667    4.000 
#    0.000    1.667    0.000    0.000    0.000    0.000 
#    0.000    0.000    0.000    0.000    0.000    0.000 
#
# Total GULP energy -297739.384960 kJ/mol
# GULP energy per Si atom -12405.807707 kJ/mol
# Density = 2.050092 g / cm^3
# Si number density = 20.547692 Si / 1000 Ang^3
#
#
#
# Elastic Constant Matrix: (Units=GPa)
#
#
# Indices 1 2 3 4 5 6 
#
# 1 88.3964 41.3760 24.2247 0.0000 -27.2283 0.0000
# 2 41.3760 95.4955 32.6788 0.0000 -9.1013 0.0000
# 3 24.2247 32.6788 106.3117 0.0000 -12.3026 0.0000
# 4 0.0000 0.0000 0.0000 24.5807 0.0000 0.2643
# 5 -27.2283 -9.1013 -12.3026 0.0000 39.9089 0.0000
# 6 0.0000 0.0000 0.0000 0.2643 0.0000 15.3915
#
#
#
# Elastic Compliance Matrix: (Units=1/GPa)
#
#
# Indices 1 2 3 4 5 6 
#
# 1 0.017744 -0.006400 -0.000875 0.000000 0.010377 0.000000
# 2 -0.006400 0.014112 -0.003124 0.000000 -0.002111 0.000000
# 3 -0.000875 -0.003124 0.010800 0.000000 0.002020 0.000000
# 4 0.000000 0.000000 0.000000 0.040690 0.000000 -0.000699
# 5 0.010377 -0.002111 0.002020 0.000000 0.032278 0.000000
# 6 0.000000 0.000000 0.000000 -0.000699 0.000000 0.064983
#
#
# Mechanical properties :
#
#
# Convention : Reuss Voigt Hill
#
# Bulk Modulus (GPa) = 45.74858 54.08472 49.91665
# Shear Modulus (GPa) = 23.95878 28.77118 26.36498
#
# Velocity S-wave (km/s) = 3.41839 3.74600 3.58594
# Velocity P-wave (km/s) = 6.15577 6.71482 6.44136
#
# Compressibility (1/GPa) = 0.02185860
#
# Stress axis : x y z
#
# Youngs Moduli (GPa) = 56.35553 70.85970 92.59499
#
# Poissons Ratio (x) = 0.45348 0.08105
# Poissons Ratio (y) = 0.36066 0.28926
# Poissons Ratio (z) = 0.04933 0.22136
#
# Static dielectric constant tensor:
#      x y z
#    x 3.456010 0.000000 -0.040560 
#    y 0.000000 3.496160 0.000000 
#    z -0.040560 0.000000 4.053850 
# 
# 
# High freq. dielectric constant tensor:
#      x y z
#    x 1.790400 0.000000 -0.002550 
#    y 0.000000 1.777870 0.000000 
#    z -0.002550 0.000000 1.830870 
# 
# From -- ./inp_files/15389.got.cif
#   From: 2010.06.25/outbox.cif.g09.slc.cpg/sg11_8_cif.got.tgz:15389.got - 2010.06.27 23:14:04.
