data_PCOD8076095
_publ_section_title
;
Structure prediction by ZEFSAII (Michael W. Deem and Ramdas Pophale) SiO2 
 PCOD8076095
Probable space group: P 21/M
;
_chemical_formula_sum "Si O2"
_cell_formula_units_Z 20
_cell_length_a 18.437009
_cell_length_b 8.790304
_cell_length_c 7.767647
_cell_angle_alpha 90.000000
_cell_angle_beta 51.270135
_cell_angle_gamma 90.000000
_cell_volume 982.056716
_symmetry_space_group_name_H-M "P 21/M"
_symmetry_group_IT_number 11
_symmetry_cell_setting 'monoclinic'
loop_
_space_group_symop_operation_xyz
x,y,z
-x,1/2+y,-z
-x,-y,-z
x,1/2-y,z
loop_
_atom_site_type_symbol
_atom_site_label
_atom_site_fract_x
_atom_site_fract_y
_atom_site_fract_z
Si Si1 0.594926 0.424201 0.304577
Si Si2 0.217664 0.429831 0.479374
Si Si3 0.211827 0.569933 0.839339
Si Si4 0.101155 0.929929 0.343835
Si Si5 0.402881 0.926539 0.097526
O O1 0.500000 0.500000 0.500000
O O2 0.581476 0.250000 0.369416
O O3 0.683208 0.488243 0.277762
O O4 0.617719 0.449198 0.071823
O O5 0.211691 0.250000 0.470941
O O6 0.174419 0.483332 0.725881
O O7 0.161498 0.505051 0.408983
O O8 0.323969 0.485988 0.320185
O O9 0.209371 0.750000 0.812078
O O10 0.146460 0.523680 0.095134
O O11 0.096507 0.750000 0.371969
O O12 0.000000 0.000000 0.500000
O O13 0.402526 0.750000 0.151727
O O14 0.500000 0.000000 0.000000
#
# Coordination Sequence:
#
# PCOD8076095 Si02
#       5
#     4   4   4   4   4
#     4  10  21  37  58  87 124 167 213 261 316 377
#     4  12  25  41  65  98 132 172 217 267 325 389
#     4  10  22  43  67  91 127 173 216 266 325 385
#     4  11  24  46  72  98 129 170 217 273 331 387
#     4  11  22  39  60  90 129 173 220 268 323 384
#
# _framework density 20.365421999999999
#
# number of rings (size 3 to 8) (size 9 to 14) (size 15 to 20)
#    0.000    1.200    2.000    4.200    0.000    8.000 
#    0.000    0.000    0.000    0.000    0.000    0.000 
#    0.000    0.000    0.000    0.000    0.000    0.000 
#
# Total GULP energy -248079.181792 kJ/mol
# GULP energy per Si atom -12403.959090 kJ/mol
# Density = 2.031907 g / cm^3
# Si number density = 20.365422 Si / 1000 Ang^3
#
#
#
# Elastic Constant Matrix: (Units=GPa)
#
#
# Indices 1 2 3 4 5 6 
#
# 1 107.3705 53.8739 72.3536 0.0000 2.2986 0.0000
# 2 53.8739 106.1307 69.6275 0.0000 8.0151 0.0000
# 3 72.3536 69.6275 150.5203 0.0000 0.5399 0.0000
# 4 0.0000 0.0000 0.0000 32.1678 0.0000 -3.3215
# 5 2.2986 8.0151 0.5399 0.0000 37.9733 0.0000
# 6 0.0000 0.0000 0.0000 -3.3215 0.0000 38.0574
#
#
#
# Elastic Compliance Matrix: (Units=1/GPa)
#
#
# Indices 1 2 3 4 5 6 
#
# 1 0.014935 -0.004127 -0.005270 0.000000 0.000042 0.000000
# 2 -0.004127 0.014965 -0.004929 0.000000 -0.002839 0.000000
# 3 -0.005270 -0.004929 0.011453 0.000000 0.001196 0.000000
# 4 0.000000 0.000000 0.000000 0.031370 0.000000 0.002738
# 5 0.000042 -0.002839 0.001196 0.000000 0.026914 0.000000
# 6 0.000000 0.000000 0.000000 0.002738 0.000000 0.026515
#
#
# Mechanical properties :
#
#
# Convention : Reuss Voigt Hill
#
# Bulk Modulus (GPa) = 78.73321 83.97017 81.35169
# Shear Modulus (GPa) = 31.43947 32.85077 32.14512
#
# Velocity S-wave (km/s) = 3.93334 4.02066 3.97724
# Velocity P-wave (km/s) = 7.70535 7.92941 7.81818
#
# Compressibility (1/GPa) = 0.01270112
#
# Stress axis : x y z
#
# Youngs Moduli (GPa) = 66.95824 66.82256 87.31716
#
# Poissons Ratio (x) = 0.27576 0.46017
# Poissons Ratio (y) = 0.27632 0.43035
# Poissons Ratio (z) = 0.35288 0.32934
#
# Static dielectric constant tensor:
#      x y z
#    x 3.828910 0.000000 0.121360 
#    y 0.000000 3.944210 0.000000 
#    z 0.121360 0.000000 3.811040 
# 
# 
# High freq. dielectric constant tensor:
#      x y z
#    x 1.806820 0.000000 0.008140 
#    y 0.000000 1.795100 0.000000 
#    z 0.008140 0.000000 1.808220 
# 
# From -- ./inp_files/25637.got.cif
#   From: 2010.06.25/outbox.cif.g09.slc.cpg/sg11_13_cif.got.tgz:25637.got - 2010.06.27 23:14:04.
