data_PCOD8076550
_publ_section_title
;
Structure prediction by ZEFSAII (Michael W. Deem and Ramdas Pophale) SiO2 
 PCOD8076550
Probable space group: P 21/M
;
_chemical_formula_sum "Si O2"
_cell_formula_units_Z 32
_cell_length_a 12.497814
_cell_length_b 8.553196
_cell_length_c 31.350449
_cell_angle_alpha 90.000000
_cell_angle_beta 27.565650
_cell_angle_gamma 90.000000
_cell_volume 1550.837975
_symmetry_space_group_name_H-M "P 21/M"
_symmetry_group_IT_number 11
_symmetry_cell_setting 'monoclinic'
loop_
_space_group_symop_operation_xyz
x,y,z
-x,1/2+y,-z
-x,-y,-z
x,1/2-y,z
loop_
_atom_site_type_symbol
_atom_site_label
_atom_site_fract_x
_atom_site_fract_y
_atom_site_fract_z
Si Si1 0.861255 0.432974 0.181230
Si Si2 0.782997 0.572205 0.298696
Si Si3 0.874083 0.431907 0.680179
Si Si4 0.480432 0.077357 0.251322
Si Si5 0.630118 0.430302 0.494224
Si Si6 0.350407 0.069497 0.975614
Si Si7 0.808766 0.932657 0.794091
Si Si8 0.228160 0.922829 0.935125
O O1 0.872155 0.250000 0.167072
O O2 0.802304 0.462378 0.250920
O O3 0.655083 0.503178 0.224189
O O4 0.118206 0.501560 0.079891
O O5 0.829648 0.750000 0.268256
O O6 0.528478 0.552980 0.407958
O O7 0.966530 0.524053 0.269594
O O8 0.847207 0.250000 0.699693
O O9 0.742396 0.472703 0.682071
O O10 0.773187 0.525891 0.756748
O O11 0.139832 0.473092 0.578147
O O12 0.401417 0.250000 0.295600
O O13 0.607411 0.097411 0.162327
O O14 0.500000 0.500000 0.500000
O O15 0.691681 0.250000 0.463142
O O16 0.383237 0.250000 0.975989
O O17 0.589576 0.978778 0.901994
O O18 0.330219 0.045696 0.932326
O O19 0.850927 0.750000 0.784214
O O20 0.188752 0.750000 0.969781
O O21 0.000000 0.000000 0.000000
#
# Coordination Sequence:
#
# PCOD8076550 Si02
#       8
#     4   4   4   4   4   4   4   4
#     4  10  23  43  64  87 123 172 214 254 306 366
#     4  11  25  44  66  93 123 159 208 258 309 374
#     4  12  24  38  62  98 131 160 202 258 317 372
#     4  10  21  39  60  88 126 167 211 256 309 367
#     4  11  23  41  68  97 126 159 199 256 316 376
#     4  11  22  38  59  89 126 164 212 261 306 365
#     4  12  24  39  62  92 127 166 205 254 317 372
#     4  11  20  32  54  84 120 161 206 257 307 356
#
# _framework density 20.634004999999998
#
# number of rings (size 3 to 8) (size 9 to 14) (size 15 to 20)
#    0.000    1.000    3.750    3.750    0.000    4.000 
#    0.000    0.625    0.000    0.000    0.000    0.000 
#    0.000    0.000    0.000    0.000    0.000    0.000 
#
# Total GULP energy -396692.211287 kJ/mol
# GULP energy per Si atom -12396.631603 kJ/mol
# Density = 2.058704 g / cm^3
# Si number density = 20.634005 Si / 1000 Ang^3
#
#
#
# Elastic Constant Matrix: (Units=GPa)
#
#
# Indices 1 2 3 4 5 6 
#
# 1 70.1419 7.4443 35.1010 0.0000 -9.4784 0.0000
# 2 7.4443 58.2193 27.3469 0.0000 -5.8727 0.0000
# 3 35.1010 27.3469 101.4442 0.0000 -17.9478 0.0000
# 4 0.0000 0.0000 0.0000 24.7851 0.0000 0.1020
# 5 -9.4784 -5.8727 -17.9478 0.0000 36.7545 0.0000
# 6 0.0000 0.0000 0.0000 0.1020 0.0000 30.3916
#
#
#
# Elastic Compliance Matrix: (Units=1/GPa)
#
#
# Indices 1 2 3 4 5 6 
#
# 1 0.017364 0.000724 -0.005900 0.000000 0.001712 0.000000
# 2 0.000724 0.019709 -0.005444 0.000000 0.000678 0.000000
# 3 -0.005900 -0.005444 0.014168 0.000000 0.004527 0.000000
# 4 0.000000 0.000000 0.000000 0.040347 0.000000 -0.000135
# 5 0.001712 0.000678 0.004527 0.000000 0.029968 0.000000
# 6 0.000000 0.000000 0.000000 -0.000135 0.000000 0.032904
#
#
# Mechanical properties :
#
#
# Convention : Reuss Voigt Hill
#
# Bulk Modulus (GPa) = 33.33262 41.06556 37.19909
# Shear Modulus (GPa) = 26.92497 29.04712 27.98605
#
# Velocity S-wave (km/s) = 3.61624 3.75604 3.68680
# Velocity P-wave (km/s) = 5.79875 6.22540 6.01586
#
# Compressibility (1/GPa) = 0.03000064
#
# Stress axis : x y z
#
# Youngs Moduli (GPa) = 57.59000 50.73753 70.58321
#
# Poissons Ratio (x) = -0.03673 0.41647
# Poissons Ratio (y) = -0.04170 0.38424
# Poissons Ratio (z) = 0.33981 0.27620
#
# Static dielectric constant tensor:
#      x y z
#    x 3.601020 0.000000 -0.261620 
#    y 0.000000 3.844240 0.000000 
#    z -0.261620 0.000000 3.783160 
# 
# 
# High freq. dielectric constant tensor:
#      x y z
#    x 1.799260 0.000000 -0.022480 
#    y 0.000000 1.806270 0.000000 
#    z -0.022480 0.000000 1.804940 
# 
# From -- ./inp_files/73091.got.cif
#   From: 2010.06.25/outbox.cif.g09.slc.cpg/sg11_37_cif.got.tgz:73091.got - 2010.06.27 23:14:04.
