data_PCOD8076240
_publ_section_title
;
Structure prediction by ZEFSAII (Michael W. Deem and Ramdas Pophale) SiO2 
 PCOD8076240
Probable space group: P 21/M
;
_chemical_formula_sum "Si O2"
_cell_formula_units_Z 28
_cell_length_a 29.760680
_cell_length_b 9.034619
_cell_length_c 9.765165
_cell_angle_alpha 90.000000
_cell_angle_beta 143.488430
_cell_angle_gamma 90.000000
_cell_volume 1562.206244
_symmetry_space_group_name_H-M "P 21/M"
_symmetry_group_IT_number 11
_symmetry_cell_setting 'monoclinic'
loop_
_space_group_symop_operation_xyz
x,y,z
-x,1/2+y,-z
-x,-y,-z
x,1/2-y,z
loop_
_atom_site_type_symbol
_atom_site_label
_atom_site_fract_x
_atom_site_fract_y
_atom_site_fract_z
Si Si1 0.002110 0.419930 0.148457
Si Si2 0.279714 0.074547 0.355510
Si Si3 0.145143 0.578219 0.532958
Si Si4 0.727660 0.425151 0.943087
Si Si5 0.558813 0.418466 0.549897
Si Si6 0.437981 0.922139 0.756837
Si Si7 0.165042 0.919216 0.264226
O O1 0.022301 0.250000 0.173967
O O2 0.069771 0.493526 0.402024
O O3 0.918500 0.436795 0.008726
O O4 0.000000 0.500000 0.000000
O O5 0.289027 0.250000 0.368915
O O6 0.248722 0.010364 0.136550
O O7 0.358810 0.001470 0.590118
O O8 0.220265 0.033770 0.327203
O O9 0.127972 0.750000 0.508529
O O10 0.163872 0.539065 0.421958
O O11 0.215383 0.528594 0.797760
O O12 0.728028 0.250000 0.912168
O O13 0.643992 0.477053 0.783693
O O14 0.500000 0.500000 0.500000
O O15 0.554520 0.250000 0.584330
O O16 0.536537 0.441063 0.337515
O O17 0.430155 0.750000 0.777237
O O18 0.500000 0.000000 0.000000
O O19 0.193187 0.750000 0.314215
#
# Coordination Sequence:
#
# PCOD8076240 Si02
#       7
#     4   4   4   4   4   4   4
#     4   9  17  30  50  75 104 135 169 211 261 308
#     4  11  22  35  53  78 105 137 175 213 255 303
#     4   9  18  33  55  79 102 133 174 215 261 310
#     4   9  19  37  55  73 103 140 171 207 258 311
#     4   9  19  34  53  77 104 134 169 207 251 301
#     4  10  21  38  57  78 105 137 172 211 256 306
#     4   9  18  33  52  76 105 138 172 210 258 309
#
# _framework density 17.923369999999998
#
# number of rings (size 3 to 8) (size 9 to 14) (size 15 to 20)
#    0.000    2.571    0.000    3.857    0.000    7.429 
#    0.000    2.143    0.000    0.000    0.000    0.000 
#    0.000    0.000    0.000    0.000    0.000    0.000 
#
# Total GULP energy -347134.234191 kJ/mol
# GULP energy per Si atom -12397.651221 kJ/mol
# Density = 1.788258 g / cm^3
# Si number density = 17.923370 Si / 1000 Ang^3
#
#
#
# Elastic Constant Matrix: (Units=GPa)
#
#
# Indices 1 2 3 4 5 6 
#
# 1 82.4443 48.7849 52.9104 0.0000 10.4592 0.0000
# 2 48.7849 98.3314 58.7153 0.0000 7.0251 0.0000
# 3 52.9104 58.7153 149.2855 0.0000 5.6368 0.0000
# 4 0.0000 0.0000 0.0000 32.9746 0.0000 4.3495
# 5 10.4592 7.0251 5.6368 0.0000 15.6132 0.0000
# 6 0.0000 0.0000 0.0000 4.3495 0.0000 33.6623
#
#
#
# Elastic Compliance Matrix: (Units=1/GPa)
#
#
# Indices 1 2 3 4 5 6 
#
# 1 0.019865 -0.006825 -0.004025 0.000000 -0.008784 0.000000
# 2 -0.006825 0.015906 -0.003791 0.000000 -0.001216 0.000000
# 3 -0.004025 -0.003791 0.009581 0.000000 0.000943 0.000000
# 4 0.000000 0.000000 0.000000 0.030852 0.000000 -0.003986
# 5 -0.008784 -0.001216 0.000943 0.000000 0.070139 0.000000
# 6 0.000000 0.000000 0.000000 -0.003986 0.000000 0.030222
#
#
# Mechanical properties :
#
#
# Convention : Reuss Voigt Hill
#
# Bulk Modulus (GPa) = 62.22651 72.32026 67.27339
# Shear Modulus (GPa) = 23.67377 27.76007 25.71692
#
# Velocity S-wave (km/s) = 3.63827 3.93977 3.79202
# Velocity P-wave (km/s) = 7.24174 7.81876 7.53578
#
# Compressibility (1/GPa) = 0.01607032
#
# Stress axis : x y z
#
# Youngs Moduli (GPa) = 50.33923 62.86758 104.37764
#
# Poissons Ratio (x) = 0.42906 0.42010
# Poissons Ratio (y) = 0.34356 0.39573
# Poissons Ratio (z) = 0.20260 0.23835
#
# Static dielectric constant tensor:
#      x y z
#    x 3.189740 0.000000 0.162180 
#    y 0.000000 3.441150 0.000000 
#    z 0.162180 0.000000 3.583720 
# 
# 
# High freq. dielectric constant tensor:
#      x y z
#    x 1.678480 0.000000 0.014680 
#    y 0.000000 1.696440 0.000000 
#    z 0.014680 0.000000 1.698390 
# 
# From -- ./inp_files/28601.got.cif
#   From: 2010.06.25/outbox.cif.g09.slc.cpg/sg11_15_cif.got.tgz:28601.got - 2010.06.27 23:14:04.
