data_PCOD8076001
_publ_section_title
;
Structure prediction by ZEFSAII (Michael W. Deem and Ramdas Pophale) SiO2 
 PCOD8076001
Probable space group: P 21/M
;
_chemical_formula_sum "Si O2"
_cell_formula_units_Z 32
_cell_length_a 14.336730
_cell_length_b 16.798313
_cell_length_c 7.065554
_cell_angle_alpha 90.000000
_cell_angle_beta 77.682603
_cell_angle_gamma 90.000000
_cell_volume 1662.447904
_symmetry_space_group_name_H-M "P 21/M"
_symmetry_group_IT_number 11
_symmetry_cell_setting 'monoclinic'
loop_
_space_group_symop_operation_xyz
x,y,z
-x,1/2+y,-z
-x,-y,-z
x,1/2-y,z
loop_
_atom_site_type_symbol
_atom_site_label
_atom_site_fract_x
_atom_site_fract_y
_atom_site_fract_z
Si Si1 0.759073 0.075464 0.675290
Si Si2 0.695560 0.157298 0.340371
Si Si3 0.066410 0.161353 0.852441
Si Si4 0.904661 0.951148 0.504580
Si Si5 0.852686 0.341043 0.977092
Si Si6 0.463352 0.536150 0.711900
Si Si7 0.810091 0.659246 0.837983
Si Si8 0.629916 0.951792 0.915087
O O1 0.716501 0.140777 0.551810
O O2 0.832764 0.112286 0.792344
O O3 0.814735 0.009843 0.528250
O O4 0.672780 0.035717 0.826935
O O5 0.672481 0.250000 0.326117
O O6 0.605730 0.108870 0.304566
O O7 0.787672 0.130124 0.179033
O O8 0.066000 0.250000 0.760700
O O9 0.089680 0.094129 0.693622
O O10 0.962420 0.144631 0.989078
O O11 0.148750 0.156268 0.970398
O O12 0.886266 0.886763 0.676107
O O13 0.000000 0.000000 0.500000
O O14 0.830224 0.250000 0.941542
O O15 0.500000 0.500000 0.500000
O O16 0.548401 0.573088 0.801133
O O17 0.411606 0.466410 0.856091
O O18 0.798951 0.750000 0.771229
O O19 0.706678 0.618578 0.884908
#
# Coordination Sequence:
#
# PCOD8076001 Si02
#       8
#     4   4   4   4   4   4   4   4
#     4  11  21  38  58  89 122 157 200 246 299 357
#     4  11  24  39  62  91 120 158 200 248 307 367
#     4  10  22  39  59  87 124 167 207 251 299 349
#     4  11  23  36  59  90 121 165 210 251 294 353
#     4  10  21  37  56  83 125 163 197 246 297 350
#     4  11  22  42  66  91 120 152 196 253 309 371
#     4  10  24  43  62  88 124 165 209 254 302 363
#     4  10  23  40  65  90 118 158 197 250 313 364
#
# _framework density 19.248723999999999
#
# number of rings (size 3 to 8) (size 9 to 14) (size 15 to 20)
#    0.000    1.500    3.750    0.750    3.500    1.000 
#    0.000    0.625    0.000    0.000    0.000    0.000 
#    0.000    0.000    0.000    0.000    0.000    0.000 
#
# Total GULP energy -396865.293212 kJ/mol
# GULP energy per Si atom -12402.040413 kJ/mol
# Density = 1.920491 g / cm^3
# Si number density = 19.248724 Si / 1000 Ang^3
#
#
#
# Elastic Constant Matrix: (Units=GPa)
#
#
# Indices 1 2 3 4 5 6 
#
# 1 112.2749 48.9644 46.7788 0.0000 -2.1451 0.0000
# 2 48.9644 101.9044 52.7759 0.0000 -6.0813 0.0000
# 3 46.7788 52.7759 107.1328 0.0000 -9.5624 0.0000
# 4 0.0000 0.0000 0.0000 34.1945 0.0000 -1.1507
# 5 -2.1451 -6.0813 -9.5624 0.0000 35.2521 0.0000
# 6 0.0000 0.0000 0.0000 -1.1507 0.0000 31.2244
#
#
#
# Elastic Compliance Matrix: (Units=1/GPa)
#
#
# Indices 1 2 3 4 5 6 
#
# 1 0.012075 -0.004139 -0.003312 0.000000 -0.000878 0.000000
# 2 -0.004139 0.014603 -0.005312 0.000000 0.000826 0.000000
# 3 -0.003312 -0.005312 0.013627 0.000000 0.002579 0.000000
# 4 0.000000 0.000000 0.000000 0.029281 0.000000 0.001079
# 5 -0.000878 0.000826 0.002579 0.000000 0.029156 0.000000
# 6 0.000000 0.000000 0.000000 0.001079 0.000000 0.032066
#
#
# Mechanical properties :
#
#
# Convention : Reuss Voigt Hill
#
# Bulk Modulus (GPa) = 67.66710 68.70558 68.18634
# Shear Modulus (GPa) = 31.00582 31.65374 31.32978
#
# Velocity S-wave (km/s) = 4.01783 4.05959 4.03877
# Velocity P-wave (km/s) = 7.53355 7.59900 7.56634
#
# Compressibility (1/GPa) = 0.01477823
#
# Stress axis : x y z
#
# Youngs Moduli (GPa) = 82.81649 68.48116 73.38145
#
# Poissons Ratio (x) = 0.28345 0.24302
# Poissons Ratio (y) = 0.34279 0.38984
# Poissons Ratio (z) = 0.27426 0.36380
#
# Static dielectric constant tensor:
#      x y z
#    x 3.632790 0.000000 -0.098340 
#    y 0.000000 3.894170 0.000000 
#    z -0.098340 0.000000 3.540690 
# 
# 
# High freq. dielectric constant tensor:
#      x y z
#    x 1.757300 0.000000 -0.003110 
#    y 0.000000 1.748240 0.000000 
#    z -0.003110 0.000000 1.753350 
# 
# From -- ./inp_files/6844.got.cif
#   From: 2010.06.25/outbox.cif.g09.slc.cpg/sg11_4_cif.got.tgz:6844.got - 2010.06.27 23:14:04.
