data_PCOD8076404
_publ_section_title
;
Structure prediction by ZEFSAII (Michael W. Deem and Ramdas Pophale) SiO2 
 PCOD8076404
Probable space group: P 21/M
;
_chemical_formula_sum "Si O2"
_cell_formula_units_Z 28
_cell_length_a 11.712876
_cell_length_b 8.836349
_cell_length_c 15.582984
_cell_angle_alpha 90.000000
_cell_angle_beta 63.186885
_cell_angle_gamma 90.000000
_cell_volume 1439.417516
_symmetry_space_group_name_H-M "P 21/M"
_symmetry_group_IT_number 11
_symmetry_cell_setting 'monoclinic'
loop_
_space_group_symop_operation_xyz
x,y,z
-x,1/2+y,-z
-x,-y,-z
x,1/2-y,z
loop_
_atom_site_type_symbol
_atom_site_label
_atom_site_fract_x
_atom_site_fract_y
_atom_site_fract_z
Si Si1 0.925365 0.926975 0.755476
Si Si2 0.116297 0.572068 0.410290
Si Si3 0.534724 0.925774 0.115313
Si Si4 0.567333 0.421426 0.281351
Si Si5 0.297642 0.926378 0.079166
Si Si6 0.781056 0.075006 0.337576
Si Si7 0.686203 0.577010 0.539678
O O1 0.907914 0.750000 0.744581
O O2 0.071441 0.967231 0.729143
O O3 0.880664 0.017372 0.687604
O O4 0.833809 0.981594 0.863243
O O5 0.100797 0.750000 0.417770
O O6 0.246772 0.525455 0.411591
O O7 0.000000 0.500000 0.500000
O O8 0.565625 0.750000 0.091720
O O9 0.396049 0.965179 0.122845
O O10 0.536067 0.965438 0.214931
O O11 0.643434 0.022709 0.031224
O O12 0.563739 0.250000 0.246833
O O13 0.705355 0.459511 0.275352
O O14 0.464926 0.441059 0.392891
O O15 0.265540 0.750000 0.086145
O O16 0.766451 0.250000 0.369569
O O17 0.722213 0.974475 0.432574
O O18 0.731139 0.750000 0.535542
#
# Coordination Sequence:
#
# PCOD8076404 Si02
#       7
#     4   4   4   4   4   4   4
#     4  11  22  37  58  85 117 153 191 234 285 340
#     4  12  23  36  55  81 115 150 189 234 284 338
#     4  10  21  38  61  89 115 144 185 236 289 341
#     4  10  22  39  58  83 114 152 195 238 286 339
#     4  10  21  38  62  89 117 148 182 231 289 346
#     4  10  22  39  57  79 115 157 195 238 283 333
#     4  11  22  36  58  85 114 151 195 240 288 342
#
# _framework density 19.452313
#
# number of rings (size 3 to 8) (size 9 to 14) (size 15 to 20)
#    0.000    1.429    1.429    4.286    0.000    6.286 
#    0.000    0.714    0.000    0.000    0.000    0.000 
#    0.000    0.000    0.000    0.000    0.000    0.000 
#
# Total GULP energy -347345.335369 kJ/mol
# GULP energy per Si atom -12405.190549 kJ/mol
# Density = 1.940804 g / cm^3
# Si number density = 19.452313 Si / 1000 Ang^3
#
#
#
# Elastic Constant Matrix: (Units=GPa)
#
#
# Indices 1 2 3 4 5 6 
#
# 1 88.1339 33.7829 44.5904 0.0000 -5.2921 0.0000
# 2 33.7829 99.8381 42.4482 0.0000 -4.3981 0.0000
# 3 44.5904 42.4482 91.5273 0.0000 -14.1140 0.0000
# 4 0.0000 0.0000 0.0000 38.7653 0.0000 0.2243
# 5 -5.2921 -4.3981 -14.1140 0.0000 25.2517 0.0000
# 6 0.0000 0.0000 0.0000 0.2243 0.0000 25.6806
#
#
#
# Elastic Compliance Matrix: (Units=1/GPa)
#
#
# Indices 1 2 3 4 5 6 
#
# 1 0.015576 -0.002524 -0.006546 0.000000 -0.000834 0.000000
# 2 -0.002524 0.012917 -0.004919 0.000000 -0.001029 0.000000
# 3 -0.006546 -0.004919 0.017567 0.000000 0.007590 0.000000
# 4 0.000000 0.000000 0.000000 0.025798 0.000000 -0.000225
# 5 -0.000834 -0.001029 0.007590 0.000000 0.043490 0.000000
# 6 0.000000 0.000000 0.000000 -0.000225 0.000000 0.038942
#
#
# Mechanical properties :
#
#
# Convention : Reuss Voigt Hill
#
# Bulk Modulus (GPa) = 55.31037 57.90471 56.60754
# Shear Modulus (GPa) = 26.55417 28.51803 27.53610
#
# Velocity S-wave (km/s) = 3.69872 3.83305 3.76649
# Velocity P-wave (km/s) = 6.83639 7.03007 6.93391
#
# Compressibility (1/GPa) = 0.01807979
#
# Stress axis : x y z
#
# Youngs Moduli (GPa) = 64.20215 77.42021 56.92527
#
# Poissons Ratio (x) = 0.19540 0.37265
# Poissons Ratio (y) = 0.16204 0.28004
# Poissons Ratio (z) = 0.42029 0.38086
#
# Static dielectric constant tensor:
#      x y z
#    x 3.562780 0.000000 -0.170050 
#    y 0.000000 3.431670 0.000000 
#    z -0.170050 0.000000 3.482660 
# 
# 
# High freq. dielectric constant tensor:
#      x y z
#    x 1.754530 0.000000 -0.011490 
#    y 0.000000 1.767150 0.000000 
#    z -0.011490 0.000000 1.752340 
# 
# From -- ./inp_files/37431.got.cif
#   From: 2010.06.25/outbox.cif.g09.slc.cpg/sg11_19_cif.got.tgz:37431.got - 2010.06.27 23:14:04.
