data_PCOD8076469
_publ_section_title
;
Structure prediction by ZEFSAII (Michael W. Deem and Ramdas Pophale) SiO2 
 PCOD8076469
Probable space group: P 21/M
;
_chemical_formula_sum "Si O2"
_cell_formula_units_Z 32
_cell_length_a 11.955408
_cell_length_b 8.790809
_cell_length_c 30.423459
_cell_angle_alpha 90.000000
_cell_angle_beta 28.960457
_cell_angle_gamma 90.000000
_cell_volume 1548.217228
_symmetry_space_group_name_H-M "P 21/M"
_symmetry_group_IT_number 11
_symmetry_cell_setting 'monoclinic'
loop_
_space_group_symop_operation_xyz
x,y,z
-x,1/2+y,-z
-x,-y,-z
x,1/2-y,z
loop_
_atom_site_type_symbol
_atom_site_label
_atom_site_fract_x
_atom_site_fract_y
_atom_site_fract_z
Si Si1 0.846336 0.578401 0.987706
Si Si2 0.493167 0.571331 0.422049
Si Si3 0.454670 0.069235 0.063426
Si Si4 0.987195 0.072162 0.739611
Si Si5 0.720665 0.579920 0.132148
Si Si6 0.693659 0.572432 0.689695
Si Si7 0.090174 0.071767 0.604958
Si Si8 0.250870 0.928954 0.416177
O O1 0.867710 0.750000 0.961487
O O2 0.088500 0.489718 0.900282
O O3 0.650200 0.488941 0.029224
O O4 0.795645 0.584579 0.056382
O O5 0.468775 0.750000 0.439682
O O6 0.761459 0.525032 0.328851
O O7 0.355014 0.483983 0.508417
O O8 0.389141 0.518560 0.411471
O O9 0.466526 0.250000 0.056170
O O10 0.204760 0.021833 0.168080
O O11 0.500000 0.000000 0.000000
O O12 0.935678 0.250000 0.764659
O O13 0.986297 0.031441 0.688286
O O14 0.663092 0.750000 0.168474
O O15 0.495020 0.473839 0.209434
O O16 0.706874 0.750000 0.677757
O O17 0.610849 0.491048 0.673432
O O18 0.945188 0.516337 0.617930
O O19 0.075650 0.250000 0.601196
O O20 0.227394 0.750000 0.422562
O O21 0.000000 0.000000 0.500000
#
# Coordination Sequence:
#
# PCOD8076469 Si02
#       8
#     4   4   4   4   4   4   4   4
#     4  10  21  40  65  92 124 159 200 252 311 373
#     4  10  22  40  63  89 123 163 204 253 308 367
#     4  12  26  44  67  92 123 165 209 258 315 375
#     4  10  23  43  64  92 125 160 204 255 311 370
#     4  10  21  38  62  93 126 160 201 253 310 367
#     4  12  24  37  57  86 123 165 209 254 301 360
#     4  11  22  37  62  91 125 164 205 256 309 366
#     4  11  22  38  59  84 117 158 201 246 300 359
#
# _framework density 20.668935000000001
#
# number of rings (size 3 to 8) (size 9 to 14) (size 15 to 20)
#    0.000    1.250    1.250    4.875    0.000    7.500 
#    0.000    3.750    0.000    0.000    0.000    0.000 
#    0.000    0.000    0.000    0.000    0.000    0.000 
#
# Total GULP energy -396863.719673 kJ/mol
# GULP energy per Si atom -12401.991240 kJ/mol
# Density = 2.062189 g / cm^3
# Si number density = 20.668935 Si / 1000 Ang^3
#
#
#
# Elastic Constant Matrix: (Units=GPa)
#
#
# Indices 1 2 3 4 5 6 
#
# 1 86.2229 57.1037 58.9992 0.0000 -17.7871 0.0000
# 2 57.1037 124.3355 53.0619 0.0000 -2.4570 0.0000
# 3 58.9992 53.0619 96.5339 0.0000 -8.7439 0.0000
# 4 0.0000 0.0000 0.0000 40.9704 0.0000 -0.3665
# 5 -17.7871 -2.4570 -8.7439 0.0000 31.9384 0.0000
# 6 0.0000 0.0000 0.0000 -0.3665 0.0000 24.4225
#
#
#
# Elastic Compliance Matrix: (Units=1/GPa)
#
#
# Indices 1 2 3 4 5 6 
#
# 1 0.026118 -0.007042 -0.011099 0.000000 0.010965 0.000000
# 2 -0.007042 0.012426 -0.002866 0.000000 -0.003751 0.000000
# 3 -0.011099 -0.002866 0.018599 0.000000 -0.001310 0.000000
# 4 0.000000 0.000000 0.000000 0.024411 0.000000 0.000366
# 5 0.010965 -0.003751 -0.001310 0.000000 0.036770 0.000000
# 6 0.000000 0.000000 0.000000 0.000366 0.000000 0.040951
#
#
# Mechanical properties :
#
#
# Convention : Reuss Voigt Hill
#
# Bulk Modulus (GPa) = 66.09550 71.71354 68.90452
# Shear Modulus (GPa) = 24.23271 28.66142 26.44706
#
# Velocity S-wave (km/s) = 3.42778 3.72787 3.58097
# Velocity P-wave (km/s) = 6.90752 7.30075 7.10686
#
# Compressibility (1/GPa) = 0.01512962
#
# Stress axis : x y z
#
# Youngs Moduli (GPa) = 38.28737 80.47658 53.76621
#
# Poissons Ratio (x) = 0.56673 0.59674
# Poissons Ratio (y) = 0.26962 0.15409
# Poissons Ratio (z) = 0.42494 0.23064
#
# Static dielectric constant tensor:
#      x y z
#    x 3.962190 0.000000 -0.038960 
#    y 0.000000 3.877990 0.000000 
#    z -0.038960 0.000000 3.812130 
# 
# 
# High freq. dielectric constant tensor:
#      x y z
#    x 1.812770 0.000000 -0.004230 
#    y 0.000000 1.815480 0.000000 
#    z -0.004230 0.000000 1.814290 
# 
# From -- ./inp_files/73131.got.cif
#   From: 2010.06.25/outbox.cif.g09.slc.cpg/sg11_37_cif.got.tgz:73131.got - 2010.06.27 23:14:04.
