data_PCOD8076872
_publ_section_title
;
Structure prediction by ZEFSAII (Michael W. Deem and Ramdas Pophale) SiO2 
 PCOD8076872
Probable space group: P 21/M
;
_chemical_formula_sum "Si O2"
_cell_formula_units_Z 20
_cell_length_a 8.858060
_cell_length_b 15.076264
_cell_length_c 12.621236
_cell_angle_alpha 90.000000
_cell_angle_beta 144.774220
_cell_angle_gamma 90.000000
_cell_volume 972.208552
_symmetry_space_group_name_H-M "P 21/M"
_symmetry_group_IT_number 11
_symmetry_cell_setting 'monoclinic'
loop_
_space_group_symop_operation_xyz
x,y,z
-x,1/2+y,-z
-x,-y,-z
x,1/2-y,z
loop_
_atom_site_type_symbol
_atom_site_label
_atom_site_fract_x
_atom_site_fract_y
_atom_site_fract_z
Si Si1 0.294341 0.418226 0.704888
Si Si2 0.143841 0.474755 0.837593
Si Si3 0.759598 0.849450 0.914456
Si Si4 0.247260 0.583413 0.539360
Si Si5 0.833973 0.151297 0.030626
O O1 0.332005 0.467788 0.841590
O O2 0.327274 0.487614 0.629746
O O3 0.000296 0.376454 0.534266
O O4 0.524688 0.346771 0.824830
O O5 0.103871 0.577618 0.845472
O O6 0.858375 0.432598 0.641561
O O7 0.262144 0.419135 0.002826
O O8 0.783182 0.750000 0.974163
O O9 0.497601 0.853224 0.690920
O O10 0.007432 0.873022 0.984398
O O11 0.912151 0.250000 0.116099
#
# Coordination Sequence:
#
# PCOD8076872 Si02
#       5
#     4   4   4   4   4
#     4   9  20  40  62  91 116 155 205 251 298 363
#     4  10  21  41  67  86 120 163 204 241 307 364
#     4  11  24  40  61  90 124 162 205 248 304 361
#     4   9  21  39  65  87 120 154 206 249 303 361
#     4  11  23  39  61  92 125 159 202 254 301 360
#
# _framework density 20.571717
#
# number of rings (size 3 to 8) (size 9 to 14) (size 15 to 20)
#    1.200    0.800    2.000    1.200    0.000    3.200 
#    0.000    1.000    0.000    0.000    0.000    0.000 
#    0.000    0.000    0.000    0.000    0.000    0.000 
#
# Total GULP energy -247772.758284 kJ/mol
# GULP energy per Si atom -12388.637914 kJ/mol
# Density = 2.052490 g / cm^3
# Si number density = 20.571717 Si / 1000 Ang^3
#
#
#
# Elastic Constant Matrix: (Units=GPa)
#
#
# Indices 1 2 3 4 5 6 
#
# 1 73.2099 28.8080 19.8044 0.0000 22.2460 0.0000
# 2 28.8080 76.6791 19.8178 0.0000 6.2779 0.0000
# 3 19.8044 19.8178 99.5463 0.0000 13.8165 0.0000
# 4 0.0000 0.0000 0.0000 18.5870 0.0000 7.5377
# 5 22.2460 6.2779 13.8165 0.0000 23.2358 0.0000
# 6 0.0000 0.0000 0.0000 7.5377 0.0000 5.7143
#
#
#
# Elastic Compliance Matrix: (Units=1/GPa)
#
#
# Indices 1 2 3 4 5 6 
#
# 1 0.022248 -0.006673 -0.000427 0.000000 -0.019244 0.000000
# 2 -0.006673 0.015861 -0.002313 0.000000 0.003478 0.000000
# 3 -0.000427 -0.002313 0.011387 0.000000 -0.005738 0.000000
# 4 0.000000 0.000000 0.000000 0.115686 0.000000 -0.152601
# 5 -0.019244 0.003478 -0.005738 0.000000 0.063933 0.000000
# 6 0.000000 0.000000 0.000000 -0.152601 0.000000 0.376296
#
#
# Mechanical properties :
#
#
# Convention : Reuss Voigt Hill
#
# Bulk Modulus (GPa) = 32.60333 42.92173 37.76253
# Shear Modulus (GPa) = 7.88071 21.57444 14.72757
#
# Velocity S-wave (km/s) = 1.95938 3.24194 2.67856
# Velocity P-wave (km/s) = 4.58278 5.90960 5.28797
#
# Compressibility (1/GPa) = 0.03067171
#
# Stress axis : x y z
#
# Youngs Moduli (GPa) = 44.94791 63.04675 87.81712
#
# Poissons Ratio (x) = 0.42069 0.03748
# Poissons Ratio (y) = 0.29992 0.20312
# Poissons Ratio (z) = 0.01919 0.14582
#
# Static dielectric constant tensor:
#      x y z
#    x 3.554400 0.000000 0.255070 
#    y 0.000000 3.408300 0.000000 
#    z 0.255070 0.000000 3.867120 
# 
# 
# High freq. dielectric constant tensor:
#      x y z
#    x 1.792670 0.000000 0.018930 
#    y 0.000000 1.782860 0.000000 
#    z 0.018930 0.000000 1.807960 
# 
# From -- ./inp_files/13318.got.cif
#   From: 2010.06.25/outbox.cif.g09.slc.cpg/sg11_7_cif.got.tgz:13318.got - 2010.06.27 23:14:04.
