data_PCOD8076466
_publ_section_title
;
Structure prediction by ZEFSAII (Michael W. Deem and Ramdas Pophale) SiO2 
 PCOD8076466
Probable space group: P 21/M
;
_chemical_formula_sum "Si O2"
_cell_formula_units_Z 28
_cell_length_a 11.698642
_cell_length_b 19.234074
_cell_length_c 7.200031
_cell_angle_alpha 90.000000
_cell_angle_beta 121.120234
_cell_angle_gamma 90.000000
_cell_volume 1386.940383
_symmetry_space_group_name_H-M "P 21/M"
_symmetry_group_IT_number 11
_symmetry_cell_setting 'monoclinic'
loop_
_space_group_symop_operation_xyz
x,y,z
-x,1/2+y,-z
-x,-y,-z
x,1/2-y,z
loop_
_atom_site_type_symbol
_atom_site_label
_atom_site_fract_x
_atom_site_fract_y
_atom_site_fract_z
Si Si1 0.254618 0.169951 0.010178
Si Si2 0.506635 0.389724 0.028125
Si Si3 0.104690 0.919326 0.005780
Si Si4 0.224098 0.672231 0.804407
Si Si5 0.563899 0.512782 0.352096
Si Si6 0.811732 0.941649 0.756788
Si Si7 0.047689 0.829378 0.308640
O O1 0.279401 0.250000 0.089774
O O2 0.110577 0.160934 0.792196
O O3 0.365693 0.145780 0.956539
O O4 0.260562 0.122683 0.200247
O O5 0.621545 0.331548 0.126909
O O6 0.549390 0.443512 0.222169
O O7 0.502016 0.424592 0.820058
O O8 0.204845 0.879827 0.957004
O O9 0.955053 0.919104 0.794068
O O10 0.102934 0.881399 0.201489
O O11 0.162112 0.997030 0.071891
O O12 0.191055 0.750000 0.841952
O O13 0.123820 0.649744 0.558450
O O14 0.500000 0.500000 0.500000
O O15 0.719480 0.531740 0.511744
O O16 0.079996 0.750000 0.276922
#
# Coordination Sequence:
#
# PCOD8076466 Si02
#       7
#     4   4   4   4   4   4   4
#     4  10  21  41  63  89 123 159 204 257 302 362
#     4  11  24  38  64  90 124 160 200 253 304 362
#     4  10  21  38  62  92 123 157 207 253 302 360
#     4  11  23  39  61  90 123 163 201 248 305 364
#     4  11  22  40  62  90 123 158 202 247 310 360
#     4  10  21  40  63  92 121 161 204 256 302 360
#     4   9  20  39  62  87 122 163 203 250 305 355
#
# _framework density 20.188323
#
# number of rings (size 3 to 8) (size 9 to 14) (size 15 to 20)
#    0.000    1.714    1.429    2.571    4.000    0.571 
#    0.000    4.286    0.000    0.000    0.000    0.000 
#    0.000    0.000    0.000    0.000    0.000    0.000 
#
# Total GULP energy -347230.589523 kJ/mol
# GULP energy per Si atom -12401.092483 kJ/mol
# Density = 2.014237 g / cm^3
# Si number density = 20.188323 Si / 1000 Ang^3
#
#
#
# Elastic Constant Matrix: (Units=GPa)
#
#
# Indices 1 2 3 4 5 6 
#
# 1 102.3189 43.5160 44.6625 0.0000 3.8670 0.0000
# 2 43.5160 107.1397 38.0004 0.0000 -6.9662 0.0000
# 3 44.6625 38.0004 92.7047 0.0000 4.3892 0.0000
# 4 0.0000 0.0000 0.0000 73.6819 0.0000 1.0835
# 5 3.8670 -6.9662 4.3892 0.0000 25.8718 0.0000
# 6 0.0000 0.0000 0.0000 1.0835 0.0000 31.0819
#
#
#
# Elastic Compliance Matrix: (Units=1/GPa)
#
#
# Indices 1 2 3 4 5 6 
#
# 1 0.013668 -0.003983 -0.004844 0.000000 -0.002294 0.000000
# 2 -0.003983 0.012451 -0.003399 0.000000 0.004524 0.000000
# 3 -0.004844 -0.003399 0.014641 0.000000 -0.002675 0.000000
# 4 0.000000 0.000000 0.000000 0.013579 0.000000 -0.000473
# 5 -0.002294 0.004524 -0.002675 0.000000 0.040667 0.000000
# 6 0.000000 0.000000 0.000000 -0.000473 0.000000 0.032190
#
#
# Mechanical properties :
#
#
# Convention : Reuss Voigt Hill
#
# Bulk Modulus (GPa) = 61.31826 61.61345 61.46585
# Shear Modulus (GPa) = 31.83034 37.85942 34.84488
#
# Velocity S-wave (km/s) = 3.97504 4.33519 4.15901
# Velocity P-wave (km/s) = 7.17684 7.45949 7.31953
#
# Compressibility (1/GPa) = 0.01630836
#
# Stress axis : x y z
#
# Youngs Moduli (GPa) = 73.16260 80.31465 68.30311
#
# Poissons Ratio (x) = 0.31986 0.33085
# Poissons Ratio (y) = 0.29138 0.23218
# Poissons Ratio (z) = 0.35439 0.27301
#
# Static dielectric constant tensor:
#      x y z
#    x 3.708700 0.000000 0.238180 
#    y 0.000000 3.857550 0.000000 
#    z 0.238180 0.000000 3.550830 
# 
# 
# High freq. dielectric constant tensor:
#      x y z
#    x 1.793940 0.000000 0.016370 
#    y 0.000000 1.797160 0.000000 
#    z 0.016370 0.000000 1.775980 
# 
# From -- ./inp_files/4934.got.cif
#   From: 2010.06.25/outbox.cif.g09.slc.cpg/sg11_3_cif.got.tgz:4934.got - 2010.06.27 23:14:04.
