data_PCOD8076317
_publ_section_title
;
Structure prediction by ZEFSAII (Michael W. Deem and Ramdas Pophale) SiO2 
 PCOD8076317
Probable space group: P 21/M
;
_chemical_formula_sum "Si O2"
_cell_formula_units_Z 28
_cell_length_a 14.715773
_cell_length_b 8.368800
_cell_length_c 12.765779
_cell_angle_alpha 90.000000
_cell_angle_beta 120.048125
_cell_angle_gamma 90.000000
_cell_volume 1360.859883
_symmetry_space_group_name_H-M "P 21/M"
_symmetry_group_IT_number 11
_symmetry_cell_setting 'monoclinic'
loop_
_space_group_symop_operation_xyz
x,y,z
-x,1/2+y,-z
-x,-y,-z
x,1/2-y,z
loop_
_atom_site_type_symbol
_atom_site_label
_atom_site_fract_x
_atom_site_fract_y
_atom_site_fract_z
Si Si1 0.887542 0.940342 0.967746
Si Si2 0.588711 0.065561 0.977659
Si Si3 0.284245 0.437208 0.292656
Si Si4 0.291439 0.440142 0.531418
Si Si5 0.114681 0.060409 0.592465
Si Si6 0.811542 0.935658 0.143512
Si Si7 0.482392 0.435937 0.278132
O O1 0.882044 0.750000 0.965762
O O2 0.800376 0.011837 0.837307
O O3 0.866068 0.010566 0.071735
O O4 0.000000 0.000000 0.000000
O O5 0.612262 0.250000 0.014008
O O6 0.554575 0.043911 0.838885
O O7 0.500000 0.000000 0.000000
O O8 0.688476 0.960871 0.064158
O O9 0.266434 0.250000 0.281719
O O10 0.263330 0.500694 0.398055
O O11 0.403609 0.478882 0.328075
O O12 0.306902 0.250000 0.545304
O O13 0.198931 0.499823 0.554938
O O14 0.399171 0.523692 0.625185
O O15 0.116132 0.250000 0.594519
O O16 0.144945 0.987453 0.723666
O O17 0.000000 0.000000 0.500000
O O18 0.836466 0.750000 0.161744
O O19 0.472793 0.250000 0.242040
#
# Coordination Sequence:
#
# PCOD8076317 Si02
#       7
#     4   4   4   4   4   4   4
#     4  10  21  38  60  86 119 157 200 252 304 359
#     4  12  24  38  61  91 122 158 199 245 296 359
#     4   9  19  37  60  85 120 160 195 244 305 355
#     4  10  21  38  59  87 120 157 202 248 299 357
#     4  10  23  40  61  85 115 155 196 243 295 352
#     4  10  21  41  62  85 121 159 197 247 305 356
#     4  11  21  38  61  88 122 159 197 243 302 361
#
# _framework density 20.575227000000002
#
# number of rings (size 3 to 8) (size 9 to 14) (size 15 to 20)
#    0.000    1.714    1.429    3.000    2.000    2.857 
#    0.000    1.429    0.000    0.000    0.000    0.000 
#    0.000    0.000    0.000    0.000    0.000    0.000 
#
# Total GULP energy -347203.799296 kJ/mol
# GULP energy per Si atom -12400.135689 kJ/mol
# Density = 2.052840 g / cm^3
# Si number density = 20.575227 Si / 1000 Ang^3
#
#
#
# Elastic Constant Matrix: (Units=GPa)
#
#
# Indices 1 2 3 4 5 6 
#
# 1 186.6505 8.4700 99.5398 0.0000 1.3784 0.0000
# 2 8.4700 17.9454 8.5738 0.0000 -5.9458 0.0000
# 3 99.5398 8.5738 183.8660 0.0000 -13.7113 0.0000
# 4 0.0000 0.0000 0.0000 20.4195 0.0000 10.7579
# 5 1.3784 -5.9458 -13.7113 0.0000 36.9219 0.0000
# 6 0.0000 0.0000 0.0000 10.7579 0.0000 28.4100
#
#
#
# Elastic Compliance Matrix: (Units=1/GPa)
#
#
# Indices 1 2 3 4 5 6 
#
# 1 0.007750 -0.002372 -0.004253 0.000000 -0.002251 0.000000
# 2 -0.002372 0.060387 -0.000823 0.000000 0.009507 0.000000
# 3 -0.004253 -0.000823 0.008003 0.000000 0.002998 0.000000
# 4 0.000000 0.000000 0.000000 0.061178 0.000000 -0.023166
# 5 -0.002251 0.009507 0.002998 0.000000 0.029813 0.000000
# 6 0.000000 0.000000 0.000000 -0.023166 0.000000 0.043971
#
#
# Mechanical properties :
#
#
# Convention : Reuss Voigt Hill
#
# Bulk Modulus (GPa) = 16.32778 69.06991 42.69884
# Shear Modulus (GPa) = 20.29127 35.27550 27.78339
#
# Velocity S-wave (km/s) = 3.14379 4.14510 3.67867
# Velocity P-wave (km/s) = 4.59682 7.52007 6.23226
#
# Compressibility (1/GPa) = 0.06124531
#
# Stress axis : x y z
#
# Youngs Moduli (GPa) = 129.03500 16.55980 124.95256
#
# Poissons Ratio (x) = 0.03927 0.53140
# Poissons Ratio (y) = 0.30603 0.10283
# Poissons Ratio (z) = 0.54876 0.01363
#
# Static dielectric constant tensor:
#      x y z
#    x 4.062720 0.000000 -0.117710 
#    y 0.000000 3.292910 0.000000 
#    z -0.117710 0.000000 4.337950 
# 
# 
# High freq. dielectric constant tensor:
#      x y z
#    x 1.819130 0.000000 -0.007010 
#    y 0.000000 1.775780 0.000000 
#    z -0.007010 0.000000 1.820090 
# 
# From -- ./inp_files/37872.got.cif
#   From: 2010.06.25/outbox.cif.g09.slc.cpg/sg11_19_cif.got.tgz:37872.got - 2010.06.27 23:14:04.
