data_PCOD8076253
_publ_section_title
;
Structure prediction by ZEFSAII (Michael W. Deem and Ramdas Pophale) SiO2 
 PCOD8076253
Probable space group: P 21/M
;
_chemical_formula_sum "Si O2"
_cell_formula_units_Z 32
_cell_length_a 8.102663
_cell_length_b 30.383088
_cell_length_c 11.971949
_cell_angle_alpha 90.000000
_cell_angle_beta 31.739773
_cell_angle_gamma 90.000000
_cell_volume 1550.463642
_symmetry_space_group_name_H-M "P 21/M"
_symmetry_group_IT_number 11
_symmetry_cell_setting 'monoclinic'
loop_
_space_group_symop_operation_xyz
x,y,z
-x,1/2+y,-z
-x,-y,-z
x,1/2-y,z
loop_
_atom_site_type_symbol
_atom_site_label
_atom_site_fract_x
_atom_site_fract_y
_atom_site_fract_z
Si Si1 0.681310 0.572325 0.582482
Si Si2 0.415277 0.914495 0.169225
Si Si3 0.362205 0.342303 0.107183
Si Si4 0.627888 0.587020 0.363699
Si Si5 0.700278 0.153380 0.573228
Si Si6 0.217436 0.859725 0.948782
Si Si7 0.647952 0.514122 0.178875
Si Si8 0.197596 0.299688 0.967778
O O1 0.574677 0.569116 0.516886
O O2 0.571724 0.528237 0.707720
O O3 0.053330 0.573996 0.367049
O O4 0.527122 0.615243 0.726605
O O5 0.568834 0.892772 0.970594
O O6 0.443475 0.878229 0.249180
O O7 0.618023 0.958080 0.080845
O O8 0.661468 0.329753 0.014691
O O9 0.295266 0.311223 0.039641
O O10 0.068365 0.339016 0.360600
O O11 0.396606 0.629356 0.486203
O O12 0.522812 0.546109 0.347965
O O13 0.977255 0.603357 0.131613
O O14 0.507382 0.198189 0.709398
O O15 0.072198 0.830355 0.932347
O O16 0.000000 0.500000 0.000000
O O17 0.070710 0.250000 0.041620
#
# Coordination Sequence:
#
# PCOD8076253 Si02
#       8
#     4   4   4   4   4   4   4   4
#     4  12  21  38  59  85 124 165 212 254 308 361
#     4  10  22  38  57  86 122 161 211 261 300 358
#     4  11  21  41  69  92 118 165 209 247 307 371
#     4  10  21  38  57  87 118 168 211 258 309 359
#     4   9  20  38  64  85 117 159 202 245 307 364
#     4  11  22  40  67  92 122 163 207 252 304 375
#     4  11  23  37  55  85 127 168 212 269 312 350
#     4  10  24  43  63  96 129 150 190 251 310 380
#
# _framework density 20.638988000000001
#
# number of rings (size 3 to 8) (size 9 to 14) (size 15 to 20)
#    0.000    1.500    3.750    2.250    1.750    1.000 
#    0.000    1.250    0.000    0.000    0.000    0.000 
#    0.000    0.000    0.000    0.000    0.000    0.000 
#
# Total GULP energy -396541.374298 kJ/mol
# GULP energy per Si atom -12391.917947 kJ/mol
# Density = 2.059201 g / cm^3
# Si number density = 20.638988 Si / 1000 Ang^3
#
#
#
# Elastic Constant Matrix: (Units=GPa)
#
#
# Indices 1 2 3 4 5 6 
#
# 1 106.9687 30.5822 8.9823 0.0000 -2.3856 0.0000
# 2 30.5822 91.3107 16.0745 0.0000 0.8238 0.0000
# 3 8.9823 16.0745 63.5966 0.0000 -11.8652 0.0000
# 4 0.0000 0.0000 0.0000 18.8846 0.0000 2.3995
# 5 -2.3856 0.8238 -11.8652 0.0000 28.3388 0.0000
# 6 0.0000 0.0000 0.0000 2.3995 0.0000 19.3470
#
#
#
# Elastic Compliance Matrix: (Units=1/GPa)
#
#
# Indices 1 2 3 4 5 6 
#
# 1 0.010377 -0.003402 -0.000460 0.000000 0.000780 0.000000
# 2 -0.003402 0.012651 -0.003080 0.000000 -0.001944 0.000000
# 3 -0.000460 -0.003080 0.017982 0.000000 0.007580 0.000000
# 4 0.000000 0.000000 0.000000 0.053801 0.000000 -0.006673
# 5 0.000780 -0.001944 0.007580 0.000000 0.038583 0.000000
# 6 0.000000 0.000000 0.000000 -0.006673 0.000000 0.052515
#
#
# Mechanical properties :
#
#
# Convention : Reuss Voigt Hill
#
# Bulk Modulus (GPa) = 36.86499 41.46157 39.16328
# Shear Modulus (GPa) = 23.94251 27.06322 25.50287
#
# Velocity S-wave (km/s) = 3.40966 3.62507 3.51902
# Velocity P-wave (km/s) = 5.77942 6.13629 5.96053
#
# Compressibility (1/GPa) = 0.02712601
#
# Stress axis : x y z
#
# Youngs Moduli (GPa) = 96.36632 79.04789 55.61223
#
# Poissons Ratio (x) = 0.26888 0.02561
# Poissons Ratio (y) = 0.32779 0.17127
# Poissons Ratio (z) = 0.04437 0.24344
#
# Static dielectric constant tensor:
#      x y z
#    x 3.983950 0.000000 0.026740 
#    y 0.000000 3.672180 0.000000 
#    z 0.026740 0.000000 3.596880 
# 
# 
# High freq. dielectric constant tensor:
#      x y z
#    x 1.820840 0.000000 -0.004410 
#    y 0.000000 1.782920 0.000000 
#    z -0.004410 0.000000 1.799650 
# 
# From -- ./inp_files/33208.got.cif
#   From: 2010.06.25/outbox.cif.g09.slc.cpg/sg11_17_cif.got.tgz:33208.got - 2010.06.27 23:14:04.
