data_PCOD8076513
_publ_section_title
;
Structure prediction by ZEFSAII (Michael W. Deem and Ramdas Pophale) SiO2 
 PCOD8076513
Probable space group: P 21/M
;
_chemical_formula_sum "Si O2"
_cell_formula_units_Z 20
_cell_length_a 9.535549
_cell_length_b 16.855598
_cell_length_c 5.448919
_cell_angle_alpha 90.000000
_cell_angle_beta 105.326127
_cell_angle_gamma 90.000000
_cell_volume 844.644734
_symmetry_space_group_name_H-M "P 21/M"
_symmetry_group_IT_number 11
_symmetry_cell_setting 'monoclinic'
loop_
_space_group_symop_operation_xyz
x,y,z
-x,1/2+y,-z
-x,-y,-z
x,1/2-y,z
loop_
_atom_site_type_symbol
_atom_site_label
_atom_site_fract_x
_atom_site_fract_y
_atom_site_fract_z
Si Si1 0.581129 0.554569 0.724910
Si Si2 0.051168 0.598232 0.785018
Si Si3 0.633264 0.398806 0.992709
Si Si4 0.646411 0.841140 0.352461
Si Si5 0.902519 0.588399 0.219151
O O1 0.500000 0.500000 0.500000
O O2 0.666406 0.491617 0.936965
O O3 0.691006 0.612860 0.625852
O O4 0.457336 0.605697 0.799317
O O5 0.071889 0.504653 0.763366
O O6 0.977845 0.628638 0.496739
O O7 0.209259 0.640457 0.892795
O O8 0.962160 0.622097 0.988821
O O9 0.529232 0.351444 0.753962
O O10 0.690911 0.750000 0.391016
O O11 0.731964 0.883784 0.163757
#
# Coordination Sequence:
#
# PCOD8076513 Si02
#       5
#     4   4   4   4   4
#     4   9  19  35  63  93 124 158 216 272 326 370
#     4  10  22  39  68  98 129 161 222 279 333 380
#     4  10  21  38  66  95 123 168 223 281 317 390
#     4  11  25  42  62  92 133 180 220 265 335 406
#     4  10  23  39  63 100 132 170 210 274 336 397
#
# _framework density 23.678594
#
# number of rings (size 3 to 8) (size 9 to 14) (size 15 to 20)
#    0.000    2.000    0.000    3.600   16.800    0.800 
#    0.000    2.000    0.000    0.000    0.000    0.000 
#    0.000    0.000    0.000    0.000    0.000    0.000 
#
# Total GULP energy -247790.276340 kJ/mol
# GULP energy per Si atom -12389.513817 kJ/mol
# Density = 2.362470 g / cm^3
# Si number density = 23.678594 Si / 1000 Ang^3
#
#
#
# Elastic Constant Matrix: (Units=GPa)
#
#
# Indices 1 2 3 4 5 6 
#
# 1 129.9628 13.0460 63.8833 0.0000 -2.8254 0.0000
# 2 13.0460 80.2379 12.7423 0.0000 -22.7838 0.0000
# 3 63.8833 12.7423 135.8644 0.0000 -18.4648 0.0000
# 4 0.0000 0.0000 0.0000 13.0062 0.0000 -2.6103
# 5 -2.8254 -22.7838 -18.4648 0.0000 50.0915 0.0000
# 6 0.0000 0.0000 0.0000 -2.6103 0.0000 16.6679
#
#
#
# Elastic Compliance Matrix: (Units=1/GPa)
#
#
# Indices 1 2 3 4 5 6 
#
# 1 0.010218 -0.001413 -0.004928 0.000000 -0.001883 0.000000
# 2 -0.001413 0.014537 0.000199 0.000000 0.006606 0.000000
# 3 -0.004928 0.000199 0.010141 0.000000 0.003551 0.000000
# 4 0.000000 0.000000 0.000000 0.079381 0.000000 0.012432
# 5 -0.001883 0.006606 0.003551 0.000000 0.024171 0.000000
# 6 0.000000 0.000000 0.000000 0.012432 0.000000 0.061942
#
#
# Mechanical properties :
#
#
# Convention : Reuss Voigt Hill
#
# Bulk Modulus (GPa) = 44.22552 58.37873 51.30212
# Shear Modulus (GPa) = 22.70545 33.04603 27.87574
#
# Velocity S-wave (km/s) = 3.09997 3.73984 3.43484
# Velocity P-wave (km/s) = 5.61526 6.58458 6.11914
#
# Compressibility (1/GPa) = 0.02261138
#
# Stress axis : x y z
#
# Youngs Moduli (GPa) = 97.86972 68.79071 98.60773
#
# Poissons Ratio (x) = 0.09723 0.48591
# Poissons Ratio (y) = 0.13833 -0.01962
# Poissons Ratio (z) = 0.48227 -0.01369
#
# Static dielectric constant tensor:
#      x y z
#    x 4.320680 0.000000 -0.270040 
#    y 0.000000 3.810280 0.000000 
#    z -0.270040 0.000000 4.237810 
# 
# 
# High freq. dielectric constant tensor:
#      x y z
#    x 1.942030 0.000000 0.003920 
#    y 0.000000 1.870120 0.000000 
#    z 0.003920 0.000000 1.962860 
# 
# From -- ./inp_files/1979.got.cif
#   From: 2010.06.25/outbox.cif.g09.slc.cpg/sg11_1_cif.got.tgz:1979.got - 2010.06.27 23:14:04.
