data_PCOD8076655
_publ_section_title
;
Structure prediction by ZEFSAII (Michael W. Deem and Ramdas Pophale) SiO2 
 PCOD8076655
Probable space group: P 21/M
;
_chemical_formula_sum "Si O2"
_cell_formula_units_Z 28
_cell_length_a 14.718154
_cell_length_b 8.566865
_cell_length_c 21.566506
_cell_angle_alpha 90.000000
_cell_angle_beta 149.285254
_cell_angle_gamma 90.000000
_cell_volume 1388.914476
_symmetry_space_group_name_H-M "P 21/M"
_symmetry_group_IT_number 11
_symmetry_cell_setting 'monoclinic'
loop_
_space_group_symop_operation_xyz
x,y,z
-x,1/2+y,-z
-x,-y,-z
x,1/2-y,z
loop_
_atom_site_type_symbol
_atom_site_label
_atom_site_fract_x
_atom_site_fract_y
_atom_site_fract_z
Si Si1 0.555089 0.568455 0.623991
Si Si2 0.922253 0.432362 0.517046
Si Si3 0.559196 0.931143 0.881076
Si Si4 0.836799 0.071387 0.129638
Si Si5 0.772480 0.069420 0.230099
Si Si6 0.537721 0.932105 0.304512
Si Si7 0.216742 0.569447 0.345736
O O1 0.597217 0.750000 0.639783
O O2 0.566721 0.522749 0.702716
O O3 0.359819 0.527178 0.482785
O O4 0.703888 0.470922 0.674949
O O5 0.881789 0.250000 0.486210
O O6 0.742139 0.520162 0.426623
O O7 0.000000 0.500000 0.500000
O O8 0.061555 0.462051 0.653537
O O9 0.543900 0.750000 0.855825
O O10 0.400017 0.985258 0.832929
O O11 0.551246 0.027139 0.813107
O O12 0.745533 0.964536 0.024075
O O13 0.815485 0.250000 0.096719
O O14 0.738669 0.041675 0.137602
O O15 0.043695 0.032440 0.257452
O O16 0.817742 0.250000 0.270658
O O17 0.519999 0.750000 0.306592
O O18 0.163805 0.750000 0.316667
#
# Coordination Sequence:
#
# PCOD8076655 Si02
#       7
#     4   4   4   4   4   4   4
#     4  10  21  39  65  94 122 154 192 242 299 355
#     4  12  23  36  57  85 119 156 196 243 294 348
#     4  11  23  40  60  83 118 161 204 248 294 351
#     4  11  23  39  60  87 119 157 202 248 296 350
#     4  10  22  39  60  86 118 158 202 248 297 352
#     4  12  24  39  60  88 122 160 199 243 297 356
#     4  10  21  39  63  92 122 154 195 243 296 353
#
# _framework density 20.159628999999999
#
# number of rings (size 3 to 8) (size 9 to 14) (size 15 to 20)
#    0.000    1.143    1.429    5.571    0.000    5.714 
#    0.000    0.714    0.000    0.000    0.000    0.000 
#    0.000    0.000    0.000    0.000    0.000    0.000 
#
# Total GULP energy -347399.762399 kJ/mol
# GULP energy per Si atom -12407.134371 kJ/mol
# Density = 2.011374 g / cm^3
# Si number density = 20.159629 Si / 1000 Ang^3
#
#
#
# Elastic Constant Matrix: (Units=GPa)
#
#
# Indices 1 2 3 4 5 6 
#
# 1 102.0983 12.9802 25.3727 0.0000 -17.7253 0.0000
# 2 12.9802 53.8136 20.5112 0.0000 -8.4353 0.0000
# 3 25.3727 20.5112 75.8501 0.0000 -9.7077 0.0000
# 4 0.0000 0.0000 0.0000 33.2928 0.0000 -0.4788
# 5 -17.7253 -8.4353 -9.7077 0.0000 21.8520 0.0000
# 6 0.0000 0.0000 0.0000 -0.4788 0.0000 32.8140
#
#
#
# Elastic Compliance Matrix: (Units=1/GPa)
#
#
# Indices 1 2 3 4 5 6 
#
# 1 0.011997 -0.000524 -0.002812 0.000000 0.008280 0.000000
# 2 -0.000524 0.021469 -0.004903 0.000000 0.005684 0.000000
# 3 -0.002812 -0.004903 0.015815 0.000000 0.002853 0.000000
# 4 0.000000 0.000000 0.000000 0.030043 0.000000 0.000438
# 5 0.008280 0.005684 0.002853 0.000000 0.055940 0.000000
# 6 0.000000 0.000000 0.000000 0.000438 0.000000 0.030481
#
#
# Mechanical properties :
#
#
# Convention : Reuss Voigt Hill
#
# Bulk Modulus (GPa) = 30.48394 38.83226 34.65810
# Shear Modulus (GPa) = 25.88557 29.11830 27.50194
#
# Velocity S-wave (km/s) = 3.58722 3.80463 3.69753
# Velocity P-wave (km/s) = 5.68434 6.21325 5.95467
#
# Compressibility (1/GPa) = 0.03280416
#
# Stress axis : x y z
#
# Youngs Moduli (GPa) = 83.35132 46.57930 63.22984
#
# Poissons Ratio (x) = 0.02442 0.17779
# Poissons Ratio (y) = 0.04369 0.31000
# Poissons Ratio (z) = 0.23436 0.22836
#
# Static dielectric constant tensor:
#      x y z
#    x 3.787360 0.000000 -0.030890 
#    y 0.000000 3.107840 0.000000 
#    z -0.030890 0.000000 3.522620 
# 
# 
# High freq. dielectric constant tensor:
#      x y z
#    x 1.791680 0.000000 -0.008230 
#    y 0.000000 1.796290 0.000000 
#    z -0.008230 0.000000 1.777260 
# 
# From -- ./inp_files/65427.got.cif
#   From: 2010.06.25/outbox.cif.g09.slc.cpg/sg11_33_cif.got.tgz:65427.got - 2010.06.27 23:14:04.
