data_PCOD8076470
_publ_section_title
;
Structure prediction by ZEFSAII (Michael W. Deem and Ramdas Pophale) SiO2 
 PCOD8076470
Probable space group: P 21/M
;
_chemical_formula_sum "Si O2"
_cell_formula_units_Z 32
_cell_length_a 14.454401
_cell_length_b 14.343090
_cell_length_c 9.123932
_cell_angle_alpha 90.000000
_cell_angle_beta 54.951119
_cell_angle_gamma 90.000000
_cell_volume 1548.565969
_symmetry_space_group_name_H-M "P 21/M"
_symmetry_group_IT_number 11
_symmetry_cell_setting 'monoclinic'
loop_
_space_group_symop_operation_xyz
x,y,z
-x,1/2+y,-z
-x,-y,-z
x,1/2-y,z
loop_
_atom_site_type_symbol
_atom_site_label
_atom_site_fract_x
_atom_site_fract_y
_atom_site_fract_z
Si Si1 0.108043 0.851483 0.769854
Si Si2 0.353849 0.141762 0.306111
Si Si3 0.381262 0.492425 0.536056
Si Si4 0.314126 0.644637 0.384691
Si Si5 0.101451 0.137545 0.452587
Si Si6 0.401944 0.640339 0.998474
Si Si7 0.966605 0.510473 0.749681
Si Si8 0.240243 0.568164 0.903435
O O1 0.048410 0.750000 0.822356
O O2 0.183580 0.861108 0.552701
O O3 0.178906 0.854914 0.856933
O O4 0.020285 0.936944 0.841828
O O5 0.362523 0.250000 0.327253
O O6 0.355571 0.098495 0.465669
O O7 0.236606 0.117759 0.329914
O O8 0.465806 0.107694 0.114855
O O9 0.500000 0.500000 0.500000
O O10 0.384579 0.583882 0.432675
O O11 0.286156 0.491034 0.748617
O O12 0.360156 0.750000 0.352170
O O13 0.333523 0.602669 0.203309
O O14 0.076441 0.250000 0.485093
O O15 0.045975 0.091898 0.359774
O O16 0.042928 0.079745 0.638367
O O17 0.393997 0.750000 0.008962
O O18 0.345463 0.608608 0.898312
O O19 0.843561 0.475410 0.902900
#
# Coordination Sequence:
#
# PCOD8076470 Si02
#       8
#     4   4   4   4   4   4   4   4
#     4  10  21  40  62  89 129 167 202 254 317 373
#     4  10  22  41  63  88 126 167 209 255 308 376
#     4  11  22  39  60  89 123 165 200 243 311 370
#     4   9  21  37  60  89 122 156 200 256 306 364
#     4  10  23  42  64  91 125 166 208 259 321 373
#     4  10  21  38  62  94 123 157 207 259 308 364
#     4  11  24  40  64  91 125 164 212 263 306 378
#     4  11  23  38  61  95 124 162 207 258 309 369
#
# _framework density 20.664280999999999
#
# number of rings (size 3 to 8) (size 9 to 14) (size 15 to 20)
#    0.000    1.750    1.250    2.625    5.250    3.500 
#    0.000    2.500    0.000    0.000    0.000    0.000 
#    0.000    0.000    0.000    0.000    0.000    0.000 
#
# Total GULP energy -396563.672698 kJ/mol
# GULP energy per Si atom -12392.614772 kJ/mol
# Density = 2.061725 g / cm^3
# Si number density = 20.664281 Si / 1000 Ang^3
#
#
#
# Elastic Constant Matrix: (Units=GPa)
#
#
# Indices 1 2 3 4 5 6 
#
# 1 106.8466 39.0606 24.0423 0.0000 -3.0036 0.0000
# 2 39.0606 83.6374 29.2998 0.0000 -7.8073 0.0000
# 3 24.0423 29.2998 90.5971 0.0000 -1.7010 0.0000
# 4 0.0000 0.0000 0.0000 22.0903 0.0000 -2.2764
# 5 -3.0036 -7.8073 -1.7010 0.0000 27.1489 0.0000
# 6 0.0000 0.0000 0.0000 -2.2764 0.0000 29.7398
#
#
#
# Elastic Compliance Matrix: (Units=1/GPa)
#
#
# Indices 1 2 3 4 5 6 
#
# 1 0.011460 -0.004856 -0.001475 0.000000 -0.000221 0.000000
# 2 -0.004856 0.015904 -0.003784 0.000000 0.003799 0.000000
# 3 -0.001475 -0.003784 0.012644 0.000000 -0.000459 0.000000
# 4 0.000000 0.000000 0.000000 0.045629 0.000000 0.003493
# 5 -0.000221 0.003799 -0.000459 0.000000 0.037873 0.000000
# 6 0.000000 0.000000 0.000000 0.003493 0.000000 0.033892
#
#
# Mechanical properties :
#
#
# Convention : Reuss Voigt Hill
#
# Bulk Modulus (GPa) = 50.55688 51.76517 51.16103
# Shear Modulus (GPa) = 27.14064 28.37435 27.75749
#
# Velocity S-wave (km/s) = 3.62803 3.70957 3.66903
# Velocity P-wave (km/s) = 6.48607 6.59188 6.53919
#
# Compressibility (1/GPa) = 0.01977970
#
# Stress axis : x y z
#
# Youngs Moduli (GPa) = 87.25882 62.87555 79.08693
#
# Poissons Ratio (x) = 0.30533 0.11665
# Poissons Ratio (y) = 0.42374 0.29923
# Poissons Ratio (z) = 0.12870 0.23790
#
# Static dielectric constant tensor:
#      x y z
#    x 3.791510 0.000000 -0.104130 
#    y 0.000000 3.778340 0.000000 
#    z -0.104130 0.000000 4.006780 
# 
# 
# High freq. dielectric constant tensor:
#      x y z
#    x 1.811050 0.000000 -0.000230 
#    y 0.000000 1.809420 0.000000 
#    z -0.000230 0.000000 1.807020 
# 
# From -- ./inp_files/22166.got.cif
#   From: 2010.06.25/outbox.cif.g09.slc.cpg/sg11_12_cif.got.tgz:22166.got - 2010.06.27 23:14:04.
