data_PCOD8076162
_publ_section_title
;
Structure prediction by ZEFSAII (Michael W. Deem and Ramdas Pophale) SiO2 
 PCOD8076162
Probable space group: P 21/M
;
_chemical_formula_sum "Si O2"
_cell_formula_units_Z 28
_cell_length_a 9.652298
_cell_length_b 8.741327
_cell_length_c 27.055858
_cell_angle_alpha 90.000000
_cell_angle_beta 37.991405
_cell_angle_gamma 90.000000
_cell_volume 1405.167118
_symmetry_space_group_name_H-M "P 21/M"
_symmetry_group_IT_number 11
_symmetry_cell_setting 'monoclinic'
loop_
_space_group_symop_operation_xyz
x,y,z
-x,1/2+y,-z
-x,-y,-z
x,1/2-y,z
loop_
_atom_site_type_symbol
_atom_site_label
_atom_site_fract_x
_atom_site_fract_y
_atom_site_fract_z
Si Si1 0.312248 0.069025 0.018316
Si Si2 0.894763 0.926634 0.187492
Si Si3 0.208349 0.929097 0.681699
Si Si4 0.755301 0.070126 0.063726
Si Si5 0.491018 0.074823 0.777714
Si Si6 0.042586 0.074417 0.349521
Si Si7 0.407583 0.927007 0.476853
O O1 0.327242 0.250000 0.013901
O O2 0.065502 0.018649 0.104928
O O3 0.500000 0.000000 0.000000
O O4 0.365891 0.004996 0.949041
O O5 0.967442 0.750000 0.167528
O O6 0.646170 0.949455 0.234547
O O7 0.906577 0.989555 0.239600
O O8 0.213802 0.750000 0.689990
O O9 0.064949 0.971402 0.673221
O O10 0.467298 0.988355 0.603674
O O11 0.777401 0.250000 0.049745
O O12 0.604757 0.036010 0.153509
O O13 0.000000 0.000000 0.000000
O O14 0.470715 0.250000 0.801148
O O15 0.749986 0.033656 0.695308
O O16 0.122406 0.250000 0.324783
O O17 0.862703 0.051850 0.444888
O O18 0.473807 0.750000 0.456275
O O19 0.500000 0.000000 0.500000
#
# Coordination Sequence:
#
# PCOD8076162 Si02
#       7
#     4   4   4   4   4   4   4
#     4  12  26  44  66  91 122 159 200 250 304 358
#     4  11  24  42  61  86 122 159 200 248 300 358
#     4  10  21  37  60  89 120 156 199 246 301 359
#     4  12  24  42  66  90 120 159 204 248 298 359
#     4  11  24  40  61  88 120 158 203 247 298 357
#     4   9  20  37  59  88 120 153 196 246 296 355
#     4   9  17  33  57  86 119 154 195 243 297 354
#
# _framework density 19.926456000000002
#
# number of rings (size 3 to 8) (size 9 to 14) (size 15 to 20)
#    0.000    1.429    1.429    5.143    2.000    5.143 
#    0.000    0.714    0.000    0.000    0.000    0.000 
#    0.000    0.000    0.000    0.000    0.000    0.000 
#
# Total GULP energy -347250.113151 kJ/mol
# GULP energy per Si atom -12401.789755 kJ/mol
# Density = 1.988110 g / cm^3
# Si number density = 19.926456 Si / 1000 Ang^3
#
#
#
# Elastic Constant Matrix: (Units=GPa)
#
#
# Indices 1 2 3 4 5 6 
#
# 1 76.1413 38.3356 8.1643 0.0000 -12.6487 0.0000
# 2 38.3356 137.1648 23.7964 0.0000 -9.3260 0.0000
# 3 8.1643 23.7964 62.2022 0.0000 -12.0869 0.0000
# 4 0.0000 0.0000 0.0000 40.8034 0.0000 -1.3991
# 5 -12.6487 -9.3260 -12.0869 0.0000 31.3944 0.0000
# 6 0.0000 0.0000 0.0000 -1.3991 0.0000 31.4221
#
#
#
# Elastic Compliance Matrix: (Units=1/GPa)
#
#
# Indices 1 2 3 4 5 6 
#
# 1 0.016108 -0.004229 0.000563 0.000000 0.005450 0.000000
# 2 -0.004229 0.008966 -0.002906 0.000000 -0.000159 0.000000
# 3 0.000563 -0.002906 0.018365 0.000000 0.006434 0.000000
# 4 0.000000 0.000000 0.000000 0.024545 0.000000 0.001093
# 5 0.005450 -0.000159 0.006434 0.000000 0.036478 0.000000
# 6 0.000000 0.000000 0.000000 0.001093 0.000000 0.031873
#
#
# Mechanical properties :
#
#
# Convention : Reuss Voigt Hill
#
# Bulk Modulus (GPa) = 33.00996 46.23343 39.62170
# Shear Modulus (GPa) = 31.33276 34.40477 32.86877
#
# Velocity S-wave (km/s) = 3.96968 4.15973 4.06581
# Velocity P-wave (km/s) = 6.13294 6.80614 6.47829
#
# Compressibility (1/GPa) = 0.03029389
#
# Stress axis : x y z
#
# Youngs Moduli (GPa) = 62.08208 111.53582 54.45250
#
# Poissons Ratio (x) = 0.47168 -0.03064
# Poissons Ratio (y) = 0.26254 0.15823
# Poissons Ratio (z) = -0.03493 0.32411
#
# Static dielectric constant tensor:
#      x y z
#    x 3.541690 0.000000 0.008810 
#    y 0.000000 3.884150 0.000000 
#    z 0.008810 0.000000 4.065400 
# 
# 
# High freq. dielectric constant tensor:
#      x y z
#    x 1.761010 0.000000 -0.003340 
#    y 0.000000 1.793000 0.000000 
#    z -0.003340 0.000000 1.784720 
# 
# From -- ./inp_files/70844.got.cif
#   From: 2010.06.25/outbox.cif.g09.slc.cpg/sg11_36_cif.got.tgz:70844.got - 2010.06.27 23:14:04.
