data_PCOD8076983
_publ_section_title
;
Structure prediction by ZEFSAII (Michael W. Deem and Ramdas Pophale) SiO2 
 PCOD8076983
Probable space group: P 21/M
;
_chemical_formula_sum "Si O2"
_cell_formula_units_Z 28
_cell_length_a 11.744106
_cell_length_b 8.931066
_cell_length_c 15.705744
_cell_angle_alpha 90.000000
_cell_angle_beta 56.957112
_cell_angle_gamma 90.000000
_cell_volume 1380.898926
_symmetry_space_group_name_H-M "P 21/M"
_symmetry_group_IT_number 11
_symmetry_cell_setting 'monoclinic'
loop_
_space_group_symop_operation_xyz
x,y,z
-x,1/2+y,-z
-x,-y,-z
x,1/2-y,z
loop_
_atom_site_type_symbol
_atom_site_label
_atom_site_fract_x
_atom_site_fract_y
_atom_site_fract_z
Si Si1 0.141736 0.921801 0.632098
Si Si2 0.584589 0.078996 0.392503
Si Si3 0.118554 0.922360 0.187959
Si Si4 0.870241 0.074462 0.011143
Si Si5 0.856335 0.572966 0.540115
Si Si6 0.327658 0.923581 0.246134
Si Si7 0.583847 0.427957 0.201144
O O1 0.126311 0.750000 0.609336
O O2 0.253973 0.940190 0.659661
O O3 0.193824 0.019873 0.531685
O O4 0.997397 0.976194 0.724315
O O5 0.540614 0.250000 0.415562
O O6 0.553344 0.018606 0.310480
O O7 0.500000 0.000000 0.500000
O O8 0.071199 0.750000 0.212904
O O9 0.258403 0.946586 0.182458
O O10 0.143986 0.973638 0.081307
O O11 0.889417 0.250000 0.012533
O O12 0.735116 0.020706 0.114602
O O13 0.000000 0.000000 0.000000
O O14 0.870574 0.750000 0.536002
O O15 0.748951 0.521679 0.652977
O O16 0.000000 0.500000 0.500000
O O17 0.325823 0.750000 0.273741
O O18 0.480820 0.986348 0.180130
O O19 0.567109 0.250000 0.197212
#
# Coordination Sequence:
#
# PCOD8076983 Si02
#       7
#     4   4   4   4   4   4   4
#     4  11  22  37  60  89 120 157 204 252 301 360
#     4  10  22  38  57  84 116 153 196 245 298 357
#     4  10  22  39  60  87 120 156 198 250 306 360
#     4  10  22  42  66  91 119 156 202 255 311 367
#     4  12  23  37  58  87 123 163 203 246 299 356
#     4  11  23  39  59  88 124 160 204 251 300 364
#     4  10  22  41  62  86 121 161 201 251 309 364
#
# _framework density 20.276647000000001
#
# number of rings (size 3 to 8) (size 9 to 14) (size 15 to 20)
#    0.000    1.429    1.429    3.857    0.000    7.429 
#    0.000    0.000    0.000    0.000    0.000    0.000 
#    0.000    0.000    0.000    0.000    0.000    0.000 
#
# Total GULP energy -347303.392963 kJ/mol
# GULP energy per Si atom -12403.692606 kJ/mol
# Density = 2.023050 g / cm^3
# Si number density = 20.276647 Si / 1000 Ang^3
#
#
#
# Elastic Constant Matrix: (Units=GPa)
#
#
# Indices 1 2 3 4 5 6 
#
# 1 141.7539 55.6870 60.2333 0.0000 0.5344 0.0000
# 2 55.6870 100.9131 46.0573 0.0000 2.0381 0.0000
# 3 60.2333 46.0573 124.2884 0.0000 7.3478 0.0000
# 4 0.0000 0.0000 0.0000 25.7028 0.0000 -2.6273
# 5 0.5344 2.0381 7.3478 0.0000 35.4128 0.0000
# 6 0.0000 0.0000 0.0000 -2.6273 0.0000 36.8881
#
#
#
# Elastic Compliance Matrix: (Units=1/GPa)
#
#
# Indices 1 2 3 4 5 6 
#
# 1 0.010094 -0.004010 -0.003453 0.000000 0.000795 0.000000
# 2 -0.004010 0.013522 -0.003062 0.000000 -0.000082 0.000000
# 3 -0.003453 -0.003062 0.010975 0.000000 -0.002049 0.000000
# 4 0.000000 0.000000 0.000000 0.039192 0.000000 0.002791
# 5 0.000795 -0.000082 -0.002049 0.000000 0.028656 0.000000
# 6 0.000000 0.000000 0.000000 0.002791 0.000000 0.027308
#
#
# Mechanical properties :
#
#
# Convention : Reuss Voigt Hill
#
# Bulk Modulus (GPa) = 73.85521 76.76783 75.31152
# Shear Modulus (GPa) = 32.19347 33.26592 32.72970
#
# Velocity S-wave (km/s) = 3.98893 4.05483 4.02202
# Velocity P-wave (km/s) = 7.59726 7.73722 7.66756
#
# Compressibility (1/GPa) = 0.01354001
#
# Stress axis : x y z
#
# Youngs Moduli (GPa) = 99.06828 73.95384 91.11615
#
# Poissons Ratio (x) = 0.29659 0.31459
# Poissons Ratio (y) = 0.39731 0.27903
# Poissons Ratio (z) = 0.34205 0.22647
#
# Static dielectric constant tensor:
#      x y z
#    x 3.817480 0.000000 0.194200 
#    y 0.000000 3.710100 0.000000 
#    z 0.194200 0.000000 3.770690 
# 
# 
# High freq. dielectric constant tensor:
#      x y z
#    x 1.809290 0.000000 0.004010 
#    y 0.000000 1.789680 0.000000 
#    z 0.004010 0.000000 1.789660 
# 
# From -- ./inp_files/37316.got.cif
#   From: 2010.06.25/outbox.cif.g09.slc.cpg/sg11_19_cif.got.tgz:37316.got - 2010.06.27 23:14:04.
