data_PCOD8076669
_publ_section_title
;
Structure prediction by ZEFSAII (Michael W. Deem and Ramdas Pophale) SiO2 
 PCOD8076669
Probable space group: P 21/M
;
_chemical_formula_sum "Si O2"
_cell_formula_units_Z 24
_cell_length_a 14.085020
_cell_length_b 8.697873
_cell_length_c 9.724042
_cell_angle_alpha 90.000000
_cell_angle_beta 80.405508
_cell_angle_gamma 90.000000
_cell_volume 1174.625933
_symmetry_space_group_name_H-M "P 21/M"
_symmetry_group_IT_number 11
_symmetry_cell_setting 'monoclinic'
loop_
_space_group_symop_operation_xyz
x,y,z
-x,1/2+y,-z
-x,-y,-z
x,1/2-y,z
loop_
_atom_site_type_symbol
_atom_site_label
_atom_site_fract_x
_atom_site_fract_y
_atom_site_fract_z
Si Si1 0.129546 0.427916 0.087856
Si Si2 0.520889 0.931412 0.847766
Si Si3 0.275244 0.570544 0.251717
Si Si4 0.221909 0.429300 0.539565
Si Si5 0.576185 0.569162 0.377794
Si Si6 0.066839 0.071270 0.801354
O O1 0.151481 0.250000 0.109934
O O2 0.216163 0.526634 0.129884
O O3 0.029252 0.470874 0.185003
O O4 0.124980 0.466242 0.927077
O O5 0.514906 0.750000 0.855988
O O6 0.624894 0.979461 0.766039
O O7 0.438165 0.994485 0.767732
O O8 0.500000 0.000000 0.000000
O O9 0.297920 0.750000 0.244175
O O10 0.213798 0.525836 0.401352
O O11 0.221389 0.250000 0.502155
O O12 0.317561 0.474389 0.598909
O O13 0.131649 0.474145 0.655962
O O14 0.500000 0.500000 0.500000
O O15 0.560386 0.750000 0.371520
O O16 0.037714 0.250000 0.806860
#
# Coordination Sequence:
#
# PCOD8076669 Si02
#       6
#     4   4   4   4   4   4
#     4  10  21  39  64  91 123 161 199 253 312 366
#     4  12  26  44  64  91 126 164 208 257 308 367
#     4  12  25  41  62  91 124 162 206 255 307 367
#     4  10  22  40  63  90 122 163 206 252 307 364
#     4  11  22  39  64  92 125 166 206 252 306 365
#     4   9  20  40  64  91 120 157 203 251 306 370
#
# _framework density 20.432037000000001
#
# number of rings (size 3 to 8) (size 9 to 14) (size 15 to 20)
#    0.000    1.333    1.667    4.000    2.333    2.667 
#    0.000    0.000    0.000    0.000    0.000    0.000 
#    0.000    0.000    0.000    0.000    0.000    0.000 
#
# Total GULP energy -297764.581952 kJ/mol
# GULP energy per Si atom -12406.857581 kJ/mol
# Density = 2.038553 g / cm^3
# Si number density = 20.432037 Si / 1000 Ang^3
#
#
#
# Elastic Constant Matrix: (Units=GPa)
#
#
# Indices 1 2 3 4 5 6 
#
# 1 41.2518 13.3793 0.3771 0.0000 6.9749 0.0000
# 2 13.3793 93.9076 21.8018 0.0000 7.3617 0.0000
# 3 0.3771 21.8018 87.1764 0.0000 -1.1363 0.0000
# 4 0.0000 0.0000 0.0000 38.0236 0.0000 2.0085
# 5 6.9749 7.3617 -1.1363 0.0000 36.3139 0.0000
# 6 0.0000 0.0000 0.0000 2.0085 0.0000 36.4083
#
#
#
# Elastic Compliance Matrix: (Units=1/GPa)
#
#
# Indices 1 2 3 4 5 6 
#
# 1 0.026109 -0.003552 0.000720 0.000000 -0.004272 0.000000
# 2 -0.003552 0.011998 -0.003009 0.000000 -0.001844 0.000000
# 3 0.000720 -0.003009 0.012232 0.000000 0.000855 0.000000
# 4 0.000000 0.000000 0.000000 0.026376 0.000000 -0.001455
# 5 -0.004272 -0.001844 0.000855 0.000000 0.028759 0.000000
# 6 0.000000 0.000000 0.000000 -0.001455 0.000000 0.027547
#
#
# Mechanical properties :
#
#
# Convention : Reuss Voigt Hill
#
# Bulk Modulus (GPa) = 25.86941 32.60579 29.23760
# Shear Modulus (GPa) = 31.72813 34.60101 33.16457
#
# Velocity S-wave (km/s) = 3.94491 4.11964 4.03322
# Velocity P-wave (km/s) = 5.78260 6.21461 6.00249
#
# Compressibility (1/GPa) = 0.03865569
#
# Stress axis : x y z
#
# Youngs Moduli (GPa) = 38.30070 83.34698 81.75549
#
# Poissons Ratio (x) = 0.29605 -0.05884
# Poissons Ratio (y) = 0.13605 0.24602
# Poissons Ratio (z) = -0.02757 0.25081
#
# Static dielectric constant tensor:
#      x y z
#    x 3.326590 0.000000 0.133630 
#    y 0.000000 3.659080 0.000000 
#    z 0.133630 0.000000 3.816480 
# 
# 
# High freq. dielectric constant tensor:
#      x y z
#    x 1.799370 0.000000 0.004400 
#    y 0.000000 1.803080 0.000000 
#    z 0.004400 0.000000 1.809180 
# 
# From -- ./inp_files/20304.got.cif
#   From: 2010.06.25/outbox.cif.g09.slc.cpg/sg11_11_cif.got.tgz:20304.got - 2010.06.27 23:14:04.
