data_PCOD8076503
_publ_section_title
;
Structure prediction by ZEFSAII (Michael W. Deem and Ramdas Pophale) SiO2 
 PCOD8076503
Probable space group: P 21/M
;
_chemical_formula_sum "Si O2"
_cell_formula_units_Z 32
_cell_length_a 12.482360
_cell_length_b 17.495395
_cell_length_c 16.403833
_cell_angle_alpha 90.000000
_cell_angle_beta 25.754448
_cell_angle_gamma 90.000000
_cell_volume 1556.577498
_symmetry_space_group_name_H-M "P 21/M"
_symmetry_group_IT_number 11
_symmetry_cell_setting 'monoclinic'
loop_
_space_group_symop_operation_xyz
x,y,z
-x,1/2+y,-z
-x,-y,-z
x,1/2-y,z
loop_
_atom_site_type_symbol
_atom_site_label
_atom_site_fract_x
_atom_site_fract_y
_atom_site_fract_z
Si Si1 0.290275 0.662713 0.200750
Si Si2 0.949447 0.838898 0.180518
Si Si3 0.440532 0.338751 0.689974
Si Si4 0.453764 0.918752 0.811488
Si Si5 0.357882 0.408850 0.917786
Si Si6 0.137975 0.082353 0.591446
Si Si7 0.699159 0.837267 0.785428
Si Si8 0.959736 0.090515 0.322578
O O1 0.276626 0.750000 0.239642
O O2 0.392256 0.612498 0.205513
O O3 0.021092 0.634678 0.360176
O O4 0.461062 0.653378 0.005046
O O5 0.947434 0.750000 0.204010
O O6 0.774028 0.859401 0.225854
O O7 0.850120 0.884060 0.326489
O O8 0.225475 0.861091 0.965841
O O9 0.509404 0.250000 0.640596
O O10 0.341581 0.361092 0.846414
O O11 0.678277 0.386955 0.500291
O O12 0.583980 0.921374 0.633927
O O13 0.657610 0.890439 0.736054
O O14 0.354740 0.001678 0.902578
O O15 0.120101 0.385709 0.134114
O O16 0.014428 0.999242 0.678790
O O17 0.738313 0.750000 0.731111
O O18 0.943880 0.864987 0.663934
#
# Coordination Sequence:
#
# PCOD8076503 Si02
#       8
#     4   4   4   4   4   4   4   4
#     4  10  21  38  64  96 137 173 208 265 330 397
#     4  11  26  48  67  92 135 175 217 276 330 388
#     4  11  26  46  69  96 131 173 221 274 326 392
#     4  12  24  41  66 100 130 173 220 271 326 386
#     4  11  23  43  67  99 132 173 216 270 329 388
#     4  12  24  41  66 100 130 173 220 271 326 386
#     4  10  21  38  64  96 137 173 208 265 330 397
#     4  11  23  43  67  99 132 173 216 270 329 388
#
# _framework density 20.557922999999999
#
# number of rings (size 3 to 8) (size 9 to 14) (size 15 to 20)
#    0.000    1.000    3.750    2.250    1.750    8.500 
#    0.000    2.500    0.000    0.000    0.000    0.000 
#    0.000    0.000    0.000    0.000    0.000    0.000 
#
# Total GULP energy -397036.754191 kJ/mol
# GULP energy per Si atom -12407.398568 kJ/mol
# Density = 2.051113 g / cm^3
# Si number density = 20.557923 Si / 1000 Ang^3
#
#
#
# Elastic Constant Matrix: (Units=GPa)
#
#
# Indices 1 2 3 4 5 6 
#
# 1 105.1506 20.9291 45.3591 0.0000 3.2569 0.0000
# 2 20.9291 68.2114 13.7073 0.0000 0.3299 0.0000
# 3 45.3591 13.7073 108.8993 0.0000 10.8603 0.0000
# 4 0.0000 0.0000 0.0000 24.1691 0.0000 4.1902
# 5 3.2569 0.3299 10.8603 0.0000 22.4945 0.0000
# 6 0.0000 0.0000 0.0000 4.1902 0.0000 23.5932
#
#
#
# Elastic Compliance Matrix: (Units=1/GPa)
#
#
# Indices 1 2 3 4 5 6 
#
# 1 0.012088 -0.002758 -0.004746 0.000000 0.000582 0.000000
# 2 -0.002758 0.015681 -0.000884 0.000000 0.000596 0.000000
# 3 -0.004746 -0.000884 0.011768 0.000000 -0.004981 0.000000
# 4 0.000000 0.000000 0.000000 0.042690 0.000000 -0.007582
# 5 0.000582 0.000596 -0.004981 0.000000 0.046767 0.000000
# 6 0.000000 0.000000 0.000000 -0.007582 0.000000 0.043732
#
#
# Mechanical properties :
#
#
# Convention : Reuss Voigt Hill
#
# Bulk Modulus (GPa) = 43.93595 49.13914 46.53755
# Shear Modulus (GPa) = 25.36911 27.53573 26.45242
#
# Velocity S-wave (km/s) = 3.51669 3.66378 3.59099
# Velocity P-wave (km/s) = 6.15692 6.46934 6.31506
#
# Compressibility (1/GPa) = 0.02276040
#
# Stress axis : x y z
#
# Youngs Moduli (GPa) = 82.72387 63.76961 84.97843
#
# Poissons Ratio (x) = 0.17589 0.40330
# Poissons Ratio (y) = 0.22817 0.07516
# Poissons Ratio (z) = 0.39260 0.05640
#
# Static dielectric constant tensor:
#      x y z
#    x 3.676280 0.000000 0.082490 
#    y 0.000000 3.876040 0.000000 
#    z 0.082490 0.000000 3.730300 
# 
# 
# High freq. dielectric constant tensor:
#      x y z
#    x 1.798190 0.000000 0.005370 
#    y 0.000000 1.817820 0.000000 
#    z 0.005370 0.000000 1.811360 
# 
# From -- ./inp_files/50668.got.cif
#   From: 2010.06.25/outbox.cif.g09.slc.cpg/sg11_26_cif.got.tgz:50668.got - 2010.06.27 23:14:04.
