data_PCOD8076568
_publ_section_title
;
Structure prediction by ZEFSAII (Michael W. Deem and Ramdas Pophale) SiO2 
 PCOD8076568
Probable space group: P 21/M
;
_chemical_formula_sum "Si O2"
_cell_formula_units_Z 32
_cell_length_a 15.284419
_cell_length_b 8.711456
_cell_length_c 11.932152
_cell_angle_alpha 90.000000
_cell_angle_beta 90.973709
_cell_angle_gamma 90.000000
_cell_volume 1588.531173
_symmetry_space_group_name_H-M "P 21/M"
_symmetry_group_IT_number 11
_symmetry_cell_setting 'monoclinic'
loop_
_space_group_symop_operation_xyz
x,y,z
-x,1/2+y,-z
-x,-y,-z
x,1/2-y,z
loop_
_atom_site_type_symbol
_atom_site_label
_atom_site_fract_x
_atom_site_fract_y
_atom_site_fract_z
Si Si1 0.403223 0.426805 0.783525
Si Si2 0.165660 0.068820 0.996155
Si Si3 0.258721 0.430826 0.397464
Si Si4 0.892806 0.930564 0.762378
Si Si5 0.912935 0.430407 0.215269
Si Si6 0.250517 0.570674 0.639991
Si Si7 0.400016 0.926828 0.248562
Si Si8 0.648540 0.430995 0.999268
O O1 0.373529 0.250000 0.779994
O O2 0.332746 0.529378 0.718442
O O3 0.497023 0.448300 0.726624
O O4 0.412837 0.482763 0.912187
O O5 0.184703 0.250000 0.996574
O O6 0.096015 0.025828 0.899374
O O7 0.252625 0.975188 0.968512
O O8 0.129171 0.008754 0.113913
O O9 0.254130 0.250000 0.396378
O O10 0.175611 0.502430 0.328268
O O11 0.256928 0.484312 0.523941
O O12 0.349121 0.480043 0.341955
O O13 0.880664 0.750000 0.762073
O O14 0.992166 0.974669 0.731487
O O15 0.907303 0.250000 0.187132
O O16 0.839309 0.480563 0.302241
O O17 0.251448 0.750000 0.616315
O O18 0.372164 0.750000 0.256490
O O19 0.375017 0.990835 0.125157
O O20 0.633805 0.250000 0.010307
#
# Coordination Sequence:
#
# PCOD8076568 Si02
#       8
#     4   4   4   4   4   4   4   4
#     4  11  23  40  63  90 121 156 197 246 294 352
#     4  11  20  34  59  90 123 157 195 241 292 352
#     4  11  23  41  64  87 116 157 202 251 299 350
#     4   9  20  38  60  89 121 155 196 244 298 349
#     4  10  21  39  61  86 121 159 197 243 295 354
#     4  11  24  41  61  86 118 158 202 249 299 353
#     4  10  23  41  62  90 122 156 196 243 298 355
#     4  11  21  36  60  90 124 159 192 237 297 358
#
# _framework density 20.144396
#
# number of rings (size 3 to 8) (size 9 to 14) (size 15 to 20)
#    0.000    1.500    2.500    2.625    0.000    3.000 
#    0.000    1.875    0.000    0.000    0.000    0.000 
#    0.000    0.000    0.000    0.000    0.000    0.000 
#
# Total GULP energy -396921.924940 kJ/mol
# GULP energy per Si atom -12403.810154 kJ/mol
# Density = 2.009855 g / cm^3
# Si number density = 20.144396 Si / 1000 Ang^3
#
#
#
# Elastic Constant Matrix: (Units=GPa)
#
#
# Indices 1 2 3 4 5 6 
#
# 1 106.9344 26.1199 41.8385 0.0000 -10.6244 0.0000
# 2 26.1199 40.8058 19.5529 0.0000 -9.2000 0.0000
# 3 41.8385 19.5529 114.4670 0.0000 -18.5693 0.0000
# 4 0.0000 0.0000 0.0000 32.9567 0.0000 0.1616
# 5 -10.6244 -9.2000 -18.5693 0.0000 17.4801 0.0000
# 6 0.0000 0.0000 0.0000 0.1616 0.0000 26.5467
#
#
#
# Elastic Compliance Matrix: (Units=1/GPa)
#
#
# Indices 1 2 3 4 5 6 
#
# 1 0.012197 -0.006063 -0.003307 0.000000 0.000709 0.000000
# 2 -0.006063 0.031622 -0.001309 0.000000 0.011568 0.000000
# 3 -0.003307 -0.001309 0.011757 0.000000 0.009790 0.000000
# 4 0.000000 0.000000 0.000000 0.030344 0.000000 -0.000185
# 5 0.000709 0.011568 0.009790 0.000000 0.074127 0.000000
# 6 0.000000 0.000000 0.000000 -0.000185 0.000000 0.037671
#
#
# Mechanical properties :
#
#
# Convention : Reuss Voigt Hill
#
# Bulk Modulus (GPa) = 29.22466 48.58109 38.90288
# Shear Modulus (GPa) = 21.69368 27.04308 24.36838
#
# Velocity S-wave (km/s) = 3.28519 3.66794 3.48183
# Velocity P-wave (km/s) = 5.37857 6.48900 5.95971
#
# Compressibility (1/GPa) = 0.03421767
#
# Stress axis : x y z
#
# Youngs Moduli (GPa) = 81.98823 31.62322 85.05675
#
# Poissons Ratio (x) = 0.19172 0.28132
# Poissons Ratio (y) = 0.49706 0.11135
# Poissons Ratio (z) = 0.27117 0.04140
#
# Static dielectric constant tensor:
#      x y z
#    x 3.795210 0.000000 0.017540 
#    y 0.000000 3.494290 0.000000 
#    z 0.017540 0.000000 3.694890 
# 
# 
# High freq. dielectric constant tensor:
#      x y z
#    x 1.798030 0.000000 -0.001890 
#    y 0.000000 1.776360 0.000000 
#    z -0.001890 0.000000 1.784990 
# 
# From -- ./inp_files/38082.got.cif
#   From: 2010.06.25/outbox.cif.g09.slc.cpg/sg11_20_cif.got.tgz:38082.got - 2010.06.27 23:14:04.
