data_PCOD8076154
_publ_section_title
;
Structure prediction by ZEFSAII (Michael W. Deem and Ramdas Pophale) SiO2 
 PCOD8076154
Probable space group: P 21/M
;
_chemical_formula_sum "Si O2"
_cell_formula_units_Z 28
_cell_length_a 25.217621
_cell_length_b 8.537800
_cell_length_c 8.897297
_cell_angle_alpha 90.000000
_cell_angle_beta 135.933355
_cell_angle_gamma 90.000000
_cell_volume 1332.299768
_symmetry_space_group_name_H-M "P 21/M"
_symmetry_group_IT_number 11
_symmetry_cell_setting 'monoclinic'
loop_
_space_group_symop_operation_xyz
x,y,z
-x,1/2+y,-z
-x,-y,-z
x,1/2-y,z
loop_
_atom_site_type_symbol
_atom_site_label
_atom_site_fract_x
_atom_site_fract_y
_atom_site_fract_z
Si Si1 0.490074 0.566791 0.644876
Si Si2 0.226217 0.930962 0.772047
Si Si3 0.069921 0.067997 0.946547
Si Si4 0.375745 0.931486 0.892512
Si Si5 0.085616 0.431491 0.320658
Si Si6 0.350791 0.069172 0.520812
Si Si7 0.789760 0.431794 0.917119
O O1 0.500000 0.500000 0.500000
O O2 0.508559 0.750000 0.682661
O O3 0.404074 0.537708 0.524327
O O4 0.544727 0.476971 0.870863
O O5 0.203393 0.750000 0.705518
O O6 0.309241 0.967122 0.875573
O O7 0.165374 0.035778 0.561755
O O8 0.228032 0.980693 0.948847
O O9 0.083888 0.250000 0.946625
O O10 0.091520 0.015786 0.159474
O O11 0.981799 0.026687 0.734090
O O12 0.122619 0.971248 0.939978
O O13 0.377781 0.750000 0.849740
O O14 0.363551 0.035247 0.721287
O O15 0.064922 0.250000 0.289423
O O16 0.368726 0.250000 0.526096
O O17 0.263564 0.031335 0.302428
O O18 0.773715 0.250000 0.856946
#
# Coordination Sequence:
#
# PCOD8076154 Si02
#       7
#     4   4   4   4   4   4   4
#     4  12  25  43  66  94 127 163 203 250 304 361
#     4  10  23  40  60  86 119 157 197 244 299 358
#     4  10  21  38  60  87 118 154 198 246 299 360
#     4  11  23  42  66  92 123 162 206 252 302 359
#     4  10  21  37  60  87 116 153 198 246 297 356
#     4  12  25  42  64  92 124 161 205 252 303 360
#     4  11  23  40  61  88 121 158 201 249 303 361
#
# _framework density 21.016293000000001
#
# number of rings (size 3 to 8) (size 9 to 14) (size 15 to 20)
#    0.000    1.143    0.000    6.429    0.000    8.000 
#    0.000    0.000    0.000    0.000    0.000    0.000 
#    0.000    0.000    0.000    0.000    0.000    0.000 
#
# Total GULP energy -347461.608094 kJ/mol
# GULP energy per Si atom -12409.343146 kJ/mol
# Density = 2.096846 g / cm^3
# Si number density = 21.016293 Si / 1000 Ang^3
#
#
#
# Elastic Constant Matrix: (Units=GPa)
#
#
# Indices 1 2 3 4 5 6 
#
# 1 104.8675 30.0681 -6.2434 0.0000 -0.0254 0.0000
# 2 30.0681 72.8296 27.5970 0.0000 -3.1130 0.0000
# 3 -6.2434 27.5970 42.1126 0.0000 4.1804 0.0000
# 4 0.0000 0.0000 0.0000 36.6412 0.0000 3.6988
# 5 -0.0254 -3.1130 4.1804 0.0000 34.5639 0.0000
# 6 0.0000 0.0000 0.0000 3.6988 0.0000 36.0555
#
#
#
# Elastic Compliance Matrix: (Units=1/GPa)
#
#
# Indices 1 2 3 4 5 6 
#
# 1 0.012182 -0.007766 0.007048 0.000000 -0.001543 0.000000
# 2 -0.007766 0.023559 -0.017004 0.000000 0.004173 0.000000
# 3 0.007048 -0.017004 0.036524 0.000000 -0.005944 0.000000
# 4 0.000000 0.000000 0.000000 0.027577 0.000000 -0.002829
# 5 -0.001543 0.004173 -0.005944 0.000000 0.030025 0.000000
# 6 0.000000 0.000000 0.000000 -0.002829 0.000000 0.028025
#
#
# Mechanical properties :
#
#
# Convention : Reuss Voigt Hill
#
# Bulk Modulus (GPa) = 27.15838 35.85035 31.50437
# Shear Modulus (GPa) = 24.31804 32.67798 28.49801
#
# Velocity S-wave (km/s) = 3.40531 3.94748 3.68638
# Velocity P-wave (km/s) = 5.33030 6.15404 5.75693
#
# Compressibility (1/GPa) = 0.03682105
#
# Stress axis : x y z
#
# Youngs Moduli (GPa) = 82.08935 42.44752 27.37951
#
# Poissons Ratio (x) = 0.32965 -0.19298
# Poissons Ratio (y) = 0.63752 0.46556
# Poissons Ratio (z) = -0.57860 0.72177
#
# Static dielectric constant tensor:
#      x y z
#    x 3.863650 0.000000 0.055780 
#    y 0.000000 3.751870 0.000000 
#    z 0.055780 0.000000 3.657230 
# 
# 
# High freq. dielectric constant tensor:
#      x y z
#    x 1.835780 0.000000 0.004810 
#    y 0.000000 1.829910 0.000000 
#    z 0.004810 0.000000 1.825360 
# 
# From -- ./inp_files/28421.got.cif
#   From: 2010.06.25/outbox.cif.g09.slc.cpg/sg11_15_cif.got.tgz:28421.got - 2010.06.27 23:14:04.
