data_PCOD8076957
_publ_section_title
;
Structure prediction by ZEFSAII (Michael W. Deem and Ramdas Pophale) SiO2 
 PCOD8076957
Probable space group: P 21/M
;
_chemical_formula_sum "Si O2"
_cell_formula_units_Z 28
_cell_length_a 8.918702
_cell_length_b 27.623552
_cell_length_c 8.591640
_cell_angle_alpha 90.000000
_cell_angle_beta 144.822334
_cell_angle_gamma 90.000000
_cell_volume 1219.454176
_symmetry_space_group_name_H-M "P 21/M"
_symmetry_group_IT_number 11
_symmetry_cell_setting 'monoclinic'
loop_
_space_group_symop_operation_xyz
x,y,z
-x,1/2+y,-z
-x,-y,-z
x,1/2-y,z
loop_
_atom_site_type_symbol
_atom_site_label
_atom_site_fract_x
_atom_site_fract_y
_atom_site_fract_z
Si Si1 0.067302 0.802343 0.902272
Si Si2 0.486643 0.622833 0.247998
Si Si3 0.328636 0.140997 0.281723
Si Si4 0.845008 0.695043 0.384352
Si Si5 0.914028 0.131775 0.667468
Si Si6 0.078109 0.975421 0.404628
Si Si7 0.582454 0.016150 0.898503
O O1 0.184155 0.750000 0.048276
O O2 0.245564 0.846374 0.112959
O O3 0.787256 0.807768 0.752051
O O4 0.044456 0.805069 0.696669
O O5 0.661116 0.609140 0.548205
O O6 0.615352 0.657334 0.227375
O O7 0.395735 0.574016 0.088019
O O8 0.618761 0.145697 0.461087
O O9 0.118489 0.120841 0.980190
O O10 0.739523 0.750000 0.266823
O O11 0.987971 0.676820 0.350863
O O12 0.910194 0.082308 0.564910
O O13 0.363159 0.995073 0.594604
O O14 0.000000 0.000000 0.500000
O O15 0.862604 0.992501 0.095089
O O16 0.500000 0.000000 0.000000
#
# Coordination Sequence:
#
# PCOD8076957 Si02
#       7
#     4   4   4   4   4   4   4
#     4  10  23  45  73 102 137 186 238 283 348 427
#     4  11  23  45  75  99 144 182 242 283 352 420
#     4  11  26  46  69 100 140 192 223 282 353 419
#     4  10  24  41  69 107 137 177 233 299 353 412
#     4  12  25  46  72 103 148 178 237 291 353 408
#     4  10  22  40  64 101 131 179 224 276 345 409
#     4  10  22  37  68 101 129 173 230 280 342 401
#
# _framework density 22.961091
#
# number of rings (size 3 to 8) (size 9 to 14) (size 15 to 20)
#    0.000    1.429    1.429    3.000   10.000    1.714 
#    0.000    4.286    0.000    0.000    0.000    0.000 
#    0.000    0.000    0.000    0.000    0.000    0.000 
#
# Total GULP energy -346882.075675 kJ/mol
# GULP energy per Si atom -12388.645560 kJ/mol
# Density = 2.290883 g / cm^3
# Si number density = 22.961091 Si / 1000 Ang^3
#
#
#
# Elastic Constant Matrix: (Units=GPa)
#
#
# Indices 1 2 3 4 5 6 
#
# 1 97.1973 48.1174 42.2809 0.0000 12.4332 0.0000
# 2 48.1174 154.9431 46.2687 0.0000 0.2451 0.0000
# 3 42.2809 46.2687 134.2821 0.0000 30.7513 0.0000
# 4 0.0000 0.0000 0.0000 32.3642 0.0000 8.9963
# 5 12.4332 0.2451 30.7513 0.0000 38.0343 0.0000
# 6 0.0000 0.0000 0.0000 8.9963 0.0000 14.9624
#
#
#
# Elastic Compliance Matrix: (Units=1/GPa)
#
#
# Indices 1 2 3 4 5 6 
#
# 1 0.013356 -0.003396 -0.002504 0.000000 -0.002320 0.000000
# 2 -0.003396 0.008241 -0.002470 0.000000 0.003054 0.000000
# 3 -0.002504 -0.002470 0.010916 0.000000 -0.007992 0.000000
# 4 0.000000 0.000000 0.000000 0.037099 0.000000 -0.022306
# 5 -0.002320 0.003054 -0.007992 0.000000 0.033492 0.000000
# 6 0.000000 0.000000 0.000000 -0.022306 0.000000 0.080246
#
#
# Mechanical properties :
#
#
# Convention : Reuss Voigt Hill
#
# Bulk Modulus (GPa) = 63.39542 73.30627 68.35084
# Shear Modulus (GPa) = 24.34899 33.72255 29.03577
#
# Velocity S-wave (km/s) = 3.25998 3.83650 3.55993
# Velocity P-wave (km/s) = 6.46837 7.18474 6.83595
#
# Compressibility (1/GPa) = 0.01577401
#
# Stress axis : x y z
#
# Youngs Moduli (GPa) = 74.87547 121.33992 91.60477
#
# Poissons Ratio (x) = 0.41209 0.22936
# Poissons Ratio (y) = 0.25429 0.22623
# Poissons Ratio (z) = 0.18747 0.29967
#
# Static dielectric constant tensor:
#      x y z
#    x 4.377610 0.000000 1.330430 
#    y 0.000000 4.027690 0.000000 
#    z 1.330430 0.000000 7.471940 
# 
# 
# High freq. dielectric constant tensor:
#      x y z
#    x 1.891080 0.000000 0.013600 
#    y 0.000000 1.899860 0.000000 
#    z 0.013600 0.000000 1.918410 
# 
# From -- ./inp_files/15304.got.cif
#   From: 2010.06.25/outbox.cif.g09.slc.cpg/sg11_8_cif.got.tgz:15304.got - 2010.06.27 23:14:04.
