data_PCOD8076652
_publ_section_title
;
Structure prediction by ZEFSAII (Michael W. Deem and Ramdas Pophale) SiO2 
 PCOD8076652
Probable space group: P 21/M
;
_chemical_formula_sum "Si O2"
_cell_formula_units_Z 20
_cell_length_a 14.224419
_cell_length_b 10.060881
_cell_length_c 19.695325
_cell_angle_alpha 90.000000
_cell_angle_beta 162.649171
_cell_angle_gamma 90.000000
_cell_volume 840.568334
_symmetry_space_group_name_H-M "P 21/M"
_symmetry_group_IT_number 11
_symmetry_cell_setting 'monoclinic'
loop_
_space_group_symop_operation_xyz
x,y,z
-x,1/2+y,-z
-x,-y,-z
x,1/2-y,z
loop_
_atom_site_type_symbol
_atom_site_label
_atom_site_fract_x
_atom_site_fract_y
_atom_site_fract_z
Si Si1 0.104867 0.101220 0.894557
Si Si2 0.242313 0.393473 0.839938
Si Si3 0.219349 0.534070 0.587685
Si Si4 0.797423 0.899670 0.781733
Si Si5 0.460839 0.893095 0.306119
O O1 0.970369 0.250000 0.815450
O O2 0.465273 0.104641 0.169145
O O3 0.085920 0.062451 0.802625
O O4 0.888066 0.989861 0.779591
O O5 0.408172 0.250000 0.963779
O O6 0.983746 0.374749 0.602736
O O7 0.500000 0.500000 0.000000
O O8 0.324686 0.408782 0.613676
O O9 0.000000 0.500000 0.500000
O O10 0.678433 0.750000 0.679255
O O11 0.516174 0.979942 0.627045
O O12 0.094308 0.882767 0.034918
O O13 0.557810 0.750000 0.405875
#
# Coordination Sequence:
#
# PCOD8076652 Si02
#       5
#     4   4   4   4   4
#     4  10  21  39  63  91 124 162 203 253 309 364
#     4  11  24  41  61  91 126 165 208 256 308 370
#     4  11  22  39  63  92 125 164 208 253 309 365
#     4   9  18  35  60  89 121 160 203 251 308 367
#     4   9  19  34  58  91 123 158 204 255 305 366
#
# _framework density 23.793427000000001
#
# number of rings (size 3 to 8) (size 9 to 14) (size 15 to 20)
#    0.000    2.000    2.000    1.200    0.000    8.800 
#    0.000    1.000    0.000    0.000    0.000    0.000 
#    0.000    0.000    0.000    0.000    0.000    0.000 
#
# Total GULP energy -247770.050861 kJ/mol
# GULP energy per Si atom -12388.502543 kJ/mol
# Density = 2.373927 g / cm^3
# Si number density = 23.793427 Si / 1000 Ang^3
#
#
#
# Elastic Constant Matrix: (Units=GPa)
#
#
# Indices 1 2 3 4 5 6 
#
# 1 185.9907 107.7472 39.9937 0.0000 5.2291 0.0000
# 2 107.7472 216.2782 9.7782 0.0000 26.0671 0.0000
# 3 39.9937 9.7782 76.8192 0.0000 4.7356 0.0000
# 4 0.0000 0.0000 0.0000 -0.7229 0.0000 -2.1082
# 5 5.2291 26.0671 4.7356 0.0000 37.6864 0.0000
# 6 0.0000 0.0000 0.0000 -2.1082 0.0000 35.6118
#
#
#
# Elastic Compliance Matrix: (Units=1/GPa)
#
#
# Indices 1 2 3 4 5 6 
#
# 1 0.008803 -0.004487 -0.004160 0.000000 0.002405 0.000000
# 2 -0.004487 0.007346 0.001689 0.000000 -0.004671 0.000000
# 3 -0.004160 0.001689 0.015122 0.000000 -0.002491 0.000000
# 4 0.000000 0.000000 0.000000 -1.179635 0.000000 -0.069834
# 5 0.002405 -0.004671 -0.002491 0.000000 0.029745 0.000000
# 6 0.000000 0.000000 0.000000 -0.069834 0.000000 0.023946
#
#
# Mechanical properties :
#
#
# Convention : Reuss Voigt Hill
#
# Bulk Modulus (GPa) = 57.62345 88.23628 72.92987
# Shear Modulus (GPa) = -4.65129 35.95298 15.65085
#
# Velocity S-wave (km/s) = -1.39968 3.89144 2.56751
# Velocity P-wave (km/s) = 4.65389 7.57336 6.28548
#
# Compressibility (1/GPa) = 0.01735405
#
# Stress axis : x y z
#
# Youngs Moduli (GPa) = 113.59486 136.13154 66.12865
#
# Poissons Ratio (x) = 0.61088 0.27511
# Poissons Ratio (y) = 0.50975 -0.11170
# Poissons Ratio (z) = 0.47258 -0.22995
#
# Static dielectric constant tensor:
#      x y z
#    x 4.230830 0.000000 -0.053010 
#    y 0.000000 4.481460 0.000000 
#    z -0.053010 0.000000 4.198580 
# 
# 
# High freq. dielectric constant tensor:
#      x y z
#    x 1.947420 0.000000 0.000500 
#    y 0.000000 1.946480 0.000000 
#    z 0.000500 0.000000 1.933550 
# 
# From -- ./inp_files/65314.got.cif
#   From: 2010.06.25/outbox.cif.g09.slc.cpg/sg11_33_cif.got.tgz:65314.got - 2010.06.27 23:14:04.
