data_PCOD8076718
_publ_section_title
;
Structure prediction by ZEFSAII (Michael W. Deem and Ramdas Pophale) SiO2 
 PCOD8076718
Probable space group: P 21/M
;
_chemical_formula_sum "Si O2"
_cell_formula_units_Z 28
_cell_length_a 13.231970
_cell_length_b 12.418955
_cell_length_c 9.304009
_cell_angle_alpha 90.000000
_cell_angle_beta 121.563651
_cell_angle_gamma 90.000000
_cell_volume 1302.715093
_symmetry_space_group_name_H-M "P 21/M"
_symmetry_group_IT_number 11
_symmetry_cell_setting 'monoclinic'
loop_
_space_group_symop_operation_xyz
x,y,z
-x,1/2+y,-z
-x,-y,-z
x,1/2-y,z
loop_
_atom_site_type_symbol
_atom_site_label
_atom_site_fract_x
_atom_site_fract_y
_atom_site_fract_z
Si Si1 0.093166 0.370150 0.203804
Si Si2 0.523179 0.544441 0.860872
Si Si3 0.311832 0.627804 0.539344
Si Si4 0.875896 0.534119 0.478864
Si Si5 0.849117 0.035198 0.967127
Si Si6 0.225238 0.373459 0.872466
Si Si7 0.614809 0.372866 0.724011
O O1 0.134856 0.250000 0.192477
O O2 0.093364 0.379728 0.375382
O O3 0.176050 0.460574 0.192441
O O4 0.963252 0.389886 0.039822
O O5 0.415089 0.621262 0.735788
O O6 0.523476 0.449640 0.740665
O O7 0.500000 0.500000 0.000000
O O8 0.645047 0.611258 0.960588
O O9 0.268526 0.750000 0.492275
O O10 0.194389 0.564752 0.501594
O O11 0.366602 0.590243 0.427029
O O12 0.785335 0.592555 0.301734
O O13 0.000000 0.500000 0.500000
O O14 0.738856 0.115464 0.902419
O O15 0.865229 0.952808 0.112282
O O16 0.186386 0.250000 0.862908
O O17 0.568980 0.250000 0.700158
#
# Coordination Sequence:
#
# PCOD8076718 Si02
#       7
#     4   4   4   4   4   4   4
#     4  11  22  38  62  88 125 171 214 263 319 379
#     4  11  23  43  67  98 134 160 216 271 320 395
#     4  11  24  45  68  93 131 176 218 267 328 388
#     4  12  24  44  61  96 132 169 220 271 321 390
#     4  10  21  40  60  91 128 159 219 263 312 388
#     4  11  23  41  64  90 126 167 207 264 326 379
#     4  10  22  41  69  97 129 173 214 263 324 386
#
# _framework density 21.493569999999998
#
# number of rings (size 3 to 8) (size 9 to 14) (size 15 to 20)
#    0.000    1.143    4.286    2.143    0.000    2.286 
#    0.000    0.000    0.000    0.000    0.000    0.000 
#    0.000    0.000    0.000    0.000    0.000    0.000 
#
# Total GULP energy -347144.913375 kJ/mol
# GULP energy per Si atom -12398.032621 kJ/mol
# Density = 2.144465 g / cm^3
# Si number density = 21.493570 Si / 1000 Ang^3
#
#
#
# Elastic Constant Matrix: (Units=GPa)
#
#
# Indices 1 2 3 4 5 6 
#
# 1 78.3308 22.9381 19.2174 0.0000 -11.1697 0.0000
# 2 22.9381 83.4608 33.4751 0.0000 -5.8092 0.0000
# 3 19.2174 33.4751 105.4195 0.0000 -16.3604 0.0000
# 4 0.0000 0.0000 0.0000 28.0554 0.0000 -4.6421
# 5 -11.1697 -5.8092 -16.3604 0.0000 38.5384 0.0000
# 6 0.0000 0.0000 0.0000 -4.6421 0.0000 22.0889
#
#
#
# Elastic Compliance Matrix: (Units=1/GPa)
#
#
# Indices 1 2 3 4 5 6 
#
# 1 0.014464 -0.003316 -0.001082 0.000000 0.003233 0.000000
# 2 -0.003316 0.014493 -0.004076 0.000000 -0.000507 0.000000
# 3 -0.001082 -0.004076 0.011598 0.000000 0.003995 0.000000
# 4 0.000000 0.000000 0.000000 0.036928 0.000000 0.007761
# 5 0.003233 -0.000507 0.003995 0.000000 0.028505 0.000000
# 6 0.000000 0.000000 0.000000 0.007761 0.000000 0.046903
#
#
# Mechanical properties :
#
#
# Convention : Reuss Voigt Hill
#
# Bulk Modulus (GPa) = 42.36301 46.49690 44.42996
# Shear Modulus (GPa) = 28.13624 30.50857 29.32241
#
# Velocity S-wave (km/s) = 3.62201 3.77162 3.69757
# Velocity P-wave (km/s) = 6.10282 6.37548 6.24063
#
# Compressibility (1/GPa) = 0.02360550
#
# Stress axis : x y z
#
# Youngs Moduli (GPa) = 69.13751 69.00012 86.22499
#
# Poissons Ratio (x) = 0.22882 0.09329
# Poissons Ratio (y) = 0.22928 0.35147
# Poissons Ratio (z) = 0.07480 0.28126
#
# Static dielectric constant tensor:
#      x y z
#    x 3.758870 0.000000 -0.113650 
#    y 0.000000 3.702750 0.000000 
#    z -0.113650 0.000000 4.044240 
# 
# 
# High freq. dielectric constant tensor:
#      x y z
#    x 1.833820 0.000000 -0.008040 
#    y 0.000000 1.837320 0.000000 
#    z -0.008040 0.000000 1.856320 
# 
# From -- ./inp_files/21396.got.cif
#   From: 2010.06.25/outbox.cif.g09.slc.cpg/sg11_11_cif.got.tgz:21396.got - 2010.06.27 23:14:04.
