data_PCOD8076746
_publ_section_title
;
Structure prediction by ZEFSAII (Michael W. Deem and Ramdas Pophale) SiO2 
 PCOD8076746
Probable space group: P 21/M
;
_chemical_formula_sum "Si O2"
_cell_formula_units_Z 32
_cell_length_a 23.805373
_cell_length_b 8.700631
_cell_length_c 14.374771
_cell_angle_alpha 90.000000
_cell_angle_beta 147.421721
_cell_angle_gamma 90.000000
_cell_volume 1603.146319
_symmetry_space_group_name_H-M "P 21/M"
_symmetry_group_IT_number 11
_symmetry_cell_setting 'monoclinic'
loop_
_space_group_symop_operation_xyz
x,y,z
-x,1/2+y,-z
-x,-y,-z
x,1/2-y,z
loop_
_atom_site_type_symbol
_atom_site_label
_atom_site_fract_x
_atom_site_fract_y
_atom_site_fract_z
Si Si1 0.631364 0.931851 0.265287
Si Si2 0.397820 0.931075 0.966380
Si Si3 0.052245 0.431157 0.663782
Si Si4 0.392653 0.427609 0.317665
Si Si5 0.817675 0.932590 0.650026
Si Si6 0.279957 0.931385 0.987161
Si Si7 0.991813 0.069249 0.209094
Si Si8 0.192539 0.427051 0.155140
O O1 0.637759 0.750000 0.270880
O O2 0.716369 0.998707 0.455683
O O3 0.658514 0.993736 0.200738
O O4 0.517575 0.989036 0.139657
O O5 0.394294 0.750000 0.949084
O O6 0.337659 0.984453 0.974013
O O7 0.045537 0.250000 0.648335
O O8 0.171280 0.481349 0.840890
O O9 0.988147 0.488216 0.664168
O O10 0.000000 0.500000 0.500000
O O11 0.500000 0.500000 0.500000
O O12 0.408053 0.250000 0.311572
O O13 0.311854 0.443687 0.289958
O O14 0.353075 0.521636 0.174028
O O15 0.812488 0.750000 0.645337
O O16 0.818312 0.995386 0.756126
O O17 0.921251 0.990230 0.742022
O O18 0.259352 0.750000 0.960516
O O19 0.999408 0.250000 0.235502
O O20 0.878302 0.026967 0.012121
O O21 0.155721 0.250000 0.098427
#
# Coordination Sequence:
#
# PCOD8076746 Si02
#       8
#     4   4   4   4   4   4   4   4
#     4   9  18  36  59  84 116 155 196 243 292 352
#     4   9  20  36  58  85 118 156 194 240 298 353
#     4  12  26  44  65  91 124 164 206 253 310 370
#     4  11  24  40  63  92 125 166 209 255 309 364
#     4   9  20  36  60  89 115 153 203 248 300 358
#     4  11  23  41  65  94 126 161 204 254 308 370
#     4  11  22  39  62  90 122 156 199 251 305 362
#     4  10  21  40  63  86 118 160 203 249 305 365
#
# _framework density 19.960749
#
# number of rings (size 3 to 8) (size 9 to 14) (size 15 to 20)
#    0.000    1.750    1.250    2.625    3.500    1.500 
#    0.000    1.875    0.000    0.000    0.000    0.000 
#    0.000    0.000    0.000    0.000    0.000    0.000 
#
# Total GULP energy -396932.071373 kJ/mol
# GULP energy per Si atom -12404.127230 kJ/mol
# Density = 1.991532 g / cm^3
# Si number density = 19.960749 Si / 1000 Ang^3
#
#
#
# Elastic Constant Matrix: (Units=GPa)
#
#
# Indices 1 2 3 4 5 6 
#
# 1 138.8189 38.4518 34.1982 0.0000 -19.2058 0.0000
# 2 38.4518 70.4250 23.4422 0.0000 -6.1693 0.0000
# 3 34.1982 23.4422 103.4528 0.0000 -19.4749 0.0000
# 4 0.0000 0.0000 0.0000 30.8540 0.0000 -6.9307
# 5 -19.2058 -6.1693 -19.4749 0.0000 34.6894 0.0000
# 6 0.0000 0.0000 0.0000 -6.9307 0.0000 23.6443
#
#
#
# Elastic Compliance Matrix: (Units=1/GPa)
#
#
# Indices 1 2 3 4 5 6 
#
# 1 0.009222 -0.004253 -0.001416 0.000000 0.003555 0.000000
# 2 -0.004253 0.017342 -0.002669 0.000000 -0.000768 0.000000
# 3 -0.001416 -0.002669 0.011743 0.000000 0.005334 0.000000
# 4 0.000000 0.000000 0.000000 0.034695 0.000000 0.010170
# 5 0.003555 -0.000768 0.005334 0.000000 0.033653 0.000000
# 6 0.000000 0.000000 0.000000 0.010170 0.000000 0.045275
#
#
# Mechanical properties :
#
#
# Convention : Reuss Voigt Hill
#
# Bulk Modulus (GPa) = 46.22417 56.09790 51.16104
# Shear Modulus (GPa) = 28.43882 32.27783 30.35833
#
# Velocity S-wave (km/s) = 3.77866 4.02564 3.90410
# Velocity P-wave (km/s) = 6.49966 7.05498 6.78301
#
# Compressibility (1/GPa) = 0.02163370
#
# Stress axis : x y z
#
# Youngs Moduli (GPa) = 108.43466 57.66222 85.15622
#
# Poissons Ratio (x) = 0.24521 0.12056
# Poissons Ratio (y) = 0.46113 0.22725
# Poissons Ratio (z) = 0.15352 0.15388
#
# Static dielectric constant tensor:
#      x y z
#    x 3.970810 0.000000 -0.065050 
#    y 0.000000 3.498190 0.000000 
#    z -0.065050 0.000000 3.791310 
# 
# 
# High freq. dielectric constant tensor:
#      x y z
#    x 1.794390 0.000000 -0.002910 
#    y 0.000000 1.766740 0.000000 
#    z -0.002910 0.000000 1.785390 
# 
# From -- ./inp_files/55581.got.cif
#   From: 2010.06.25/outbox.cif.g09.slc.cpg/sg11_28_cif.got.tgz:55581.got - 2010.06.27 23:14:04.
