data_PCOD8076701
_publ_section_title
;
Structure prediction by ZEFSAII (Michael W. Deem and Ramdas Pophale) SiO2 
 PCOD8076701
Probable space group: P 21/M
;
_chemical_formula_sum "Si O2"
_cell_formula_units_Z 32
_cell_length_a 13.960357
_cell_length_b 13.658695
_cell_length_c 9.189712
_cell_angle_alpha 90.000000
_cell_angle_beta 117.120453
_cell_angle_gamma 90.000000
_cell_volume 1559.631870
_symmetry_space_group_name_H-M "P 21/M"
_symmetry_group_IT_number 11
_symmetry_cell_setting 'monoclinic'
loop_
_space_group_symop_operation_xyz
x,y,z
-x,1/2+y,-z
-x,-y,-z
x,1/2-y,z
loop_
_atom_site_type_symbol
_atom_site_label
_atom_site_fract_x
_atom_site_fract_y
_atom_site_fract_z
Si Si1 0.112489 0.366712 0.150543
Si Si2 0.683153 0.133190 0.759095
Si Si3 0.449323 0.360651 0.049683
Si Si4 0.529129 0.550620 0.244806
Si Si5 0.739282 0.503802 0.546043
Si Si6 0.119250 0.635283 0.907423
Si Si7 0.879020 0.014180 0.368938
Si Si8 0.201750 0.138622 0.906283
O O1 0.125782 0.250000 0.175416
O O2 0.192928 0.416083 0.319681
O O3 0.991537 0.403714 0.098697
O O4 0.140607 0.401599 0.006604
O O5 0.672715 0.250000 0.743728
O O6 0.573479 0.084852 0.736448
O O7 0.709741 0.091639 0.618839
O O8 0.778249 0.097139 0.931727
O O9 0.489130 0.250000 0.110204
O O10 0.521736 0.437344 0.188388
O O11 0.457803 0.378426 0.883591
O O12 0.327964 0.375527 0.019253
O O13 0.632279 0.559800 0.419336
O O14 0.806066 0.462160 0.456682
O O15 0.117257 0.750000 0.909898
O O16 0.131548 0.603680 0.749458
O O17 0.837854 0.916055 0.263975
O O18 0.000000 0.000000 0.500000
O O19 0.170820 0.250000 0.856384
#
# Coordination Sequence:
#
# PCOD8076701 Si02
#       8
#     4   4   4   4   4   4   4   4
#     4  10  22  41  66  94 125 167 215 264 316 377
#     4  11  26  45  66  92 127 174 218 263 323 385
#     4  10  21  39  65  95 125 165 216 265 319 380
#     4  11  23  42  64  93 130 170 212 268 320 382
#     4  12  25  41  65  98 132 166 211 267 323 383
#     4  10  23  43  65  89 125 172 218 258 313 389
#     4  12  24  39  62  95 130 167 203 263 327 375
#     4  10  22  41  65  92 122 162 214 263 311 376
#
# _framework density 20.517661
#
# number of rings (size 3 to 8) (size 9 to 14) (size 15 to 20)
#    0.000    1.250    2.500    3.000    3.500    4.000 
#    0.000    1.250    0.000    0.000    0.000    0.000 
#    0.000    0.000    0.000    0.000    0.000    0.000 
#
# Total GULP energy -396962.366493 kJ/mol
# GULP energy per Si atom -12405.073953 kJ/mol
# Density = 2.047096 g / cm^3
# Si number density = 20.517661 Si / 1000 Ang^3
#
#
#
# Elastic Constant Matrix: (Units=GPa)
#
#
# Indices 1 2 3 4 5 6 
#
# 1 150.4628 29.0332 58.3510 0.0000 -7.4214 0.0000
# 2 29.0332 53.3745 8.6264 0.0000 1.2241 0.0000
# 3 58.3510 8.6264 90.3370 0.0000 -1.6409 0.0000
# 4 0.0000 0.0000 0.0000 17.8009 0.0000 -5.6407
# 5 -7.4214 1.2241 -1.6409 0.0000 46.1600 0.0000
# 6 0.0000 0.0000 0.0000 -5.6407 0.0000 32.6592
#
#
#
# Elastic Compliance Matrix: (Units=1/GPa)
#
#
# Indices 1 2 3 4 5 6 
#
# 1 0.009877 -0.004449 -0.005928 0.000000 0.001495 0.000000
# 2 -0.004449 0.021048 0.000841 0.000000 -0.001244 0.000000
# 3 -0.005928 0.000841 0.014810 0.000000 -0.000449 0.000000
# 4 0.000000 0.000000 0.000000 0.059429 0.000000 0.010264
# 5 0.001495 -0.001244 -0.000449 0.000000 0.021921 0.000000
# 6 0.000000 0.000000 0.000000 0.010264 0.000000 0.032392
#
#
# Mechanical properties :
#
#
# Convention : Reuss Voigt Hill
#
# Bulk Modulus (GPa) = 37.50356 54.02171 45.76264
# Shear Modulus (GPa) = 26.67546 32.53493 29.60520
#
# Velocity S-wave (km/s) = 3.60963 3.98641 3.80269
# Velocity P-wave (km/s) = 5.97419 6.89747 6.45237
#
# Compressibility (1/GPa) = 0.02666413
#
# Stress axis : x y z
#
# Youngs Moduli (GPa) = 101.24178 47.51006 67.52086
#
# Poissons Ratio (x) = 0.21137 0.40027
# Poissons Ratio (y) = 0.45043 -0.05680
# Poissons Ratio (z) = 0.60016 -0.03997
#
# Static dielectric constant tensor:
#      x y z
#    x 4.031800 0.000000 -0.034120 
#    y 0.000000 3.868330 0.000000 
#    z -0.034120 0.000000 3.697540 
# 
# 
# High freq. dielectric constant tensor:
#      x y z
#    x 1.821690 0.000000 -0.002190 
#    y 0.000000 1.808540 0.000000 
#    z -0.002190 0.000000 1.802080 
# 
# From -- ./inp_files/22217.got.cif
#   From: 2010.06.25/outbox.cif.g09.slc.cpg/sg11_12_cif.got.tgz:22217.got - 2010.06.27 23:14:04.
