data_PCOD8076736
_publ_section_title
;
Structure prediction by ZEFSAII (Michael W. Deem and Ramdas Pophale) SiO2 
 PCOD8076736
Probable space group: P 21/M
;
_chemical_formula_sum "Si O2"
_cell_formula_units_Z 28
_cell_length_a 21.714124
_cell_length_b 8.920741
_cell_length_c 9.672874
_cell_angle_alpha 90.000000
_cell_angle_beta 132.303088
_cell_angle_gamma 90.000000
_cell_volume 1385.774726
_symmetry_space_group_name_H-M "P 21/M"
_symmetry_group_IT_number 11
_symmetry_cell_setting 'monoclinic'
loop_
_space_group_symop_operation_xyz
x,y,z
-x,1/2+y,-z
-x,-y,-z
x,1/2-y,z
loop_
_atom_site_type_symbol
_atom_site_label
_atom_site_fract_x
_atom_site_fract_y
_atom_site_fract_z
Si Si1 0.308196 0.077643 0.740965
Si Si2 0.141662 0.073386 0.855582
Si Si3 0.433799 0.422862 0.173793
Si Si4 0.621733 0.420966 0.413291
Si Si5 0.311660 0.920786 0.185145
Si Si6 0.139659 0.926968 0.570406
Si Si7 0.999335 0.573718 0.147901
O O1 0.279543 0.250000 0.695616
O O2 0.333720 0.028798 0.627115
O O3 0.233031 0.977539 0.681464
O O4 0.386477 0.051933 0.958544
O O5 0.139574 0.250000 0.830389
O O6 0.083372 0.023451 0.894659
O O7 0.107202 0.998694 0.663801
O O8 0.235614 0.024412 0.025817
O O9 0.430710 0.250000 0.216460
O O10 0.528048 0.477750 0.296232
O O11 0.394700 0.523945 0.234578
O O12 0.620939 0.250000 0.356845
O O13 0.675338 0.433683 0.632487
O O14 0.292751 0.750000 0.112979
O O15 0.136530 0.750000 0.582772
O O16 0.079899 0.979952 0.355712
O O17 0.000830 0.750000 0.128215
O O18 0.000000 0.500000 0.000000
#
# Coordination Sequence:
#
# PCOD8076736 Si02
#       7
#     4   4   4   4   4   4   4
#     4  11  23  38  61  92 123 163 209 253 308 365
#     4  11  23  42  65  92 124 161 206 252 303 365
#     4  10  21  40  62  87 122 162 208 259 307 364
#     4  10  23  40  59  87 125 165 208 258 309 363
#     4  11  23  38  61  91 122 163 209 254 308 364
#     4  11  23  42  66  93 124 162 206 251 302 363
#     4  10  25  44  66  96 128 161 200 248 303 363
#
# _framework density 20.205304000000002
#
# number of rings (size 3 to 8) (size 9 to 14) (size 15 to 20)
#    0.000    1.429    1.429    3.000    2.000    4.571 
#    0.000    0.000    0.000    0.000    0.000    0.000 
#    0.000    0.000    0.000    0.000    0.000    0.000 
#
# Total GULP energy -347380.128443 kJ/mol
# GULP energy per Si atom -12406.433159 kJ/mol
# Density = 2.015932 g / cm^3
# Si number density = 20.205304 Si / 1000 Ang^3
#
#
#
# Elastic Constant Matrix: (Units=GPa)
#
#
# Indices 1 2 3 4 5 6 
#
# 1 114.4514 42.4679 43.7510 0.0000 -14.1424 0.0000
# 2 42.4679 77.4840 39.3511 0.0000 -9.7378 0.0000
# 3 43.7510 39.3511 105.9540 0.0000 -9.3373 0.0000
# 4 0.0000 0.0000 0.0000 31.5150 0.0000 -7.2349
# 5 -14.1424 -9.7378 -9.3373 0.0000 34.5226 0.0000
# 6 0.0000 0.0000 0.0000 -7.2349 0.0000 28.7452
#
#
#
# Elastic Compliance Matrix: (Units=1/GPa)
#
#
# Indices 1 2 3 4 5 6 
#
# 1 0.011951 -0.004708 -0.002942 0.000000 0.002772 0.000000
# 2 -0.004708 0.018061 -0.004594 0.000000 0.001923 0.000000
# 3 -0.002942 -0.004594 0.012435 0.000000 0.000862 0.000000
# 4 0.000000 0.000000 0.000000 0.033677 0.000000 0.008476
# 5 0.002772 0.001923 0.000862 0.000000 0.030878 0.000000
# 6 0.000000 0.000000 0.000000 0.008476 0.000000 0.036922
#
#
# Mechanical properties :
#
#
# Convention : Reuss Voigt Hill
#
# Bulk Modulus (GPa) = 55.68236 61.00329 58.34282
# Shear Modulus (GPa) = 28.66976 30.44453 29.55715
#
# Velocity S-wave (km/s) = 3.77095 3.88591 3.82886
# Velocity P-wave (km/s) = 6.82482 7.09866 6.96309
#
# Compressibility (1/GPa) = 0.01795901
#
# Stress axis : x y z
#
# Youngs Moduli (GPa) = 83.67156 55.36727 80.41590
#
# Poissons Ratio (x) = 0.26066 0.23661
# Poissons Ratio (y) = 0.39391 0.36947
# Poissons Ratio (z) = 0.24619 0.25438
#
# Static dielectric constant tensor:
#      x y z
#    x 3.781410 0.000000 -0.024880 
#    y 0.000000 3.700680 0.000000 
#    z -0.024880 0.000000 3.786980 
# 
# 
# High freq. dielectric constant tensor:
#      x y z
#    x 1.797930 0.000000 -0.000770 
#    y 0.000000 1.790920 0.000000 
#    z -0.000770 0.000000 1.800710 
# 
# From -- ./inp_files/26170.got.cif
#   From: 2010.06.25/outbox.cif.g09.slc.cpg/sg11_14_cif.got.tgz:26170.got - 2010.06.27 23:14:04.
