data_PCOD8076394
_publ_section_title
;
Structure prediction by ZEFSAII (Michael W. Deem and Ramdas Pophale) SiO2 
 PCOD8076394
Probable space group: P 21/M
;
_chemical_formula_sum "Si O2"
_cell_formula_units_Z 32
_cell_length_a 24.554527
_cell_length_b 8.905627
_cell_length_c 14.278996
_cell_angle_alpha 90.000000
_cell_angle_beta 29.271664
_cell_angle_gamma 90.000000
_cell_volume 1526.719235
_symmetry_space_group_name_H-M "P 21/M"
_symmetry_group_IT_number 11
_symmetry_cell_setting 'monoclinic'
loop_
_space_group_symop_operation_xyz
x,y,z
-x,1/2+y,-z
-x,-y,-z
x,1/2-y,z
loop_
_atom_site_type_symbol
_atom_site_label
_atom_site_fract_x
_atom_site_fract_y
_atom_site_fract_z
Si Si1 0.759498 0.421943 0.967135
Si Si2 0.470717 0.077468 0.911086
Si Si3 0.311052 0.421151 0.397280
Si Si4 0.111983 0.926415 0.043567
Si Si5 0.223073 0.074662 0.257026
Si Si6 0.518195 0.419849 0.295350
Si Si7 0.720189 0.582771 0.334580
Si Si8 0.115396 0.926795 0.583535
O O1 0.790911 0.250000 0.899429
O O2 0.831733 0.484911 0.944788
O O3 0.784698 0.514974 0.836417
O O4 0.628916 0.436550 0.192585
O O5 0.501024 0.250000 0.884328
O O6 0.564160 0.974232 0.822297
O O7 0.475523 0.045713 0.793461
O O8 0.341894 0.042022 0.131515
O O9 0.294970 0.250000 0.387045
O O10 0.296824 0.438150 0.529382
O O11 0.219237 0.527167 0.490660
O O12 0.091527 0.750000 0.075651
O O13 0.995628 0.008876 0.202465
O O14 0.192353 0.964043 0.836120
O O15 0.198162 0.250000 0.291124
O O16 0.128060 0.993869 0.460208
O O17 0.515470 0.250000 0.254716
O O18 0.403286 0.442930 0.525968
O O19 0.764356 0.750000 0.245306
O O20 0.106755 0.750000 0.590295
#
# Coordination Sequence:
#
# PCOD8076394 Si02
#       8
#     4   4   4   4   4   4   4   4
#     4   9  19  37  60  86 116 152 191 231 280 334
#     4   9  17  31  55  88 119 146 181 224 276 339
#     4  10  21  39  62  86 116 151 186 231 283 335
#     4  11  24  40  58  82 114 151 194 241 283 332
#     4  10  21  38  61  88 118 150 185 231 284 336
#     4   8  15  31  55  83 116 150 185 227 276 332
#     4   9  19  36  59  86 116 150 185 227 282 338
#     4  12  26  42  60  81 109 148 195 242 284 336
#
# _framework density 20.959976000000001
#
# number of rings (size 3 to 8) (size 9 to 14) (size 15 to 20)
#    0.000    2.250    0.000    3.375    0.000    7.000 
#    0.000    0.000    0.000    0.000    0.000    0.000 
#    0.000    0.000    0.000    0.000    0.000    0.000 
#
# Total GULP energy -396710.013177 kJ/mol
# GULP energy per Si atom -12397.187912 kJ/mol
# Density = 2.091227 g / cm^3
# Si number density = 20.959976 Si / 1000 Ang^3
#
#
#
# Elastic Constant Matrix: (Units=GPa)
#
#
# Indices 1 2 3 4 5 6 
#
# 1 28.4337 11.4242 4.6320 0.0000 -11.6415 0.0000
# 2 11.4242 100.1323 39.2453 0.0000 -0.1913 0.0000
# 3 4.6320 39.2453 103.8150 0.0000 -4.2912 0.0000
# 4 0.0000 0.0000 0.0000 34.3858 0.0000 -0.1513
# 5 -11.6415 -0.1913 -4.2912 0.0000 22.3549 0.0000
# 6 0.0000 0.0000 0.0000 -0.1513 0.0000 27.3943
#
#
#
# Elastic Compliance Matrix: (Units=1/GPa)
#
#
# Indices 1 2 3 4 5 6 
#
# 1 0.047521 -0.005807 0.001105 0.000000 0.024909 0.000000
# 2 -0.005807 0.012446 -0.004603 0.000000 -0.003801 0.000000
# 3 0.001105 -0.004603 0.011436 0.000000 0.002731 0.000000
# 4 0.000000 0.000000 0.000000 0.029082 0.000000 0.000161
# 5 0.024909 -0.003801 0.002731 0.000000 0.058196 0.000000
# 6 0.000000 0.000000 0.000000 0.000161 0.000000 0.036505
#
#
# Mechanical properties :
#
#
# Convention : Reuss Voigt Hill
#
# Bulk Modulus (GPa) = 18.94204 38.10934 28.52569
# Shear Modulus (GPa) = 21.60796 28.63229 25.12012
#
# Velocity S-wave (km/s) = 3.21427 3.70002 3.46566
# Velocity P-wave (km/s) = 4.77831 6.03945 5.44551
#
# Compressibility (1/GPa) = 0.05279263
#
# Stress axis : x y z
#
# Youngs Moduli (GPa) = 21.04316 80.34604 87.44146
#
# Poissons Ratio (x) = 0.46658 -0.09659
# Poissons Ratio (y) = 0.12220 0.40250
# Poissons Ratio (z) = -0.02324 0.36984
#
# Static dielectric constant tensor:
#      x y z
#    x 3.631220 0.000000 -0.237960 
#    y 0.000000 3.723290 0.000000 
#    z -0.237960 0.000000 3.895200 
# 
# 
# High freq. dielectric constant tensor:
#      x y z
#    x 1.806250 0.000000 -0.012280 
#    y 0.000000 1.821300 0.000000 
#    z -0.012280 0.000000 1.824060 
# 
# From -- ./inp_files/55568.got.cif
#   From: 2010.06.25/outbox.cif.g09.slc.cpg/sg11_28_cif.got.tgz:55568.got - 2010.06.27 23:14:04.
