data_PCOD8076079
_publ_section_title
;
Structure prediction by ZEFSAII (Michael W. Deem and Ramdas Pophale) SiO2 
 PCOD8076079
Probable space group: P 21/M
;
_chemical_formula_sum "Si O2"
_cell_formula_units_Z 32
_cell_length_a 25.667724
_cell_length_b 8.746460
_cell_length_c 14.450044
_cell_angle_alpha 90.000000
_cell_angle_beta 29.885039
_cell_angle_gamma 90.000000
_cell_volume 1616.389622
_symmetry_space_group_name_H-M "P 21/M"
_symmetry_group_IT_number 11
_symmetry_cell_setting 'monoclinic'
loop_
_space_group_symop_operation_xyz
x,y,z
-x,1/2+y,-z
-x,-y,-z
x,1/2-y,z
loop_
_atom_site_type_symbol
_atom_site_label
_atom_site_fract_x
_atom_site_fract_y
_atom_site_fract_z
Si Si1 0.611197 0.927408 0.344774
Si Si2 0.773382 0.925821 0.933738
Si Si3 0.230298 0.570684 0.766848
Si Si4 0.072796 0.928891 0.168247
Si Si5 0.834351 0.574545 0.510129
Si Si6 0.309079 0.928359 0.120987
Si Si7 0.487750 0.569995 0.120090
Si Si8 0.724370 0.925650 0.490182
O O1 0.601572 0.750000 0.385515
O O2 0.500000 0.000000 0.500000
O O3 0.662500 0.015893 0.351239
O O4 0.677285 0.952900 0.150422
O O5 0.785771 0.750000 0.886266
O O6 0.880487 0.980676 0.816488
O O7 0.754640 0.023675 0.871271
O O8 0.236250 0.750000 0.739333
O O9 0.215727 0.484046 0.692752
O O10 0.132759 0.524982 0.981874
O O11 0.086510 0.750000 0.166384
O O12 0.953142 0.977935 0.341789
O O13 0.817815 0.750000 0.567006
O O14 0.759352 0.466203 0.683956
O O15 0.806829 0.553236 0.445438
O O16 0.332728 0.750000 0.082221
O O17 0.419332 0.015627 0.955932
O O18 0.493629 0.750000 0.100366
O O19 0.379150 0.523982 0.333606
O O20 0.500000 0.500000 0.000000
O O21 0.690737 0.750000 0.530794
#
# Coordination Sequence:
#
# PCOD8076079 Si02
#       8
#     4   4   4   4   4   4   4   4
#     4  10  21  37  58  84 116 153 199 246 299 361
#     4  10  22  40  61  87 120 158 199 249 304 359
#     4  10  21  38  60  87 122 158 199 249 302 357
#     4   9  20  41  65  89 119 159 203 252 306 357
#     4  10  22  41  64  88 120 159 204 255 303 356
#     4  12  25  40  62  91 122 160 204 248 300 364
#     4  12  24  41  63  88 123 161 200 249 302 358
#     4  11  23  39  61  90 123 162 205 248 300 359
#
# _framework density 19.797205999999999
#
# number of rings (size 3 to 8) (size 9 to 14) (size 15 to 20)
#    0.000    1.500    1.250    3.750    1.750    4.000 
#    0.000    0.000    0.000    0.000    0.000    0.000 
#    0.000    0.000    0.000    0.000    0.000    0.000 
#
# Total GULP energy -397013.857275 kJ/mol
# GULP energy per Si atom -12406.683040 kJ/mol
# Density = 1.975215 g / cm^3
# Si number density = 19.797206 Si / 1000 Ang^3
#
#
#
# Elastic Constant Matrix: (Units=GPa)
#
#
# Indices 1 2 3 4 5 6 
#
# 1 107.3634 45.4883 26.0606 0.0000 -4.6533 0.0000
# 2 45.4883 115.6633 25.9539 0.0000 -3.6300 0.0000
# 3 26.0606 25.9539 58.1008 0.0000 -23.8559 0.0000
# 4 0.0000 0.0000 0.0000 29.4021 0.0000 1.9472
# 5 -4.6533 -3.6300 -23.8559 0.0000 36.4662 0.0000
# 6 0.0000 0.0000 0.0000 1.9472 0.0000 36.3339
#
#
#
# Elastic Compliance Matrix: (Units=1/GPa)
#
#
# Indices 1 2 3 4 5 6 
#
# 1 0.011887 -0.003751 -0.004357 0.000000 -0.001707 0.000000
# 2 -0.003751 0.010967 -0.004054 0.000000 -0.002039 0.000000
# 3 -0.004357 -0.004054 0.028142 0.000000 0.017451 0.000000
# 4 0.000000 0.000000 0.000000 0.034132 0.000000 -0.001829
# 5 -0.001707 -0.002039 0.017451 0.000000 0.038418 0.000000
# 6 0.000000 0.000000 0.000000 -0.001829 0.000000 0.027621
#
#
# Mechanical properties :
#
#
# Convention : Reuss Voigt Hill
#
# Bulk Modulus (GPa) = 37.49217 52.90369 45.19793
# Shear Modulus (GPa) = 27.11795 32.68206 29.90001
#
# Velocity S-wave (km/s) = 3.70508 4.06746 3.89049
# Velocity P-wave (km/s) = 6.10596 6.98855 6.56211
#
# Compressibility (1/GPa) = 0.02667223
#
# Stress axis : x y z
#
# Youngs Moduli (GPa) = 84.12575 91.18679 35.53444
#
# Poissons Ratio (x) = 0.34202 0.15483
# Poissons Ratio (y) = 0.31554 0.14404
# Poissons Ratio (z) = 0.36655 0.36963
#
# Static dielectric constant tensor:
#      x y z
#    x 3.700300 0.000000 -0.043860 
#    y 0.000000 3.705730 0.000000 
#    z -0.043860 0.000000 3.586210 
# 
# 
# High freq. dielectric constant tensor:
#      x y z
#    x 1.781760 0.000000 -0.002350 
#    y 0.000000 1.781300 0.000000 
#    z -0.002350 0.000000 1.769790 
# 
# From -- ./inp_files/55530.got.cif
#   From: 2010.06.25/outbox.cif.g09.slc.cpg/sg11_28_cif.got.tgz:55530.got - 2010.06.27 23:14:04.
