data_PCOD8076085
_publ_section_title
;
Structure prediction by ZEFSAII (Michael W. Deem and Ramdas Pophale) SiO2 
 PCOD8076085
Probable space group: P 21/M
;
_chemical_formula_sum "Si O2"
_cell_formula_units_Z 28
_cell_length_a 15.729422
_cell_length_b 8.671781
_cell_length_c 21.067001
_cell_angle_alpha 90.000000
_cell_angle_beta 150.916301
_cell_angle_gamma 90.000000
_cell_volume 1396.810786
_symmetry_space_group_name_H-M "P 21/M"
_symmetry_group_IT_number 11
_symmetry_cell_setting 'monoclinic'
loop_
_space_group_symop_operation_xyz
x,y,z
-x,1/2+y,-z
-x,-y,-z
x,1/2-y,z
loop_
_atom_site_type_symbol
_atom_site_label
_atom_site_fract_x
_atom_site_fract_y
_atom_site_fract_z
Si Si1 0.417019 0.923417 0.540039
Si Si2 0.058722 0.069736 0.604524
Si Si3 0.250111 0.926062 0.299029
Si Si4 0.269967 0.428146 0.562116
Si Si5 0.061139 0.933918 0.972294
Si Si6 0.438018 0.432568 0.893017
Si Si7 0.422605 0.932453 0.148366
O O1 0.421528 0.750000 0.571044
O O2 0.279525 0.932451 0.393182
O O3 0.610336 0.967303 0.644852
O O4 0.361448 0.049316 0.554638
O O5 0.076997 0.250000 0.607397
O O6 0.243727 0.004193 0.750192
O O7 0.000000 0.000000 0.500000
O O8 0.908146 0.026332 0.556210
O O9 0.261735 0.750000 0.281464
O O10 0.062909 0.999875 0.163313
O O11 0.224362 0.250000 0.543245
O O12 0.400541 0.490673 0.701940
O O13 0.053852 0.750000 0.970188
O O14 0.253128 0.995136 0.075959
O O15 0.000000 0.000000 0.000000
O O16 0.436544 0.250000 0.898707
O O17 0.567117 0.484072 0.919131
O O18 0.500000 0.500000 0.000000
O O19 0.417386 0.750000 0.149095
#
# Coordination Sequence:
#
# PCOD8076085 Si02
#       7
#     4   4   4   4   4   4   4
#     4  10  21  37  58  86 117 152 199 251 300 356
#     4  11  22  39  63  89 121 156 199 252 303 363
#     4  10  21  38  57  80 118 158 196 246 303 359
#     4  11  21  37  62  89 119 155 199 248 304 362
#     4  11  22  37  60  86 117 157 202 249 302 364
#     4  10  22  42  63  88 123 160 203 254 310 369
#     4   9  20  39  59  82 116 157 197 245 301 361
#
# _framework density 20.045665
#
# number of rings (size 3 to 8) (size 9 to 14) (size 15 to 20)
#    0.000    1.714    1.429    3.000    0.000    5.143 
#    0.000    6.429    0.000    0.000    0.000    0.000 
#    0.000    0.000    0.000    0.000    0.000    0.000 
#
# Total GULP energy -347174.969575 kJ/mol
# GULP energy per Si atom -12399.106056 kJ/mol
# Density = 2.000004 g / cm^3
# Si number density = 20.045665 Si / 1000 Ang^3
#
#
#
# Elastic Constant Matrix: (Units=GPa)
#
#
# Indices 1 2 3 4 5 6 
#
# 1 128.9271 24.0244 60.7777 0.0000 -2.0089 0.0000
# 2 24.0244 62.3974 39.4991 0.0000 -2.9774 0.0000
# 3 60.7777 39.4991 139.3683 0.0000 5.7245 0.0000
# 4 0.0000 0.0000 0.0000 28.8655 0.0000 -1.7453
# 5 -2.0089 -2.9774 5.7245 0.0000 24.9180 0.0000
# 6 0.0000 0.0000 0.0000 -1.7453 0.0000 34.5344
#
#
#
# Elastic Compliance Matrix: (Units=1/GPa)
#
#
# Indices 1 2 3 4 5 6 
#
# 1 0.009911 -0.001173 -0.004055 0.000000 0.001590 0.000000
# 2 -0.001173 0.020002 -0.005301 0.000000 0.003513 0.000000
# 3 -0.004055 -0.005301 0.010585 0.000000 -0.003392 0.000000
# 4 0.000000 0.000000 0.000000 0.034750 0.000000 0.001756
# 5 0.001590 0.003513 -0.003392 0.000000 0.041459 0.000000
# 6 0.000000 0.000000 0.000000 0.001756 0.000000 0.029045
#
#
# Mechanical properties :
#
#
# Convention : Reuss Voigt Hill
#
# Bulk Modulus (GPa) = 51.44319 64.36614 57.90466
# Shear Modulus (GPa) = 28.85310 31.42300 30.13805
#
# Velocity S-wave (km/s) = 3.79802 3.96355 3.88167
# Velocity P-wave (km/s) = 6.70462 7.28874 7.00278
#
# Compressibility (1/GPa) = 0.01943892
#
# Stress axis : x y z
#
# Youngs Moduli (GPa) = 100.89446 49.99600 94.46910
#
# Poissons Ratio (x) = 0.05866 0.38308
# Poissons Ratio (y) = 0.11837 0.50082
# Poissons Ratio (z) = 0.40914 0.26505
#
# Static dielectric constant tensor:
#      x y z
#    x 3.873400 0.000000 0.238390 
#    y 0.000000 3.615920 0.000000 
#    z 0.238390 0.000000 4.033160 
# 
# 
# High freq. dielectric constant tensor:
#      x y z
#    x 1.788270 0.000000 0.002960 
#    y 0.000000 1.772980 0.000000 
#    z 0.002960 0.000000 1.787370 
# 
# From -- ./inp_files/65464.got.cif
#   From: 2010.06.25/outbox.cif.g09.slc.cpg/sg11_33_cif.got.tgz:65464.got - 2010.06.27 23:14:04.
