data_PCOD8076168
_publ_section_title
;
Structure prediction by ZEFSAII (Michael W. Deem and Ramdas Pophale) SiO2 
 PCOD8076168
Probable space group: P 21/M
;
_chemical_formula_sum "Si O2"
_cell_formula_units_Z 28
_cell_length_a 14.580909
_cell_length_b 8.937879
_cell_length_c 12.433507
_cell_angle_alpha 90.000000
_cell_angle_beta 60.069009
_cell_angle_gamma 90.000000
_cell_volume 1404.251594
_symmetry_space_group_name_H-M "P 21/M"
_symmetry_group_IT_number 11
_symmetry_cell_setting 'monoclinic'
loop_
_space_group_symop_operation_xyz
x,y,z
-x,1/2+y,-z
-x,-y,-z
x,1/2-y,z
loop_
_atom_site_type_symbol
_atom_site_label
_atom_site_fract_x
_atom_site_fract_y
_atom_site_fract_z
Si Si1 0.995536 0.917903 0.693162
Si Si2 0.781870 0.573466 0.714719
Si Si3 0.087328 0.079412 0.018736
Si Si4 0.785900 0.926218 0.470583
Si Si5 0.608647 0.078587 0.963036
Si Si6 0.610432 0.572119 0.405658
Si Si7 0.693455 0.077748 0.147131
O O1 0.030976 0.750000 0.643119
O O2 0.903854 0.973650 0.665308
O O3 0.945717 0.924723 0.839315
O O4 0.097631 0.020678 0.628440
O O5 0.768081 0.750000 0.740401
O O6 0.754008 0.522967 0.609643
O O7 0.705102 0.493264 0.842401
O O8 0.105121 0.250000 0.969003
O O9 0.191461 0.983674 0.943263
O O10 0.000000 0.000000 0.000000
O O11 0.789465 0.750000 0.462153
O O12 0.699297 0.988100 0.437293
O O13 0.601498 0.250000 0.932128
O O14 0.623974 0.061843 0.081148
O O15 0.500000 0.000000 0.000000
O O16 0.500000 0.500000 0.500000
O O17 0.600821 0.750000 0.416162
O O18 0.639036 0.521122 0.269812
O O19 0.700974 0.250000 0.180243
#
# Coordination Sequence:
#
# PCOD8076168 Si02
#       7
#     4   4   4   4   4   4   4
#     4  10  21  37  60  90 124 161 203 250 304 368
#     4  10  21  41  64  91 127 163 202 253 311 372
#     4  11  22  37  60  91 126 166 209 256 311 370
#     4  10  23  40  62  90 124 164 205 253 308 366
#     4  11  25  42  65  95 125 162 208 260 316 376
#     4  11  25  44  65  92 125 165 211 261 315 370
#     4  11  24  43  65  92 125 163 209 260 312 373
#
# _framework density 19.939447999999999
#
# number of rings (size 3 to 8) (size 9 to 14) (size 15 to 20)
#    0.000    1.429    1.429    3.000    2.000    7.429 
#    0.000    0.000    0.000    0.000    0.000    0.000 
#    0.000    0.000    0.000    0.000    0.000    0.000 
#
# Total GULP energy -347297.527602 kJ/mol
# GULP energy per Si atom -12403.483129 kJ/mol
# Density = 1.989407 g / cm^3
# Si number density = 19.939448 Si / 1000 Ang^3
#
#
#
# Elastic Constant Matrix: (Units=GPa)
#
#
# Indices 1 2 3 4 5 6 
#
# 1 139.9902 55.6663 46.4561 0.0000 -0.7069 0.0000
# 2 55.6663 71.6214 33.9711 0.0000 5.2672 0.0000
# 3 46.4561 33.9711 77.3378 0.0000 17.5760 0.0000
# 4 0.0000 0.0000 0.0000 31.9603 0.0000 -1.5600
# 5 -0.7069 5.2672 17.5760 0.0000 15.7995 0.0000
# 6 0.0000 0.0000 0.0000 -1.5600 0.0000 31.8405
#
#
#
# Elastic Compliance Matrix: (Units=1/GPa)
#
#
# Indices 1 2 3 4 5 6 
#
# 1 0.012188 -0.007140 -0.006490 0.000000 0.010146 0.000000
# 2 -0.007140 0.021980 -0.004855 0.000000 -0.002246 0.000000
# 3 -0.006490 -0.004855 0.024974 0.000000 -0.026453 0.000000
# 4 0.000000 0.000000 0.000000 0.031364 0.000000 0.001537
# 5 0.010146 -0.002246 -0.026453 0.000000 0.093924 0.000000
# 6 0.000000 0.000000 0.000000 0.001537 0.000000 0.031482
#
#
# Mechanical properties :
#
#
# Convention : Reuss Voigt Hill
#
# Bulk Modulus (GPa) = 45.10751 62.34849 53.72800
# Shear Modulus (GPa) = 19.21062 26.11047 22.66054
#
# Velocity S-wave (km/s) = 3.10731 3.62261 3.37481
# Velocity P-wave (km/s) = 5.96198 6.98817 6.49537
#
# Compressibility (1/GPa) = 0.02216926
#
# Stress axis : x y z
#
# Youngs Moduli (GPa) = 82.04934 45.49562 40.04223
#
# Poissons Ratio (x) = 0.32486 0.25989
# Poissons Ratio (y) = 0.58586 0.19442
# Poissons Ratio (z) = 0.53254 0.22090
#
# Static dielectric constant tensor:
#      x y z
#    x 3.933320 0.000000 0.365750 
#    y 0.000000 3.669720 0.000000 
#    z 0.365750 0.000000 3.816170 
# 
# 
# High freq. dielectric constant tensor:
#      x y z
#    x 1.794350 0.000000 0.004880 
#    y 0.000000 1.781740 0.000000 
#    z 0.004880 0.000000 1.788360 
# 
# From -- ./inp_files/37934.got.cif
#   From: 2010.06.25/outbox.cif.g09.slc.cpg/sg11_19_cif.got.tgz:37934.got - 2010.06.27 23:14:04.
