data_PCOD8076980
_publ_section_title
;
Structure prediction by ZEFSAII (Michael W. Deem and Ramdas Pophale) SiO2 
 PCOD8076980
Probable space group: P 21/M
;
_chemical_formula_sum "Si O2"
_cell_formula_units_Z 32
_cell_length_a 25.212359
_cell_length_b 9.249046
_cell_length_c 20.540665
_cell_angle_alpha 90.000000
_cell_angle_beta 20.561406
_cell_angle_gamma 90.000000
_cell_volume 1682.259882
_symmetry_space_group_name_H-M "P 21/M"
_symmetry_group_IT_number 11
_symmetry_cell_setting 'monoclinic'
loop_
_space_group_symop_operation_xyz
x,y,z
-x,1/2+y,-z
-x,-y,-z
x,1/2-y,z
loop_
_atom_site_type_symbol
_atom_site_label
_atom_site_fract_x
_atom_site_fract_y
_atom_site_fract_z
Si Si1 0.981177 0.416988 0.826059
Si Si2 0.405420 0.419370 0.517333
Si Si3 0.285972 0.584008 0.771650
Si Si4 0.574156 0.918948 0.105099
Si Si5 0.610345 0.911472 0.917251
Si Si6 0.676895 0.580641 0.531121
Si Si7 0.949855 0.914858 0.494488
Si Si8 0.111186 0.079398 0.195264
O O1 0.968375 0.250000 0.817576
O O2 0.928353 0.523937 0.830558
O O3 0.149753 0.456611 0.653732
O O4 0.873717 0.445655 0.011061
O O5 0.375322 0.250000 0.555240
O O6 0.291710 0.491686 0.699301
O O7 0.578357 0.460621 0.335325
O O8 0.367079 0.478669 0.489689
O O9 0.304749 0.750000 0.729947
O O10 0.538103 0.750000 0.148513
O O11 0.425479 0.002997 0.297785
O O12 0.618707 0.972009 0.981350
O O13 0.714256 0.956733 0.990941
O O14 0.546301 0.750000 0.993964
O O15 0.770383 0.915482 0.698265
O O16 0.500000 0.000000 0.000000
O O17 0.644688 0.750000 0.573164
O O18 0.011405 0.750000 0.425900
O O19 0.000000 0.000000 0.500000
O O20 0.005287 0.995830 0.366974
O O21 0.079576 0.250000 0.237640
#
# Coordination Sequence:
#
# PCOD8076980 Si02
#       8
#     4   4   4   4   4   4   4   4
#     4  10  22  39  57  84 118 151 190 236 284 337
#     4   9  18  34  56  82 112 147 189 232 276 333
#     4   9  18  34  57  82 112 148 189 233 279 331
#     4  10  22  41  59  81 114 149 189 238 283 336
#     4  10  23  41  59  84 117 150 188 235 286 341
#     4  10  22  38  57  83 116 153 191 233 283 340
#     4  11  22  40  63  88 117 148 190 239 287 341
#     4  11  23  40  61  85 114 150 193 239 287 339
#
# _framework density 19.022030000000001
#
# number of rings (size 3 to 8) (size 9 to 14) (size 15 to 20)
#    0.000    2.000    1.250    1.500    1.750    5.500 
#    0.000    2.500    0.000    0.000    0.000    0.000 
#    0.000    0.000    0.000    0.000    0.000    0.000 
#
# Total GULP energy -396900.843564 kJ/mol
# GULP energy per Si atom -12403.151361 kJ/mol
# Density = 1.897874 g / cm^3
# Si number density = 19.022030 Si / 1000 Ang^3
#
#
#
# Elastic Constant Matrix: (Units=GPa)
#
#
# Indices 1 2 3 4 5 6 
#
# 1 83.5747 38.4371 38.0515 0.0000 -6.7354 0.0000
# 2 38.4371 71.1944 47.9272 0.0000 -1.1247 0.0000
# 3 38.0515 47.9272 129.2280 0.0000 0.9821 0.0000
# 4 0.0000 0.0000 0.0000 35.0200 0.0000 4.4754
# 5 -6.7354 -1.1247 0.9821 0.0000 27.0931 0.0000
# 6 0.0000 0.0000 0.0000 4.4754 0.0000 35.8998
#
#
#
# Elastic Compliance Matrix: (Units=1/GPa)
#
#
# Indices 1 2 3 4 5 6 
#
# 1 0.016721 -0.007505 -0.002170 0.000000 0.003924 0.000000
# 2 -0.007505 0.022117 -0.005987 0.000000 -0.000731 0.000000
# 3 -0.002170 -0.005987 0.010607 0.000000 -0.001173 0.000000
# 4 0.000000 0.000000 0.000000 0.029017 0.000000 -0.003617
# 5 0.003924 -0.000731 -0.001173 0.000000 0.037897 0.000000
# 6 0.000000 0.000000 0.000000 -0.003617 0.000000 0.028306
#
#
# Mechanical properties :
#
#
# Convention : Reuss Voigt Hill
#
# Bulk Modulus (GPa) = 55.18596 59.20318 57.19457
# Shear Modulus (GPa) = 27.46804 30.24133 28.85468
#
# Velocity S-wave (km/s) = 3.80414 3.99156 3.89898
# Velocity P-wave (km/s) = 6.95485 7.24117 7.09945
#
# Compressibility (1/GPa) = 0.01812055
#
# Stress axis : x y z
#
# Youngs Moduli (GPa) = 59.80450 45.21474 94.28061
#
# Poissons Ratio (x) = 0.33932 0.20460
# Poissons Ratio (y) = 0.44881 0.56447
# Poissons Ratio (z) = 0.12978 0.27071
#
# Static dielectric constant tensor:
#      x y z
#    x 3.381480 0.000000 -0.185230 
#    y 0.000000 3.455020 0.000000 
#    z -0.185230 0.000000 3.191740 
# 
# 
# High freq. dielectric constant tensor:
#      x y z
#    x 1.742090 0.000000 0.003230 
#    y 0.000000 1.737420 0.000000 
#    z 0.003230 0.000000 1.746890 
# 
# From -- ./inp_files/67043.got.cif
#   From: 2010.06.25/outbox.cif.g09.slc.cpg/sg11_34_cif.got.tgz:67043.got - 2010.06.27 23:14:04.
