data_PCOD8076351
_publ_section_title
;
Structure prediction by ZEFSAII (Michael W. Deem and Ramdas Pophale) SiO2 
 PCOD8076351
Probable space group: P 21/M
;
_chemical_formula_sum "Si O2"
_cell_formula_units_Z 28
_cell_length_a 11.327822
_cell_length_b 22.231586
_cell_length_c 8.001341
_cell_angle_alpha 90.000000
_cell_angle_beta 142.158158
_cell_angle_gamma 90.000000
_cell_volume 1236.183178
_symmetry_space_group_name_H-M "P 21/M"
_symmetry_group_IT_number 11
_symmetry_cell_setting 'monoclinic'
loop_
_space_group_symop_operation_xyz
x,y,z
-x,1/2+y,-z
-x,-y,-z
x,1/2-y,z
loop_
_atom_site_type_symbol
_atom_site_label
_atom_site_fract_x
_atom_site_fract_y
_atom_site_fract_z
Si Si1 0.256963 0.042575 0.115527
Si Si2 0.553360 0.364167 0.306943
Si Si3 0.773128 0.410545 0.009006
Si Si4 0.764094 0.680710 0.276297
Si Si5 0.500093 0.815710 0.412489
Si Si6 0.934565 0.102936 0.545456
Si Si7 0.162037 0.119844 0.306112
O O1 0.067067 0.055527 0.792263
O O2 0.300379 0.971752 0.158090
O O3 0.438840 0.076608 0.239239
O O4 0.223286 0.059103 0.274509
O O5 0.589975 0.320894 0.505196
O O6 0.758983 0.381910 0.467963
O O7 0.437207 0.325487 0.042511
O O8 0.855539 0.425394 0.284373
O O9 0.931747 0.378915 0.064889
O O10 0.595245 0.364324 0.819955
O O11 0.790322 0.750000 0.366714
O O12 0.755237 0.631241 0.414996
O O13 0.942927 0.663359 0.356115
O O14 0.459582 0.750000 0.292742
O O15 0.732937 0.827288 0.684287
#
# Coordination Sequence:
#
# PCOD8076351 Si02
#       7
#     4   4   4   4   4   4   4
#     4  10  22  40  62  90 123 159 203 250 305 365
#     4  10  22  40  61  88 123 160 200 251 304 358
#     4  11  23  39  64  92 120 160 203 250 304 363
#     4  10  21  38  60  87 119 160 207 250 300 361
#     4  11  24  40  60  88 119 156 202 249 304 366
#     4  10  22  39  59  88 121 159 201 248 304 361
#     4  10  22  39  61  87 120 157 197 251 304 354
#
# _framework density 22.650364
#
# number of rings (size 3 to 8) (size 9 to 14) (size 15 to 20)
#    0.000    1.714    0.000    3.429    0.000    8.000 
#    0.000    0.714    0.000    0.000    0.000    0.000 
#    0.000    0.000    0.000    0.000    0.000    0.000 
#
# Total GULP energy -346963.556299 kJ/mol
# GULP energy per Si atom -12391.555582 kJ/mol
# Density = 2.259881 g / cm^3
# Si number density = 22.650364 Si / 1000 Ang^3
#
#
#
# Elastic Constant Matrix: (Units=GPa)
#
#
# Indices 1 2 3 4 5 6 
#
# 1 136.3327 32.5035 24.0826 0.0000 12.7912 0.0000
# 2 32.5035 136.5706 44.3559 0.0000 9.0968 0.0000
# 3 24.0826 44.3559 64.5610 0.0000 -11.7250 0.0000
# 4 0.0000 0.0000 0.0000 28.8694 0.0000 -1.1139
# 5 12.7912 9.0968 -11.7250 0.0000 33.8836 0.0000
# 6 0.0000 0.0000 0.0000 -1.1139 0.0000 14.8941
#
#
#
# Elastic Compliance Matrix: (Units=1/GPa)
#
#
# Indices 1 2 3 4 5 6 
#
# 1 0.008503 -0.000587 -0.003545 0.000000 -0.004279 0.000000
# 2 -0.000587 0.010368 -0.007863 0.000000 -0.005283 0.000000
# 3 -0.003545 -0.007863 0.024372 0.000000 0.011883 0.000000
# 4 0.000000 0.000000 0.000000 0.034739 0.000000 0.002598
# 5 -0.004279 -0.005283 0.011883 0.000000 0.036659 0.000000
# 6 0.000000 0.000000 0.000000 0.002598 0.000000 0.067335
#
#
# Mechanical properties :
#
#
# Convention : Reuss Voigt Hill
#
# Bulk Modulus (GPa) = 51.94584 59.92759 55.93671
# Shear Modulus (GPa) = 23.54220 31.29758 27.41989
#
# Velocity S-wave (km/s) = 3.22743 3.72125 3.48310
# Velocity P-wave (km/s) = 6.07223 6.70662 6.39729
#
# Compressibility (1/GPa) = 0.01925082
#
# Stress axis : x y z
#
# Youngs Moduli (GPa) = 117.60922 96.45278 41.03003
#
# Poissons Ratio (x) = 0.05663 0.14547
# Poissons Ratio (y) = 0.06905 0.32264
# Poissons Ratio (z) = 0.41698 0.75845
#
# Static dielectric constant tensor:
#      x y z
#    x 4.392630 0.000000 0.023460 
#    y 0.000000 3.820460 0.000000 
#    z 0.023460 0.000000 4.102260 
# 
# 
# High freq. dielectric constant tensor:
#      x y z
#    x 1.912120 0.000000 0.002860 
#    y 0.000000 1.868560 0.000000 
#    z 0.002860 0.000000 1.894410 
# 
# From -- ./inp_files/19449.got.cif
#   From: 2010.06.25/outbox.cif.g09.slc.cpg/sg11_10_cif.got.tgz:19449.got - 2010.06.27 23:14:04.
