data_PCOD8076735
_publ_section_title
;
Structure prediction by ZEFSAII (Michael W. Deem and Ramdas Pophale) SiO2 
 PCOD8076735
Probable space group: P 21/M
;
_chemical_formula_sum "Si O2"
_cell_formula_units_Z 24
_cell_length_a 9.105452
_cell_length_b 15.270648
_cell_length_c 16.034475
_cell_angle_alpha 90.000000
_cell_angle_beta 33.796423
_cell_angle_gamma 90.000000
_cell_volume 1240.163239
_symmetry_space_group_name_H-M "P 21/M"
_symmetry_group_IT_number 11
_symmetry_cell_setting 'monoclinic'
loop_
_space_group_symop_operation_xyz
x,y,z
-x,1/2+y,-z
-x,-y,-z
x,1/2-y,z
loop_
_atom_site_type_symbol
_atom_site_label
_atom_site_fract_x
_atom_site_fract_y
_atom_site_fract_z
Si Si1 0.461119 0.146917 0.650775
Si Si2 0.598324 0.554446 0.876909
Si Si3 0.108042 0.850004 0.046482
Si Si4 0.691894 0.003179 0.653871
Si Si5 0.329752 0.852178 0.767074
Si Si6 0.874128 0.351143 0.317272
O O1 0.475012 0.250000 0.666246
O O2 0.608084 0.126790 0.494363
O O3 0.160763 0.108329 0.788392
O O4 0.598746 0.094808 0.660266
O O5 0.613148 0.494453 0.788050
O O6 0.882050 0.595852 0.760783
O O7 0.500000 0.500000 0.000000
O O8 0.373560 0.626411 0.969326
O O9 0.066743 0.750000 0.082812
O O10 0.127723 0.870491 0.938339
O O11 0.578188 0.916859 0.660591
O O12 0.000000 0.000000 0.500000
O O13 0.425313 0.750000 0.721840
O O14 0.177057 0.876215 0.754459
O O15 0.948290 0.250000 0.291223
#
# Coordination Sequence:
#
# PCOD8076735 Si02
#       6
#     4   4   4   4   4   4
#     4  10  22  39  62  87 118 157 200 246 297 352
#     4  11  24  37  58  90 121 154 198 246 300 351
#     4   9  20  40  61  83 115 157 198 241 294 352
#     4  11  23  40  59  88 122 159 199 243 299 354
#     4   9  21  38  63  88 116 156 200 243 294 355
#     4  10  21  40  62  87 118 157 198 243 295 355
#
# _framework density 19.35229
#
# number of rings (size 3 to 8) (size 9 to 14) (size 15 to 20)
#    0.000    2.000    1.667    0.500    4.667    4.667 
#    0.000    0.833    0.000    0.000    0.000    0.000 
#    0.000    0.000    0.000    0.000    0.000    0.000 
#
# Total GULP energy -297519.467431 kJ/mol
# GULP energy per Si atom -12396.644476 kJ/mol
# Density = 1.930824 g / cm^3
# Si number density = 19.352290 Si / 1000 Ang^3
#
#
#
# Elastic Constant Matrix: (Units=GPa)
#
#
# Indices 1 2 3 4 5 6 
#
# 1 121.6142 40.8221 64.4421 0.0000 3.3228 0.0000
# 2 40.8221 56.0180 39.6851 0.0000 0.7237 0.0000
# 3 64.4421 39.6851 130.3104 0.0000 -11.3520 0.0000
# 4 0.0000 0.0000 0.0000 28.7561 0.0000 -1.9041
# 5 3.3228 0.7237 -11.3520 0.0000 42.2079 0.0000
# 6 0.0000 0.0000 0.0000 -1.9041 0.0000 35.5053
#
#
#
# Elastic Compliance Matrix: (Units=1/GPa)
#
#
# Indices 1 2 3 4 5 6 
#
# 1 0.012764 -0.005953 -0.004688 0.000000 -0.002164 0.000000
# 2 -0.005953 0.025760 -0.005017 0.000000 -0.001322 0.000000
# 3 -0.004688 -0.005017 0.011837 0.000000 0.003639 0.000000
# 4 0.000000 0.000000 0.000000 0.034899 0.000000 0.001872
# 5 -0.002164 -0.001322 0.003639 0.000000 0.024864 0.000000
# 6 0.000000 0.000000 0.000000 0.001872 0.000000 0.028265
#
#
# Mechanical properties :
#
#
# Convention : Reuss Voigt Hill
#
# Bulk Modulus (GPa) = 52.50091 66.42677 59.46384
# Shear Modulus (GPa) = 28.40067 32.16010 30.28038
#
# Velocity S-wave (km/s) = 3.83503 4.08097 3.95991
# Velocity P-wave (km/s) = 6.84090 7.52365 7.19038
#
# Compressibility (1/GPa) = 0.01904729
#
# Stress axis : x y z
#
# Youngs Moduli (GPa) = 78.34579 38.81960 84.48102
#
# Poissons Ratio (x) = 0.23107 0.39603
# Poissons Ratio (y) = 0.46636 0.42381
# Poissons Ratio (z) = 0.36727 0.19474
#
# Static dielectric constant tensor:
#      x y z
#    x 3.333690 0.000000 0.328830 
#    y 0.000000 3.527480 0.000000 
#    z 0.328830 0.000000 3.487830 
# 
# 
# High freq. dielectric constant tensor:
#      x y z
#    x 1.753840 0.000000 -0.001120 
#    y 0.000000 1.751180 0.000000 
#    z -0.001120 0.000000 1.766900 
# 
# From -- ./inp_files/22816.got.cif
#   From: 2010.06.25/outbox.cif.g09.slc.cpg/sg11_12_cif.got.tgz:22816.got - 2010.06.27 23:14:04.
