data_PCOD8076804
_publ_section_title
;
Structure prediction by ZEFSAII (Michael W. Deem and Ramdas Pophale) SiO2 
 PCOD8076804
Probable space group: P 21/M
;
_chemical_formula_sum "Si O2"
_cell_formula_units_Z 28
_cell_length_a 15.522142
_cell_length_b 8.639232
_cell_length_c 11.687275
_cell_angle_alpha 90.000000
_cell_angle_beta 59.335893
_cell_angle_gamma 90.000000
_cell_volume 1348.109967
_symmetry_space_group_name_H-M "P 21/M"
_symmetry_group_IT_number 11
_symmetry_cell_setting 'monoclinic'
loop_
_space_group_symop_operation_xyz
x,y,z
-x,1/2+y,-z
-x,-y,-z
x,1/2-y,z
loop_
_atom_site_type_symbol
_atom_site_label
_atom_site_fract_x
_atom_site_fract_y
_atom_site_fract_z
Si Si1 0.793612 0.067691 0.375521
Si Si2 0.480286 0.573442 0.194360
Si Si3 0.861226 0.927097 0.853234
Si Si4 0.574517 0.930171 0.541189
Si Si5 0.891794 0.571367 0.088101
Si Si6 0.033490 0.069239 0.597939
Si Si7 0.648957 0.571775 0.902987
O O1 0.801273 0.250000 0.380231
O O2 0.680206 0.015697 0.467699
O O3 0.830162 0.017832 0.225657
O O4 0.860052 0.996644 0.432715
O O5 0.471323 0.750000 0.243265
O O6 0.476960 0.456294 0.301776
O O7 0.388008 0.539444 0.172270
O O8 0.585103 0.542681 0.060583
O O9 0.892662 0.750000 0.807609
O O10 0.763084 0.973476 0.849343
O O11 0.836390 0.948870 0.004009
O O12 0.952083 0.034586 0.751368
O O13 0.591069 0.750000 0.505784
O O14 0.500000 0.000000 0.500000
O O15 0.900116 0.750000 0.119104
O O16 0.000000 0.500000 0.000000
O O17 0.046046 0.250000 0.572925
O O18 0.000000 0.000000 0.500000
O O19 0.638071 0.750000 0.871690
#
# Coordination Sequence:
#
# PCOD8076804 Si02
#       7
#     4   4   4   4   4   4   4
#     4  12  26  46  69  97 131 173 222 273 329 392
#     4  10  21  40  65  94 128 168 215 267 322 382
#     4  10  22  40  64  94 129 169 215 265 322 387
#     4  12  27  47  69  96 130 172 220 271 330 393
#     4  11  22  39  65  95 129 169 213 264 320 382
#     4  12  26  44  67  96 133 176 221 271 328 394
#     4   9  20  39  64  93 127 169 212 263 323 381
#
# _framework density 20.769818999999998
#
# number of rings (size 3 to 8) (size 9 to 14) (size 15 to 20)
#    0.000    1.143    1.429    4.714    4.000    1.714 
#    0.000    0.000    0.000    0.000    0.000    0.000 
#    0.000    0.000    0.000    0.000    0.000    0.000 
#
# Total GULP energy -347352.762029 kJ/mol
# GULP energy per Si atom -12405.455787 kJ/mol
# Density = 2.072255 g / cm^3
# Si number density = 20.769819 Si / 1000 Ang^3
#
#
#
# Elastic Constant Matrix: (Units=GPa)
#
#
# Indices 1 2 3 4 5 6 
#
# 1 129.8856 51.4093 40.4452 0.0000 -2.1928 0.0000
# 2 51.4093 141.4536 38.6944 0.0000 5.4642 0.0000
# 3 40.4452 38.6944 83.9498 0.0000 11.7625 0.0000
# 4 0.0000 0.0000 0.0000 39.7266 0.0000 3.1648
# 5 -2.1928 5.4642 11.7625 0.0000 28.9474 0.0000
# 6 0.0000 0.0000 0.0000 3.1648 0.0000 34.0484
#
#
#
# Elastic Compliance Matrix: (Units=1/GPa)
#
#
# Indices 1 2 3 4 5 6 
#
# 1 0.010056 -0.002666 -0.004022 0.000000 0.002899 0.000000
# 2 -0.002666 0.008796 -0.002660 0.000000 -0.000781 0.000000
# 3 -0.004022 -0.002660 0.015957 0.000000 -0.006286 0.000000
# 4 0.000000 0.000000 0.000000 0.025360 0.000000 -0.002357
# 5 0.002899 -0.000781 -0.006286 0.000000 0.037467 0.000000
# 6 0.000000 0.000000 0.000000 -0.002357 0.000000 0.029589
#
#
# Mechanical properties :
#
#
# Convention : Reuss Voigt Hill
#
# Bulk Modulus (GPa) = 62.06775 68.48743 65.27759
# Shear Modulus (GPa) = 33.04857 35.52715 34.28786
#
# Velocity S-wave (km/s) = 3.99329 4.14033 4.06747
# Velocity P-wave (km/s) = 7.15614 7.47680 7.31822
#
# Compressibility (1/GPa) = 0.01611143
#
# Stress axis : x y z
#
# Youngs Moduli (GPa) = 99.44514 113.68206 62.67022
#
# Poissons Ratio (x) = 0.30313 0.25205
# Poissons Ratio (y) = 0.26517 0.16673
# Poissons Ratio (z) = 0.39996 0.30244
#
# Static dielectric constant tensor:
#      x y z
#    x 3.882820 0.000000 0.142170 
#    y 0.000000 3.755070 0.000000 
#    z 0.142170 0.000000 3.961760 
# 
# 
# High freq. dielectric constant tensor:
#      x y z
#    x 1.823840 0.000000 0.004850 
#    y 0.000000 1.820150 0.000000 
#    z 0.004850 0.000000 1.818910 
# 
# From -- ./inp_files/37867.got.cif
#   From: 2010.06.25/outbox.cif.g09.slc.cpg/sg11_19_cif.got.tgz:37867.got - 2010.06.27 23:14:04.
