data_PCOD8076146
_publ_section_title
;
Structure prediction by ZEFSAII (Michael W. Deem and Ramdas Pophale) SiO2 
 PCOD8076146
Probable space group: P 21/M
;
_chemical_formula_sum "Si O2"
_cell_formula_units_Z 28
_cell_length_a 14.588098
_cell_length_b 14.866250
_cell_length_c 8.830460
_cell_angle_alpha 90.000000
_cell_angle_beta 49.766884
_cell_angle_gamma 90.000000
_cell_volume 1462.004062
_symmetry_space_group_name_H-M "P 21/M"
_symmetry_group_IT_number 11
_symmetry_cell_setting 'monoclinic'
loop_
_space_group_symop_operation_xyz
x,y,z
-x,1/2+y,-z
-x,-y,-z
x,1/2-y,z
loop_
_atom_site_type_symbol
_atom_site_label
_atom_site_fract_x
_atom_site_fract_y
_atom_site_fract_z
Si Si1 0.828233 0.853183 0.207105
Si Si2 0.359805 0.505786 0.103690
Si Si3 0.249707 0.976319 0.537518
Si Si4 0.895286 0.354421 0.111317
Si Si5 0.462737 0.597326 0.487511
Si Si6 0.302708 0.849698 0.914938
Si Si7 0.311915 0.348922 0.931071
O O1 0.793110 0.750000 0.287264
O O2 0.799164 0.872306 0.061377
O O3 0.753470 0.922839 0.389917
O O4 0.968570 0.869961 0.083595
O O5 0.266112 0.514660 0.340813
O O6 0.500000 0.500000 0.000000
O O7 0.335833 0.589395 0.021016
O O8 0.321097 0.415913 0.059895
O O9 0.132932 0.918619 0.713939
O O10 0.360712 0.915910 0.471904
O O11 0.870519 0.250000 0.180012
O O12 0.813129 0.385001 0.055845
O O13 0.500000 0.500000 0.500000
O O14 0.415663 0.653056 0.681028
O O15 0.570319 0.651618 0.299005
O O16 0.278325 0.750000 0.004071
O O17 0.295389 0.250000 0.019264
#
# Coordination Sequence:
#
# PCOD8076146 Si02
#       7
#     4   4   4   4   4   4   4
#     4  10  21  39  63  88 112 146 194 245 288 336
#     4  12  24  39  52  83 128 155 182 231 283 350
#     4  11  21  35  61  83 117 154 189 232 291 337
#     4   9  20  40  64  88 111 143 199 250 282 328
#     4  11  17  36  58  81 112 144 193 245 275 330
#     4  10  21  37  60  83 110 152 195 238 284 329
#     4  11  22  37  59  83 114 154 192 234 291 341
#
# _framework density 19.151790999999999
#
# number of rings (size 3 to 8) (size 9 to 14) (size 15 to 20)
#    0.000    1.429    4.286    1.714    0.000    2.286 
#    0.000    2.857    0.000    5.143    0.000    0.000 
#    0.000    0.000    0.000    0.000    0.000    0.000 
#
# Total GULP energy -347137.068353 kJ/mol
# GULP energy per Si atom -12397.752441 kJ/mol
# Density = 1.910820 g / cm^3
# Si number density = 19.151791 Si / 1000 Ang^3
#
#
#
# Elastic Constant Matrix: (Units=GPa)
#
#
# Indices 1 2 3 4 5 6 
#
# 1 94.1296 46.4192 41.7121 0.0000 8.6779 0.0000
# 2 46.4192 110.3847 44.3501 0.0000 19.5569 0.0000
# 3 41.7121 44.3501 81.4459 0.0000 23.9393 0.0000
# 4 0.0000 0.0000 0.0000 19.3230 0.0000 0.3025
# 5 8.6779 19.5569 23.9393 0.0000 32.1672 0.0000
# 6 0.0000 0.0000 0.0000 0.3025 0.0000 28.3247
#
#
#
# Elastic Compliance Matrix: (Units=1/GPa)
#
#
# Indices 1 2 3 4 5 6 
#
# 1 0.015366 -0.004478 -0.006417 0.000000 0.003352 0.000000
# 2 -0.004478 0.013133 -0.003669 0.000000 -0.004046 0.000000
# 3 -0.006417 -0.003669 0.020989 0.000000 -0.011659 0.000000
# 4 0.000000 0.000000 0.000000 0.051760 0.000000 -0.000553
# 5 0.003352 -0.004046 -0.011659 0.000000 0.041320 0.000000
# 6 0.000000 0.000000 0.000000 -0.000553 0.000000 0.035311
#
#
# Mechanical properties :
#
#
# Convention : Reuss Voigt Hill
#
# Bulk Modulus (GPa) = 49.11208 61.21365 55.16287
# Shear Modulus (GPa) = 23.38704 26.19491 24.79098
#
# Velocity S-wave (km/s) = 3.49827 3.70233 3.60175
# Velocity P-wave (km/s) = 6.48201 7.09282 6.79428
#
# Compressibility (1/GPa) = 0.02036159
#
# Stress axis : x y z
#
# Youngs Moduli (GPa) = 65.07773 76.14332 47.64365
#
# Poissons Ratio (x) = 0.34094 0.30572
# Poissons Ratio (y) = 0.29139 0.17480
# Poissons Ratio (z) = 0.41760 0.27937
#
# Static dielectric constant tensor:
#      x y z
#    x 3.681810 0.000000 -0.287850 
#    y 0.000000 3.432750 0.000000 
#    z -0.287850 0.000000 3.718460 
# 
# 
# High freq. dielectric constant tensor:
#      x y z
#    x 1.743370 0.000000 -0.009130 
#    y 0.000000 1.762020 0.000000 
#    z -0.009130 0.000000 1.721980 
# 
# From -- ./inp_files/18168.got.cif
#   From: 2010.06.25/outbox.cif.g09.slc.cpg/sg11_10_cif.got.tgz:18168.got - 2010.06.27 23:14:04.
