data_PCOD8076745
_publ_section_title
;
Structure prediction by ZEFSAII (Michael W. Deem and Ramdas Pophale) SiO2 
 PCOD8076745
Probable space group: P 21/M
;
_chemical_formula_sum "Si O2"
_cell_formula_units_Z 28
_cell_length_a 17.009133
_cell_length_b 14.114548
_cell_length_c 8.428953
_cell_angle_alpha 90.000000
_cell_angle_beta 140.166720
_cell_angle_gamma 90.000000
_cell_volume 1296.223179
_symmetry_space_group_name_H-M "P 21/M"
_symmetry_group_IT_number 11
_symmetry_cell_setting 'monoclinic'
loop_
_space_group_symop_operation_xyz
x,y,z
-x,1/2+y,-z
-x,-y,-z
x,1/2-y,z
loop_
_atom_site_type_symbol
_atom_site_label
_atom_site_fract_x
_atom_site_fract_y
_atom_site_fract_z
Si Si1 0.726315 0.975920 0.247933
Si Si2 0.427922 0.942160 0.259276
Si Si3 0.348612 0.361242 0.570675
Si Si4 0.792821 0.140027 0.898475
Si Si5 0.901537 0.646297 0.914282
Si Si6 0.049169 0.355167 0.380696
Si Si7 0.164585 0.636603 0.388076
O O1 0.652196 0.916307 0.264192
O O2 0.850099 0.922831 0.381430
O O3 0.757984 0.081720 0.359649
O O4 0.637676 0.984802 0.960581
O O5 0.521611 0.874859 0.311660
O O6 0.330007 0.876685 0.195307
O O7 0.500000 0.000000 0.500000
O O8 0.327769 0.250000 0.572400
O O9 0.235174 0.400192 0.280515
O O10 0.821501 0.250000 0.926500
O O11 0.783329 0.102969 0.702494
O O12 0.911486 0.099426 0.179000
O O13 0.897338 0.750000 0.985084
O O14 0.920307 0.652442 0.756304
O O15 0.022176 0.597725 0.178977
O O16 0.056397 0.250000 0.470342
O O17 0.175325 0.750000 0.431756
#
# Coordination Sequence:
#
# PCOD8076745 Si02
#       7
#     4   4   4   4   4   4   4
#     4  11  22  37  61  88 112 146 195 246 288 330
#     4  12  26  40  53  78 119 160 197 233 280 343
#     4  10  21  40  63  85 113 151 195 238 278 331
#     4   9  19  38  60  83 116 154 186 225 289 355
#     4   7  13  29  55  86 112 138 179 230 284 334
#     4   8  16  34  60  87 113 142 182 235 291 344
#     4   9  18  34  60  91 117 143 184 239 293 343
#
# _framework density 21.601219
#
# number of rings (size 3 to 8) (size 9 to 14) (size 15 to 20)
#    0.000    2.571    0.000    4.714    0.000    8.000 
#    0.000    4.286    0.000    3.429    0.000    0.000 
#    0.000    0.000    0.000    0.000    0.000    0.000 
#
# Total GULP energy -346921.116054 kJ/mol
# GULP energy per Si atom -12390.039859 kJ/mol
# Density = 2.155205 g / cm^3
# Si number density = 21.601219 Si / 1000 Ang^3
#
#
#
# Elastic Constant Matrix: (Units=GPa)
#
#
# Indices 1 2 3 4 5 6 
#
# 1 71.8449 18.8633 59.5244 0.0000 29.4802 0.0000
# 2 18.8633 74.7892 45.4067 0.0000 0.1492 0.0000
# 3 59.5244 45.4067 140.9928 0.0000 8.3009 0.0000
# 4 0.0000 0.0000 0.0000 24.4289 0.0000 10.9290
# 5 29.4802 0.1492 8.3009 0.0000 33.9405 0.0000
# 6 0.0000 0.0000 0.0000 10.9290 0.0000 23.2890
#
#
#
# Elastic Compliance Matrix: (Units=1/GPa)
#
#
# Indices 1 2 3 4 5 6 
#
# 1 0.037738 -0.001040 -0.013867 0.000000 -0.029382 0.000000
# 2 -0.001040 0.016702 -0.005061 0.000000 0.002068 0.000000
# 3 -0.013867 -0.005061 0.014069 0.000000 0.008626 0.000000
# 4 0.000000 0.000000 0.000000 0.051813 0.000000 -0.024315
# 5 -0.029382 0.002068 0.008626 0.000000 0.052865 0.000000
# 6 0.000000 0.000000 0.000000 -0.024315 0.000000 0.054349
#
#
# Mechanical properties :
#
#
# Convention : Reuss Voigt Hill
#
# Bulk Modulus (GPa) = 35.00059 59.46839 47.23449
# Shear Modulus (GPa) = 18.05067 27.25387 22.65227
#
# Velocity S-wave (km/s) = 2.89387 3.55587 3.24181
# Velocity P-wave (km/s) = 5.23490 6.66699 5.99387
#
# Compressibility (1/GPa) = 0.02857095
#
# Stress axis : x y z
#
# Youngs Moduli (GPa) = 26.49881 59.87253 71.07745
#
# Poissons Ratio (x) = 0.06229 0.98564
# Poissons Ratio (y) = 0.02757 0.35976
# Poissons Ratio (z) = 0.36746 0.30304
#
# Static dielectric constant tensor:
#      x y z
#    x 4.482410 0.000000 0.955120 
#    y 0.000000 3.775590 0.000000 
#    z 0.955120 0.000000 4.367330 
# 
# 
# High freq. dielectric constant tensor:
#      x y z
#    x 1.829050 0.000000 0.030070 
#    y 0.000000 1.842860 0.000000 
#    z 0.030070 0.000000 1.841090 
# 
# From -- ./inp_files/24968.got.cif
#   From: 2010.06.25/outbox.cif.g09.slc.cpg/sg11_13_cif.got.tgz:24968.got - 2010.06.27 23:14:04.
