data_PCOD8076856
_publ_section_title
;
Structure prediction by ZEFSAII (Michael W. Deem and Ramdas Pophale) SiO2 
 PCOD8076856
Probable space group: P 21/M
;
_chemical_formula_sum "Si O2"
_cell_formula_units_Z 20
_cell_length_a 5.781764
_cell_length_b 22.371443
_cell_length_c 8.735753
_cell_angle_alpha 90.000000
_cell_angle_beta 127.890423
_cell_angle_gamma 90.000000
_cell_volume 891.732285
_symmetry_space_group_name_H-M "P 21/M"
_symmetry_group_IT_number 11
_symmetry_cell_setting 'monoclinic'
loop_
_space_group_symop_operation_xyz
x,y,z
-x,1/2+y,-z
-x,-y,-z
x,1/2-y,z
loop_
_atom_site_type_symbol
_atom_site_label
_atom_site_fract_x
_atom_site_fract_y
_atom_site_fract_z
Si Si1 0.875005 0.405434 0.614247
Si Si2 0.623415 0.816255 0.107313
Si Si3 0.854437 0.011282 0.107664
Si Si4 0.461913 0.184439 0.583567
Si Si5 0.126164 0.629536 0.722360
O O1 0.115127 0.362285 0.784468
O O2 0.946298 0.471901 0.697935
O O3 0.578941 0.376023 0.555388
O O4 0.839632 0.408395 0.418568
O O5 0.749161 0.750000 0.127248
O O6 0.462166 0.818192 0.205764
O O7 0.412784 0.833071 0.882158
O O8 0.927183 0.080630 0.166886
O O9 0.500000 0.000000 0.000000
O O10 0.000000 0.000000 0.000000
O O11 0.566587 0.250000 0.562777
O O12 0.118453 0.179688 0.405360
#
# Coordination Sequence:
#
# PCOD8076856 Si02
#       5
#     4   4   4   4   4
#     4  11  24  42  68  98 136 178 232 288 345 410
#     4  10  21  41  65  94 135 179 224 282 344 411
#     4  12  27  47  74 102 139 186 235 287 351 416
#     4  10  23  41  65  99 135 178 229 285 344 414
#     4  11  24  42  68  98 136 179 231 286 347 411
#
# _framework density 22.428256000000001
#
# number of rings (size 3 to 8) (size 9 to 14) (size 15 to 20)
#    0.000    1.200    2.000    3.000    5.600    4.800 
#    0.000    0.000    0.000    0.000    0.000    0.000 
#    0.000    0.000    0.000    0.000    0.000    0.000 
#
# Total GULP energy -247765.951462 kJ/mol
# GULP energy per Si atom -12388.297573 kJ/mol
# Density = 2.237721 g / cm^3
# Si number density = 22.428256 Si / 1000 Ang^3
#
#
#
# Elastic Constant Matrix: (Units=GPa)
#
#
# Indices 1 2 3 4 5 6 
#
# 1 79.0961 -0.6534 23.1069 0.0000 -8.2311 0.0000
# 2 -0.6534 80.4819 8.4193 0.0000 -1.4439 0.0000
# 3 23.1069 8.4193 123.5258 0.0000 -0.9457 0.0000
# 4 0.0000 0.0000 0.0000 66.7421 0.0000 20.8370
# 5 -8.2311 -1.4439 -0.9457 0.0000 21.1545 0.0000
# 6 0.0000 0.0000 0.0000 20.8370 0.0000 48.7066
#
#
#
# Elastic Compliance Matrix: (Units=1/GPa)
#
#
# Indices 1 2 3 4 5 6 
#
# 1 0.013964 0.000482 -0.002604 0.000000 0.005350 0.000000
# 2 0.000482 0.012545 -0.000937 0.000000 0.001002 0.000000
# 3 -0.002604 -0.000937 0.008641 0.000000 -0.000691 0.000000
# 4 0.000000 0.000000 0.000000 0.017293 0.000000 -0.007398
# 5 0.005350 0.001002 -0.000691 0.000000 0.049390 0.000000
# 6 0.000000 0.000000 0.000000 -0.007398 0.000000 0.023696
#
#
# Mechanical properties :
#
#
# Convention : Reuss Voigt Hill
#
# Bulk Modulus (GPa) = 34.44589 38.31658 36.38123
# Shear Modulus (GPa) = 35.37912 44.13606 39.75759
#
# Velocity S-wave (km/s) = 3.97600 4.44089 4.21486
# Velocity P-wave (km/s) = 6.03902 6.58912 6.32006
#
# Compressibility (1/GPa) = 0.02903104
#
# Stress axis : x y z
#
# Youngs Moduli (GPa) = 71.61113 79.71235 115.72462
#
# Poissons Ratio (x) = -0.03840 0.30135
# Poissons Ratio (y) = -0.03450 0.10849
# Poissons Ratio (z) = 0.18648 0.07473
#
# Static dielectric constant tensor:
#      x y z
#    x 4.041940 0.000000 0.045100 
#    y 0.000000 4.002580 0.000000 
#    z 0.045100 0.000000 4.150720 
# 
# 
# High freq. dielectric constant tensor:
#      x y z
#    x 1.863500 0.000000 0.000750 
#    y 0.000000 1.900630 0.000000 
#    z 0.000750 0.000000 1.895310 
# 
# From -- ./inp_files/778.got.cif
#   From: 2010.06.25/outbox.cif.g09.slc.cpg/sg11_1_cif.got.tgz:778.got - 2010.06.27 23:14:04.
