data_PCOD8076840
_publ_section_title
;
Structure prediction by ZEFSAII (Michael W. Deem and Ramdas Pophale) SiO2 
 PCOD8076840
Probable space group: P 21/M
;
_chemical_formula_sum "Si O2"
_cell_formula_units_Z 24
_cell_length_a 12.275524
_cell_length_b 8.899966
_cell_length_c 11.654913
_cell_angle_alpha 90.000000
_cell_angle_beta 110.780318
_cell_angle_gamma 90.000000
_cell_volume 1190.487109
_symmetry_space_group_name_H-M "P 21/M"
_symmetry_group_IT_number 11
_symmetry_cell_setting 'monoclinic'
loop_
_space_group_symop_operation_xyz
x,y,z
-x,1/2+y,-z
-x,-y,-z
x,1/2-y,z
loop_
_atom_site_type_symbol
_atom_site_label
_atom_site_fract_x
_atom_site_fract_y
_atom_site_fract_z
Si Si1 0.288843 0.071877 0.115074
Si Si2 0.822653 0.422622 0.716116
Si Si3 0.604962 0.075630 0.474067
Si Si4 0.253365 0.074247 0.849264
Si Si5 0.031925 0.427945 0.633201
Si Si6 0.460166 0.074224 0.770812
O O1 0.299693 0.250000 0.120482
O O2 0.197720 0.020238 0.177457
O O3 0.416363 0.006266 0.184588
O O4 0.242452 0.011534 0.974722
O O5 0.828595 0.250000 0.757083
O O6 0.720811 0.450716 0.588176
O O7 0.940063 0.474425 0.697243
O O8 0.577965 0.250000 0.443417
O O9 0.500000 0.000000 0.500000
O O10 0.620640 0.990717 0.360092
O O11 0.229477 0.250000 0.842354
O O12 0.155397 0.007230 0.726748
O O13 0.385280 0.040105 0.857014
O O14 0.031947 0.250000 0.614153
O O15 0.000000 0.500000 0.500000
O O16 0.482137 0.250000 0.760210
#
# Coordination Sequence:
#
# PCOD8076840 Si02
#       6
#     4   4   4   4   4   4
#     4  11  22  37  58  84 115 153 196 236 284 346
#     4  10  22  38  58  85 118 151 187 236 289 336
#     4  11  21  34  54  83 116 150 188 233 285 338
#     4   9  21  39  59  84 115 153 192 236 288 340
#     4  10  21  41  64  86 115 149 188 236 286 341
#     4  11  21  36  58  84 117 152 191 241 292 340
#
# _framework density 20.159815999999999
#
# number of rings (size 3 to 8) (size 9 to 14) (size 15 to 20)
#    0.000    1.667    1.667    3.000    0.000    2.000 
#    0.000    5.000    0.000    0.000    0.000    0.000 
#    0.000    0.000    0.000    0.000    0.000    0.000 
#
# Total GULP energy -297593.738219 kJ/mol
# GULP energy per Si atom -12399.739092 kJ/mol
# Density = 2.011393 g / cm^3
# Si number density = 20.159816 Si / 1000 Ang^3
#
#
#
# Elastic Constant Matrix: (Units=GPa)
#
#
# Indices 1 2 3 4 5 6 
#
# 1 91.8968 28.4506 40.0679 0.0000 -7.3326 0.0000
# 2 28.4506 64.5786 38.4547 0.0000 -10.4572 0.0000
# 3 40.0679 38.4547 129.9873 0.0000 -22.6810 0.0000
# 4 0.0000 0.0000 0.0000 30.5246 0.0000 -5.2889
# 5 -7.3326 -10.4572 -22.6810 0.0000 29.7143 0.0000
# 6 0.0000 0.0000 0.0000 -5.2889 0.0000 22.2542
#
#
#
# Elastic Compliance Matrix: (Units=1/GPa)
#
#
# Indices 1 2 3 4 5 6 
#
# 1 0.013451 -0.004227 -0.002972 0.000000 -0.000437 0.000000
# 2 -0.004227 0.020319 -0.004202 0.000000 0.002900 0.000000
# 3 -0.002972 -0.004202 0.010921 0.000000 0.006124 0.000000
# 4 0.000000 0.000000 0.000000 0.034167 0.000000 0.008120
# 5 -0.000437 0.002900 0.006124 0.000000 0.039241 0.000000
# 6 0.000000 0.000000 0.000000 0.008120 0.000000 0.046865
#
#
# Mechanical properties :
#
#
# Convention : Reuss Voigt Hill
#
# Bulk Modulus (GPa) = 45.68514 55.60102 50.64308
# Shear Modulus (GPa) = 25.63269 28.46459 27.04864
#
# Velocity S-wave (km/s) = 3.56964 3.76166 3.66691
# Velocity P-wave (km/s) = 6.30083 6.81959 6.56534
#
# Compressibility (1/GPa) = 0.02188896
#
# Stress axis : x y z
#
# Youngs Moduli (GPa) = 74.34151 49.21473 91.56856
#
# Poissons Ratio (x) = 0.20804 0.27214
# Poissons Ratio (y) = 0.31425 0.38478
# Poissons Ratio (z) = 0.22095 0.20680
#
# Static dielectric constant tensor:
#      x y z
#    x 3.687220 0.000000 -0.139860 
#    y 0.000000 3.428690 0.000000 
#    z -0.139860 0.000000 3.779610 
# 
# 
# High freq. dielectric constant tensor:
#      x y z
#    x 1.794510 0.000000 -0.006980 
#    y 0.000000 1.771670 0.000000 
#    z -0.006980 0.000000 1.799130 
# 
# From -- ./inp_files/33901.got.cif
#   From: 2010.06.25/outbox.cif.g09.slc.cpg/sg11_17_cif.got.tgz:33901.got - 2010.06.27 23:14:04.
