data_PCOD8076438
_publ_section_title
;
Structure prediction by ZEFSAII (Michael W. Deem and Ramdas Pophale) SiO2 
 PCOD8076438
Probable space group: P 21/M
;
_chemical_formula_sum "Si O2"
_cell_formula_units_Z 28
_cell_length_a 22.900129
_cell_length_b 8.883932
_cell_length_c 19.815767
_cell_angle_alpha 90.000000
_cell_angle_beta 160.049247
_cell_angle_gamma 90.000000
_cell_volume 1375.557529
_symmetry_space_group_name_H-M "P 21/M"
_symmetry_group_IT_number 11
_symmetry_cell_setting 'monoclinic'
loop_
_space_group_symop_operation_xyz
x,y,z
-x,1/2+y,-z
-x,-y,-z
x,1/2-y,z
loop_
_atom_site_type_symbol
_atom_site_label
_atom_site_fract_x
_atom_site_fract_y
_atom_site_fract_z
Si Si1 0.885308 0.573294 0.318419
Si Si2 0.337027 0.577259 0.634809
Si Si3 0.606504 0.926183 0.440217
Si Si4 0.952318 0.581021 0.240647
Si Si5 0.030849 0.428736 0.105388
Si Si6 0.761182 0.075270 0.920617
Si Si7 0.531529 0.071415 0.961998
O O1 0.864439 0.750000 0.310684
O O2 0.972119 0.540169 0.340810
O O3 0.000000 0.500000 0.500000
O O4 0.704735 0.492121 0.119364
O O5 0.393267 0.750000 0.708234
O O6 0.426243 0.515068 0.664632
O O7 0.382884 0.477561 0.749534
O O8 0.135095 0.562116 0.403989
O O9 0.616375 0.750000 0.433469
O O10 0.780798 0.980471 0.665265
O O11 0.441504 0.961306 0.308981
O O12 0.882911 0.750000 0.158242
O O13 0.817148 0.477449 0.055603
O O14 0.021235 0.250000 0.088779
O O15 0.000000 0.500000 0.000000
O O16 0.881961 0.494930 0.993203
O O17 0.795272 0.250000 0.955317
O O18 0.538300 0.250000 0.976543
O O19 0.500000 0.000000 0.000000
#
# Coordination Sequence:
#
# PCOD8076438 Si02
#       7
#     4   4   4   4   4   4   4
#     4  11  23  40  60  86 120 160 206 258 315 376
#     4  11  22  38  61  90 122 158 202 253 309 371
#     4  10  21  39  62  90 122 160 206 252 304 368
#     4  10  22  38  59  87 120 156 199 250 304 365
#     4  10  22  40  61  89 125 161 202 253 306 369
#     4  10  21  38  62  89 119 158 204 250 303 366
#     4  12  25  41  60  85 118 159 207 260 318 378
#
# _framework density 20.355383
#
# number of rings (size 3 to 8) (size 9 to 14) (size 15 to 20)
#    0.000    1.429    1.429    3.857    0.000    7.429 
#    0.000    0.000    0.000    0.000    0.000    0.000 
#    0.000    0.000    0.000    0.000    0.000    0.000 
#
# Total GULP energy -347245.505823 kJ/mol
# GULP energy per Si atom -12401.625208 kJ/mol
# Density = 2.030905 g / cm^3
# Si number density = 20.355383 Si / 1000 Ang^3
#
#
#
# Elastic Constant Matrix: (Units=GPa)
#
#
# Indices 1 2 3 4 5 6 
#
# 1 131.5709 44.7048 65.9165 0.0000 -0.1483 0.0000
# 2 44.7048 81.7020 41.3195 0.0000 1.9151 0.0000
# 3 65.9165 41.3195 112.7241 0.0000 5.2572 0.0000
# 4 0.0000 0.0000 0.0000 31.4727 0.0000 -5.9556
# 5 -0.1483 1.9151 5.2572 0.0000 37.2421 0.0000
# 6 0.0000 0.0000 0.0000 -5.9556 0.0000 34.7460
#
#
#
# Elastic Compliance Matrix: (Units=1/GPa)
#
#
# Indices 1 2 3 4 5 6 
#
# 1 0.011573 -0.003572 -0.005505 0.000000 0.001007 0.000000
# 2 -0.003572 0.016127 -0.003809 0.000000 -0.000306 0.000000
# 3 -0.005505 -0.003809 0.013568 0.000000 -0.001741 0.000000
# 4 0.000000 0.000000 0.000000 0.032839 0.000000 0.005629
# 5 0.001007 -0.000306 -0.001741 0.000000 0.027117 0.000000
# 6 0.000000 0.000000 0.000000 0.005629 0.000000 0.029745
#
#
# Mechanical properties :
#
#
# Convention : Reuss Voigt Hill
#
# Bulk Modulus (GPa) = 64.52916 69.98653 67.25784
# Shear Modulus (GPa) = 30.88204 32.29591 31.58898
#
# Velocity S-wave (km/s) = 3.89928 3.98754 3.94366
# Velocity P-wave (km/s) = 7.21406 7.46040 7.33826
#
# Compressibility (1/GPa) = 0.01549687
#
# Stress axis : x y z
#
# Youngs Moduli (GPa) = 86.40493 62.00648 73.70429
#
# Poissons Ratio (x) = 0.22149 0.40576
# Poissons Ratio (y) = 0.30864 0.28070
# Poissons Ratio (z) = 0.47568 0.23615
#
# Static dielectric constant tensor:
#      x y z
#    x 3.974170 0.000000 0.333310 
#    y 0.000000 3.482590 0.000000 
#    z 0.333310 0.000000 3.894840 
# 
# 
# High freq. dielectric constant tensor:
#      x y z
#    x 1.800540 0.000000 0.010300 
#    y 0.000000 1.791630 0.000000 
#    z 0.010300 0.000000 1.803440 
# 
# From -- ./inp_files/66745.got.cif
#   From: 2010.06.25/outbox.cif.g09.slc.cpg/sg11_34_cif.got.tgz:66745.got - 2010.06.27 23:14:04.
