data_PCOD8076491
_publ_section_title
;
Structure prediction by ZEFSAII (Michael W. Deem and Ramdas Pophale) SiO2 
 PCOD8076491
Probable space group: P 21/M
;
_chemical_formula_sum "Si O2"
_cell_formula_units_Z 28
_cell_length_a 21.117906
_cell_length_b 12.976323
_cell_length_c 8.910189
_cell_angle_alpha 90.000000
_cell_angle_beta 32.863052
_cell_angle_gamma 90.000000
_cell_volume 1324.937934
_symmetry_space_group_name_H-M "P 21/M"
_symmetry_group_IT_number 11
_symmetry_cell_setting 'monoclinic'
loop_
_space_group_symop_operation_xyz
x,y,z
-x,1/2+y,-z
-x,-y,-z
x,1/2-y,z
loop_
_atom_site_type_symbol
_atom_site_label
_atom_site_fract_x
_atom_site_fract_y
_atom_site_fract_z
Si Si1 0.028926 0.634917 0.175317
Si Si2 0.979719 0.872380 0.942396
Si Si3 0.651502 0.630259 0.860064
Si Si4 0.851946 0.006860 0.598118
Si Si5 0.762395 0.138250 0.041367
Si Si6 0.715290 0.632461 0.396126
Si Si7 0.446012 0.969647 0.449756
O O1 0.980569 0.750000 0.271054
O O2 0.162280 0.627226 0.957611
O O3 0.954725 0.570743 0.445815
O O4 0.007101 0.581861 0.055631
O O5 0.982688 0.750000 0.952020
O O6 0.086485 0.903556 0.621837
O O7 0.850800 0.906456 0.139760
O O8 0.655086 0.750000 0.910844
O O9 0.764609 0.565644 0.680104
O O10 0.648396 0.629871 0.687218
O O11 0.540293 0.566475 0.140819
O O12 0.787292 0.051607 0.869714
O O13 0.782664 0.250000 0.926338
O O14 0.631484 0.130279 0.360843
O O15 0.714373 0.750000 0.335677
O O16 0.639851 0.561082 0.435271
O O17 0.500000 0.000000 0.500000
#
# Coordination Sequence:
#
# PCOD8076491 Si02
#       7
#     4   4   4   4   4   4   4
#     4  10  21  38  63  94 129 169 209 261 324 385
#     4  10  21  39  65  98 134 165 207 266 324 385
#     4  11  24  44  68  95 130 169 220 275 322 378
#     4  12  21  38  64  96 127 173 210 257 323 388
#     4  11  25  42  60  90 132 171 219 267 315 380
#     4  10  23  44  70 101 129 164 215 269 323 389
#     4  12  25  46  66  92 124 178 218 266 324 377
#
# _framework density 21.133065999999999
#
# number of rings (size 3 to 8) (size 9 to 14) (size 15 to 20)
#    0.000    1.143    2.857    3.429    2.000    1.143 
#    0.000    1.429    0.000    0.000    0.000    0.000 
#    0.000    0.000    0.000    0.000    0.000    0.000 
#
# Total GULP energy -347031.970627 kJ/mol
# GULP energy per Si atom -12393.998951 kJ/mol
# Density = 2.108497 g / cm^3
# Si number density = 21.133066 Si / 1000 Ang^3
#
#
#
# Elastic Constant Matrix: (Units=GPa)
#
#
# Indices 1 2 3 4 5 6 
#
# 1 106.9312 53.0523 31.2217 0.0000 -14.0278 0.0000
# 2 53.0523 82.4282 28.6874 0.0000 -7.7839 0.0000
# 3 31.2217 28.6874 114.9614 0.0000 -12.7986 0.0000
# 4 0.0000 0.0000 0.0000 38.3984 0.0000 -2.3899
# 5 -14.0278 -7.7839 -12.7986 0.0000 31.7736 0.0000
# 6 0.0000 0.0000 0.0000 -2.3899 0.0000 35.3925
#
#
#
# Elastic Compliance Matrix: (Units=1/GPa)
#
#
# Indices 1 2 3 4 5 6 
#
# 1 0.014447 -0.008459 -0.001396 0.000000 0.003744 0.000000
# 2 -0.008459 0.018362 -0.002303 0.000000 -0.000164 0.000000
# 3 -0.001396 -0.002303 0.009968 0.000000 0.002835 0.000000
# 4 0.000000 0.000000 0.000000 0.026153 0.000000 0.001766
# 5 0.003744 -0.000164 0.002835 0.000000 0.034227 0.000000
# 6 0.000000 0.000000 0.000000 0.001766 0.000000 0.028374
#
#
# Mechanical properties :
#
#
# Convention : Reuss Voigt Hill
#
# Bulk Modulus (GPa) = 54.16738 58.91597 56.54167
# Shear Modulus (GPa) = 30.86388 33.87020 32.36704
#
# Velocity S-wave (km/s) = 3.82574 4.00773 3.91779
# Velocity P-wave (km/s) = 6.72326 7.02531 6.87594
#
# Compressibility (1/GPa) = 0.01846129
#
# Stress axis : x y z
#
# Youngs Moduli (GPa) = 69.21625 54.45931 100.32144
#
# Poissons Ratio (x) = 0.46069 0.14005
# Poissons Ratio (y) = 0.58552 0.23104
# Poissons Ratio (z) = 0.09663 0.12542
#
# Static dielectric constant tensor:
#      x y z
#    x 3.717870 0.000000 -0.128440 
#    y 0.000000 4.065460 0.000000 
#    z -0.128440 0.000000 3.831820 
# 
# 
# High freq. dielectric constant tensor:
#      x y z
#    x 1.819230 0.000000 -0.008840 
#    y 0.000000 1.852610 0.000000 
#    z -0.008840 0.000000 1.832350 
# 
# From -- ./inp_files/26909.got.cif
#   From: 2010.06.25/outbox.cif.g09.slc.cpg/sg11_14_cif.got.tgz:26909.got - 2010.06.27 23:14:04.
