data_PCOD8076916
_publ_section_title
;
Structure prediction by ZEFSAII (Michael W. Deem and Ramdas Pophale) SiO2 
 PCOD8076916
Probable space group: P 21/M
;
_chemical_formula_sum "Si O2"
_cell_formula_units_Z 26
_cell_length_a 14.461893
_cell_length_b 13.648461
_cell_length_c 9.108317
_cell_angle_alpha 90.000000
_cell_angle_beta 46.014797
_cell_angle_gamma 90.000000
_cell_volume 1293.568219
_symmetry_space_group_name_H-M "P 21/M"
_symmetry_group_IT_number 11
_symmetry_cell_setting 'monoclinic'
loop_
_space_group_symop_operation_xyz
x,y,z
-x,1/2+y,-z
-x,-y,-z
x,1/2-y,z
loop_
_atom_site_type_symbol
_atom_site_label
_atom_site_fract_x
_atom_site_fract_y
_atom_site_fract_z
Si Si1 0.144468 0.961186 0.824173
Si Si2 0.300607 0.420060 0.886718
Si Si3 0.841720 0.033494 0.527020
Si Si4 0.475882 0.250000 0.581247
Si Si5 0.757771 0.250000 0.204589
Si Si6 0.398688 0.940594 0.019923
Si Si7 0.092290 0.360117 0.342212
Si Si8 0.562546 0.250000 0.177749
O O1 0.192984 0.974647 0.604924
O O2 0.156548 0.847028 0.859997
O O3 0.235348 0.030650 0.818730
O O4 0.000000 0.000000 0.000000
O O5 0.412290 0.346957 0.715544
O O6 0.364852 0.506011 0.907049
O O7 0.198952 0.362662 0.098208
O O8 0.725208 0.081057 0.744464
O O9 0.961476 0.105201 0.412071
O O10 0.872361 0.925724 0.556361
O O11 0.629308 0.250000 0.449934
O O12 0.457821 0.250000 0.424252
O O13 0.707337 0.250000 0.090116
O O14 0.462995 0.839908 0.901659
O O15 0.500000 0.000000 0.000000
O O16 0.077424 0.250000 0.417175
#
# Coordination Sequence:
#
# PCOD8076916 Si02
#       8
#     4   4   4   2   2   4   4   2
#     4  12  25  45  71 102 141 178 237 288 350 411
#     4  11  22  44  69 100 140 181 224 289 339 411
#     4  10  25  41  66  99 130 182 222 281 342 400
#     4  10  24  42  74  96 136 186 229 284 352 401
#     4  10  26  42  71 100 139 179 231 285 351 416
#     4  11  26  44  68  98 141 178 233 282 340 419
#     4  10  21  44  64  96 136 177 226 274 337 406
#     4  10  24  46  65 104 127 187 224 281 347 405
#
# _framework density 20.099443999999998
#
# number of rings (size 3 to 8) (size 9 to 14) (size 15 to 20)
#    0.462    0.923    3.846    0.000    6.462    2.462 
#    4.154    0.000    0.000    0.000    0.000    0.000 
#    0.000    0.000    0.000    0.000    0.000    0.000 
#
# Total GULP energy -322432.716445 kJ/mol
# GULP energy per Si atom -12401.258325 kJ/mol
# Density = 2.005370 g / cm^3
# Si number density = 20.099444 Si / 1000 Ang^3
#
#
#
# Elastic Constant Matrix: (Units=GPa)
#
#
# Indices 1 2 3 4 5 6 
#
# 1 87.0159 20.6507 29.1355 0.0000 11.0715 0.0000
# 2 20.6507 120.8437 55.9544 0.0000 2.2548 0.0000
# 3 29.1355 55.9544 88.3964 0.0000 -2.2725 0.0000
# 4 0.0000 0.0000 0.0000 27.9038 0.0000 -10.1915
# 5 11.0715 2.2548 -2.2725 0.0000 42.3798 0.0000
# 6 0.0000 0.0000 0.0000 -10.1915 0.0000 21.8742
#
#
#
# Elastic Compliance Matrix: (Units=1/GPa)
#
#
# Indices 1 2 3 4 5 6 
#
# 1 0.013496 -0.000187 -0.004427 0.000000 -0.003753 0.000000
# 2 -0.000187 0.011753 -0.007403 0.000000 -0.000974 0.000000
# 3 -0.004427 -0.007403 0.017522 0.000000 0.002490 0.000000
# 4 0.000000 0.000000 0.000000 0.043186 0.000000 0.020121
# 5 -0.003753 -0.000974 0.002490 0.000000 0.024762 0.000000
# 6 0.000000 0.000000 0.000000 0.020121 0.000000 0.055091
#
#
# Mechanical properties :
#
#
# Convention : Reuss Voigt Hill
#
# Bulk Modulus (GPa) = 53.36686 56.41522 54.89104
# Shear Modulus (GPa) = 25.49858 31.13258 28.31558
#
# Velocity S-wave (km/s) = 3.56563 3.93991 3.75744
# Velocity P-wave (km/s) = 6.60005 6.98757 6.79658
#
# Compressibility (1/GPa) = 0.01873822
#
# Stress axis : x y z
#
# Youngs Moduli (GPa) = 74.09504 85.08394 57.07139
#
# Poissons Ratio (x) = 0.01587 0.25264
# Poissons Ratio (y) = 0.01382 0.42251
# Poissons Ratio (z) = 0.32800 0.62989
#
# Static dielectric constant tensor:
#      x y z
#    x 3.643090 0.000000 -0.092600 
#    y 0.000000 3.298930 0.000000 
#    z -0.092600 0.000000 3.832890 
# 
# 
# High freq. dielectric constant tensor:
#      x y z
#    x 1.783920 0.000000 0.003830 
#    y 0.000000 1.792010 0.000000 
#    z 0.003830 0.000000 1.790400 
# 
# From -- ./inp_files/22426.got.cif
#   From: 2010.06.25/outbox.cif.g09.slc.cpg/sg11_12_cif.got.tgz:22426.got - 2010.06.27 23:14:04.
