data_PCOD8076014
_publ_section_title
;
Structure prediction by ZEFSAII (Michael W. Deem and Ramdas Pophale) SiO2 
 PCOD8076014
Probable space group: P 21/M
;
_chemical_formula_sum "Si O2"
_cell_formula_units_Z 32
_cell_length_a 15.553103
_cell_length_b 8.732052
_cell_length_c 25.670050
_cell_angle_alpha 90.000000
_cell_angle_beta 29.935096
_cell_angle_gamma 90.000000
_cell_volume 1739.709993
_symmetry_space_group_name_H-M "P 21/M"
_symmetry_group_IT_number 11
_symmetry_cell_setting 'monoclinic'
loop_
_space_group_symop_operation_xyz
x,y,z
-x,1/2+y,-z
-x,-y,-z
x,1/2-y,z
loop_
_atom_site_type_symbol
_atom_site_label
_atom_site_fract_x
_atom_site_fract_y
_atom_site_fract_z
Si Si1 0.732634 0.927850 0.159311
Si Si2 0.917384 0.428850 0.429931
Si Si3 0.879475 0.926581 0.777736
Si Si4 0.432020 0.072440 0.130521
Si Si5 0.766907 0.430342 0.676053
Si Si6 0.035840 0.428003 0.058854
Si Si7 0.363775 0.069727 0.360495
Si Si8 0.173743 0.573063 0.089103
O O1 0.686335 0.750000 0.188670
O O2 0.868847 0.972965 0.132146
O O3 0.562818 0.025971 0.256864
O O4 0.809443 0.967276 0.062126
O O5 0.916543 0.250000 0.442892
O O6 0.730107 0.501726 0.538857
O O7 0.967093 0.458852 0.343675
O O8 0.054691 0.507161 0.395711
O O9 0.875252 0.750000 0.797095
O O10 0.697136 0.974765 0.847934
O O11 0.914589 0.029677 0.809880
O O12 0.403768 0.250000 0.159925
O O13 0.391579 0.974211 0.203071
O O14 0.624321 0.035954 0.011535
O O15 0.776866 0.250000 0.664887
O O16 0.734710 0.501973 0.637029
O O17 0.987007 0.250000 0.081138
O O18 0.092543 0.470196 0.086877
O O19 0.346481 0.250000 0.369412
O O20 0.140191 0.750000 0.093754
#
# Coordination Sequence:
#
# PCOD8076014 Si02
#       8
#     4   4   4   4   4   4   4   4
#     4  10  21  38  59  83 109 137 171 213 261 312
#     4  10  21  38  55  74 104 141 180 222 265 309
#     4   9  19  35  53  73 103 141 179 221 265 308
#     4   9  19  34  50  74 108 144 179 217 262 311
#     4  11  21  33  51  77 108 142 179 219 262 310
#     4  10  21  37  57  81 110 141 172 210 259 314
#     4  12  23  35  54  79 107 140 177 216 260 314
#     4  11  21  32  52  79 107 140 179 220 260 310
#
# _framework density 18.39387
#
# number of rings (size 3 to 8) (size 9 to 14) (size 15 to 20)
#    0.000    1.750    0.000    6.000    0.000    7.000 
#    0.000    0.000    0.000    0.750    0.000    0.000 
#    0.000    0.000    0.000    0.000    0.000    0.000 
#
# Total GULP energy -396951.045501 kJ/mol
# GULP energy per Si atom -12404.720172 kJ/mol
# Density = 1.835200 g / cm^3
# Si number density = 18.393870 Si / 1000 Ang^3
#
#
#
# Elastic Constant Matrix: (Units=GPa)
#
#
# Indices 1 2 3 4 5 6 
#
# 1 79.5024 32.8428 41.4429 0.0000 13.6623 0.0000
# 2 32.8428 107.2998 49.7872 0.0000 4.9423 0.0000
# 3 41.4429 49.7872 105.3848 0.0000 7.1711 0.0000
# 4 0.0000 0.0000 0.0000 31.0078 0.0000 0.6244
# 5 13.6623 4.9423 7.1711 0.0000 20.4158 0.0000
# 6 0.0000 0.0000 0.0000 0.6244 0.0000 31.1905
#
#
#
# Elastic Compliance Matrix: (Units=1/GPa)
#
#
# Indices 1 2 3 4 5 6 
#
# 1 0.018030 -0.002676 -0.005173 0.000000 -0.009601 0.000000
# 2 -0.002676 0.012351 -0.004816 0.000000 0.000493 0.000000
# 3 -0.005173 -0.004816 0.013814 0.000000 -0.000225 0.000000
# 4 0.000000 0.000000 0.000000 0.032263 0.000000 -0.000646
# 5 -0.009601 0.000493 -0.000225 0.000000 0.055366 0.000000
# 6 0.000000 0.000000 0.000000 -0.000646 0.000000 0.032074
#
#
# Mechanical properties :
#
#
# Convention : Reuss Voigt Hill
#
# Bulk Modulus (GPa) = 53.00927 60.03698 56.52312
# Shear Modulus (GPa) = 25.57333 27.73042 26.65188
#
# Velocity S-wave (km/s) = 3.73274 3.88698 3.81064
# Velocity P-wave (km/s) = 6.88908 7.27017 7.08219
#
# Compressibility (1/GPa) = 0.01886463
#
# Stress axis : x y z
#
# Youngs Moduli (GPa) = 55.46255 80.96644 72.39184
#
# Poissons Ratio (x) = 0.21670 0.37446
# Poissons Ratio (y) = 0.14844 0.34864
# Poissons Ratio (z) = 0.28689 0.38993
#
# Static dielectric constant tensor:
#      x y z
#    x 3.175160 0.000000 0.058780 
#    y 0.000000 3.429580 0.000000 
#    z 0.058780 0.000000 3.495160 
# 
# 
# High freq. dielectric constant tensor:
#      x y z
#    x 1.693010 0.000000 0.007940 
#    y 0.000000 1.725670 0.000000 
#    z 0.007940 0.000000 1.712250 
# 
# From -- ./inp_files/51716.got.cif
#   From: 2010.06.25/outbox.cif.g09.slc.cpg/sg11_26_cif.got.tgz:51716.got - 2010.06.27 23:14:04.
