data_PCOD8076476
_publ_section_title
;
Structure prediction by ZEFSAII (Michael W. Deem and Ramdas Pophale) SiO2 
 PCOD8076476
Probable space group: P 21/M
;
_chemical_formula_sum "Si O2"
_cell_formula_units_Z 32
_cell_length_a 18.256622
_cell_length_b 17.799690
_cell_length_c 14.856825
_cell_angle_alpha 90.000000
_cell_angle_beta 160.394336
_cell_angle_gamma 90.000000
_cell_volume 1619.978490
_symmetry_space_group_name_H-M "P 21/M"
_symmetry_group_IT_number 11
_symmetry_cell_setting 'monoclinic'
loop_
_space_group_symop_operation_xyz
x,y,z
-x,1/2+y,-z
-x,-y,-z
x,1/2-y,z
loop_
_atom_site_type_symbol
_atom_site_label
_atom_site_fract_x
_atom_site_fract_y
_atom_site_fract_z
Si Si1 0.816388 0.461877 0.225831
Si Si2 0.621805 0.579629 0.639592
Si Si3 0.547182 0.162550 0.018495
Si Si4 0.176141 0.420333 0.515781
Si Si5 0.412674 0.938316 0.771839
Si Si6 0.151725 0.428140 0.276854
Si Si7 0.220463 0.666255 0.222497
Si Si8 0.090055 0.910275 0.237980
O O1 0.713084 0.388358 0.152913
O O2 0.000000 0.500000 0.500000
O O3 0.927358 0.428909 0.262139
O O4 0.637787 0.526027 0.992013
O O5 0.500000 0.500000 0.500000
O O6 0.686049 0.604566 0.611393
O O7 0.471864 0.645883 0.502626
O O8 0.827936 0.583386 0.947497
O O9 0.615571 0.250000 0.093023
O O10 0.543131 0.134367 0.116656
O O11 0.297752 0.153370 0.694417
O O12 0.303531 0.493898 0.703028
O O13 0.219744 0.419419 0.459261
O O14 0.232398 0.909268 0.492428
O O15 0.145100 0.515702 0.243159
O O16 0.918119 0.388772 0.000865
O O17 0.177855 0.750000 0.139611
O O18 0.153391 0.660510 0.249927
#
# Coordination Sequence:
#
# PCOD8076476 Si02
#       8
#     4   4   4   4   4   4   4   4
#     4  11  19  40  67  87 118 162 211 246 301 362
#     4  11  19  38  64  87 120 158 207 240 298 367
#     4  11  23  39  58  90 130 163 198 253 313 363
#     4  10  21  39  63  90 119 157 207 256 296 363
#     4  10  21  38  64  93 118 159 206 251 303 360
#     4  10  21  38  63  91 114 159 202 254 304 356
#     4  11  23  38  58  88 126 159 198 254 307 356
#     4  10  21  38  63  91 119 159 202 251 300 363
#
# _framework density 19.753347999999999
#
# number of rings (size 3 to 8) (size 9 to 14) (size 15 to 20)
#    0.000    1.500    5.000    1.500    0.000    8.500 
#    0.000    1.250    0.000    0.000    0.000    0.000 
#    0.000    0.000    0.000    0.000    0.000    0.000 
#
# Total GULP energy -396492.644585 kJ/mol
# GULP energy per Si atom -12390.395143 kJ/mol
# Density = 1.970839 g / cm^3
# Si number density = 19.753348 Si / 1000 Ang^3
#
#
#
# Elastic Constant Matrix: (Units=GPa)
#
#
# Indices 1 2 3 4 5 6 
#
# 1 84.4004 30.9624 50.6916 0.0000 7.3913 0.0000
# 2 30.9624 91.0396 31.6076 0.0000 -4.5370 0.0000
# 3 50.6916 31.6076 122.3325 0.0000 4.7464 0.0000
# 4 0.0000 0.0000 0.0000 18.2658 0.0000 4.9939
# 5 7.3913 -4.5370 4.7464 0.0000 32.5556 0.0000
# 6 0.0000 0.0000 0.0000 4.9939 0.0000 15.5439
#
#
#
# Elastic Compliance Matrix: (Units=1/GPa)
#
#
# Indices 1 2 3 4 5 6 
#
# 1 0.017196 -0.003956 -0.005964 0.000000 -0.003586 0.000000
# 2 -0.003956 0.013128 -0.001869 0.000000 0.003000 0.000000
# 3 -0.005964 -0.001869 0.011149 0.000000 -0.000532 0.000000
# 4 0.000000 0.000000 0.000000 0.060019 0.000000 -0.019283
# 5 -0.003586 0.003000 -0.000532 0.000000 0.032026 0.000000
# 6 0.000000 0.000000 0.000000 -0.019283 0.000000 0.070529
#
#
# Mechanical properties :
#
#
# Convention : Reuss Voigt Hill
#
# Bulk Modulus (GPa) = 55.88335 58.25507 57.06921
# Shear Modulus (GPa) = 21.40485 25.57379 23.48932
#
# Velocity S-wave (km/s) = 3.29539 3.60204 3.45212
# Velocity P-wave (km/s) = 6.54457 6.84506 6.69650
#
# Compressibility (1/GPa) = 0.01789442
#
# Stress axis : x y z
#
# Youngs Moduli (GPa) = 58.15367 76.17212 89.69094
#
# Poissons Ratio (x) = 0.30136 0.53493
# Poissons Ratio (y) = 0.23007 0.16763
# Poissons Ratio (z) = 0.34684 0.14237
#
# Static dielectric constant tensor:
#      x y z
#    x 3.479130 0.000000 0.142500 
#    y 0.000000 3.416190 0.000000 
#    z 0.142500 0.000000 3.775550 
# 
# 
# High freq. dielectric constant tensor:
#      x y z
#    x 1.763230 0.000000 0.004660 
#    y 0.000000 1.744180 0.000000 
#    z 0.004660 0.000000 1.780990 
# 
# From -- ./inp_files/53811.got.cif
#   From: 2010.06.25/outbox.cif.g09.slc.cpg/sg11_27_cif.got.tgz:53811.got - 2010.06.27 23:14:04.
