data_PCOD8076314
_publ_section_title
;
Structure prediction by ZEFSAII (Michael W. Deem and Ramdas Pophale) SiO2 
 PCOD8076314
Probable space group: P 21/M
;
_chemical_formula_sum "Si O2"
_cell_formula_units_Z 28
_cell_length_a 11.734263
_cell_length_b 9.023245
_cell_length_c 15.563100
_cell_angle_alpha 90.000000
_cell_angle_beta 56.863809
_cell_angle_gamma 90.000000
_cell_volume 1379.856557
_symmetry_space_group_name_H-M "P 21/M"
_symmetry_group_IT_number 11
_symmetry_cell_setting 'monoclinic'
loop_
_space_group_symop_operation_xyz
x,y,z
-x,1/2+y,-z
-x,-y,-z
x,1/2-y,z
loop_
_atom_site_type_symbol
_atom_site_label
_atom_site_fract_x
_atom_site_fract_y
_atom_site_fract_z
Si Si1 0.156084 0.918522 0.646154
Si Si2 0.592904 0.925096 0.389944
Si Si3 0.139939 0.421593 0.164315
Si Si4 0.870198 0.075056 0.011092
Si Si5 0.859662 0.419736 0.543849
Si Si6 0.318223 0.081153 0.247766
Si Si7 0.593755 0.420029 0.215515
O O1 0.187596 0.750000 0.661746
O O2 0.191140 0.941789 0.532218
O O3 0.999103 0.956892 0.727882
O O4 0.249906 0.028557 0.662189
O O5 0.575612 0.750000 0.403508
O O6 0.500000 0.000000 0.500000
O O7 0.548440 0.978986 0.314096
O O8 0.146995 0.250000 0.133339
O O9 0.264705 0.465723 0.175705
O O10 0.150274 0.523871 0.077513
O O11 0.890836 0.250000 0.004371
O O12 0.737899 0.026305 0.119232
O O13 0.000000 0.000000 0.000000
O O14 0.884650 0.250000 0.555654
O O15 0.744078 0.481174 0.652649
O O16 0.000000 0.500000 0.500000
O O17 0.271820 0.250000 0.284196
O O18 0.481350 0.063031 0.186165
O O19 0.601823 0.250000 0.243321
#
# Coordination Sequence:
#
# PCOD8076314 Si02
#       7
#     4   4   4   4   4   4   4
#     4  10  21  38  59  86 121 159 202 251 302 355
#     4  12  25  40  61  89 121 158 202 248 300 361
#     4  10  21  39  62  89 121 157 197 248 303 359
#     4  11  24  42  64  92 121 157 202 252 306 360
#     4  11  21  35  57  87 123 162 201 245 296 357
#     4  10  21  40  62  88 121 161 203 247 304 362
#     4  10  23  43  65  88 122 161 201 252 305 358
#
# _framework density 20.291965000000001
#
# number of rings (size 3 to 8) (size 9 to 14) (size 15 to 20)
#    0.000    1.429    1.429    3.857    0.000   10.286 
#    0.000    0.000    0.000    0.000    0.000    0.000 
#    0.000    0.000    0.000    0.000    0.000    0.000 
#
# Total GULP energy -347329.756687 kJ/mol
# GULP energy per Si atom -12404.634167 kJ/mol
# Density = 2.024578 g / cm^3
# Si number density = 20.291965 Si / 1000 Ang^3
#
#
#
# Elastic Constant Matrix: (Units=GPa)
#
#
# Indices 1 2 3 4 5 6 
#
# 1 145.5622 52.5270 55.4266 0.0000 3.4767 0.0000
# 2 52.5270 103.2170 55.1979 0.0000 6.4100 0.0000
# 3 55.4266 55.1979 120.9561 0.0000 7.9968 0.0000
# 4 0.0000 0.0000 0.0000 35.1347 0.0000 4.8297
# 5 3.4767 6.4100 7.9968 0.0000 33.1761 0.0000
# 6 0.0000 0.0000 0.0000 4.8297 0.0000 32.5980
#
#
#
# Elastic Compliance Matrix: (Units=1/GPa)
#
#
# Indices 1 2 3 4 5 6 
#
# 1 0.009040 -0.003167 -0.002719 0.000000 0.000320 0.000000
# 2 -0.003167 0.013964 -0.004842 0.000000 -0.001199 0.000000
# 3 -0.002719 -0.004842 0.011831 0.000000 -0.001631 0.000000
# 4 0.000000 0.000000 0.000000 0.029054 0.000000 -0.004305
# 5 0.000320 -0.001199 -0.001631 0.000000 0.030734 0.000000
# 6 0.000000 0.000000 0.000000 -0.004305 0.000000 0.031315
#
#
# Mechanical properties :
#
#
# Convention : Reuss Voigt Hill
#
# Bulk Modulus (GPa) = 74.73727 77.33761 76.03744
# Shear Modulus (GPa) = 32.92716 33.95400 33.44058
#
# Velocity S-wave (km/s) = 4.03261 4.09500 4.06393
# Velocity P-wave (km/s) = 7.65464 7.78164 7.71840
#
# Compressibility (1/GPa) = 0.01338021
#
# Stress axis : x y z
#
# Youngs Moduli (GPa) = 110.61797 71.61490 84.52588
#
# Poissons Ratio (x) = 0.22677 0.22979
# Poissons Ratio (y) = 0.35027 0.40927
# Poissons Ratio (z) = 0.30073 0.34676
#
# Static dielectric constant tensor:
#      x y z
#    x 5.368740 0.000000 -0.556150 
#    y 0.000000 3.847080 0.000000 
#    z -0.556150 0.000000 4.028000 
# 
# 
# High freq. dielectric constant tensor:
#      x y z
#    x 1.810830 0.000000 0.001450 
#    y 0.000000 1.789130 0.000000 
#    z 0.001450 0.000000 1.787830 
# 
# From -- ./inp_files/49120.got.cif
#   From: 2010.06.25/outbox.cif.g09.slc.cpg/sg11_25_cif.got.tgz:49120.got - 2010.06.27 23:14:04.
