data_PCOD8076955
_publ_section_title
;
Structure prediction by ZEFSAII (Michael W. Deem and Ramdas Pophale) SiO2 
 PCOD8076955
Probable space group: P 21/M
;
_chemical_formula_sum "Si O2"
_cell_formula_units_Z 32
_cell_length_a 15.684248
_cell_length_b 17.462803
_cell_length_c 11.981132
_cell_angle_alpha 90.000000
_cell_angle_beta 152.634615
_cell_angle_gamma 90.000000
_cell_volume 1508.395987
_symmetry_space_group_name_H-M "P 21/M"
_symmetry_group_IT_number 11
_symmetry_cell_setting 'monoclinic'
loop_
_space_group_symop_operation_xyz
x,y,z
-x,1/2+y,-z
-x,-y,-z
x,1/2-y,z
loop_
_atom_site_type_symbol
_atom_site_label
_atom_site_fract_x
_atom_site_fract_y
_atom_site_fract_z
Si Si1 0.478149 0.416708 0.918910
Si Si2 0.634781 0.337471 0.298520
Si Si3 0.358952 0.337304 0.166666
Si Si4 0.968592 0.088777 0.979934
Si Si5 0.385994 0.663087 0.346296
Si Si6 0.721399 0.338537 0.021859
Si Si7 0.000539 0.916666 0.230318
Si Si8 0.918438 0.907787 0.657104
O O1 0.280387 0.406195 0.630876
O O2 0.500000 0.500000 0.000000
O O3 0.491837 0.354293 0.032506
O O4 0.640935 0.397516 0.019614
O O5 0.695700 0.250000 0.368408
O O6 0.536835 0.360844 0.299995
O O7 0.818501 0.387914 0.493991
O O8 0.303676 0.250000 0.078240
O O9 0.416037 0.350789 0.362873
O O10 0.187030 0.389043 0.928132
O O11 0.756569 0.103354 0.766759
O O12 0.006548 0.123434 0.901279
O O13 0.094486 0.122886 0.228652
O O14 0.000000 0.000000 0.000000
O O15 0.316988 0.750000 0.290684
O O16 0.403657 0.650011 0.234486
O O17 0.710090 0.250000 0.049939
O O18 0.936969 0.357851 0.247014
O O19 0.998203 0.007617 0.232839
#
# Coordination Sequence:
#
# PCOD8076955 Si02
#       8
#     4   4   4   4   4   4   4   4
#     4  12  26  44  70  93 128 175 225 268 320 388
#     4  11  24  43  63  92 135 174 218 271 319 382
#     4  10  22  37  62  97 129 169 216 263 325 392
#     4   9  19  37  60  95 131 163 204 261 324 387
#     4   9  18  38  63  93 132 169 209 267 326 385
#     4  10  24  45  68  96 131 169 216 273 333 387
#     4  11  21  38  65  96 133 171 211 264 333 392
#     4  10  24  43  65  98 129 168 219 270 327 386
#
# _framework density 21.214589
#
# number of rings (size 3 to 8) (size 9 to 14) (size 15 to 20)
#    0.000    1.750    2.500    0.750    3.500    3.000 
#    0.000    3.125    0.000    0.000    0.000    0.000 
#    0.000    0.000    0.000    0.000    0.000    0.000 
#
# Total GULP energy -396661.950282 kJ/mol
# GULP energy per Si atom -12395.685946 kJ/mol
# Density = 2.116630 g / cm^3
# Si number density = 21.214589 Si / 1000 Ang^3
#
#
#
# Elastic Constant Matrix: (Units=GPa)
#
#
# Indices 1 2 3 4 5 6 
#
# 1 72.7297 42.1687 26.2174 0.0000 -9.4522 0.0000
# 2 42.1687 71.8532 26.3113 0.0000 9.3179 0.0000
# 3 26.2174 26.3113 124.1316 0.0000 -6.5113 0.0000
# 4 0.0000 0.0000 0.0000 33.8230 0.0000 2.2322
# 5 -9.4522 9.3179 -6.5113 0.0000 29.8126 0.0000
# 6 0.0000 0.0000 0.0000 2.2322 0.0000 33.3368
#
#
#
# Elastic Compliance Matrix: (Units=1/GPa)
#
#
# Indices 1 2 3 4 5 6 
#
# 1 0.025052 -0.015878 -0.001263 0.000000 0.012629 0.000000
# 2 -0.015878 0.026090 -0.002902 0.000000 -0.013822 0.000000
# 3 -0.001263 -0.002902 0.009068 0.000000 0.002487 0.000000
# 4 0.000000 0.000000 0.000000 0.029697 0.000000 -0.001988
# 5 0.012629 -0.013822 0.002487 0.000000 0.042410 0.000000
# 6 0.000000 0.000000 0.000000 -0.001988 0.000000 0.030130
#
#
# Mechanical properties :
#
#
# Convention : Reuss Voigt Hill
#
# Bulk Modulus (GPa) = 49.68801 50.90104 50.29453
# Shear Modulus (GPa) = 23.89576 30.99562 27.44569
#
# Velocity S-wave (km/s) = 3.35980 3.82652 3.60073
# Velocity P-wave (km/s) = 6.20673 6.60064 6.40672
#
# Compressibility (1/GPa) = 0.02012558
#
# Stress axis : x y z
#
# Youngs Moduli (GPa) = 39.91677 38.32814 110.27425
#
# Poissons Ratio (x) = 0.60856 0.13930
# Poissons Ratio (y) = 0.63378 0.31999
# Poissons Ratio (z) = 0.05042 0.11122
#
# Static dielectric constant tensor:
#      x y z
#    x 3.996150 0.000000 -0.339280 
#    y 0.000000 3.715370 0.000000 
#    z -0.339280 0.000000 3.816460 
# 
# 
# High freq. dielectric constant tensor:
#      x y z
#    x 1.827040 0.000000 -0.013910 
#    y 0.000000 1.824270 0.000000 
#    z -0.013910 0.000000 1.834090 
# 
# From -- ./inp_files/40005.got.cif
#   From: 2010.06.25/outbox.cif.g09.slc.cpg/sg11_21_cif.got.tgz:40005.got - 2010.06.27 23:14:04.
