data_PCOD8076925
_publ_section_title
;
Structure prediction by ZEFSAII (Michael W. Deem and Ramdas Pophale) SiO2 
 PCOD8076925
Probable space group: P 21/M
;
_chemical_formula_sum "Si O2"
_cell_formula_units_Z 32
_cell_length_a 9.838524
_cell_length_b 23.947139
_cell_length_c 15.983736
_cell_angle_alpha 90.000000
_cell_angle_beta 154.626715
_cell_angle_gamma 90.000000
_cell_volume 1613.714828
_symmetry_space_group_name_H-M "P 21/M"
_symmetry_group_IT_number 11
_symmetry_cell_setting 'monoclinic'
loop_
_space_group_symop_operation_xyz
x,y,z
-x,1/2+y,-z
-x,-y,-z
x,1/2-y,z
loop_
_atom_site_type_symbol
_atom_site_label
_atom_site_fract_x
_atom_site_fract_y
_atom_site_fract_z
Si Si1 0.177205 0.126557 0.038273
Si Si2 0.351720 0.960960 0.244590
Si Si3 0.308465 0.079617 0.276187
Si Si4 0.001590 0.398137 0.693595
Si Si5 0.196972 0.100942 0.392060
Si Si6 0.567177 0.425667 0.124298
Si Si7 0.257466 0.034629 0.695364
Si Si8 0.762452 0.314202 0.685858
O O1 0.924791 0.078529 0.879516
O O2 0.016328 0.180434 0.904342
O O3 0.252965 0.131618 0.180192
O O4 0.503051 0.107232 0.175456
O O5 0.641135 0.951212 0.470315
O O6 0.462865 0.946689 0.211778
O O7 0.219422 0.024080 0.175211
O O8 0.097178 0.086756 0.241051
O O9 0.664219 0.071213 0.507993
O O10 0.130231 0.408155 0.669757
O O11 0.923667 0.336223 0.687937
O O12 0.251667 0.425872 0.893869
O O13 0.429358 0.154925 0.522702
O O14 0.856655 0.109981 0.246096
O O15 0.629754 0.491389 0.171104
O O16 0.000000 0.000000 0.500000
O O17 0.679395 0.250000 0.626443
#
# Coordination Sequence:
#
# PCOD8076925 Si02
#       8
#     4   4   4   4   4   4   4   4
#     4  10  22  37  59  87 116 159 203 239 291 359
#     4  11  21  34  53  83 127 171 197 229 288 354
#     4  11  20  37  53  85 125 161 198 231 286 357
#     4  10  22  35  57  87 120 162 200 240 293 357
#     4  10  22  35  58  86 113 153 199 247 291 353
#     4  11  21  36  53  88 126 159 197 238 296 359
#     4  12  20  33  55  89 131 170 195 243 287 354
#     4   9  21  45  66  81 109 150 199 257 309 351
#
# _framework density 19.830022
#
# number of rings (size 3 to 8) (size 9 to 14) (size 15 to 20)
#    0.000    1.500    3.750    1.875    1.750    3.000 
#    0.000    5.000    0.000    3.000    0.000    0.000 
#    0.000    0.000    0.000    0.000    0.000    0.000 
#
# Total GULP energy -396426.509677 kJ/mol
# GULP energy per Si atom -12388.328427 kJ/mol
# Density = 1.978489 g / cm^3
# Si number density = 19.830022 Si / 1000 Ang^3
#
#
#
# Elastic Constant Matrix: (Units=GPa)
#
#
# Indices 1 2 3 4 5 6 
#
# 1 152.3839 36.8160 30.9354 0.0000 3.5499 0.0000
# 2 36.8160 83.0325 13.6199 0.0000 0.3488 0.0000
# 3 30.9354 13.6199 75.1384 0.0000 -3.3275 0.0000
# 4 0.0000 0.0000 0.0000 14.4186 0.0000 -0.7935
# 5 3.5499 0.3488 -3.3275 0.0000 35.0744 0.0000
# 6 0.0000 0.0000 0.0000 -0.7935 0.0000 20.5749
#
#
#
# Elastic Compliance Matrix: (Units=1/GPa)
#
#
# Indices 1 2 3 4 5 6 
#
# 1 0.007876 -0.003039 -0.002737 0.000000 -0.001027 0.000000
# 2 -0.003039 0.013589 -0.001209 0.000000 0.000058 0.000000
# 3 -0.002737 -0.001209 0.014730 0.000000 0.001686 0.000000
# 4 0.000000 0.000000 0.000000 0.069502 0.000000 0.002681
# 5 -0.001027 0.000058 0.001686 0.000000 0.028774 0.000000
# 6 0.000000 0.000000 0.000000 0.002681 0.000000 0.048706
#
#
# Mechanical properties :
#
#
# Convention : Reuss Voigt Hill
#
# Bulk Modulus (GPa) = 44.99753 52.58859 48.79306
# Shear Modulus (GPa) = 24.44306 29.29248 26.86777
#
# Velocity S-wave (km/s) = 3.51469 3.84758 3.68489
# Velocity P-wave (km/s) = 6.26192 6.80557 6.53939
#
# Compressibility (1/GPa) = 0.02222344
#
# Stress axis : x y z
#
# Youngs Moduli (GPa) = 126.96479 73.58859 67.89012
#
# Poissons Ratio (x) = 0.22363 0.18584
# Poissons Ratio (y) = 0.38584 0.08211
# Poissons Ratio (z) = 0.34755 0.08900
#
# Static dielectric constant tensor:
#      x y z
#    x 4.084680 0.000000 -0.078610 
#    y 0.000000 3.071810 0.000000 
#    z -0.078610 0.000000 3.831420 
# 
# 
# High freq. dielectric constant tensor:
#      x y z
#    x 1.789760 0.000000 -0.003780 
#    y 0.000000 1.700740 0.000000 
#    z -0.003780 0.000000 1.793290 
# 
# From -- ./inp_files/23440.got.cif
#   From: 2010.06.25/outbox.cif.g09.slc.cpg/sg11_12_cif.got.tgz:23440.got - 2010.06.27 23:14:04.
