data_PCOD8076582
_publ_section_title
;
Structure prediction by ZEFSAII (Michael W. Deem and Ramdas Pophale) SiO2 
 PCOD8076582
Probable space group: P 21/M
;
_chemical_formula_sum "Si O2"
_cell_formula_units_Z 28
_cell_length_a 14.404167
_cell_length_b 9.120374
_cell_length_c 12.427481
_cell_angle_alpha 90.000000
_cell_angle_beta 59.761568
_cell_angle_gamma 90.000000
_cell_volume 1410.477224
_symmetry_space_group_name_H-M "P 21/M"
_symmetry_group_IT_number 11
_symmetry_cell_setting 'monoclinic'
loop_
_space_group_symop_operation_xyz
x,y,z
-x,1/2+y,-z
-x,-y,-z
x,1/2-y,z
loop_
_atom_site_type_symbol
_atom_site_label
_atom_site_fract_x
_atom_site_fract_y
_atom_site_fract_z
Si Si1 0.108535 0.917608 0.460850
Si Si2 0.111902 0.920897 0.917091
Si Si3 0.276935 0.418012 0.218125
Si Si4 0.793876 0.414589 0.369133
Si Si5 0.497371 0.418669 0.188354
Si Si6 0.718585 0.920835 0.029961
Si Si7 0.581119 0.581055 0.528499
O O1 0.095177 0.750000 0.434046
O O2 0.126730 0.934013 0.577179
O O3 0.207854 0.980888 0.336119
O O4 0.000000 0.000000 0.500000
O O5 0.101273 0.750000 0.952075
O O6 0.139657 0.945787 0.776794
O O7 0.204127 0.989295 0.937376
O O8 0.000000 0.000000 0.000000
O O9 0.256142 0.250000 0.264613
O O10 0.403909 0.453818 0.156380
O O11 0.242842 0.445498 0.114970
O O12 0.745028 0.250000 0.395654
O O13 0.700363 0.531459 0.432062
O O14 0.536214 0.250000 0.157712
O O15 0.596970 0.524751 0.112095
O O16 0.445902 0.454013 0.333259
O O17 0.722842 0.750000 0.058620
O O18 0.500000 0.500000 0.500000
O O19 0.572079 0.750000 0.506647
#
# Coordination Sequence:
#
# PCOD8076582 Si02
#       7
#     4   4   4   4   4   4   4
#     4  11  24  41  65  95 125 161 206 257 312 369
#     4  11  25  45  66  90 123 163 208 256 309 368
#     4  10  22  42  64  91 128 165 206 255 308 365
#     4  10  23  43  64  89 123 160 202 255 307 360
#     4  10  21  39  61  89 125 164 204 251 307 366
#     4  11  24  40  63  93 126 165 208 257 307 363
#     4  11  22  36  60  90 124 163 204 250 302 363
#
# _framework density 19.851438000000002
#
# number of rings (size 3 to 8) (size 9 to 14) (size 15 to 20)
#    0.000    1.429    1.429    3.000    2.000    8.000 
#    0.000    0.000    0.000    0.000    0.000    0.000 
#    0.000    0.000    0.000    0.000    0.000    0.000 
#
# Total GULP energy -347330.716809 kJ/mol
# GULP energy per Si atom -12404.668457 kJ/mol
# Density = 1.980625 g / cm^3
# Si number density = 19.851438 Si / 1000 Ang^3
#
#
#
# Elastic Constant Matrix: (Units=GPa)
#
#
# Indices 1 2 3 4 5 6 
#
# 1 119.3138 65.8220 52.5185 0.0000 4.0029 0.0000
# 2 65.8220 124.2044 68.3807 0.0000 5.5491 0.0000
# 3 52.5185 68.3807 106.3915 0.0000 6.9041 0.0000
# 4 0.0000 0.0000 0.0000 31.2390 0.0000 -7.6484
# 5 4.0029 5.5491 6.9041 0.0000 27.7128 0.0000
# 6 0.0000 0.0000 0.0000 -7.6484 0.0000 41.7847
#
#
#
# Elastic Compliance Matrix: (Units=1/GPa)
#
#
# Indices 1 2 3 4 5 6 
#
# 1 0.012411 -0.004958 -0.002935 0.000000 -0.000069 0.000000
# 2 -0.004958 0.014448 -0.006808 0.000000 -0.000481 0.000000
# 3 -0.002935 -0.006808 0.015356 0.000000 -0.002039 0.000000
# 4 0.000000 0.000000 0.000000 0.033513 0.000000 0.006134
# 5 -0.000069 -0.000481 -0.002039 0.000000 0.036699 0.000000
# 6 0.000000 0.000000 0.000000 0.006134 0.000000 0.025055
#
#
# Mechanical properties :
#
#
# Convention : Reuss Voigt Hill
#
# Bulk Modulus (GPa) = 78.04510 80.37246 79.20878
# Shear Modulus (GPa) = 29.21342 31.02653 30.11998
#
# Velocity S-wave (km/s) = 3.84031 3.95769 3.89944
# Velocity P-wave (km/s) = 7.68530 7.83960 7.76283
#
# Compressibility (1/GPa) = 0.01281310
#
# Stress axis : x y z
#
# Youngs Moduli (GPa) = 80.57517 69.21327 65.12163
#
# Poissons Ratio (x) = 0.34316 0.19115
# Poissons Ratio (y) = 0.39949 0.44332
# Poissons Ratio (z) = 0.23651 0.47117
#
# Static dielectric constant tensor:
#      x y z
#    x 3.414710 0.000000 0.180220 
#    y 0.000000 3.652250 0.000000 
#    z 0.180220 0.000000 3.731290 
# 
# 
# High freq. dielectric constant tensor:
#      x y z
#    x 1.786380 0.000000 0.007740 
#    y 0.000000 1.783990 0.000000 
#    z 0.007740 0.000000 1.782620 
# 
# From -- ./inp_files/37852.got.cif
#   From: 2010.06.25/outbox.cif.g09.slc.cpg/sg11_19_cif.got.tgz:37852.got - 2010.06.27 23:14:04.
