data_PCOD8076815
_publ_section_title
;
Structure prediction by ZEFSAII (Michael W. Deem and Ramdas Pophale) SiO2 
 PCOD8076815
Probable space group: P 21/M
;
_chemical_formula_sum "Si O2"
_cell_formula_units_Z 32
_cell_length_a 28.667441
_cell_length_b 9.608853
_cell_length_c 11.186943
_cell_angle_alpha 90.000000
_cell_angle_beta 30.520207
_cell_angle_gamma 90.000000
_cell_volume 1564.950830
_symmetry_space_group_name_H-M "P 21/M"
_symmetry_group_IT_number 11
_symmetry_cell_setting 'monoclinic'
loop_
_space_group_symop_operation_xyz
x,y,z
-x,1/2+y,-z
-x,-y,-z
x,1/2-y,z
loop_
_atom_site_type_symbol
_atom_site_label
_atom_site_fract_x
_atom_site_fract_y
_atom_site_fract_z
Si Si1 0.300478 0.583675 0.621941
Si Si2 0.772965 0.906639 0.411731
Si Si3 0.375698 0.910801 0.852007
Si Si4 0.935624 0.531746 0.464883
Si Si5 0.762825 0.598799 0.710018
Si Si6 0.877509 0.097616 0.838983
Si Si7 0.419418 0.411937 0.527487
Si Si8 0.977611 0.901287 0.941069
O O1 0.317135 0.750000 0.581247
O O2 0.291457 0.522540 0.507859
O O3 0.386856 0.500840 0.485715
O O4 0.209630 0.538672 0.896336
O O5 0.733911 0.750000 0.477333
O O6 0.783031 0.940419 0.529038
O O7 0.872775 0.920995 0.131334
O O8 0.354538 0.750000 0.862581
O O9 0.470719 0.919191 0.713888
O O10 0.376817 0.010122 0.735174
O O11 0.295854 0.970582 0.111230
O O12 0.858072 0.622342 0.571137
O O13 0.893664 0.488985 0.684190
O O14 0.031589 0.609684 0.278949
O O15 0.959877 0.411636 0.315886
O O16 0.711892 0.750000 0.830462
O O17 0.850636 0.250000 0.854288
O O18 0.386560 0.250000 0.596936
O O19 0.993641 0.750000 0.960924
O O20 0.000000 0.000000 0.000000
#
# Coordination Sequence:
#
# PCOD8076815 Si02
#       8
#     4   4   4   4   4   4   4   4
#     4  11  22  38  61  89 120 157 199 248 300 351
#     4  10  22  40  57  82 118 157 205 250 294 355
#     4  10  22  40  64  94 124 152 193 245 294 355
#     4  11  21  37  56  82 117 159 200 242 294 352
#     4  11  23  39  61  86 117 160 202 249 301 352
#     4  10  22  36  52  81 119 154 193 240 289 347
#     4  10  21  40  66  93 122 157 191 236 299 359
#     4  11  22  37  58  82 113 157 206 253 297 348
#
# _framework density 20.447928000000001
#
# number of rings (size 3 to 8) (size 9 to 14) (size 15 to 20)
#    0.000    1.500    2.500    2.625    0.000    5.000 
#    0.000    1.875    0.000    0.000    0.000    0.000 
#    0.000    0.000    0.000    0.000    0.000    0.000 
#
# Total GULP energy -396582.855688 kJ/mol
# GULP energy per Si atom -12393.214240 kJ/mol
# Density = 2.040139 g / cm^3
# Si number density = 20.447928 Si / 1000 Ang^3
#
#
#
# Elastic Constant Matrix: (Units=GPa)
#
#
# Indices 1 2 3 4 5 6 
#
# 1 127.7514 60.3959 23.0602 0.0000 1.5502 0.0000
# 2 60.3959 140.7687 26.2644 0.0000 -3.7359 0.0000
# 3 23.0602 26.2644 56.1286 0.0000 0.5269 0.0000
# 4 0.0000 0.0000 0.0000 24.2331 0.0000 -1.0462
# 5 1.5502 -3.7359 0.5269 0.0000 20.3337 0.0000
# 6 0.0000 0.0000 0.0000 -1.0462 0.0000 31.4739
#
#
#
# Elastic Compliance Matrix: (Units=1/GPa)
#
#
# Indices 1 2 3 4 5 6 
#
# 1 0.010130 -0.003956 -0.002297 0.000000 -0.001440 0.000000
# 2 -0.003956 0.009376 -0.002782 0.000000 0.002096 0.000000
# 3 -0.002297 -0.002782 0.020070 0.000000 -0.000856 0.000000
# 4 0.000000 0.000000 0.000000 0.041325 0.000000 0.001374
# 5 -0.001440 0.002096 -0.000856 0.000000 0.049696 0.000000
# 6 0.000000 0.000000 0.000000 0.001374 0.000000 0.031818
#
#
# Mechanical properties :
#
#
# Convention : Reuss Voigt Hill
#
# Bulk Modulus (GPa) = 46.49881 60.45440 53.47660
# Shear Modulus (GPa) = 26.64491 29.53671 28.09081
#
# Velocity S-wave (km/s) = 3.61371 3.80476 3.71047
# Velocity P-wave (km/s) = 6.34045 6.99506 6.67578
#
# Compressibility (1/GPa) = 0.02150593
#
# Stress axis : x y z
#
# Youngs Moduli (GPa) = 98.71675 106.65897 49.82630
#
# Poissons Ratio (x) = 0.42192 0.11447
# Poissons Ratio (y) = 0.39050 0.13860
# Poissons Ratio (z) = 0.22678 0.29669
#
# Static dielectric constant tensor:
#      x y z
#    x 3.736130 0.000000 -0.089990 
#    y 0.000000 3.491490 0.000000 
#    z -0.089990 0.000000 3.557900 
# 
# 
# High freq. dielectric constant tensor:
#      x y z
#    x 1.805080 0.000000 -0.000440 
#    y 0.000000 1.803620 0.000000 
#    z -0.000440 0.000000 1.781390 
# 
# From -- ./inp_files/45135.got.cif
#   From: 2010.06.25/outbox.cif.g09.slc.cpg/sg11_23_cif.got.tgz:45135.got - 2010.06.27 23:14:04.
