data_PCOD8076586
_publ_section_title
;
Structure prediction by ZEFSAII (Michael W. Deem and Ramdas Pophale) SiO2 
 PCOD8076586
Probable space group: P 21/M
;
_chemical_formula_sum "Si O2"
_cell_formula_units_Z 24
_cell_length_a 12.060859
_cell_length_b 8.885852
_cell_length_c 11.472132
_cell_angle_alpha 90.000000
_cell_angle_beta 70.115209
_cell_angle_gamma 90.000000
_cell_volume 1156.176447
_symmetry_space_group_name_H-M "P 21/M"
_symmetry_group_IT_number 11
_symmetry_cell_setting 'monoclinic'
loop_
_space_group_symop_operation_xyz
x,y,z
-x,1/2+y,-z
-x,-y,-z
x,1/2-y,z
loop_
_atom_site_type_symbol
_atom_site_label
_atom_site_fract_x
_atom_site_fract_y
_atom_site_fract_z
Si Si1 0.670027 0.926072 0.698191
Si Si2 0.733689 0.422252 0.156662
Si Si3 0.222267 0.426527 0.092087
Si Si4 0.894126 0.925872 0.470444
Si Si5 0.533414 0.928351 0.364651
Si Si6 0.955987 0.421732 0.219135
O O1 0.640243 0.750000 0.698406
O O2 0.709331 0.968390 0.814565
O O3 0.772130 0.974201 0.572858
O O4 0.556425 0.022689 0.704930
O O5 0.690598 0.250000 0.174660
O O6 0.661615 0.515011 0.279100
O O7 0.873305 0.434812 0.135109
O O8 0.712261 0.488125 0.035797
O O9 0.226001 0.250000 0.064704
O O10 0.086945 0.483001 0.147522
O O11 0.912203 0.750000 0.472214
O O12 0.892366 0.978561 0.338753
O O13 0.000000 0.000000 0.500000
O O14 0.535075 0.750000 0.378450
O O15 0.500000 0.000000 0.500000
O O16 0.964547 0.250000 0.261037
#
# Coordination Sequence:
#
# PCOD8076586 Si02
#       6
#     4   4   4   4   4   4
#     4  10  22  41  64  91 126 166 207 256 307 362
#     4  11  24  41  64  93 125 163 210 256 304 368
#     4  10  21  40  63  90 128 166 204 253 310 366
#     4  11  21  35  59  90 124 160 200 250 306 364
#     4  12  26  45  68  92 122 160 205 257 310 368
#     4  10  21  39  61  90 127 165 207 256 307 362
#
# _framework density 20.758078999999999
#
# number of rings (size 3 to 8) (size 9 to 14) (size 15 to 20)
#    0.000    1.333    1.667    4.000    0.000    7.333 
#    0.000    0.000    0.000    0.000    0.000    0.000 
#    0.000    0.000    0.000    0.000    0.000    0.000 
#
# Total GULP energy -297720.570712 kJ/mol
# GULP energy per Si atom -12405.023780 kJ/mol
# Density = 2.071083 g / cm^3
# Si number density = 20.758079 Si / 1000 Ang^3
#
#
#
# Elastic Constant Matrix: (Units=GPa)
#
#
# Indices 1 2 3 4 5 6 
#
# 1 102.3793 40.8217 33.0954 0.0000 5.6237 0.0000
# 2 40.8217 86.3942 41.6010 0.0000 1.2885 0.0000
# 3 33.0954 41.6010 128.9424 0.0000 6.3101 0.0000
# 4 0.0000 0.0000 0.0000 39.4838 0.0000 0.3072
# 5 5.6237 1.2885 6.3101 0.0000 28.5051 0.0000
# 6 0.0000 0.0000 0.0000 0.3072 0.0000 32.1901
#
#
#
# Elastic Compliance Matrix: (Units=1/GPa)
#
#
# Indices 1 2 3 4 5 6 
#
# 1 0.012380 -0.005134 -0.001429 0.000000 -0.001894 0.000000
# 2 -0.005134 0.015836 -0.003848 0.000000 0.001149 0.000000
# 3 -0.001429 -0.003848 0.009444 0.000000 -0.001635 0.000000
# 4 0.000000 0.000000 0.000000 0.025329 0.000000 -0.000242
# 5 -0.001894 0.001149 -0.001635 0.000000 0.035765 0.000000
# 6 0.000000 0.000000 0.000000 -0.000242 0.000000 0.031068
#
#
# Mechanical properties :
#
#
# Convention : Reuss Voigt Hill
#
# Bulk Modulus (GPa) = 59.38294 60.97246 60.17770
# Shear Modulus (GPa) = 31.99889 33.51564 32.75726
#
# Velocity S-wave (km/s) = 3.93047 4.02255 3.97678
# Velocity P-wave (km/s) = 7.01907 7.14221 7.08091
#
# Compressibility (1/GPa) = 0.01683985
#
# Stress axis : x y z
#
# Youngs Moduli (GPa) = 80.77274 63.14635 105.89248
#
# Poissons Ratio (x) = 0.32417 0.15129
# Poissons Ratio (y) = 0.41466 0.40746
# Poissons Ratio (z) = 0.11540 0.24298
#
# Static dielectric constant tensor:
#      x y z
#    x 3.795370 0.000000 -0.014100 
#    y 0.000000 4.031020 0.000000 
#    z -0.014100 0.000000 3.865030 
# 
# 
# High freq. dielectric constant tensor:
#      x y z
#    x 1.820620 0.000000 0.004160 
#    y 0.000000 1.808840 0.000000 
#    z 0.004160 0.000000 1.817440 
# 
# From -- ./inp_files/33700.got.cif
#   From: 2010.06.25/outbox.cif.g09.slc.cpg/sg11_17_cif.got.tgz:33700.got - 2010.06.27 23:14:04.
