data_PCOD8076896
_publ_section_title
;
Structure prediction by ZEFSAII (Michael W. Deem and Ramdas Pophale) SiO2 
 PCOD8076896
Probable space group: P 21/M
;
_chemical_formula_sum "Si O2"
_cell_formula_units_Z 32
_cell_length_a 23.449845
_cell_length_b 8.645760
_cell_length_c 14.194198
_cell_angle_alpha 90.000000
_cell_angle_beta 33.034388
_cell_angle_gamma 90.000000
_cell_volume 1568.786661
_symmetry_space_group_name_H-M "P 21/M"
_symmetry_group_IT_number 11
_symmetry_cell_setting 'monoclinic'
loop_
_space_group_symop_operation_xyz
x,y,z
-x,1/2+y,-z
-x,-y,-z
x,1/2-y,z
loop_
_atom_site_type_symbol
_atom_site_label
_atom_site_fract_x
_atom_site_fract_y
_atom_site_fract_z
Si Si1 0.109553 0.433156 0.814735
Si Si2 0.439731 0.071995 0.170863
Si Si3 0.785623 0.430779 0.508022
Si Si4 0.693636 0.567123 0.341940
Si Si5 0.882797 0.928920 0.552931
Si Si6 0.295636 0.430901 0.886173
Si Si7 0.514819 0.428073 0.270337
Si Si8 0.878215 0.429154 0.754149
O O1 0.102685 0.250000 0.827721
O O2 0.135875 0.483835 0.672078
O O3 0.200315 0.498718 0.758146
O O4 0.000000 0.500000 0.000000
O O5 0.413505 0.250000 0.185440
O O6 0.514397 0.056552 0.158142
O O7 0.332749 0.985052 0.342050
O O8 0.500000 0.000000 0.000000
O O9 0.792563 0.250000 0.479366
O O10 0.820329 0.467618 0.565823
O O11 0.696893 0.750000 0.345466
O O12 0.682094 0.511902 0.250554
O O13 0.593526 0.505676 0.537758
O O14 0.859362 0.750000 0.565400
O O15 0.004925 0.969703 0.375509
O O16 0.843374 0.971740 0.711846
O O17 0.270128 0.250000 0.924896
O O18 0.393393 0.466600 0.816961
O O19 0.195048 0.525978 0.058080
O O20 0.533023 0.250000 0.275510
O O21 0.866999 0.250000 0.743500
#
# Coordination Sequence:
#
# PCOD8076896 Si02
#       8
#     4   4   4   4   4   4   4   4
#     4  11  23  43  66  95 130 169 215 264 320 379
#     4  11  24  43  67  93 128 169 213 265 320 382
#     4  12  25  42  66  97 130 169 212 262 322 385
#     4   9  20  41  64  87 121 162 203 253 310 367
#     4  10  22  41  65  90 122 163 207 256 310 370
#     4  11  23  37  61  93 123 159 204 254 309 371
#     4  10  21  42  65  86 120 164 204 255 315 368
#     4  10  22  41  62  90 124 161 205 255 308 370
#
# _framework density 20.397929000000001
#
# number of rings (size 3 to 8) (size 9 to 14) (size 15 to 20)
#    0.000    1.500    1.250    3.375    3.500    2.500 
#    0.000    2.500    0.000    0.000    0.000    0.000 
#    0.000    0.000    0.000    0.000    0.000    0.000 
#
# Total GULP energy -396981.227149 kJ/mol
# GULP energy per Si atom -12405.663348 kJ/mol
# Density = 2.035150 g / cm^3
# Si number density = 20.397929 Si / 1000 Ang^3
#
#
#
# Elastic Constant Matrix: (Units=GPa)
#
#
# Indices 1 2 3 4 5 6 
#
# 1 86.1163 24.2760 10.0387 0.0000 7.6320 0.0000
# 2 24.2760 69.8063 21.0484 0.0000 -2.9850 0.0000
# 3 10.0387 21.0484 93.0796 0.0000 14.8871 0.0000
# 4 0.0000 0.0000 0.0000 36.4551 0.0000 -0.2309
# 5 7.6320 -2.9850 14.8871 0.0000 30.2926 0.0000
# 6 0.0000 0.0000 0.0000 -0.2309 0.0000 32.5445
#
#
#
# Elastic Compliance Matrix: (Units=1/GPa)
#
#
# Indices 1 2 3 4 5 6 
#
# 1 0.013309 -0.004892 0.000308 0.000000 -0.003987 0.000000
# 2 -0.004892 0.017521 -0.004241 0.000000 0.005043 0.000000
# 3 0.000308 -0.004241 0.012751 0.000000 -0.006762 0.000000
# 4 0.000000 0.000000 0.000000 0.027432 0.000000 0.000195
# 5 -0.003987 0.005043 -0.006762 0.000000 0.037836 0.000000
# 6 0.000000 0.000000 0.000000 0.000195 0.000000 0.030729
#
#
# Mechanical properties :
#
#
# Convention : Reuss Voigt Hill
#
# Bulk Modulus (GPa) = 38.56304 39.96984 39.26644
# Shear Modulus (GPa) = 30.14419 32.76771 31.45595
#
# Velocity S-wave (km/s) = 3.84840 4.01237 3.93124
# Velocity P-wave (km/s) = 6.22039 6.41117 6.31650
#
# Compressibility (1/GPa) = 0.02593157
#
# Stress axis : x y z
#
# Youngs Moduli (GPa) = 75.13987 57.07449 78.42652
#
# Poissons Ratio (x) = 0.27919 -0.02419
# Poissons Ratio (y) = 0.36756 0.33262
# Poissons Ratio (z) = -0.02318 0.24206
#
# Static dielectric constant tensor:
#      x y z
#    x 3.755170 0.000000 0.016870 
#    y 0.000000 3.596370 0.000000 
#    z 0.016870 0.000000 3.782800 
# 
# 
# High freq. dielectric constant tensor:
#      x y z
#    x 1.806180 0.000000 0.003000 
#    y 0.000000 1.792250 0.000000 
#    z 0.003000 0.000000 1.805890 
# 
# From -- ./inp_files/55584.got.cif
#   From: 2010.06.25/outbox.cif.g09.slc.cpg/sg11_28_cif.got.tgz:55584.got - 2010.06.27 23:14:04.
