data_PCOD8076572
_publ_section_title
;
Structure prediction by ZEFSAII (Michael W. Deem and Ramdas Pophale) SiO2 
 PCOD8076572
Probable space group: P 21/M
;
_chemical_formula_sum "Si O2"
_cell_formula_units_Z 28
_cell_length_a 14.480617
_cell_length_b 8.927780
_cell_length_c 12.598149
_cell_angle_alpha 90.000000
_cell_angle_beta 59.932713
_cell_angle_gamma 90.000000
_cell_volume 1409.525884
_symmetry_space_group_name_H-M "P 21/M"
_symmetry_group_IT_number 11
_symmetry_cell_setting 'monoclinic'
loop_
_space_group_symop_operation_xyz
x,y,z
-x,1/2+y,-z
-x,-y,-z
x,1/2-y,z
loop_
_atom_site_type_symbol
_atom_site_label
_atom_site_fract_x
_atom_site_fract_y
_atom_site_fract_z
Si Si1 0.109750 0.921964 0.463686
Si Si2 0.111476 0.925679 0.910729
Si Si3 0.272867 0.426946 0.214953
Si Si4 0.794748 0.420727 0.367242
Si Si5 0.488330 0.426428 0.194990
Si Si6 0.722354 0.072161 0.005739
Si Si7 0.577635 0.573280 0.538179
O O1 0.107152 0.750000 0.427655
O O2 0.123860 0.933729 0.582013
O O3 0.205864 0.005408 0.349915
O O4 0.000000 0.000000 0.500000
O O5 0.095396 0.750000 0.928433
O O6 0.145828 0.974267 0.773160
O O7 0.201626 0.979207 0.941994
O O8 0.000000 0.000000 0.000000
O O9 0.254244 0.250000 0.224360
O O10 0.397463 0.469018 0.161651
O O11 0.234047 0.497070 0.126740
O O12 0.752913 0.250000 0.378483
O O13 0.697683 0.531348 0.441949
O O14 0.499126 0.250000 0.199467
O O15 0.453522 0.492126 0.328726
O O16 0.603292 0.492173 0.095817
O O17 0.722271 0.250000 0.991331
O O18 0.500000 0.500000 0.500000
O O19 0.564720 0.750000 0.541318
#
# Coordination Sequence:
#
# PCOD8076572 Si02
#       7
#     4   4   4   4   4   4   4
#     4  11  24  41  64  93 125 160 203 253 306 365
#     4  10  23  42  63  87 120 159 203 252 305 361
#     4  11  22  39  62  91 124 160 202 250 304 363
#     4  10  22  42  64  89 121 159 201 251 304 361
#     4   9  19  37  60  86 121 159 198 246 304 361
#     4  10  21  39  61  87 120 162 204 248 303 360
#     4  11  21  36  60  90 124 162 202 247 299 360
#
# _framework density 19.864834999999999
#
# number of rings (size 3 to 8) (size 9 to 14) (size 15 to 20)
#    0.000    1.714    1.429    2.571    2.000    4.000 
#    0.000    3.571    0.000    0.000    0.000    0.000 
#    0.000    0.000    0.000    0.000    0.000    0.000 
#
# Total GULP energy -347294.858235 kJ/mol
# GULP energy per Si atom -12403.387794 kJ/mol
# Density = 1.981962 g / cm^3
# Si number density = 19.864835 Si / 1000 Ang^3
#
#
#
# Elastic Constant Matrix: (Units=GPa)
#
#
# Indices 1 2 3 4 5 6 
#
# 1 129.9965 44.6305 54.8450 0.0000 3.6136 0.0000
# 2 44.6305 64.3547 34.5975 0.0000 4.8178 0.0000
# 3 54.8450 34.5975 135.0606 0.0000 14.7643 0.0000
# 4 0.0000 0.0000 0.0000 31.7484 0.0000 -3.9986
# 5 3.6136 4.8178 14.7643 0.0000 38.0766 0.0000
# 6 0.0000 0.0000 0.0000 -3.9986 0.0000 33.4521
#
#
#
# Elastic Compliance Matrix: (Units=1/GPa)
#
#
# Indices 1 2 3 4 5 6 
#
# 1 0.011034 -0.006097 -0.003016 0.000000 0.000894 0.000000
# 2 -0.006097 0.021399 -0.002896 0.000000 -0.001006 0.000000
# 3 -0.003016 -0.002896 0.009711 0.000000 -0.003113 0.000000
# 4 0.000000 0.000000 0.000000 0.031979 0.000000 0.003823
# 5 0.000894 -0.001006 -0.003113 0.000000 0.027512 0.000000
# 6 0.000000 0.000000 0.000000 0.003823 0.000000 0.030350
#
#
# Mechanical properties :
#
#
# Convention : Reuss Voigt Hill
#
# Bulk Modulus (GPa) = 55.17127 66.39530 60.78328
# Shear Modulus (GPa) = 30.85540 33.67801 32.26670
#
# Velocity S-wave (km/s) = 3.94543 4.12194 4.03465
# Velocity P-wave (km/s) = 6.97057 7.49333 7.23667
#
# Compressibility (1/GPa) = 0.01812538
#
# Stress axis : x y z
#
# Youngs Moduli (GPa) = 90.63299 46.73014 102.97583
#
# Poissons Ratio (x) = 0.28492 0.31061
# Poissons Ratio (y) = 0.55260 0.29820
# Poissons Ratio (z) = 0.27338 0.13532
#
# Static dielectric constant tensor:
#      x y z
#    x 3.379630 0.000000 0.214740 
#    y 0.000000 3.468560 0.000000 
#    z 0.214740 0.000000 3.762520 
# 
# 
# High freq. dielectric constant tensor:
#      x y z
#    x 1.785960 0.000000 0.005840 
#    y 0.000000 1.760820 0.000000 
#    z 0.005840 0.000000 1.787050 
# 
# From -- ./inp_files/37853.got.cif
#   From: 2010.06.25/outbox.cif.g09.slc.cpg/sg11_19_cif.got.tgz:37853.got - 2010.06.27 23:14:04.
