data_PCOD8076103
_publ_section_title
;
Structure prediction by ZEFSAII (Michael W. Deem and Ramdas Pophale) SiO2 
 PCOD8076103
Probable space group: P 21/M
;
_chemical_formula_sum "Si O2"
_cell_formula_units_Z 28
_cell_length_a 8.606335
_cell_length_b 18.729128
_cell_length_c 15.320883
_cell_angle_alpha 90.000000
_cell_angle_beta 146.406259
_cell_angle_gamma 90.000000
_cell_volume 1366.408983
_symmetry_space_group_name_H-M "P 21/M"
_symmetry_group_IT_number 11
_symmetry_cell_setting 'monoclinic'
loop_
_space_group_symop_operation_xyz
x,y,z
-x,1/2+y,-z
-x,-y,-z
x,1/2-y,z
loop_
_atom_site_type_symbol
_atom_site_label
_atom_site_fract_x
_atom_site_fract_y
_atom_site_fract_z
Si Si1 0.392555 0.559650 0.215102
Si Si2 0.076501 0.071992 0.658489
Si Si3 0.795850 0.591041 0.920885
Si Si4 0.725819 0.329868 0.371622
Si Si5 0.608114 0.578709 0.027716
Si Si6 0.317343 0.050538 0.476487
Si Si7 0.086443 0.832789 0.735992
O O1 0.636411 0.567416 0.259686
O O2 0.293270 0.477995 0.176048
O O3 0.491897 0.582750 0.357474
O O4 0.126180 0.608244 0.060936
O O5 0.156178 0.102116 0.791406
O O6 0.851866 0.121779 0.506504
O O7 0.942122 0.993437 0.602977
O O8 0.605834 0.655810 0.797586
O O9 0.755881 0.575551 0.004076
O O10 0.761321 0.250000 0.421534
O O11 0.884885 0.341998 0.354921
O O12 0.500000 0.500000 0.000000
O O13 0.359909 0.637125 0.913217
O O14 0.182911 0.118611 0.362451
O O15 0.500000 0.000000 0.500000
O O16 0.041007 0.750000 0.740987
#
# Coordination Sequence:
#
# PCOD8076103 Si02
#       7
#     4   4   4   4   4   4   4
#     4  11  21  35  64  93 124 156 212 267 304 374
#     4  12  21  38  64  93 124 163 218 265 309 373
#     4  10  21  37  58  93 123 160 206 254 316 374
#     4  10  21  41  64  88 126 170 209 261 324 382
#     4  11  20  35  62  93 125 160 209 259 311 372
#     4  12  23  37  65  97 127 163 218 270 317 373
#     4  10  22  40  63  91 128 169 207 260 332 388
#
# _framework density 20.491669000000002
#
# number of rings (size 3 to 8) (size 9 to 14) (size 15 to 20)
#    0.000    1.143    5.714    2.143    0.000    0.571 
#    0.000    2.143    0.000    1.714    0.000    0.000 
#    0.000    0.000    0.000    0.000    0.000    0.000 
#
# Total GULP energy -347201.841019 kJ/mol
# GULP energy per Si atom -12400.065751 kJ/mol
# Density = 2.044503 g / cm^3
# Si number density = 20.491669 Si / 1000 Ang^3
#
#
#
# Elastic Constant Matrix: (Units=GPa)
#
#
# Indices 1 2 3 4 5 6 
#
# 1 64.9107 23.5458 33.8407 0.0000 20.9364 0.0000
# 2 23.5458 120.5429 49.3541 0.0000 8.2732 0.0000
# 3 33.8407 49.3541 139.3976 0.0000 2.4659 0.0000
# 4 0.0000 0.0000 0.0000 27.7895 0.0000 4.3082
# 5 20.9364 8.2732 2.4659 0.0000 38.9524 0.0000
# 6 0.0000 0.0000 0.0000 4.3082 0.0000 19.5726
#
#
#
# Elastic Compliance Matrix: (Units=1/GPa)
#
#
# Indices 1 2 3 4 5 6 
#
# 1 0.021987 -0.001665 -0.004551 0.000000 -0.011176 0.000000
# 2 -0.001665 0.009963 -0.003105 0.000000 -0.001025 0.000000
# 3 -0.004551 -0.003105 0.009333 0.000000 0.002515 0.000000
# 4 0.000000 0.000000 0.000000 0.037256 0.000000 -0.008201
# 5 -0.011176 -0.001025 0.002515 0.000000 0.031738 0.000000
# 6 0.000000 0.000000 0.000000 -0.008201 0.000000 0.052897
#
#
# Mechanical properties :
#
#
# Convention : Reuss Voigt Hill
#
# Bulk Modulus (GPa) = 44.16505 59.81469 51.98987
# Shear Modulus (GPa) = 26.40458 31.80361 29.10410
#
# Velocity S-wave (km/s) = 3.59353 3.94385 3.77276
# Velocity P-wave (km/s) = 6.23037 7.07048 6.66368
#
# Compressibility (1/GPa) = 0.02264234
#
# Stress axis : x y z
#
# Youngs Moduli (GPa) = 45.48205 100.37566 107.14314
#
# Poissons Ratio (x) = 0.16708 0.48756
# Poissons Ratio (y) = 0.07571 0.33269
# Poissons Ratio (z) = 0.20697 0.31167
#
# Static dielectric constant tensor:
#      x y z
#    x 3.676360 0.000000 -0.028430 
#    y 0.000000 3.562780 0.000000 
#    z -0.028430 0.000000 4.225980 
# 
# 
# High freq. dielectric constant tensor:
#      x y z
#    x 1.787610 0.000000 0.001410 
#    y 0.000000 1.769620 0.000000 
#    z 0.001410 0.000000 1.825190 
# 
# From -- ./inp_files/48309.got.cif
#   From: 2010.06.25/outbox.cif.g09.slc.cpg/sg11_25_cif.got.tgz:48309.got - 2010.06.27 23:14:04.
