data_PCOD8076392
_publ_section_title
;
Structure prediction by ZEFSAII (Michael W. Deem and Ramdas Pophale) SiO2 
 PCOD8076392
Probable space group: P 21/M
;
_chemical_formula_sum "Si O2"
_cell_formula_units_Z 28
_cell_length_a 15.521009
_cell_length_b 9.123822
_cell_length_c 21.001264
_cell_angle_alpha 90.000000
_cell_angle_beta 27.350879
_cell_angle_gamma 90.000000
_cell_volume 1366.373866
_symmetry_space_group_name_H-M "P 21/M"
_symmetry_group_IT_number 11
_symmetry_cell_setting 'monoclinic'
loop_
_space_group_symop_operation_xyz
x,y,z
-x,1/2+y,-z
-x,-y,-z
x,1/2-y,z
loop_
_atom_site_type_symbol
_atom_site_label
_atom_site_fract_x
_atom_site_fract_y
_atom_site_fract_z
Si Si1 0.234062 0.583150 0.638475
Si Si2 0.355508 0.085682 0.053904
Si Si3 0.566919 0.575245 0.138804
Si Si4 0.823657 0.583013 0.085615
Si Si5 0.831686 0.927352 0.570154
Si Si6 0.947939 0.080874 0.367695
Si Si7 0.344186 0.087908 0.675251
O O1 0.175234 0.750000 0.685104
O O2 0.116146 0.515868 0.658281
O O3 0.446398 0.552413 0.481087
O O4 0.196584 0.511060 0.732101
O O5 0.428730 0.250000 0.002140
O O6 0.169987 0.073403 0.217878
O O7 0.343990 0.031464 0.988113
O O8 0.500000 0.000000 0.000000
O O9 0.531685 0.750000 0.170091
O O10 0.723942 0.521093 0.087160
O O11 0.370056 0.489424 0.275509
O O12 0.886240 0.750000 0.033386
O O13 0.664018 0.566274 0.243981
O O14 0.000000 0.500000 0.000000
O O15 0.835899 0.750000 0.574371
O O16 0.865674 0.974523 0.475143
O O17 0.000000 0.000000 0.500000
O O18 0.879052 0.250000 0.423725
O O19 0.286200 0.250000 0.693298
#
# Coordination Sequence:
#
# PCOD8076392 Si02
#       7
#     4   4   4   4   4   4   4
#     4   9  18  33  57  82 108 146 189 237 291 347
#     4  10  22  39  61  88 118 156 200 246 304 366
#     4  10  22  42  65  90 125 167 209 256 311 370
#     4  10  22  38  59  85 120 162 206 252 301 358
#     4  12  25  41  64  93 123 159 203 254 313 374
#     4  10  21  38  61  88 117 152 199 247 297 360
#     4   9  18  33  51  79 115 149 186 235 291 342
#
# _framework density 20.492193
#
# number of rings (size 3 to 8) (size 9 to 14) (size 15 to 20)
#    0.000    2.000    0.000    3.000    2.000    7.429 
#    0.000    2.857    0.000    0.000    0.000    0.000 
#    0.000    0.000    0.000    0.000    0.000    0.000 
#
# Total GULP energy -346947.731197 kJ/mol
# GULP energy per Si atom -12390.990400 kJ/mol
# Density = 2.044555 g / cm^3
# Si number density = 20.492193 Si / 1000 Ang^3
#
#
#
# Elastic Constant Matrix: (Units=GPa)
#
#
# Indices 1 2 3 4 5 6 
#
# 1 126.2876 39.4349 7.5192 0.0000 1.2930 0.0000
# 2 39.4349 73.3585 24.2870 0.0000 2.2903 0.0000
# 3 7.5192 24.2870 51.8382 0.0000 -2.2600 0.0000
# 4 0.0000 0.0000 0.0000 28.2858 0.0000 -0.5528
# 5 1.2930 2.2903 -2.2600 0.0000 49.9174 0.0000
# 6 0.0000 0.0000 0.0000 -0.5528 0.0000 35.9440
#
#
#
# Elastic Compliance Matrix: (Units=1/GPa)
#
#
# Indices 1 2 3 4 5 6 
#
# 1 0.009580 -0.005554 0.001215 0.000000 0.000062 0.000000
# 2 -0.005554 0.019413 -0.008339 0.000000 -0.001124 0.000000
# 3 0.001215 -0.008339 0.023082 0.000000 0.001396 0.000000
# 4 0.000000 0.000000 0.000000 0.035364 0.000000 0.000544
# 5 0.000062 -0.001124 0.001396 0.000000 0.020146 0.000000
# 6 0.000000 0.000000 0.000000 0.000544 0.000000 0.027829
#
#
# Mechanical properties :
#
#
# Convention : Reuss Voigt Hill
#
# Bulk Modulus (GPa) = 37.42497 43.77406 40.59952
# Shear Modulus (GPa) = 29.46780 34.84565 32.15672
#
# Velocity S-wave (km/s) = 3.79621 4.12811 3.96563
# Velocity P-wave (km/s) = 6.12517 6.64300 6.38933
#
# Compressibility (1/GPa) = 0.02672013
#
# Stress axis : x y z
#
# Youngs Moduli (GPa) = 104.38675 51.51136 43.32337
#
# Poissons Ratio (x) = 0.28610 -0.05265
# Poissons Ratio (y) = 0.57977 0.36126
# Poissons Ratio (z) = -0.12686 0.42954
#
# Static dielectric constant tensor:
#      x y z
#    x 4.113380 0.000000 0.229610 
#    y 0.000000 3.752060 0.000000 
#    z 0.229610 0.000000 3.628340 
# 
# 
# High freq. dielectric constant tensor:
#      x y z
#    x 1.822390 0.000000 0.007100 
#    y 0.000000 1.781330 0.000000 
#    z 0.007100 0.000000 1.803570 
# 
# From -- ./inp_files/65378.got.cif
#   From: 2010.06.25/outbox.cif.g09.slc.cpg/sg11_33_cif.got.tgz:65378.got - 2010.06.27 23:14:04.
