data_PCOD8076486
_publ_section_title
;
Structure prediction by ZEFSAII (Michael W. Deem and Ramdas Pophale) SiO2 
 PCOD8076486
Probable space group: P 21/M
;
_chemical_formula_sum "Si O2"
_cell_formula_units_Z 28
_cell_length_a 11.474995
_cell_length_b 8.761584
_cell_length_c 14.840826
_cell_angle_alpha 90.000000
_cell_angle_beta 114.829676
_cell_angle_gamma 90.000000
_cell_volume 1354.155704
_symmetry_space_group_name_H-M "P 21/M"
_symmetry_group_IT_number 11
_symmetry_cell_setting 'monoclinic'
loop_
_space_group_symop_operation_xyz
x,y,z
-x,1/2+y,-z
-x,-y,-z
x,1/2-y,z
loop_
_atom_site_type_symbol
_atom_site_label
_atom_site_fract_x
_atom_site_fract_y
_atom_site_fract_z
Si Si1 0.182394 0.430516 0.342381
Si Si2 0.018425 0.571365 0.145385
Si Si3 0.462539 0.426708 0.081841
Si Si4 0.558644 0.071110 0.608112
Si Si5 0.195925 0.929165 0.035184
Si Si6 0.132810 0.573196 0.515273
Si Si7 0.613592 0.423148 0.304422
O O1 0.185725 0.250000 0.345713
O O2 0.054994 0.487762 0.250133
O O3 0.303970 0.495516 0.327455
O O4 0.188375 0.492056 0.445431
O O5 0.008169 0.750000 0.159703
O O6 0.125658 0.530936 0.105698
O O7 0.880129 0.508695 0.071093
O O8 0.431483 0.250000 0.056427
O O9 0.339096 0.506599 0.085532
O O10 0.581859 0.450123 0.189033
O O11 0.500000 0.500000 0.000000
O O12 0.576874 0.250000 0.600217
O O13 0.500000 0.000000 0.500000
O O14 0.467976 0.040806 0.663289
O O15 0.199347 0.750000 0.018065
O O16 0.110774 0.750000 0.486807
O O17 0.235049 0.549007 0.629347
O O18 0.000000 0.500000 0.500000
O O19 0.576893 0.250000 0.321064
#
# Coordination Sequence:
#
# PCOD8076486 Si02
#       7
#     4   4   4   4   4   4   4
#     4  12  24  39  61  92 127 165 208 254 309 371
#     4  10  21  38  63  93 125 163 204 253 311 371
#     4  11  24  42  64  90 122 164 214 263 315 373
#     4  12  23  37  62  94 128 163 204 254 312 374
#     4  10  21  39  62  91 125 161 204 256 315 374
#     4  11  24  43  64  87 122 164 210 258 309 370
#     4  10  23  43  66  91 123 164 209 261 315 371
#
# _framework density 20.677091999999998
#
# number of rings (size 3 to 8) (size 9 to 14) (size 15 to 20)
#    0.000    1.143    1.429    5.143    0.000    6.857 
#    0.000    4.286    0.000    0.000    0.000    0.000 
#    0.000    0.000    0.000    0.000    0.000    0.000 
#
# Total GULP energy -347369.595971 kJ/mol
# GULP energy per Si atom -12406.056999 kJ/mol
# Density = 2.063003 g / cm^3
# Si number density = 20.677092 Si / 1000 Ang^3
#
#
#
# Elastic Constant Matrix: (Units=GPa)
#
#
# Indices 1 2 3 4 5 6 
#
# 1 92.8744 41.6021 35.5561 0.0000 14.5042 0.0000
# 2 41.6021 148.4329 55.2245 0.0000 9.1711 0.0000
# 3 35.5561 55.2245 131.5778 0.0000 18.3703 0.0000
# 4 0.0000 0.0000 0.0000 34.8031 0.0000 0.8042
# 5 14.5042 9.1711 18.3703 0.0000 32.0085 0.0000
# 6 0.0000 0.0000 0.0000 0.8042 0.0000 38.9742
#
#
#
# Elastic Compliance Matrix: (Units=1/GPa)
#
#
# Indices 1 2 3 4 5 6 
#
# 1 0.013389 -0.002803 -0.001855 0.000000 -0.004199 0.000000
# 2 -0.002803 0.008575 -0.002909 0.000000 0.000483 0.000000
# 3 -0.001855 -0.002909 0.009880 0.000000 -0.003996 0.000000
# 4 0.000000 0.000000 0.000000 0.028747 0.000000 -0.000593
# 5 -0.004199 0.000483 -0.003996 0.000000 0.035300 0.000000
# 6 0.000000 0.000000 0.000000 -0.000593 0.000000 0.025670
#
#
# Mechanical properties :
#
#
# Convention : Reuss Voigt Hill
#
# Bulk Modulus (GPa) = 59.84544 70.85004 65.34774
# Shear Modulus (GPa) = 35.14557 37.19064 36.16810
#
# Velocity S-wave (km/s) = 4.12726 4.24564 4.18687
# Velocity P-wave (km/s) = 7.19152 7.64024 7.41928
#
# Compressibility (1/GPa) = 0.01670971
#
# Stress axis : x y z
#
# Youngs Moduli (GPa) = 74.68928 116.61677 101.21098
#
# Poissons Ratio (x) = 0.32685 0.18779
# Poissons Ratio (y) = 0.20934 0.29443
# Poissons Ratio (z) = 0.13858 0.33924
#
# Static dielectric constant tensor:
#      x y z
#    x 3.709530 0.000000 0.188040 
#    y 0.000000 3.848100 0.000000 
#    z 0.188040 0.000000 3.889970 
# 
# 
# High freq. dielectric constant tensor:
#      x y z
#    x 1.798310 0.000000 0.015950 
#    y 0.000000 1.822770 0.000000 
#    z 0.015950 0.000000 1.819840 
# 
# From -- ./inp_files/49029.got.cif
#   From: 2010.06.25/outbox.cif.g09.slc.cpg/sg11_25_cif.got.tgz:49029.got - 2010.06.27 23:14:04.
