data_PCOD8076320
_publ_section_title
;
Structure prediction by ZEFSAII (Michael W. Deem and Ramdas Pophale) SiO2 
 PCOD8076320
Probable space group: P 21/M
;
_chemical_formula_sum "Si O2"
_cell_formula_units_Z 32
_cell_length_a 26.219932
_cell_length_b 8.688749
_cell_length_c 15.480413
_cell_angle_alpha 90.000000
_cell_angle_beta 152.984883
_cell_angle_gamma 90.000000
_cell_volume 1601.927779
_symmetry_space_group_name_H-M "P 21/M"
_symmetry_group_IT_number 11
_symmetry_cell_setting 'monoclinic'
loop_
_space_group_symop_operation_xyz
x,y,z
-x,1/2+y,-z
-x,-y,-z
x,1/2-y,z
loop_
_atom_site_type_symbol
_atom_site_label
_atom_site_fract_x
_atom_site_fract_y
_atom_site_fract_z
Si Si1 0.519626 0.073598 0.892499
Si Si2 0.282291 0.068608 0.283351
Si Si3 0.506899 0.569995 0.692524
Si Si4 0.060288 0.931631 0.008386
Si Si5 0.961457 0.931556 0.351797
Si Si6 0.923645 0.570658 0.635994
Si Si7 0.333469 0.426157 0.747178
Si Si8 0.272953 0.432572 0.073983
O O1 0.528838 0.250000 0.875698
O O2 0.401932 0.042104 0.762902
O O3 0.526286 0.959195 0.822411
O O4 0.623219 0.036743 0.111796
O O5 0.263318 0.250000 0.259035
O O6 0.273251 0.004606 0.172172
O O7 0.403045 0.028594 0.502914
O O8 0.188533 0.987497 0.200486
O O9 0.485814 0.750000 0.643954
O O10 0.616112 0.507941 0.806771
O O11 0.054643 0.750000 0.006640
O O12 0.998694 0.990398 0.828549
O O13 0.000000 0.000000 0.000000
O O14 0.959859 0.750000 0.358096
O O15 0.837393 0.995812 0.141369
O O16 0.000000 0.000000 0.500000
O O17 0.047504 0.978593 0.406864
O O18 0.944805 0.750000 0.650419
O O19 0.795267 0.536299 0.466957
O O20 0.350361 0.250000 0.802761
O O21 0.271380 0.250000 0.072169
#
# Coordination Sequence:
#
# PCOD8076320 Si02
#       8
#     4   4   4   4   4   4   4   4
#     4  10  21  38  59  89 120 155 200 249 300 358
#     4  11  22  42  65  88 120 159 202 255 309 363
#     4  11  23  39  61  90 120 157 202 250 306 366
#     4  11  24  41  64  95 127 165 209 256 309 371
#     4  11  23  41  63  92 125 164 205 252 309 369
#     4  10  22  41  64  91 122 163 206 252 307 365
#     4   9  20  39  61  82 118 161 196 243 303 358
#     4   9  21  41  63  85 119 160 199 247 306 363
#
# _framework density 19.975932
#
# number of rings (size 3 to 8) (size 9 to 14) (size 15 to 20)
#    0.000    1.750    1.250    2.250    3.500    1.500 
#    0.000    3.750    0.000    0.000    0.000    0.000 
#    0.000    0.000    0.000    0.000    0.000    0.000 
#
# Total GULP energy -396970.779302 kJ/mol
# GULP energy per Si atom -12405.336853 kJ/mol
# Density = 1.993047 g / cm^3
# Si number density = 19.975932 Si / 1000 Ang^3
#
#
#
# Elastic Constant Matrix: (Units=GPa)
#
#
# Indices 1 2 3 4 5 6 
#
# 1 135.5023 33.5499 43.2520 0.0000 5.0532 0.0000
# 2 33.5499 53.1341 18.6803 0.0000 -0.0263 0.0000
# 3 43.2520 18.6803 85.4284 0.0000 17.8684 0.0000
# 4 0.0000 0.0000 0.0000 31.5652 0.0000 -2.6197
# 5 5.0532 -0.0263 17.8684 0.0000 35.7623 0.0000
# 6 0.0000 0.0000 0.0000 -2.6197 0.0000 32.6038
#
#
#
# Elastic Compliance Matrix: (Units=1/GPa)
#
#
# Indices 1 2 3 4 5 6 
#
# 1 0.009839 -0.004781 -0.004070 0.000000 0.000640 0.000000
# 2 -0.004781 0.022914 -0.003054 0.000000 0.002218 0.000000
# 3 -0.004070 -0.003054 0.015985 0.000000 -0.007414 0.000000
# 4 0.000000 0.000000 0.000000 0.031893 0.000000 0.002563
# 5 0.000640 0.002218 -0.007414 0.000000 0.031578 0.000000
# 6 0.000000 0.000000 0.000000 0.002563 0.000000 0.030877
#
#
# Mechanical properties :
#
#
# Convention : Reuss Voigt Hill
#
# Bulk Modulus (GPa) = 40.11542 51.66993 45.89267
# Shear Modulus (GPa) = 28.53802 31.89178 30.21490
#
# Velocity S-wave (km/s) = 3.78381 3.99997 3.89339
# Velocity P-wave (km/s) = 6.26220 6.87425 6.57535
#
# Compressibility (1/GPa) = 0.02492807
#
# Stress axis : x y z
#
# Youngs Moduli (GPa) = 101.63633 43.64124 62.56022
#
# Poissons Ratio (x) = 0.20867 0.25460
# Poissons Ratio (y) = 0.48597 0.19104
# Poissons Ratio (z) = 0.41363 0.13327
#
# Static dielectric constant tensor:
#      x y z
#    x 3.733430 0.000000 0.065190 
#    y 0.000000 3.112010 0.000000 
#    z 0.065190 0.000000 3.780190 
# 
# 
# High freq. dielectric constant tensor:
#      x y z
#    x 1.788650 0.000000 0.004090 
#    y 0.000000 1.771440 0.000000 
#    z 0.004090 0.000000 1.789450 
# 
# From -- ./inp_files/55703.got.cif
#   From: 2010.06.25/outbox.cif.g09.slc.cpg/sg11_28_cif.got.tgz:55703.got - 2010.06.27 23:14:04.
