data_PCOD8076373
_publ_section_title
;
Structure prediction by ZEFSAII (Michael W. Deem and Ramdas Pophale) SiO2 
 PCOD8076373
Probable space group: P 21/M
;
_chemical_formula_sum "Si O2"
_cell_formula_units_Z 32
_cell_length_a 8.864517
_cell_length_b 15.100056
_cell_length_c 11.990413
_cell_angle_alpha 90.000000
_cell_angle_beta 90.006939
_cell_angle_gamma 90.000000
_cell_volume 1604.973161
_symmetry_space_group_name_H-M "P 21/M"
_symmetry_group_IT_number 11
_symmetry_cell_setting 'monoclinic'
loop_
_space_group_symop_operation_xyz
x,y,z
-x,1/2+y,-z
-x,-y,-z
x,1/2-y,z
loop_
_atom_site_type_symbol
_atom_site_label
_atom_site_fract_x
_atom_site_fract_y
_atom_site_fract_z
Si Si1 0.396060 0.353169 0.993617
Si Si2 0.574525 0.351721 0.214430
Si Si3 0.072065 0.494796 0.620477
Si Si4 0.063213 0.402417 0.995780
Si Si5 0.079422 0.849851 0.230293
Si Si6 0.921411 0.151883 0.219086
Si Si7 0.425336 0.853815 0.226004
Si Si8 0.572328 0.505181 0.380130
O O1 0.355004 0.250000 0.990629
O O2 0.242923 0.408354 0.981348
O O3 0.506389 0.379478 0.893426
O O4 0.478424 0.379453 0.107378
O O5 0.543525 0.250000 0.250001
O O6 0.749261 0.366497 0.183401
O O7 0.525454 0.416004 0.314507
O O8 0.023436 0.582086 0.688972
O O9 0.249670 0.487751 0.607504
O O10 0.000000 0.500000 0.500000
O O11 0.013996 0.409048 0.684712
O O12 0.991313 0.350956 0.892466
O O13 0.000000 0.500000 0.000000
O O14 0.024533 0.352316 0.109726
O O15 0.071752 0.750000 0.275950
O O16 0.251323 0.883032 0.225114
O O17 0.938355 0.250000 0.271249
O O18 0.444482 0.750000 0.251467
O O19 0.512630 0.906872 0.320859
O O20 0.500000 0.500000 0.500000
#
# Coordination Sequence:
#
# PCOD8076373 Si02
#       8
#     4   4   4   4   4   4   4   4
#     4  10  21  38  60  91 123 156 200 250 302 363
#     4   9  21  40  63  88 118 157 201 248 300 358
#     4  11  24  42  63  91 124 159 209 255 304 368
#     4  12  23  35  59  94 128 159 195 248 304 366
#     4  11  23  42  64  89 124 165 205 253 308 366
#     4  10  21  41  63  87 121 161 201 246 303 366
#     4  10  23  41  64  90 121 160 204 253 306 360
#     4  11  24  40  62  89 121 162 203 255 303 358
#
# _framework density 19.938027999999999
#
# number of rings (size 3 to 8) (size 9 to 14) (size 15 to 20)
#    0.000    1.500    1.250    3.375    3.500    6.000 
#    0.000    2.500    0.000    0.000    0.000    0.000 
#    0.000    0.000    0.000    0.000    0.000    0.000 
#
# Total GULP energy -396976.395305 kJ/mol
# GULP energy per Si atom -12405.512353 kJ/mol
# Density = 1.989265 g / cm^3
# Si number density = 19.938028 Si / 1000 Ang^3
#
#
#
# Elastic Constant Matrix: (Units=GPa)
#
#
# Indices 1 2 3 4 5 6 
#
# 1 109.3892 51.8601 68.4467 0.0000 0.1223 0.0000
# 2 51.8601 105.2787 63.8877 0.0000 -2.4723 0.0000
# 3 68.4467 63.8877 166.2684 0.0000 -0.1033 0.0000
# 4 0.0000 0.0000 0.0000 21.8509 0.0000 1.6520
# 5 0.1223 -2.4723 -0.1033 0.0000 40.3788 0.0000
# 6 0.0000 0.0000 0.0000 1.6520 0.0000 34.3368
#
#
#
# Elastic Compliance Matrix: (Units=1/GPa)
#
#
# Indices 1 2 3 4 5 6 
#
# 1 0.013680 -0.004341 -0.003964 0.000000 -0.000317 0.000000
# 2 -0.004341 0.013787 -0.003510 0.000000 0.000848 0.000000
# 3 -0.003964 -0.003510 0.008995 0.000000 -0.000180 0.000000
# 4 0.000000 0.000000 0.000000 0.045932 0.000000 -0.002210
# 5 -0.000317 0.000848 -0.000180 0.000000 0.024818 0.000000
# 6 0.000000 0.000000 0.000000 -0.002210 0.000000 0.029230
#
#
# Mechanical properties :
#
#
# Convention : Reuss Voigt Hill
#
# Bulk Modulus (GPa) = 77.92835 83.25835 80.59335
# Shear Modulus (GPa) = 30.42321 32.42942 31.42632
#
# Velocity S-wave (km/s) = 3.91050 4.03738 3.97445
# Velocity P-wave (km/s) = 7.71748 7.97390 7.84674
#
# Compressibility (1/GPa) = 0.01283230
#
# Stress axis : x y z
#
# Youngs Moduli (GPa) = 73.09807 72.53293 111.17574
#
# Poissons Ratio (x) = 0.31485 0.44069
# Poissons Ratio (y) = 0.31731 0.39023
# Poissons Ratio (z) = 0.28975 0.25459
#
# Static dielectric constant tensor:
#      x y z
#    x 3.736210 0.000000 -0.006130 
#    y 0.000000 3.749580 0.000000 
#    z -0.006130 0.000000 3.522350 
# 
# 
# High freq. dielectric constant tensor:
#      x y z
#    x 1.788390 0.000000 -0.000680 
#    y 0.000000 1.789790 0.000000 
#    z -0.000680 0.000000 1.773040 
# 
# From -- ./inp_files/31901.got.cif
#   From: 2010.06.25/outbox.cif.g09.slc.cpg/sg11_16_cif.got.tgz:31901.got - 2010.06.27 23:14:04.
