data_PCOD8076114
_publ_section_title
;
Structure prediction by ZEFSAII (Michael W. Deem and Ramdas Pophale) SiO2 
 PCOD8076114
Probable space group: P 21/M
;
_chemical_formula_sum "Si O2"
_cell_formula_units_Z 20
_cell_length_a 21.727737
_cell_length_b 9.779890
_cell_length_c 13.539344
_cell_angle_alpha 90.000000
_cell_angle_beta 159.180909
_cell_angle_gamma 90.000000
_cell_volume 1022.553476
_symmetry_space_group_name_H-M "P 21/M"
_symmetry_group_IT_number 11
_symmetry_cell_setting 'monoclinic'
loop_
_space_group_symop_operation_xyz
x,y,z
-x,1/2+y,-z
-x,-y,-z
x,1/2-y,z
loop_
_atom_site_type_symbol
_atom_site_label
_atom_site_fract_x
_atom_site_fract_y
_atom_site_fract_z
Si Si1 0.729703 0.401380 0.877381
Si Si2 0.854267 0.907356 0.729504
Si Si3 0.381091 0.095520 0.448991
Si Si4 0.673200 0.588571 0.257269
Si Si5 0.940945 0.597974 0.497772
O O1 0.687137 0.250000 0.773337
O O2 0.739545 0.501493 0.799688
O O3 0.582427 0.446460 0.736061
O O4 0.914622 0.403848 0.202792
O O5 0.919931 0.750000 0.829179
O O6 0.675152 0.923482 0.522254
O O7 0.803156 0.952846 0.541953
O O8 0.000000 0.000000 0.000000
O O9 0.348771 0.250000 0.365555
O O10 0.628707 0.750000 0.198604
O O11 0.765462 0.554013 0.290967
O O12 0.500000 0.500000 0.000000
O O13 0.920196 0.750000 0.421767
O O14 0.000000 0.500000 0.500000
#
# Coordination Sequence:
#
# PCOD8076114 Si02
#       5
#     4   4   4   4   4
#     4   9  18  34  55  80 111 144 181 229 282 331
#     4  10  21  37  59  85 115 150 193 239 289 348
#     4   9  18  32  54  83 110 141 181 226 279 338
#     4  10  23  41  60  87 121 157 198 243 292 352
#     4  10  22  38  58  83 112 150 195 236 284 342
#
# _framework density 19.558879000000001
#
# number of rings (size 3 to 8) (size 9 to 14) (size 15 to 20)
#    0.000    2.400    0.000    1.200    2.800    4.800 
#    0.000    0.000    0.000    0.000    0.000    0.000 
#    0.000    0.000    0.000    0.000    0.000    0.000 
#
# Total GULP energy -247905.253062 kJ/mol
# GULP energy per Si atom -12395.262653 kJ/mol
# Density = 1.951436 g / cm^3
# Si number density = 19.558879 Si / 1000 Ang^3
#
#
#
# Elastic Constant Matrix: (Units=GPa)
#
#
# Indices 1 2 3 4 5 6 
#
# 1 127.0096 63.2191 34.7356 0.0000 9.5671 0.0000
# 2 63.2191 91.4549 46.9678 0.0000 3.6048 0.0000
# 3 34.7356 46.9678 79.2043 0.0000 7.7668 0.0000
# 4 0.0000 0.0000 0.0000 35.2380 0.0000 -0.8224
# 5 9.5671 3.6048 7.7668 0.0000 24.2933 0.0000
# 6 0.0000 0.0000 0.0000 -0.8224 0.0000 34.3781
#
#
#
# Elastic Compliance Matrix: (Units=1/GPa)
#
#
# Indices 1 2 3 4 5 6 
#
# 1 0.012311 -0.008306 -0.000123 0.000000 -0.003576 0.000000
# 2 -0.008306 0.021337 -0.009312 0.000000 0.003082 0.000000
# 3 -0.000123 -0.009312 0.018646 0.000000 -0.004531 0.000000
# 4 0.000000 0.000000 0.000000 0.028394 0.000000 0.000679
# 5 -0.003576 0.003082 -0.004531 0.000000 0.043563 0.000000
# 6 0.000000 0.000000 0.000000 0.000679 0.000000 0.029105
#
#
# Mechanical properties :
#
#
# Convention : Reuss Voigt Hill
#
# Bulk Modulus (GPa) = 59.48351 65.27930 62.38140
# Shear Modulus (GPa) = 25.71474 28.96497 27.33985
#
# Velocity S-wave (km/s) = 3.62986 3.85244 3.74280
# Velocity P-wave (km/s) = 6.93155 7.29634 7.11628
#
# Compressibility (1/GPa) = 0.01681138
#
# Stress axis : x y z
#
# Youngs Moduli (GPa) = 81.23083 46.86759 53.63098
#
# Poissons Ratio (x) = 0.38927 0.00659
# Poissons Ratio (y) = 0.67468 0.49943
# Poissons Ratio (z) = 0.00999 0.43644
#
# Static dielectric constant tensor:
#      x y z
#    x 3.803250 0.000000 0.148840 
#    y 0.000000 3.770140 0.000000 
#    z 0.148840 0.000000 3.452650 
# 
# 
# High freq. dielectric constant tensor:
#      x y z
#    x 1.772850 0.000000 0.019810 
#    y 0.000000 1.759100 0.000000 
#    z 0.019810 0.000000 1.749640 
# 
# From -- ./inp_files/46718.got.cif
#   From: 2010.06.25/outbox.cif.g09.slc.cpg/sg11_24_cif.got.tgz:46718.got - 2010.06.27 23:14:04.
