data_PCOD8076324
_publ_section_title
;
Structure prediction by ZEFSAII (Michael W. Deem and Ramdas Pophale) SiO2 
 PCOD8076324
Probable space group: P 21/M
;
_chemical_formula_sum "Si O2"
_cell_formula_units_Z 20
_cell_length_a 15.503028
_cell_length_b 13.902385
_cell_length_c 7.099189
_cell_angle_alpha 90.000000
_cell_angle_beta 142.024547
_cell_angle_gamma 90.000000
_cell_volume 941.495622
_symmetry_space_group_name_H-M "P 21/M"
_symmetry_group_IT_number 11
_symmetry_cell_setting 'monoclinic'
loop_
_space_group_symop_operation_xyz
x,y,z
-x,1/2+y,-z
-x,-y,-z
x,1/2-y,z
loop_
_atom_site_type_symbol
_atom_site_label
_atom_site_fract_x
_atom_site_fract_y
_atom_site_fract_z
Si Si1 0.188532 0.638402 0.269727
Si Si2 0.216245 0.974428 0.953067
Si Si3 0.120669 0.144643 0.326645
Si Si4 0.964855 0.643184 0.390782
Si Si5 0.657601 0.489002 0.207944
O O1 0.201410 0.750000 0.246173
O O2 0.280677 0.612136 0.610288
O O3 0.258213 0.584534 0.209520
O O4 0.024399 0.611035 0.026270
O O5 0.341926 0.993829 0.020281
O O6 0.110152 0.914415 0.636209
O O7 0.151056 0.076605 0.913001
O O8 0.168557 0.250000 0.333815
O O9 0.080739 0.154449 0.474267
O O10 0.247576 0.070054 0.523839
O O11 0.976926 0.750000 0.317088
O O12 0.500000 0.500000 0.000000
#
# Coordination Sequence:
#
# PCOD8076324 Si02
#       5
#     4   4   4   4   4
#     4  10  21  38  60  82 105 141 190 236 275 319
#     4   9  18  34  54  78 111 146 183 227 273 323
#     4   8  16  34  57  80 109 144 186 234 275 318
#     4   8  14  28  54  83 108 140 184 234 279 315
#     4  11  23  36  55  83 117 150 180 219 275 337
#
# _framework density 21.242796999999999
#
# number of rings (size 3 to 8) (size 9 to 14) (size 15 to 20)
#    0.000    2.800    0.000    3.600    0.000    3.200 
#    0.000    3.000    0.000    0.000    0.000    0.000 
#    0.000    0.000    0.000    0.000    0.000    0.000 
#
# Total GULP energy -247841.506665 kJ/mol
# GULP energy per Si atom -12392.075333 kJ/mol
# Density = 2.119445 g / cm^3
# Si number density = 21.242797 Si / 1000 Ang^3
#
#
#
# Elastic Constant Matrix: (Units=GPa)
#
#
# Indices 1 2 3 4 5 6 
#
# 1 61.5662 17.0105 17.7053 0.0000 23.4972 0.0000
# 2 17.0105 122.7314 23.2131 0.0000 13.9533 0.0000
# 3 17.7053 23.2131 66.5439 0.0000 17.4937 0.0000
# 4 0.0000 0.0000 0.0000 13.3449 0.0000 -7.1130
# 5 23.4972 13.9533 17.4937 0.0000 30.0749 0.0000
# 6 0.0000 0.0000 0.0000 -7.1130 0.0000 22.6090
#
#
#
# Elastic Compliance Matrix: (Units=1/GPa)
#
#
# Indices 1 2 3 4 5 6 
#
# 1 0.023423 -0.001049 -0.001397 0.000000 -0.017001 0.000000
# 2 -0.001049 0.008959 -0.002324 0.000000 -0.001985 0.000000
# 3 -0.001397 -0.002324 0.018463 0.000000 -0.008570 0.000000
# 4 0.000000 0.000000 0.000000 0.090033 0.000000 0.028325
# 5 -0.017001 -0.001985 -0.008570 0.000000 0.052438 0.000000
# 6 0.000000 0.000000 0.000000 0.028325 0.000000 0.053141
#
#
# Mechanical properties :
#
#
# Convention : Reuss Voigt Hill
#
# Bulk Modulus (GPa) = 24.21090 40.74439 32.47764
# Shear Modulus (GPa) = 18.53462 26.06659 22.30060
#
# Velocity S-wave (km/s) = 2.95704 3.50677 3.24357
# Velocity P-wave (km/s) = 4.80424 5.96813 5.41753
#
# Compressibility (1/GPa) = 0.04130371
#
# Stress axis : x y z
#
# Youngs Moduli (GPa) = 42.69353 111.62548 54.16242
#
# Poissons Ratio (x) = 0.11714 0.07565
# Poissons Ratio (y) = 0.04480 0.12588
# Poissons Ratio (z) = 0.05963 0.25944
#
# Static dielectric constant tensor:
#      x y z
#    x 3.606640 0.000000 -0.059770 
#    y 0.000000 4.509990 0.000000 
#    z -0.059770 0.000000 3.520560 
# 
# 
# High freq. dielectric constant tensor:
#      x y z
#    x 1.827090 0.000000 -0.016760 
#    y 0.000000 1.845470 0.000000 
#    z -0.016760 0.000000 1.783390 
# 
# From -- ./inp_files/12257.got.cif
#   From: 2010.06.25/outbox.cif.g09.slc.cpg/sg11_7_cif.got.tgz:12257.got - 2010.06.27 23:14:04.
