data_PCOD8076211
_publ_section_title
;
Structure prediction by ZEFSAII (Michael W. Deem and Ramdas Pophale) SiO2 
 PCOD8076211
Probable space group: P 21/M
;
_chemical_formula_sum "Si O2"
_cell_formula_units_Z 32
_cell_length_a 15.032373
_cell_length_b 8.646824
_cell_length_c 11.698672
_cell_angle_alpha 90.000000
_cell_angle_beta 87.492260
_cell_angle_gamma 90.000000
_cell_volume 1519.163835
_symmetry_space_group_name_H-M "P 21/M"
_symmetry_group_IT_number 11
_symmetry_cell_setting 'monoclinic'
loop_
_space_group_symop_operation_xyz
x,y,z
-x,1/2+y,-z
-x,-y,-z
x,1/2-y,z
loop_
_atom_site_type_symbol
_atom_site_label
_atom_site_fract_x
_atom_site_fract_y
_atom_site_fract_z
Si Si1 0.807869 0.925592 0.916387
Si Si2 0.776735 0.431757 0.483775
Si Si3 0.370881 0.925971 0.068186
Si Si4 0.418944 0.931836 0.576818
Si Si5 0.076272 0.570161 0.918029
Si Si6 0.117878 0.071787 0.330973
Si Si7 0.067380 0.068878 0.673253
Si Si8 0.463370 0.928486 0.830311
O O1 0.816712 0.750000 0.958953
O O2 0.872677 0.952374 0.805047
O O3 0.707190 0.961117 0.886647
O O4 0.832897 0.043467 0.016609
O O5 0.783910 0.250000 0.459403
O O6 0.676103 0.491172 0.466168
O O7 0.804946 0.472430 0.611623
O O8 0.844780 0.521423 0.399025
O O9 0.343206 0.750000 0.092439
O O10 0.453782 0.963738 0.144260
O O11 0.389722 0.954436 0.932655
O O12 0.424800 0.750000 0.563255
O O13 0.425102 0.980678 0.709756
O O14 0.500000 0.000000 0.500000
O O15 0.060023 0.750000 0.892932
O O16 0.083371 0.476333 0.802202
O O17 0.000000 0.500000 0.000000
O O18 0.129358 0.250000 0.365868
O O19 0.019664 0.016057 0.373147
O O20 0.050844 0.250000 0.662979
O O21 0.494116 0.750000 0.826949
#
# Coordination Sequence:
#
# PCOD8076211 Si02
#       8
#     4   4   4   4   4   4   4   4
#     4  11  24  40  62  93 129 169 212 259 314 378
#     4  11  25  44  67  95 128 168 217 270 324 383
#     4  10  21  37  63  94 124 162 207 259 317 379
#     4  10  24  44  66  92 125 166 210 261 320 379
#     4  12  24  41  64  93 130 168 208 255 313 374
#     4  11  24  43  66  92 129 173 217 268 323 381
#     4  12  25  43  68  97 130 170 216 266 319 381
#     4   9  20  41  63  88 124 164 204 256 321 382
#
# _framework density 21.064219000000001
#
# number of rings (size 3 to 8) (size 9 to 14) (size 15 to 20)
#    0.000    1.250    1.250    4.125    3.500    3.500 
#    0.000    0.000    0.000    0.000    0.000    0.000 
#    0.000    0.000    0.000    0.000    0.000    0.000 
#
# Total GULP energy -396922.837646 kJ/mol
# GULP energy per Si atom -12403.838676 kJ/mol
# Density = 2.101628 g / cm^3
# Si number density = 21.064219 Si / 1000 Ang^3
#
#
#
# Elastic Constant Matrix: (Units=GPa)
#
#
# Indices 1 2 3 4 5 6 
#
# 1 131.2479 33.3629 36.3133 0.0000 6.3892 0.0000
# 2 33.3629 70.7929 26.0834 0.0000 -2.3581 0.0000
# 3 36.3133 26.0834 85.9130 0.0000 16.5173 0.0000
# 4 0.0000 0.0000 0.0000 34.6778 0.0000 0.4722
# 5 6.3892 -2.3581 16.5173 0.0000 31.9794 0.0000
# 6 0.0000 0.0000 0.0000 0.4722 0.0000 36.3453
#
#
#
# Elastic Compliance Matrix: (Units=1/GPa)
#
#
# Indices 1 2 3 4 5 6 
#
# 1 0.009275 -0.003374 -0.002767 0.000000 -0.000673 0.000000
# 2 -0.003374 0.017624 -0.004779 0.000000 0.004442 0.000000
# 3 -0.002767 -0.004779 0.015789 0.000000 -0.007955 0.000000
# 4 0.000000 0.000000 0.000000 0.028842 0.000000 -0.000375
# 5 -0.000673 0.004442 -0.007955 0.000000 0.035841 0.000000
# 6 0.000000 0.000000 0.000000 -0.000375 0.000000 0.027519
#
#
# Mechanical properties :
#
#
# Convention : Reuss Voigt Hill
#
# Bulk Modulus (GPa) = 47.96161 53.27478 50.61819
# Shear Modulus (GPa) = 30.54760 33.41345 31.98053
#
# Velocity S-wave (km/s) = 3.81230 3.98712 3.90069
# Velocity P-wave (km/s) = 6.49591 6.82222 6.66106
#
# Compressibility (1/GPa) = 0.02085001
#
# Stress axis : x y z
#
# Youngs Moduli (GPa) = 107.81575 56.73920 63.33453
#
# Poissons Ratio (x) = 0.19145 0.17522
# Poissons Ratio (y) = 0.36379 0.30265
# Poissons Ratio (z) = 0.29828 0.27114
#
# Static dielectric constant tensor:
#      x y z
#    x 3.915880 0.000000 0.178590 
#    y 0.000000 3.555850 0.000000 
#    z 0.178590 0.000000 4.017660 
# 
# 
# High freq. dielectric constant tensor:
#      x y z
#    x 1.831510 0.000000 0.005370 
#    y 0.000000 1.827890 0.000000 
#    z 0.005370 0.000000 1.832770 
# 
# From -- ./inp_files/38241.got.cif
#   From: 2010.06.25/outbox.cif.g09.slc.cpg/sg11_20_cif.got.tgz:38241.got - 2010.06.27 23:14:04.
