data_PCOD8076185
_publ_section_title
;
Structure prediction by ZEFSAII (Michael W. Deem and Ramdas Pophale) SiO2 
 PCOD8076185
Probable space group: P 21/M
;
_chemical_formula_sum "Si O2"
_cell_formula_units_Z 32
_cell_length_a 10.170505
_cell_length_b 8.728416
_cell_length_c 27.597090
_cell_angle_alpha 90.000000
_cell_angle_beta 38.289723
_cell_angle_gamma 90.000000
_cell_volume 1518.026905
_symmetry_space_group_name_H-M "P 21/M"
_symmetry_group_IT_number 11
_symmetry_cell_setting 'monoclinic'
loop_
_space_group_symop_operation_xyz
x,y,z
-x,1/2+y,-z
-x,-y,-z
x,1/2-y,z
loop_
_atom_site_type_symbol
_atom_site_label
_atom_site_fract_x
_atom_site_fract_y
_atom_site_fract_z
Si Si1 0.999544 0.426489 0.263544
Si Si2 0.594573 0.068581 0.319624
Si Si3 0.877827 0.070831 0.080701
Si Si4 0.373341 0.573513 0.104321
Si Si5 0.784554 0.073703 0.956778
Si Si6 0.936098 0.924030 0.646722
Si Si7 0.820595 0.071538 0.518744
Si Si8 0.490372 0.429878 0.759487
O O1 0.047737 0.250000 0.237537
O O2 0.804012 0.485822 0.287868
O O3 0.208980 0.525399 0.192880
O O4 0.951119 0.451422 0.334275
O O5 0.584472 0.250000 0.316998
O O6 0.398329 0.013574 0.408435
O O7 0.593639 0.995450 0.266947
O O8 0.854383 0.250000 0.079581
O O9 0.644115 0.000361 0.156862
O O10 0.000000 0.000000 0.000000
O O11 0.014624 0.031434 0.088847
O O12 0.437139 0.750000 0.091804
O O13 0.585749 0.473236 0.048042
O O14 0.265018 0.539645 0.084340
O O15 0.839965 0.250000 0.950884
O O16 0.851425 0.750000 0.666262
O O17 0.117506 0.956905 0.554895
O O18 0.736938 0.034212 0.695844
O O19 0.796015 0.250000 0.538517
O O20 0.000000 0.000000 0.500000
O O21 0.455964 0.250000 0.769066
#
# Coordination Sequence:
#
# PCOD8076185 Si02
#       8
#     4   4   4   4   4   4   4   4
#     4  10  23  41  62  90 126 168 210 258 320 382
#     4  11  23  41  67  97 130 169 213 264 320 381
#     4  12  26  43  63  89 125 165 209 263 319 375
#     4  10  21  37  61  89 121 160 206 257 313 376
#     4  10  21  39  61  87 119 160 208 259 313 374
#     4  10  23  43  65  92 128 170 213 263 320 382
#     4  11  22  39  66  96 129 167 216 264 316 381
#     4  12  25  42  66  95 127 168 218 266 318 383
#
# _framework density 21.079996000000001
#
# number of rings (size 3 to 8) (size 9 to 14) (size 15 to 20)
#    0.000    1.250    1.250    4.500    1.750    6.000 
#    0.000    0.000    0.000    0.000    0.000    0.000 
#    0.000    0.000    0.000    0.000    0.000    0.000 
#
# Total GULP energy -396977.489461 kJ/mol
# GULP energy per Si atom -12405.546546 kJ/mol
# Density = 2.103202 g / cm^3
# Si number density = 21.079996 Si / 1000 Ang^3
#
#
#
# Elastic Constant Matrix: (Units=GPa)
#
#
# Indices 1 2 3 4 5 6 
#
# 1 62.7322 21.1457 11.7216 0.0000 5.1591 0.0000
# 2 21.1457 111.1097 35.1041 0.0000 4.7230 0.0000
# 3 11.7216 35.1041 115.1448 0.0000 10.6329 0.0000
# 4 0.0000 0.0000 0.0000 39.9394 0.0000 -2.2753
# 5 5.1591 4.7230 10.6329 0.0000 33.1090 0.0000
# 6 0.0000 0.0000 0.0000 -2.2753 0.0000 24.3976
#
#
#
# Elastic Compliance Matrix: (Units=1/GPa)
#
#
# Indices 1 2 3 4 5 6 
#
# 1 0.017238 -0.002987 -0.000655 0.000000 -0.002050 0.000000
# 2 -0.002987 0.010484 -0.002882 0.000000 -0.000104 0.000000
# 3 -0.000655 -0.002882 0.009876 0.000000 -0.002658 0.000000
# 4 0.000000 0.000000 0.000000 0.025172 0.000000 0.002348
# 5 -0.002050 -0.000104 -0.002658 0.000000 0.031391 0.000000
# 6 0.000000 0.000000 0.000000 0.002348 0.000000 0.041207
#
#
# Mechanical properties :
#
#
# Convention : Reuss Voigt Hill
#
# Bulk Modulus (GPa) = 40.73404 47.21437 43.97421
# Shear Modulus (GPa) = 31.92876 34.22357 33.07616
#
# Velocity S-wave (km/s) = 3.89607 4.03365 3.96546
# Velocity P-wave (km/s) = 6.29322 6.64380 6.47089
#
# Compressibility (1/GPa) = 0.02454949
#
# Stress axis : x y z
#
# Youngs Moduli (GPa) = 58.00975 95.38675 101.25923
#
# Poissons Ratio (x) = 0.28488 0.06633
# Poissons Ratio (y) = 0.17325 0.29188
# Poissons Ratio (z) = 0.03800 0.27495
#
# Static dielectric constant tensor:
#      x y z
#    x 3.851740 0.000000 0.053370 
#    y 0.000000 3.896910 0.000000 
#    z 0.053370 0.000000 4.051930 
# 
# 
# High freq. dielectric constant tensor:
#      x y z
#    x 1.827100 0.000000 0.003940 
#    y 0.000000 1.830960 0.000000 
#    z 0.003940 0.000000 1.836400 
# 
# From -- ./inp_files/73058.got.cif
#   From: 2010.06.25/outbox.cif.g09.slc.cpg/sg11_37_cif.got.tgz:73058.got - 2010.06.27 23:14:04.
