data_PCOD8076528
_publ_section_title
;
Structure prediction by ZEFSAII (Michael W. Deem and Ramdas Pophale) SiO2 
 PCOD8076528
Probable space group: P 21/M
;
_chemical_formula_sum "Si O2"
_cell_formula_units_Z 32
_cell_length_a 25.895588
_cell_length_b 9.212919
_cell_length_c 20.731459
_cell_angle_alpha 90.000000
_cell_angle_beta 159.273085
_cell_angle_gamma 90.000000
_cell_volume 1750.454906
_symmetry_space_group_name_H-M "P 21/M"
_symmetry_group_IT_number 11
_symmetry_cell_setting 'monoclinic'
loop_
_space_group_symop_operation_xyz
x,y,z
-x,1/2+y,-z
-x,-y,-z
x,1/2-y,z
loop_
_atom_site_type_symbol
_atom_site_label
_atom_site_fract_x
_atom_site_fract_y
_atom_site_fract_z
Si Si1 0.935554 0.084826 0.983627
Si Si2 0.337742 0.077093 0.014312
Si Si3 0.240740 0.579736 0.029164
Si Si4 0.364965 0.579874 0.311159
Si Si5 0.639144 0.415574 0.185025
Si Si6 0.849567 0.419483 0.313583
Si Si7 0.931209 0.585439 0.724584
Si Si8 0.335698 0.580113 0.642194
O O1 0.919823 0.250000 0.943698
O O2 0.777344 0.022512 0.817549
O O3 0.042581 0.069781 0.169014
O O4 0.000000 0.000000 0.000000
O O5 0.313527 0.250000 0.981394
O O6 0.238909 0.997879 0.846083
O O7 0.505183 0.033046 0.197247
O O8 0.293481 0.020827 0.032791
O O9 0.249337 0.750000 0.020890
O O10 0.346041 0.546550 0.212987
O O11 0.074434 0.535630 0.852171
O O12 0.500000 0.500000 0.500000
O O13 0.384881 0.750000 0.344721
O O14 0.589452 0.250000 0.133113
O O15 0.769725 0.437194 0.288276
O O16 0.687397 0.473326 0.311365
O O17 0.500000 0.500000 0.000000
O O18 0.871877 0.250000 0.321851
O O19 0.000000 0.500000 0.500000
O O20 0.895209 0.750000 0.663706
O O21 0.790087 0.490669 0.546577
O O22 0.315224 0.750000 0.611497
#
# Coordination Sequence:
#
# PCOD8076528 Si02
#       8
#     4   4   4   4   4   4   4   4
#     4   9  19  36  56  81 113 145 182 227 273 325
#     4  11  23  39  58  82 114 148 184 231 280 329
#     4   9  20  39  58  80 112 149 187 231 277 327
#     4   9  19  36  57  81 113 148 186 229 275 329
#     4  10  21  39  60  82 111 146 184 228 277 329
#     4  11  24  40  60  86 114 147 187 230 278 332
#     4   9  20  38  58  81 109 146 187 225 273 329
#     4  10  22  38  56  82 114 145 181 228 277 327
#
# _framework density 18.280963
#
# number of rings (size 3 to 8) (size 9 to 14) (size 15 to 20)
#    0.000    2.250    1.250    2.250    1.750    5.000 
#    0.000    7.500    0.000    0.000    0.000    0.000 
#    0.000    0.000    0.000    0.000    0.000    0.000 
#
# Total GULP energy -396787.758676 kJ/mol
# GULP energy per Si atom -12399.617459 kJ/mol
# Density = 1.823935 g / cm^3
# Si number density = 18.280963 Si / 1000 Ang^3
#
#
#
# Elastic Constant Matrix: (Units=GPa)
#
#
# Indices 1 2 3 4 5 6 
#
# 1 127.9116 55.0859 47.7664 0.0000 1.4760 0.0000
# 2 55.0859 76.0217 60.8050 0.0000 4.2083 0.0000
# 3 47.7664 60.8050 141.6414 0.0000 5.5057 0.0000
# 4 0.0000 0.0000 0.0000 40.9648 0.0000 -1.4521
# 5 1.4760 4.2083 5.5057 0.0000 18.1975 0.0000
# 6 0.0000 0.0000 0.0000 -1.4521 0.0000 34.7052
#
#
#
# Elastic Compliance Matrix: (Units=1/GPa)
#
#
# Indices 1 2 3 4 5 6 
#
# 1 0.011403 -0.007938 -0.000479 0.000000 0.001056 0.000000
# 2 -0.007938 0.025635 -0.008219 0.000000 -0.002798 0.000000
# 3 -0.000479 -0.008219 0.010801 0.000000 -0.001329 0.000000
# 4 0.000000 0.000000 0.000000 0.024447 0.000000 0.001023
# 5 0.001056 -0.002798 -0.001329 0.000000 0.055916 0.000000
# 6 0.000000 0.000000 0.000000 0.001023 0.000000 0.028857
#
#
# Mechanical properties :
#
#
# Convention : Reuss Voigt Hill
#
# Bulk Modulus (GPa) = 68.64572 74.76548 71.70560
# Shear Modulus (GPa) = 25.61629 30.90133 28.25881
#
# Velocity S-wave (km/s) = 3.74740 4.11585 3.93594
# Velocity P-wave (km/s) = 7.50705 7.97332 7.74370
#
# Compressibility (1/GPa) = 0.01456755
#
# Stress axis : x y z
#
# Youngs Moduli (GPa) = 87.69463 39.00902 92.57985
#
# Poissons Ratio (x) = 0.30967 0.04432
# Poissons Ratio (y) = 0.69615 0.76091
# Poissons Ratio (z) = 0.04198 0.32062
#
# Static dielectric constant tensor:
#      x y z
#    x 3.431200 0.000000 -0.040350 
#    y 0.000000 3.362470 0.000000 
#    z -0.040350 0.000000 3.347470 
# 
# 
# High freq. dielectric constant tensor:
#      x y z
#    x 1.718860 0.000000 -0.000880 
#    y 0.000000 1.707650 0.000000 
#    z -0.000880 0.000000 1.714890 
# 
# From -- ./inp_files/67218.got.cif
#   From: 2010.06.25/outbox.cif.g09.slc.cpg/sg11_34_cif.got.tgz:67218.got - 2010.06.27 23:14:04.
