data_PCOD8076926
_publ_section_title
;
Structure prediction by ZEFSAII (Michael W. Deem and Ramdas Pophale) SiO2 
 PCOD8076926
Probable space group: P 21/M
;
_chemical_formula_sum "Si O2"
_cell_formula_units_Z 20
_cell_length_a 9.466711
_cell_length_b 20.936980
_cell_length_c 5.400949
_cell_angle_alpha 90.000000
_cell_angle_beta 113.924814
_cell_angle_gamma 90.000000
_cell_volume 978.513190
_symmetry_space_group_name_H-M "P 21/M"
_symmetry_group_IT_number 11
_symmetry_cell_setting 'monoclinic'
loop_
_space_group_symop_operation_xyz
x,y,z
-x,1/2+y,-z
-x,-y,-z
x,1/2-y,z
loop_
_atom_site_type_symbol
_atom_site_label
_atom_site_fract_x
_atom_site_fract_y
_atom_site_fract_z
Si Si1 0.189107 0.560924 0.743988
Si Si2 0.597516 0.677538 0.356942
Si Si3 0.362275 0.486181 0.214978
Si Si4 0.536131 0.371379 0.217873
Si Si5 0.156258 0.071654 0.453417
O O1 0.282319 0.607762 0.624848
O O2 0.174446 0.486625 0.657163
O O3 0.024104 0.591535 0.689721
O O4 0.304347 0.553576 0.062182
O O5 0.653780 0.750000 0.429244
O O6 0.512729 0.657698 0.552247
O O7 0.747748 0.634510 0.405965
O O8 0.486337 0.674937 0.034992
O O9 0.500000 0.500000 0.500000
O O10 0.434785 0.434661 0.076646
O O11 0.211853 0.453506 0.228613
#
# Coordination Sequence:
#
# PCOD8076926 Si02
#       5
#     4   4   4   4   4
#     4  11  20  36  58  98 125 151 196 257 333 364
#     4  11  24  44  62  85 118 172 219 252 296 369
#     4  11  19  34  57  91 130 161 194 248 313 383
#     4  11  22  38  65  89 120 158 209 257 305 364
#     4  10  22  35  59  91 129 157 193 257 315 381
#
# _framework density 20.439173
#
# number of rings (size 3 to 8) (size 9 to 14) (size 15 to 20)
#    0.000    1.200    4.000    4.200    0.000    0.000 
#    0.000    2.000    0.000    0.000    0.000    0.000 
#    0.000    0.000    0.000    0.000    0.000    0.000 
#
# Total GULP energy -247813.427563 kJ/mol
# GULP energy per Si atom -12390.671378 kJ/mol
# Density = 2.039265 g / cm^3
# Si number density = 20.439173 Si / 1000 Ang^3
#
#
#
# Elastic Constant Matrix: (Units=GPa)
#
#
# Indices 1 2 3 4 5 6 
#
# 1 180.9015 49.9718 44.6632 0.0000 11.3372 0.0000
# 2 49.9718 100.1116 25.8087 0.0000 5.4714 0.0000
# 3 44.6632 25.8087 94.7051 0.0000 -1.0848 0.0000
# 4 0.0000 0.0000 0.0000 19.7180 0.0000 -3.5088
# 5 11.3372 5.4714 -1.0848 0.0000 21.2753 0.0000
# 6 0.0000 0.0000 0.0000 -3.5088 0.0000 20.2357
#
#
#
# Elastic Compliance Matrix: (Units=1/GPa)
#
#
# Indices 1 2 3 4 5 6 
#
# 1 0.007135 -0.002696 -0.002667 0.000000 -0.003244 0.000000
# 2 -0.002696 0.011946 -0.002004 0.000000 -0.001738 0.000000
# 3 -0.002667 -0.002004 0.012392 0.000000 0.002568 0.000000
# 4 0.000000 0.000000 0.000000 0.052330 0.000000 0.009074
# 5 -0.003244 -0.001738 0.002568 0.000000 0.049310 0.000000
# 6 0.000000 0.000000 0.000000 0.009074 0.000000 0.050991
#
#
# Mechanical properties :
#
#
# Convention : Reuss Voigt Hill
#
# Bulk Modulus (GPa) = 59.74177 68.51175 64.12676
# Shear Modulus (GPa) = 24.45975 29.26411 26.86193
#
# Velocity S-wave (km/s) = 3.46310 3.78797 3.62917
# Velocity P-wave (km/s) = 6.72928 7.26115 7.00027
#
# Compressibility (1/GPa) = 0.01673871
#
# Stress axis : x y z
#
# Youngs Moduli (GPa) = 140.16377 83.70764 80.69490
#
# Poissons Ratio (x) = 0.22571 0.21521
# Poissons Ratio (y) = 0.37794 0.16170
# Poissons Ratio (z) = 0.37382 0.16774
#
# Static dielectric constant tensor:
#      x y z
#    x 3.914720 0.000000 -0.069440 
#    y 0.000000 3.730120 0.000000 
#    z -0.069440 0.000000 3.599560 
# 
# 
# High freq. dielectric constant tensor:
#      x y z
#    x 1.806890 0.000000 -0.009810 
#    y 0.000000 1.765740 0.000000 
#    z -0.009810 0.000000 1.797230 
# 
# From -- ./inp_files/2126.got.cif
#   From: 2010.06.25/outbox.cif.g09.slc.cpg/sg11_2_cif.got.tgz:2126.got - 2010.06.27 23:14:04.
