data_PCOD8076806
_publ_section_title
;
Structure prediction by ZEFSAII (Michael W. Deem and Ramdas Pophale) SiO2 
 PCOD8076806
Probable space group: P 21/M
;
_chemical_formula_sum "Si O2"
_cell_formula_units_Z 28
_cell_length_a 9.518870
_cell_length_b 12.619132
_cell_length_c 12.493816
_cell_angle_alpha 90.000000
_cell_angle_beta 127.213851
_cell_angle_gamma 90.000000
_cell_volume 1195.177384
_symmetry_space_group_name_H-M "P 21/M"
_symmetry_group_IT_number 11
_symmetry_cell_setting 'monoclinic'
loop_
_space_group_symop_operation_xyz
x,y,z
-x,1/2+y,-z
-x,-y,-z
x,1/2-y,z
loop_
_atom_site_type_symbol
_atom_site_label
_atom_site_fract_x
_atom_site_fract_y
_atom_site_fract_z
Si Si1 0.965811 0.625755 0.046788
Si Si2 0.941831 0.872381 0.797506
Si Si3 0.812874 0.463266 0.452349
Si Si4 0.233316 0.627381 0.346427
Si Si5 0.719796 0.078966 0.185997
Si Si6 0.632113 0.624172 0.502104
Si Si7 0.341323 0.366266 0.942753
O O1 0.008545 0.750000 0.057280
O O2 0.767795 0.606467 0.999507
O O3 0.104016 0.573310 0.197100
O O4 0.982003 0.575223 0.933840
O O5 0.895607 0.750000 0.796987
O O6 0.767485 0.920352 0.657135
O O7 0.110032 0.879845 0.798377
O O8 0.840095 0.389853 0.568371
O O9 0.729299 0.395361 0.316610
O O10 0.691132 0.565942 0.420679
O O11 0.000000 0.500000 0.500000
O O12 0.232409 0.750000 0.318763
O O13 0.434594 0.586440 0.437234
O O14 0.703579 0.951748 0.168162
O O15 0.548912 0.136673 0.061488
O O16 0.650100 0.750000 0.495746
O O17 0.284971 0.250000 0.874102
#
# Coordination Sequence:
#
# PCOD8076806 Si02
#       7
#     4   4   4   4   4   4   4
#     4   9  20  40  66  91 122 167 218 268 317 375
#     4  10  21  40  65  95 129 166 216 271 323 381
#     4  12  24  41  63  94 136 169 213 264 324 396
#     4  10  23  42  66  96 128 172 221 269 327 385
#     4  11  24  40  64  97 129 172 213 261 327 390
#     4  10  23  43  65  93 129 172 220 270 326 383
#     4  10  23  43  63  92 130 168 217 267 320 382
#
# _framework density 23.427482999999999
#
# number of rings (size 3 to 8) (size 9 to 14) (size 15 to 20)
#    0.000    1.714    1.429    1.714    2.000    5.143 
#    0.000    1.429    0.000    0.000    0.000    0.000 
#    0.000    0.000    0.000    0.000    0.000    0.000 
#
# Total GULP energy -347246.835179 kJ/mol
# GULP energy per Si atom -12401.672685 kJ/mol
# Density = 2.337416 g / cm^3
# Si number density = 23.427483 Si / 1000 Ang^3
#
#
#
# Elastic Constant Matrix: (Units=GPa)
#
#
# Indices 1 2 3 4 5 6 
#
# 1 169.2568 15.9694 79.6797 0.0000 9.9606 0.0000
# 2 15.9694 38.1779 23.7702 0.0000 -3.5901 0.0000
# 3 79.6797 23.7702 148.4298 0.0000 -9.9474 0.0000
# 4 0.0000 0.0000 0.0000 29.9037 0.0000 -4.8351
# 5 9.9606 -3.5901 -9.9474 0.0000 48.2961 0.0000
# 6 0.0000 0.0000 0.0000 -4.8351 0.0000 34.3416
#
#
#
# Elastic Compliance Matrix: (Units=1/GPa)
#
#
# Indices 1 2 3 4 5 6 
#
# 1 0.008255 -0.000927 -0.004463 0.000000 -0.002691 0.000000
# 2 -0.000927 0.029269 -0.004087 0.000000 0.001525 0.000000
# 3 -0.004463 -0.004087 0.009967 0.000000 0.002670 0.000000
# 4 0.000000 0.000000 0.000000 0.034220 0.000000 0.004818
# 5 -0.002691 0.001525 0.002670 0.000000 0.021924 0.000000
# 6 0.000000 0.000000 0.000000 0.004818 0.000000 0.029798
#
#
# Mechanical properties :
#
#
# Convention : Reuss Voigt Hill
#
# Bulk Modulus (GPa) = 35.04427 66.07811 50.56119
# Shear Modulus (GPa) = 30.88330 38.27128 34.57729
#
# Velocity S-wave (km/s) = 3.63471 4.04617 3.84595
# Velocity P-wave (km/s) = 5.71016 7.07780 6.43044
#
# Compressibility (1/GPa) = 0.02853534
#
# Stress axis : x y z
#
# Youngs Moduli (GPa) = 121.13569 34.16552 100.33407
#
# Poissons Ratio (x) = 0.03167 0.44783
# Poissons Ratio (y) = 0.11231 0.41011
# Poissons Ratio (z) = 0.54068 0.13965
#
# Static dielectric constant tensor:
#      x y z
#    x 5.968300 0.000000 -2.230470 
#    y 0.000000 4.395400 0.000000 
#    z -2.230470 0.000000 7.604640 
# 
# 
# High freq. dielectric constant tensor:
#      x y z
#    x 1.924430 0.000000 0.008800 
#    y 0.000000 1.960720 0.000000 
#    z 0.008800 0.000000 1.929820 
# 
# From -- ./inp_files/31953.got.cif
#   From: 2010.06.25/outbox.cif.g09.slc.cpg/sg11_16_cif.got.tgz:31953.got - 2010.06.27 23:14:04.
