data_PCOD8076803
_publ_section_title
;
Structure prediction by ZEFSAII (Michael W. Deem and Ramdas Pophale) SiO2 
 PCOD8076803
Probable space group: P 21/M
;
_chemical_formula_sum "Si O2"
_cell_formula_units_Z 32
_cell_length_a 14.149344
_cell_length_b 14.693136
_cell_length_c 20.426461
_cell_angle_alpha 90.000000
_cell_angle_beta 159.541480
_cell_angle_gamma 90.000000
_cell_volume 1484.319399
_symmetry_space_group_name_H-M "P 21/M"
_symmetry_group_IT_number 11
_symmetry_cell_setting 'monoclinic'
loop_
_space_group_symop_operation_xyz
x,y,z
-x,1/2+y,-z
-x,-y,-z
x,1/2-y,z
loop_
_atom_site_type_symbol
_atom_site_label
_atom_site_fract_x
_atom_site_fract_y
_atom_site_fract_z
Si Si1 0.692592 0.001252 0.319901
Si Si2 0.427753 0.565314 0.894329
Si Si3 0.201442 0.982527 0.283166
Si Si4 0.093545 0.352955 0.132148
Si Si5 0.326240 0.850654 0.250874
Si Si6 0.393917 0.854861 0.623667
Si Si7 0.167945 0.145992 0.497514
Si Si8 0.968296 0.648520 0.238460
O O1 0.526174 0.012159 0.144699
O O2 0.613628 0.084468 0.316336
O O3 0.655089 0.904917 0.331766
O O4 0.000000 0.000000 0.500000
O O5 0.124663 0.602898 0.705729
O O6 0.500000 0.500000 0.000000
O O7 0.645365 0.646969 0.039615
O O8 0.199841 0.922323 0.217342
O O9 0.038352 0.929915 0.232576
O O10 0.500000 0.000000 0.500000
O O11 0.066285 0.079346 0.176633
O O12 0.136826 0.250000 0.186527
O O13 0.350835 0.382801 0.255169
O O14 0.821337 0.361182 0.914321
O O15 0.270930 0.750000 0.243755
O O16 0.649472 0.863286 0.449637
O O17 0.418303 0.750000 0.662064
O O18 0.120517 0.872791 0.405329
O O19 0.133999 0.250000 0.497750
O O20 0.052085 0.750000 0.268555
#
# Coordination Sequence:
#
# PCOD8076803 Si02
#       8
#     4   4   4   4   4   4   4   4
#     4  10  22  39  64  90 120 162 214 264 311 378
#     4  11  25  43  67  94 130 166 216 268 328 385
#     4  12  24  37  65  95 137 174 213 265 331 389
#     4  10  22  41  63  93 130 174 223 271 319 388
#     4  10  23  41  64  92 129 170 218 265 319 386
#     4  10  21  40  65  93 129 171 218 269 325 381
#     4  10  22  43  66  90 127 171 215 262 314 378
#     4  11  24  41  63  97 137 174 217 272 327 389
#
# _framework density 21.558702
#
# number of rings (size 3 to 8) (size 9 to 14) (size 15 to 20)
#    0.000    1.500    1.250    3.375    5.250    3.000 
#    0.000    1.250    0.000    0.000    0.000    0.000 
#    0.000    0.000    0.000    0.000    0.000    0.000 
#
# Total GULP energy -396705.990854 kJ/mol
# GULP energy per Si atom -12397.062214 kJ/mol
# Density = 2.150963 g / cm^3
# Si number density = 21.558702 Si / 1000 Ang^3
#
#
#
# Elastic Constant Matrix: (Units=GPa)
#
#
# Indices 1 2 3 4 5 6 
#
# 1 79.7354 56.3517 27.2491 0.0000 -19.7934 0.0000
# 2 56.3517 137.5056 34.9638 0.0000 -19.9349 0.0000
# 3 27.2491 34.9638 102.9167 0.0000 -1.4016 0.0000
# 4 0.0000 0.0000 0.0000 29.9446 0.0000 5.7361
# 5 -19.7934 -19.9349 -1.4016 0.0000 35.4431 0.0000
# 6 0.0000 0.0000 0.0000 5.7361 0.0000 24.0600
#
#
#
# Elastic Compliance Matrix: (Units=1/GPa)
#
#
# Indices 1 2 3 4 5 6 
#
# 1 0.019870 -0.006297 -0.003020 0.000000 0.007435 0.000000
# 2 -0.006297 0.010696 -0.001933 0.000000 0.002423 0.000000
# 3 -0.003020 -0.001933 0.011141 0.000000 -0.002334 0.000000
# 4 0.000000 0.000000 0.000000 0.034993 0.000000 -0.008343
# 5 0.007435 0.002423 -0.002334 0.000000 0.033637 0.000000
# 6 0.000000 0.000000 0.000000 -0.008343 0.000000 0.043552
#
#
# Mechanical properties :
#
#
# Convention : Reuss Voigt Hill
#
# Bulk Modulus (GPa) = 52.06878 61.92077 56.99478
# Shear Modulus (GPa) = 27.35353 31.32910 29.34131
#
# Velocity S-wave (km/s) = 3.56588 3.81622 3.69317
# Velocity P-wave (km/s) = 6.41549 6.94279 6.68434
#
# Compressibility (1/GPa) = 0.01920536
#
# Stress axis : x y z
#
# Youngs Moduli (GPa) = 50.32803 93.49378 89.75563
#
# Poissons Ratio (x) = 0.58873 0.27109
# Poissons Ratio (y) = 0.31691 0.17354
# Poissons Ratio (z) = 0.15201 0.18077
#
# Static dielectric constant tensor:
#      x y z
#    x 4.336730 0.000000 0.077850 
#    y 0.000000 4.134890 0.000000 
#    z 0.077850 0.000000 4.146580 
# 
# 
# High freq. dielectric constant tensor:
#      x y z
#    x 1.832350 0.000000 0.008420 
#    y 0.000000 1.856490 0.000000 
#    z 0.008420 0.000000 1.857660 
# 
# From -- ./inp_files/65785.got.cif
#   From: 2010.06.25/outbox.cif.g09.slc.cpg/sg11_33_cif.got.tgz:65785.got - 2010.06.27 23:14:04.
