data_PCOD8076642
_publ_section_title
;
Structure prediction by ZEFSAII (Michael W. Deem and Ramdas Pophale) SiO2 
 PCOD8076642
Probable space group: P 21/M
;
_chemical_formula_sum "Si O2"
_cell_formula_units_Z 28
_cell_length_a 29.304028
_cell_length_b 8.512061
_cell_length_c 9.830253
_cell_angle_alpha 90.000000
_cell_angle_beta 33.084301
_cell_angle_gamma 90.000000
_cell_volume 1338.498487
_symmetry_space_group_name_H-M "P 21/M"
_symmetry_group_IT_number 11
_symmetry_cell_setting 'monoclinic'
loop_
_space_group_symop_operation_xyz
x,y,z
-x,1/2+y,-z
-x,-y,-z
x,1/2-y,z
loop_
_atom_site_type_symbol
_atom_site_label
_atom_site_fract_x
_atom_site_fract_y
_atom_site_fract_z
Si Si1 0.620098 0.935319 0.449544
Si Si2 0.568001 0.434178 0.098121
Si Si3 0.131846 0.434260 0.814372
Si Si4 0.321324 0.065331 0.405884
Si Si5 0.868254 0.433290 0.473872
Si Si6 0.305062 0.433668 0.015066
Si Si7 0.999990 0.934775 0.348002
O O1 0.612720 0.750000 0.461719
O O2 0.666999 0.989727 0.468220
O O3 0.676501 0.993753 0.183273
O O4 0.526015 0.001754 0.677140
O O5 0.571002 0.250000 0.125938
O O6 0.613028 0.464499 0.842875
O O7 0.612333 0.534767 0.104117
O O8 0.116031 0.250000 0.857237
O O9 0.228557 0.478098 0.590579
O O10 0.099645 0.499848 0.750532
O O11 0.081885 0.509314 0.063548
O O12 0.339334 0.250000 0.341497
O O13 0.886605 0.250000 0.429685
O O14 0.917010 0.511706 0.476538
O O15 0.770396 0.466762 0.735091
O O16 0.281856 0.250000 0.080055
O O17 0.000082 0.750000 0.357676
O O18 0.000000 0.000000 0.500000
#
# Coordination Sequence:
#
# PCOD8076642 Si02
#       7
#     4   4   4   4   4   4   4
#     4   9  21  38  59  89 124 166 213 266 322 377
#     4  11  21  37  60  89 126 165 213 267 318 377
#     4  11  23  42  69  98 130 172 217 262 318 381
#     4  10  21  39  63  90 124 167 213 259 316 381
#     4  12  25  44  68  97 131 168 216 266 319 381
#     4  11  22  39  63  90 124 168 216 264 323 383
#     4  12  27  47  71 101 136 169 208 258 317 379
#
# _framework density 20.918960999999999
#
# number of rings (size 3 to 8) (size 9 to 14) (size 15 to 20)
#    0.000    1.143    1.429    5.143    2.000    0.571 
#    0.000    4.286    0.000    0.000    0.000    0.000 
#    0.000    0.000    0.000    0.000    0.000    0.000 
#
# Total GULP energy -347348.725786 kJ/mol
# GULP energy per Si atom -12405.311635 kJ/mol
# Density = 2.087135 g / cm^3
# Si number density = 20.918961 Si / 1000 Ang^3
#
#
#
# Elastic Constant Matrix: (Units=GPa)
#
#
# Indices 1 2 3 4 5 6 
#
# 1 132.1848 35.1804 43.0933 0.0000 23.3353 0.0000
# 2 35.1804 100.7213 42.7419 0.0000 6.3967 0.0000
# 3 43.0933 42.7419 114.0169 0.0000 20.9241 0.0000
# 4 0.0000 0.0000 0.0000 33.3005 0.0000 2.4382
# 5 23.3353 6.3967 20.9241 0.0000 45.6965 0.0000
# 6 0.0000 0.0000 0.0000 2.4382 0.0000 31.7369
#
#
#
# Elastic Compliance Matrix: (Units=1/GPa)
#
#
# Indices 1 2 3 4 5 6 
#
# 1 0.009461 -0.002186 -0.002103 0.000000 -0.003563 0.000000
# 2 -0.002186 0.012319 -0.004018 0.000000 0.001232 0.000000
# 3 -0.002103 -0.004018 0.011759 0.000000 -0.003748 0.000000
# 4 0.000000 0.000000 0.000000 0.030199 0.000000 -0.002320
# 5 -0.003563 0.001232 -0.003748 0.000000 0.025247 0.000000
# 6 0.000000 0.000000 0.000000 -0.002320 0.000000 0.031687
#
#
# Mechanical properties :
#
#
# Convention : Reuss Voigt Hill
#
# Bulk Modulus (GPa) = 59.07915 65.43933 62.25924
# Shear Modulus (GPa) = 34.98258 37.20728 36.09493
#
# Velocity S-wave (km/s) = 4.09380 4.22197 4.15838
# Velocity P-wave (km/s) = 7.11680 7.42407 7.27206
#
# Compressibility (1/GPa) = 0.01692645
#
# Stress axis : x y z
#
# Youngs Moduli (GPa) = 105.69218 81.17727 85.03866
#
# Poissons Ratio (x) = 0.17747 0.17880
# Poissons Ratio (y) = 0.23106 0.34166
# Poissons Ratio (z) = 0.22223 0.32615
#
# Static dielectric constant tensor:
#      x y z
#    x 4.001440 0.000000 0.117270 
#    y 0.000000 3.654760 0.000000 
#    z 0.117270 0.000000 3.950280 
# 
# 
# High freq. dielectric constant tensor:
#      x y z
#    x 1.833560 0.000000 0.003710 
#    y 0.000000 1.811430 0.000000 
#    z 0.003710 0.000000 1.832190 
# 
# From -- ./inp_files/28255.got.cif
#   From: 2010.06.25/outbox.cif.g09.slc.cpg/sg11_15_cif.got.tgz:28255.got - 2010.06.27 23:14:04.
