data_PCOD8076775
_publ_section_title
;
Structure prediction by ZEFSAII (Michael W. Deem and Ramdas Pophale) SiO2 
 PCOD8076775
Probable space group: P 21/M
;
_chemical_formula_sum "Si O2"
_cell_formula_units_Z 20
_cell_length_a 10.081556
_cell_length_b 13.549810
_cell_length_c 7.329341
_cell_angle_alpha 90.000000
_cell_angle_beta 75.183278
_cell_angle_gamma 90.000000
_cell_volume 967.919723
_symmetry_space_group_name_H-M "P 21/M"
_symmetry_group_IT_number 11
_symmetry_cell_setting 'monoclinic'
loop_
_space_group_symop_operation_xyz
x,y,z
-x,1/2+y,-z
-x,-y,-z
x,1/2-y,z
loop_
_atom_site_type_symbol
_atom_site_label
_atom_site_fract_x
_atom_site_fract_y
_atom_site_fract_z
Si Si1 0.135708 0.033592 0.552923
Si Si2 0.593850 0.358864 0.994127
Si Si3 0.194005 0.639532 0.771139
Si Si4 0.909685 0.634988 0.056144
Si Si5 0.697558 0.559817 0.844041
O O1 0.211048 0.935287 0.598350
O O2 0.104281 0.109554 0.726047
O O3 0.231965 0.088447 0.371984
O O4 0.000000 0.000000 0.500000
O O5 0.621243 0.250000 0.897672
O O6 0.667166 0.365910 0.163174
O O7 0.431967 0.370043 0.081714
O O8 0.651921 0.444957 0.844644
O O9 0.170375 0.750000 0.703220
O O10 0.062825 0.606285 0.938733
O O11 0.880199 0.750000 0.038225
O O12 0.800662 0.573136 0.977005
#
# Coordination Sequence:
#
# PCOD8076775 Si02
#       5
#     4   4   4   4   4
#     4  12  23  38  67  95 125 159 212 260 308 367
#     4  10  22  42  64  90 127 167 207 256 314 370
#     4  10  21  40  64  90 127 166 205 257 311 369
#     4  11  23  41  64  93 128 166 209 256 312 368
#     4  11  23  41  68  91 126 166 206 259 313 368
#
# _framework density 20.662870999999999
#
# number of rings (size 3 to 8) (size 9 to 14) (size 15 to 20)
#    0.000    1.200    4.000    2.400    0.000    4.000 
#    0.000    0.000    0.000    0.000    0.000    0.000 
#    0.000    0.000    0.000    0.000    0.000    0.000 
#
# Total GULP energy -248050.462687 kJ/mol
# GULP energy per Si atom -12402.523134 kJ/mol
# Density = 2.061584 g / cm^3
# Si number density = 20.662871 Si / 1000 Ang^3
#
#
#
# Elastic Constant Matrix: (Units=GPa)
#
#
# Indices 1 2 3 4 5 6 
#
# 1 109.7077 16.5369 29.9209 0.0000 8.9424 0.0000
# 2 16.5369 75.6872 10.3930 0.0000 5.3982 0.0000
# 3 29.9209 10.3930 101.8656 0.0000 -1.2315 0.0000
# 4 0.0000 0.0000 0.0000 21.5650 0.0000 4.4707
# 5 8.9424 5.3982 -1.2315 0.0000 22.2240 0.0000
# 6 0.0000 0.0000 0.0000 4.4707 0.0000 29.0282
#
#
#
# Elastic Compliance Matrix: (Units=1/GPa)
#
#
# Indices 1 2 3 4 5 6 
#
# 1 0.010491 -0.001600 -0.002967 0.000000 -0.003997 0.000000
# 2 -0.001600 0.013895 -0.000981 0.000000 -0.002786 0.000000
# 3 -0.002967 -0.000981 0.010813 0.000000 0.002031 0.000000
# 4 0.000000 0.000000 0.000000 0.047901 0.000000 -0.007377
# 5 -0.003997 -0.002786 0.002031 0.000000 0.047394 0.000000
# 6 0.000000 0.000000 0.000000 -0.007377 0.000000 0.035585
#
#
# Mechanical properties :
#
#
# Convention : Reuss Voigt Hill
#
# Bulk Modulus (GPa) = 41.48756 44.55133 43.01945
# Shear Modulus (GPa) = 26.99635 29.92407 28.46021
#
# Velocity S-wave (km/s) = 3.61850 3.80966 3.71531
# Velocity P-wave (km/s) = 6.13025 6.39994 6.26654
#
# Compressibility (1/GPa) = 0.02410361
#
# Stress axis : x y z
#
# Youngs Moduli (GPa) = 95.31791 71.96697 92.48163
#
# Poissons Ratio (x) = 0.11513 0.27436
# Poissons Ratio (y) = 0.15249 0.09077
# Poissons Ratio (z) = 0.28278 0.07063
#
# Static dielectric constant tensor:
#      x y z
#    x 3.805780 0.000000 0.033100 
#    y 0.000000 3.988010 0.000000 
#    z 0.033100 0.000000 4.176650 
# 
# 
# High freq. dielectric constant tensor:
#      x y z
#    x 1.817990 0.000000 0.007520 
#    y 0.000000 1.823980 0.000000 
#    z 0.007520 0.000000 1.784970 
# 
# From -- ./inp_files/4167.got.cif
#   From: 2010.06.25/outbox.cif.g09.slc.cpg/sg11_3_cif.got.tgz:4167.got - 2010.06.27 23:14:04.
