data_PCOD8076908
_publ_section_title
;
Structure prediction by ZEFSAII (Michael W. Deem and Ramdas Pophale) SiO2 
 PCOD8076908
Probable space group: P 21/M
;
_chemical_formula_sum "Si O2"
_cell_formula_units_Z 20
_cell_length_a 6.696591
_cell_length_b 23.919485
_cell_length_c 5.547116
_cell_angle_alpha 90.000000
_cell_angle_beta 107.272781
_cell_angle_gamma 90.000000
_cell_volume 848.460510
_symmetry_space_group_name_H-M "P 21/M"
_symmetry_group_IT_number 11
_symmetry_cell_setting 'monoclinic'
loop_
_space_group_symop_operation_xyz
x,y,z
-x,1/2+y,-z
-x,-y,-z
x,1/2-y,z
loop_
_atom_site_type_symbol
_atom_site_label
_atom_site_fract_x
_atom_site_fract_y
_atom_site_fract_z
Si Si1 0.370270 0.109764 0.045038
Si Si2 0.031406 0.033678 0.761863
Si Si3 0.500420 0.810187 0.285278
Si Si4 0.755355 0.374043 0.458995
Si Si5 0.907394 0.685881 0.733922
O O1 0.545524 0.091241 0.302685
O O2 0.188134 0.150889 0.077529
O O3 0.267853 0.057071 0.871291
O O4 0.522263 0.143028 0.922013
O O5 0.874837 0.085567 0.686977
O O6 0.000000 0.000000 0.500000
O O7 0.000000 0.000000 0.000000
O O8 0.453257 0.750000 0.152412
O O9 0.326169 0.819919 0.426986
O O10 0.736084 0.811538 0.465159
O O11 0.897816 0.350394 0.293544
O O12 0.967914 0.750000 0.832878
#
# Coordination Sequence:
#
# PCOD8076908 Si02
#       5
#     4   4   4   4   4
#     4  11  25  45  72 105 149 185 249 305 360 445
#     4  12  29  51  76 105 144 199 259 315 371 424
#     4  10  22  41  70 109 146 185 234 293 368 453
#     4  11  25  45  73 103 148 191 243 303 370 438
#     4  10  21  42  70 106 151 195 232 291 369 449
#
# _framework density 23.572106999999999
#
# number of rings (size 3 to 8) (size 9 to 14) (size 15 to 20)
#    0.000    1.200    2.000    2.400    8.400    4.000 
#    0.000    0.000    0.000    0.000    0.000    0.000 
#    0.000    0.000    0.000    0.000    0.000    0.000 
#
# Total GULP energy -247816.595037 kJ/mol
# GULP energy per Si atom -12390.829752 kJ/mol
# Density = 2.351846 g / cm^3
# Si number density = 23.572107 Si / 1000 Ang^3
#
#
#
# Elastic Constant Matrix: (Units=GPa)
#
#
# Indices 1 2 3 4 5 6 
#
# 1 118.3067 27.5302 27.4111 0.0000 3.6489 0.0000
# 2 27.5302 66.1181 24.4917 0.0000 16.8176 0.0000
# 3 27.4111 24.4917 88.4764 0.0000 0.4935 0.0000
# 4 0.0000 0.0000 0.0000 43.1338 0.0000 -6.4867
# 5 3.6489 16.8176 0.4935 0.0000 43.9071 0.0000
# 6 0.0000 0.0000 0.0000 -6.4867 0.0000 10.8856
#
#
#
# Elastic Compliance Matrix: (Units=1/GPa)
#
#
# Indices 1 2 3 4 5 6 
#
# 1 0.009709 -0.003410 -0.002067 0.000000 0.000522 0.000000
# 2 -0.003410 0.020065 -0.004457 0.000000 -0.007352 0.000000
# 3 -0.002067 -0.004457 0.013167 0.000000 0.001731 0.000000
# 4 0.000000 0.000000 0.000000 0.025466 0.000000 0.015175
# 5 0.000522 -0.007352 0.001731 0.000000 0.025529 0.000000
# 6 0.000000 0.000000 0.000000 0.015175 0.000000 0.100908
#
#
# Mechanical properties :
#
#
# Convention : Reuss Voigt Hill
#
# Bulk Modulus (GPa) = 43.33962 47.97410 45.65686
# Shear Modulus (GPa) = 22.48187 32.48318 27.48253
#
# Velocity S-wave (km/s) = 3.09163 3.71622 3.41822
# Velocity P-wave (km/s) = 5.58302 6.22976 5.91524
#
# Compressibility (1/GPa) = 0.02307358
#
# Stress axis : x y z
#
# Youngs Moduli (GPa) = 102.99867 49.83747 75.94794
#
# Poissons Ratio (x) = 0.16994 0.15698
# Poissons Ratio (y) = 0.35120 0.33850
# Poissons Ratio (z) = 0.21289 0.22212
#
# Static dielectric constant tensor:
#      x y z
#    x 4.275390 0.000000 0.235740 
#    y 0.000000 4.451980 0.000000 
#    z 0.235740 0.000000 4.264180 
# 
# 
# High freq. dielectric constant tensor:
#      x y z
#    x 1.943010 0.000000 0.012110 
#    y 0.000000 1.923370 0.000000 
#    z 0.012110 0.000000 1.938730 
# 
# From -- ./inp_files/852.got.cif
#   From: 2010.06.25/outbox.cif.g09.slc.cpg/sg11_1_cif.got.tgz:852.got - 2010.06.27 23:14:04.
