data_PCOD8076475
_publ_section_title
;
Structure prediction by ZEFSAII (Michael W. Deem and Ramdas Pophale) SiO2 
 PCOD8076475
Probable space group: P 21/M
;
_chemical_formula_sum "Si O2"
_cell_formula_units_Z 20
_cell_length_a 16.055194
_cell_length_b 13.731353
_cell_length_c 10.945552
_cell_angle_alpha 90.000000
_cell_angle_beta 156.286317
_cell_angle_gamma 90.000000
_cell_volume 970.448253
_symmetry_space_group_name_H-M "P 21/M"
_symmetry_group_IT_number 11
_symmetry_cell_setting 'monoclinic'
loop_
_space_group_symop_operation_xyz
x,y,z
-x,1/2+y,-z
-x,-y,-z
x,1/2-y,z
loop_
_atom_site_type_symbol
_atom_site_label
_atom_site_fract_x
_atom_site_fract_y
_atom_site_fract_z
Si Si1 0.771778 0.479371 0.240295
Si Si2 0.832513 0.464091 0.600041
Si Si3 0.418664 0.139275 0.650391
Si Si4 0.464087 0.138531 0.198210
Si Si5 0.746673 0.861034 0.831560
O O1 0.777262 0.442569 0.385557
O O2 0.000000 0.500000 0.500000
O O3 0.646583 0.398414 0.994483
O O4 0.650229 0.580857 0.063947
O O5 0.770005 0.575656 0.546164
O O6 0.704754 0.390934 0.515968
O O7 0.071796 0.439940 0.945421
O O8 0.388707 0.250000 0.655247
O O9 0.410155 0.132447 0.492188
O O10 0.430495 0.250000 0.123845
O O11 0.377617 0.108707 0.214382
O O12 0.833690 0.750000 0.961251
#
# Coordination Sequence:
#
# PCOD8076475 Si02
#       5
#     4   4   4   4   4
#     4  11  23  40  60  90 121 159 206 249 305 362
#     4  11  22  39  65  89 125 159 207 252 303 368
#     4  10  23  41  62  90 126 162 203 257 306 359
#     4  10  21  38  63  90 121 161 204 252 307 365
#     4  10  21  40  63  92 125 162 205 250 305 364
#
# _framework density 20.609031999999999
#
# number of rings (size 3 to 8) (size 9 to 14) (size 15 to 20)
#    0.000    1.600    2.000    3.600    0.000    8.000 
#    3.600    0.000    0.000    0.000    0.000    0.000 
#    0.000    0.000    0.000    0.000    0.000    0.000 
#
# Total GULP energy -247972.117958 kJ/mol
# GULP energy per Si atom -12398.605898 kJ/mol
# Density = 2.056213 g / cm^3
# Si number density = 20.609032 Si / 1000 Ang^3
#
#
#
# Elastic Constant Matrix: (Units=GPa)
#
#
# Indices 1 2 3 4 5 6 
#
# 1 88.0447 28.0190 51.6848 0.0000 21.1431 0.0000
# 2 28.0190 113.1360 46.7022 0.0000 8.9770 0.0000
# 3 51.6848 46.7022 105.8340 0.0000 1.2903 0.0000
# 4 0.0000 0.0000 0.0000 24.8371 0.0000 -0.3982
# 5 21.1431 8.9770 1.2903 0.0000 35.2221 0.0000
# 6 0.0000 0.0000 0.0000 -0.3982 0.0000 32.7600
#
#
#
# Elastic Compliance Matrix: (Units=1/GPa)
#
#
# Indices 1 2 3 4 5 6 
#
# 1 0.019665 -0.000068 -0.009434 0.000000 -0.011442 0.000000
# 2 -0.000068 0.011048 -0.004810 0.000000 -0.002599 0.000000
# 3 -0.009434 -0.004810 0.016102 0.000000 0.006299 0.000000
# 4 0.000000 0.000000 0.000000 0.040270 0.000000 0.000489
# 5 -0.011442 -0.002599 0.006299 0.000000 0.035691 0.000000
# 6 0.000000 0.000000 0.000000 0.000489 0.000000 0.030531
#
#
# Mechanical properties :
#
#
# Convention : Reuss Voigt Hill
#
# Bulk Modulus (GPa) = 54.97527 62.20298 58.58912
# Shear Modulus (GPa) = 26.59647 30.60442 28.60044
#
# Velocity S-wave (km/s) = 3.59628 3.85775 3.72931
# Velocity P-wave (km/s) = 6.63156 7.07749 6.85815
#
# Compressibility (1/GPa) = 0.01819000
#
# Stress axis : x y z
#
# Youngs Moduli (GPa) = 50.85110 90.51759 62.10475
#
# Poissons Ratio (x) = 0.00615 0.58591
# Poissons Ratio (y) = 0.00346 0.29873
# Poissons Ratio (z) = 0.47974 0.43540
#
# Static dielectric constant tensor:
#      x y z
#    x 3.931060 0.000000 0.037680 
#    y 0.000000 3.860790 0.000000 
#    z 0.037680 0.000000 3.783860 
# 
# 
# High freq. dielectric constant tensor:
#      x y z
#    x 1.813960 0.000000 -0.004430 
#    y 0.000000 1.807230 0.000000 
#    z -0.004430 0.000000 1.801800 
# 
# From -- ./inp_files/12259.got.cif
#   From: 2010.06.25/outbox.cif.g09.slc.cpg/sg11_7_cif.got.tgz:12259.got - 2010.06.27 23:14:04.
