data_PCOD8076585
_publ_section_title
;
Structure prediction by ZEFSAII (Michael W. Deem and Ramdas Pophale) SiO2 
 PCOD8076585
Probable space group: P 21/M
;
_chemical_formula_sum "Si O2"
_cell_formula_units_Z 28
_cell_length_a 11.756033
_cell_length_b 8.910988
_cell_length_c 13.887719
_cell_angle_alpha 90.000000
_cell_angle_beta 73.791205
_cell_angle_gamma 90.000000
_cell_volume 1397.018880
_symmetry_space_group_name_H-M "P 21/M"
_symmetry_group_IT_number 11
_symmetry_cell_setting 'monoclinic'
loop_
_space_group_symop_operation_xyz
x,y,z
-x,1/2+y,-z
-x,-y,-z
x,1/2-y,z
loop_
_atom_site_type_symbol
_atom_site_label
_atom_site_fract_x
_atom_site_fract_y
_atom_site_fract_z
Si Si1 0.116944 0.926800 0.930427
Si Si2 0.450605 0.079952 0.145843
Si Si3 0.730484 0.576156 0.649085
Si Si4 0.836091 0.926356 0.284552
Si Si5 0.372225 0.425630 0.527720
Si Si6 0.328264 0.421577 0.977534
Si Si7 0.968062 0.073396 0.608104
O O1 0.099664 0.750000 0.931137
O O2 0.149389 0.984229 0.817021
O O3 0.220876 0.969191 0.979046
O O4 0.000000 0.000000 0.000000
O O5 0.499901 0.250000 0.129298
O O6 0.386372 0.047397 0.260962
O O7 0.558537 0.964758 0.113769
O O8 0.356850 0.053907 0.082611
O O9 0.768670 0.750000 0.641879
O O10 0.701164 0.520842 0.548425
O O11 0.836995 0.479421 0.668872
O O12 0.845150 0.750000 0.260938
O O13 0.707691 0.966808 0.360599
O O14 0.939821 0.978530 0.332111
O O15 0.500000 0.500000 0.500000
O O16 0.394510 0.250000 0.515045
O O17 0.294145 0.250000 0.962156
O O18 0.973527 0.250000 0.593971
O O19 0.000000 0.000000 0.500000
#
# Coordination Sequence:
#
# PCOD8076585 Si02
#       7
#     4   4   4   4   4   4   4
#     4  12  27  45  66  91 123 164 210 259 315 377
#     4   9  20  38  63  92 123 161 203 251 307 367
#     4  10  21  39  61  90 124 159 203 252 305 361
#     4  10  23  44  64  90 126 164 206 260 313 364
#     4  10  22  40  61  89 129 166 204 253 303 361
#     4  10  21  40  63  91 125 160 204 256 310 365
#     4  11  22  39  63  90 122 159 202 249 303 362
#
# _framework density 20.042677999999999
#
# number of rings (size 3 to 8) (size 9 to 14) (size 15 to 20)
#    0.000    1.714    1.429    2.143    4.000    3.429 
#    0.000    0.000    0.000    0.000    0.000    0.000 
#    0.000    0.000    0.000    0.000    0.000    0.000 
#
# Total GULP energy -347302.878828 kJ/mol
# GULP energy per Si atom -12403.674244 kJ/mol
# Density = 1.999706 g / cm^3
# Si number density = 20.042678 Si / 1000 Ang^3
#
#
#
# Elastic Constant Matrix: (Units=GPa)
#
#
# Indices 1 2 3 4 5 6 
#
# 1 115.0179 46.5560 37.1946 0.0000 -10.2649 0.0000
# 2 46.5560 83.9767 45.8404 0.0000 -4.1995 0.0000
# 3 37.1946 45.8404 109.1840 0.0000 -12.9897 0.0000
# 4 0.0000 0.0000 0.0000 31.6966 0.0000 -3.4703
# 5 -10.2649 -4.1995 -12.9897 0.0000 20.7482 0.0000
# 6 0.0000 0.0000 0.0000 -3.4703 0.0000 40.9007
#
#
#
# Elastic Compliance Matrix: (Units=1/GPa)
#
#
# Indices 1 2 3 4 5 6 
#
# 1 0.011710 -0.005673 -0.001139 0.000000 0.003932 0.000000
# 2 -0.005673 0.018217 -0.006062 0.000000 -0.002915 0.000000
# 3 -0.001139 -0.006062 0.012835 0.000000 0.006245 0.000000
# 4 0.000000 0.000000 0.000000 0.031845 0.000000 0.002702
# 5 0.003932 -0.002915 0.006245 0.000000 0.053462 0.000000
# 6 0.000000 0.000000 0.000000 0.002702 0.000000 0.024679
#
#
# Mechanical properties :
#
#
# Convention : Reuss Voigt Hill
#
# Bulk Modulus (GPa) = 58.78290 63.04008 60.91149
# Shear Modulus (GPa) = 27.14903 30.57494 28.86199
#
# Velocity S-wave (km/s) = 3.68443 3.90999 3.79888
# Velocity P-wave (km/s) = 6.89148 7.20453 7.04975
#
# Compressibility (1/GPa) = 0.01701175
#
# Stress axis : x y z
#
# Youngs Moduli (GPa) = 85.39643 54.89429 77.91042
#
# Poissons Ratio (x) = 0.31144 0.08878
# Poissons Ratio (y) = 0.48449 0.47232
# Poissons Ratio (z) = 0.09731 0.33279
#
# Static dielectric constant tensor:
#      x y z
#    x 3.820610 0.000000 0.001250 
#    y 0.000000 3.721450 0.000000 
#    z 0.001250 0.000000 3.697290 
# 
# 
# High freq. dielectric constant tensor:
#      x y z
#    x 1.790730 0.000000 -0.003170 
#    y 0.000000 1.778140 0.000000 
#    z -0.003170 0.000000 1.790050 
# 
# From -- ./inp_files/48902.got.cif
#   From: 2010.06.25/outbox.cif.g09.slc.cpg/sg11_25_cif.got.tgz:48902.got - 2010.06.27 23:14:04.
