data_PCOD8076372
_publ_section_title
;
Structure prediction by ZEFSAII (Michael W. Deem and Ramdas Pophale) SiO2 
 PCOD8076372
Probable space group: P 21/M
;
_chemical_formula_sum "Si O2"
_cell_formula_units_Z 32
_cell_length_a 23.653188
_cell_length_b 8.819940
_cell_length_c 14.150224
_cell_angle_alpha 90.000000
_cell_angle_beta 146.988248
_cell_angle_gamma 90.000000
_cell_volume 1608.290631
_symmetry_space_group_name_H-M "P 21/M"
_symmetry_group_IT_number 11
_symmetry_cell_setting 'monoclinic'
loop_
_space_group_symop_operation_xyz
x,y,z
-x,1/2+y,-z
-x,-y,-z
x,1/2-y,z
loop_
_atom_site_type_symbol
_atom_site_label
_atom_site_fract_x
_atom_site_fract_y
_atom_site_fract_z
Si Si1 0.624775 0.071921 0.266234
Si Si2 0.416261 0.926922 0.002152
Si Si3 0.053437 0.429209 0.665606
Si Si4 0.394127 0.425470 0.318870
Si Si5 0.813764 0.926961 0.637121
Si Si6 0.278014 0.928480 0.984417
Si Si7 0.986554 0.073353 0.201317
Si Si8 0.195784 0.423838 0.161496
O O1 0.622305 0.250000 0.270458
O O2 0.624412 0.016932 0.156745
O O3 0.728509 0.013984 0.458710
O O4 0.524132 0.008348 0.179440
O O5 0.440250 0.750000 0.035818
O O6 0.329268 0.969429 0.956114
O O7 0.048357 0.250000 0.650307
O O8 0.171380 0.481580 0.841372
O O9 0.990695 0.482561 0.670332
O O10 0.000000 0.500000 0.500000
O O11 0.500000 0.500000 0.500000
O O12 0.411232 0.250000 0.315697
O O13 0.313550 0.440708 0.292084
O O14 0.354842 0.516710 0.173309
O O15 0.788945 0.750000 0.596203
O O16 0.811620 0.983394 0.741914
O O17 0.925579 0.968019 0.751325
O O18 0.256647 0.750000 0.964784
O O19 0.985084 0.250000 0.223836
O O20 0.875703 0.027395 0.004117
O O21 0.157489 0.250000 0.099871
#
# Coordination Sequence:
#
# PCOD8076372 Si02
#       8
#     4   4   4   4   4   4   4   4
#     4  10  21  38  60  91 121 157 204 251 302 361
#     4   9  21  40  61  85 122 163 197 244 307 365
#     4  12  26  44  66  94 129 167 210 259 314 376
#     4  11  24  41  63  93 128 168 210 257 315 373
#     4  10  23  40  61  90 123 160 205 254 308 366
#     4  11  23  42  67  95 127 165 209 258 316 378
#     4  11  23  41  65  93 123 160 206 255 311 371
#     4  10  22  42  64  87 122 165 204 253 313 366
#
# _framework density 19.896901
#
# number of rings (size 3 to 8) (size 9 to 14) (size 15 to 20)
#    0.000    1.500    1.250    3.000    3.500    3.500 
#    0.000    0.000    0.000    0.000    0.000    0.000 
#    0.000    0.000    0.000    0.000    0.000    0.000 
#
# Total GULP energy -396991.919172 kJ/mol
# GULP energy per Si atom -12405.997474 kJ/mol
# Density = 1.985161 g / cm^3
# Si number density = 19.896901 Si / 1000 Ang^3
#
#
#
# Elastic Constant Matrix: (Units=GPa)
#
#
# Indices 1 2 3 4 5 6 
#
# 1 119.4095 50.4970 36.1259 0.0000 -13.4558 0.0000
# 2 50.4970 91.8829 38.2821 0.0000 -1.4476 0.0000
# 3 36.1259 38.2821 104.7513 0.0000 -10.3552 0.0000
# 4 0.0000 0.0000 0.0000 40.6050 0.0000 -3.5721
# 5 -13.4558 -1.4476 -10.3552 0.0000 26.5015 0.0000
# 6 0.0000 0.0000 0.0000 -3.5721 0.0000 24.9030
#
#
#
# Elastic Compliance Matrix: (Units=1/GPa)
#
#
# Indices 1 2 3 4 5 6 
#
# 1 0.011858 -0.005832 -0.001451 0.000000 0.005136 0.000000
# 2 -0.005832 0.015742 -0.004108 0.000000 -0.003706 0.000000
# 3 -0.001451 -0.004108 0.011913 0.000000 0.003694 0.000000
# 4 0.000000 0.000000 0.000000 0.024942 0.000000 0.003578
# 5 0.005136 -0.003706 0.003694 0.000000 0.041582 0.000000
# 6 0.000000 0.000000 0.000000 0.003578 0.000000 0.040669
#
#
# Mechanical properties :
#
#
# Convention : Reuss Voigt Hill
#
# Bulk Modulus (GPa) = 59.76522 62.87263 61.31892
# Shear Modulus (GPa) = 28.56084 31.14449 29.85266
#
# Velocity S-wave (km/s) = 3.79283 3.96067 3.87766
# Velocity P-wave (km/s) = 7.02022 7.25146 7.13678
#
# Compressibility (1/GPa) = 0.01673214
#
# Stress axis : x y z
#
# Youngs Moduli (GPa) = 84.32898 63.52586 83.94048
#
# Poissons Ratio (x) = 0.37047 0.12177
# Poissons Ratio (y) = 0.49179 0.34483
# Poissons Ratio (z) = 0.12233 0.26097
#
# Static dielectric constant tensor:
#      x y z
#    x 3.930270 0.000000 -0.021700 
#    y 0.000000 3.845480 0.000000 
#    z -0.021700 0.000000 3.554620 
# 
# 
# High freq. dielectric constant tensor:
#      x y z
#    x 1.791620 0.000000 -0.000850 
#    y 0.000000 1.781600 0.000000 
#    z -0.000850 0.000000 1.779750 
# 
# From -- ./inp_files/55779.got.cif
#   From: 2010.06.25/outbox.cif.g09.slc.cpg/sg11_28_cif.got.tgz:55779.got - 2010.06.27 23:14:04.
