data_PCOD8076399
_publ_section_title
;
Structure prediction by ZEFSAII (Michael W. Deem and Ramdas Pophale) SiO2 
 PCOD8076399
Probable space group: P 21/M
;
_chemical_formula_sum "Si O2"
_cell_formula_units_Z 28
_cell_length_a 8.974760
_cell_length_b 8.429338
_cell_length_c 25.056262
_cell_angle_alpha 90.000000
_cell_angle_beta 44.874162
_cell_angle_gamma 90.000000
_cell_volume 1337.401058
_symmetry_space_group_name_H-M "P 21/M"
_symmetry_group_IT_number 11
_symmetry_cell_setting 'monoclinic'
loop_
_space_group_symop_operation_xyz
x,y,z
-x,1/2+y,-z
-x,-y,-z
x,1/2-y,z
loop_
_atom_site_type_symbol
_atom_site_label
_atom_site_fract_x
_atom_site_fract_y
_atom_site_fract_z
Si Si1 0.396823 0.433171 0.216797
Si Si2 0.530882 0.433406 0.913440
Si Si3 0.815408 0.934748 0.510216
Si Si4 0.718839 0.567447 0.214804
Si Si5 0.638355 0.933746 0.355757
Si Si6 0.066824 0.933776 0.631225
Si Si7 0.159546 0.066903 0.084300
O O1 0.399372 0.250000 0.200005
O O2 0.485986 0.534258 0.144906
O O3 0.544753 0.460955 0.230002
O O4 0.161208 0.490074 0.290326
O O5 0.578010 0.250000 0.912768
O O6 0.722737 0.533441 0.889693
O O7 0.310498 0.482994 0.996936
O O8 0.777789 0.750000 0.531218
O O9 0.608772 0.033062 0.577598
O O10 0.871653 0.958505 0.434281
O O11 0.000000 0.000000 0.500000
O O12 0.656778 0.750000 0.222455
O O13 0.720202 0.520031 0.276435
O O14 0.949294 0.536429 0.132004
O O15 0.682490 0.750000 0.357336
O O16 0.762575 0.042554 0.365787
O O17 0.063881 0.750000 0.614649
O O18 0.094883 0.250000 0.098440
#
# Coordination Sequence:
#
# PCOD8076399 Si02
#       7
#     4   4   4   4   4   4   4
#     4  11  24  40  61  88 120 158 199 246 299 354
#     4  10  21  38  61  88 119 156 198 245 297 354
#     4  12  25  42  65  92 124 160 198 244 297 352
#     4  11  24  40  61  88 120 158 199 246 299 354
#     4  11  24  42  64  91 122 158 200 245 295 351
#     4  11  24  42  64  91 122 158 200 245 295 351
#     4  10  21  38  61  88 119 156 198 245 297 354
#
# _framework density 20.936126999999999
#
# number of rings (size 3 to 8) (size 9 to 14) (size 15 to 20)
#    0.000    1.143    0.000    6.000    0.000   11.429 
#    0.000    0.000    0.000    0.000    0.000    0.000 
#    0.000    0.000    0.000    0.000    0.000    0.000 
#
# Total GULP energy -347460.369758 kJ/mol
# GULP energy per Si atom -12409.298920 kJ/mol
# Density = 2.088848 g / cm^3
# Si number density = 20.936127 Si / 1000 Ang^3
#
#
#
# Elastic Constant Matrix: (Units=GPa)
#
#
# Indices 1 2 3 4 5 6 
#
# 1 86.5742 14.9764 36.2799 0.0000 -21.2259 0.0000
# 2 14.9764 47.1031 27.6435 0.0000 6.4894 0.0000
# 3 36.2799 27.6435 110.2648 0.0000 -15.2979 0.0000
# 4 0.0000 0.0000 0.0000 27.0516 0.0000 5.7772
# 5 -21.2259 6.4894 -15.2979 0.0000 30.8996 0.0000
# 6 0.0000 0.0000 0.0000 5.7772 0.0000 33.9355
#
#
#
# Elastic Compliance Matrix: (Units=1/GPa)
#
#
# Indices 1 2 3 4 5 6 
#
# 1 0.016187 -0.005189 -0.002503 0.000000 0.010970 0.000000
# 2 -0.005189 0.029084 -0.007437 0.000000 -0.013354 0.000000
# 3 -0.002503 -0.007437 0.012601 0.000000 0.006081 0.000000
# 4 0.000000 0.000000 0.000000 0.038361 0.000000 -0.006531
# 5 0.010970 -0.013354 0.006081 0.000000 0.045713 0.000000
# 6 0.000000 0.000000 0.000000 -0.006531 0.000000 0.030579
#
#
# Mechanical properties :
#
#
# Convention : Reuss Voigt Hill
#
# Bulk Modulus (GPa) = 36.21356 44.63795 40.42576
# Shear Modulus (GPa) = 23.58622 29.38017 26.48319
#
# Velocity S-wave (km/s) = 3.36010 3.75016 3.56047
# Velocity P-wave (km/s) = 5.69108 6.33395 6.02110
#
# Compressibility (1/GPa) = 0.02761396
#
# Stress axis : x y z
#
# Youngs Moduli (GPa) = 61.77842 34.38298 79.36039
#
# Poissons Ratio (x) = 0.17841 0.19865
# Poissons Ratio (y) = 0.32056 0.59020
# Poissons Ratio (z) = 0.15464 0.25570
#
# Static dielectric constant tensor:
#      x y z
#    x 3.812180 0.000000 -0.095100 
#    y 0.000000 3.737230 0.000000 
#    z -0.095100 0.000000 3.981300 
# 
# 
# High freq. dielectric constant tensor:
#      x y z
#    x 1.822700 0.000000 -0.001510 
#    y 0.000000 1.827220 0.000000 
#    z -0.001510 0.000000 1.832800 
# 
# From -- ./inp_files/70856.got.cif
#   From: 2010.06.25/outbox.cif.g09.slc.cpg/sg11_36_cif.got.tgz:70856.got - 2010.06.27 23:14:04.
