data_PCOD8076418
_publ_section_title
;
Structure prediction by ZEFSAII (Michael W. Deem and Ramdas Pophale) SiO2 
 PCOD8076418
Probable space group: P 21/M
;
_chemical_formula_sum "Si O2"
_cell_formula_units_Z 32
_cell_length_a 28.895418
_cell_length_b 8.821612
_cell_length_c 12.230700
_cell_angle_alpha 90.000000
_cell_angle_beta 149.339196
_cell_angle_gamma 90.000000
_cell_volume 1589.863134
_symmetry_space_group_name_H-M "P 21/M"
_symmetry_group_IT_number 11
_symmetry_cell_setting 'monoclinic'
loop_
_space_group_symop_operation_xyz
x,y,z
-x,1/2+y,-z
-x,-y,-z
x,1/2-y,z
loop_
_atom_site_type_symbol
_atom_site_label
_atom_site_fract_x
_atom_site_fract_y
_atom_site_fract_z
Si Si1 0.436140 0.424728 0.104507
Si Si2 0.032641 0.573106 0.897405
Si Si3 0.734183 0.575882 0.867115
Si Si4 0.944707 0.926445 0.289761
Si Si5 0.591541 0.071620 0.731135
Si Si6 0.326038 0.928446 0.695152
Si Si7 0.644794 0.423373 0.493308
Si Si8 0.138538 0.073346 0.300773
O O1 0.407379 0.250000 0.050633
O O2 0.388264 0.512235 0.106359
O O3 0.543783 0.444477 0.333789
O O4 0.403219 0.495701 0.924792
O O5 0.054678 0.750000 0.934123
O O6 0.027132 0.503931 0.766181
O O7 0.937548 0.541124 0.763422
O O8 0.112346 0.496154 0.129889
O O9 0.707101 0.750000 0.831388
O O10 0.677646 0.470227 0.833070
O O11 0.712270 0.530117 0.698057
O O12 0.839539 0.547310 0.102759
O O13 0.968477 0.750000 0.329334
O O14 0.000000 0.000000 0.500000
O O15 0.578882 0.250000 0.705771
O O16 0.500000 0.000000 0.500000
O O17 0.327458 0.750000 0.716681
O O18 0.350482 0.975309 0.621898
O O19 0.228038 0.992982 0.528444
O O20 0.676808 0.250000 0.571107
O O21 0.156371 0.250000 0.320190
#
# Coordination Sequence:
#
# PCOD8076418 Si02
#       8
#     4   4   4   4   4   4   4   4
#     4  11  23  40  61  87 121 163 205 251 307 363
#     4  10  21  39  64  90 120 158 202 253 307 365
#     4  11  24  41  65  94 123 161 207 254 308 370
#     4  11  25  43  64  92 125 163 206 255 313 372
#     4  12  24  41  65  92 122 159 205 255 305 361
#     4  11  23  38  58  89 125 162 205 251 306 366
#     4  10  22  39  61  88 121 161 204 250 304 364
#     4  10  21  38  61  90 122 160 203 250 304 365
#
# _framework density 20.127520000000001
#
# number of rings (size 3 to 8) (size 9 to 14) (size 15 to 20)
#    0.000    1.250    1.250    4.500    0.000    8.000 
#    0.000    1.250    0.000    0.000    0.000    0.000 
#    0.000    0.000    0.000    0.000    0.000    0.000 
#
# Total GULP energy -397039.668017 kJ/mol
# GULP energy per Si atom -12407.489626 kJ/mol
# Density = 2.008171 g / cm^3
# Si number density = 20.127520 Si / 1000 Ang^3
#
#
#
# Elastic Constant Matrix: (Units=GPa)
#
#
# Indices 1 2 3 4 5 6 
#
# 1 101.0965 55.8810 34.6300 0.0000 -16.8569 0.0000
# 2 55.8810 138.3827 53.9375 0.0000 -6.4146 0.0000
# 3 34.6300 53.9375 98.1206 0.0000 -13.9865 0.0000
# 4 0.0000 0.0000 0.0000 38.3527 0.0000 -4.8147
# 5 -16.8569 -6.4146 -13.9865 0.0000 28.1641 0.0000
# 6 0.0000 0.0000 0.0000 -4.8147 0.0000 37.0674
#
#
#
# Elastic Compliance Matrix: (Units=1/GPa)
#
#
# Indices 1 2 3 4 5 6 
#
# 1 0.014173 -0.004881 -0.001365 0.000000 0.006693 0.000000
# 2 -0.004881 0.010883 -0.004652 0.000000 -0.002753 0.000000
# 3 -0.001365 -0.004652 0.013951 0.000000 0.005051 0.000000
# 4 0.000000 0.000000 0.000000 0.026506 0.000000 0.003443
# 5 0.006693 -0.002753 0.005051 0.000000 0.041394 0.000000
# 6 0.000000 0.000000 0.000000 0.003443 0.000000 0.027425
#
#
# Mechanical properties :
#
#
# Convention : Reuss Voigt Hill
#
# Bulk Modulus (GPa) = 58.10410 69.61075 63.85742
# Shear Modulus (GPa) = 30.88989 33.59358 32.24174
#
# Velocity S-wave (km/s) = 3.92179 4.08982 4.00668
# Velocity P-wave (km/s) = 7.03121 7.54732 7.29383
#
# Compressibility (1/GPa) = 0.01721049
#
# Stress axis : x y z
#
# Youngs Moduli (GPa) = 70.55589 91.88584 71.68108
#
# Poissons Ratio (x) = 0.44850 0.09784
# Poissons Ratio (y) = 0.34439 0.33348
# Poissons Ratio (z) = 0.09630 0.42747
#
# Static dielectric constant tensor:
#      x y z
#    x 3.729170 0.000000 -0.021850 
#    y 0.000000 4.331650 0.000000 
#    z -0.021850 0.000000 3.638330 
# 
# 
# High freq. dielectric constant tensor:
#      x y z
#    x 1.796240 0.000000 -0.002060 
#    y 0.000000 1.799960 0.000000 
#    z -0.002060 0.000000 1.787090 
# 
# From -- ./inp_files/45383.got.cif
#   From: 2010.06.25/outbox.cif.g09.slc.cpg/sg11_23_cif.got.tgz:45383.got - 2010.06.27 23:14:04.
