data_PCOD8076634
_publ_section_title
;
Structure prediction by ZEFSAII (Michael W. Deem and Ramdas Pophale) SiO2 
 PCOD8076634
Probable space group: P 21/M
;
_chemical_formula_sum "Si O2"
_cell_formula_units_Z 28
_cell_length_a 27.302010
_cell_length_b 8.823598
_cell_length_c 9.374433
_cell_angle_alpha 90.000000
_cell_angle_beta 38.351103
_cell_angle_gamma 90.000000
_cell_volume 1401.239107
_symmetry_space_group_name_H-M "P 21/M"
_symmetry_group_IT_number 11
_symmetry_cell_setting 'monoclinic'
loop_
_space_group_symop_operation_xyz
x,y,z
-x,1/2+y,-z
-x,-y,-z
x,1/2-y,z
loop_
_atom_site_type_symbol
_atom_site_label
_atom_site_fract_x
_atom_site_fract_y
_atom_site_fract_z
Si Si1 0.207154 0.571586 0.837252
Si Si2 0.513707 0.927981 0.814271
Si Si3 0.659955 0.928805 0.290893
Si Si4 0.230055 0.570195 0.467854
Si Si5 0.369270 0.570213 0.949209
Si Si6 0.025488 0.570882 0.296916
Si Si7 0.061427 0.570263 0.753891
O O1 0.217702 0.750000 0.835768
O O2 0.254559 0.488705 0.855212
O O3 0.240787 0.516447 0.607210
O O4 0.115166 0.526324 0.053743
O O5 0.507662 0.750000 0.851214
O O6 0.597498 0.977183 0.555987
O O7 0.448849 0.981288 0.847072
O O8 0.500000 0.000000 0.000000
O O9 0.662725 0.750000 0.265847
O O10 0.634869 0.997686 0.197052
O O11 0.230286 0.750000 0.465603
O O12 0.147951 0.508285 0.594033
O O13 0.298959 0.506684 0.209727
O O14 0.364246 0.750000 0.942131
O O15 0.014170 0.750000 0.317302
O O16 0.000000 0.500000 0.500000
O O17 0.961093 0.489344 0.347721
O O18 0.058176 0.750000 0.771348
O O19 0.000000 0.500000 0.000000
#
# Coordination Sequence:
#
# PCOD8076634 Si02
#       7
#     4   4   4   4   4   4   4
#     4  10  21  41  63  83 114 161 204 239 291 363
#     4  10  22  40  64  91 121 156 196 240 291 350
#     4  11  24  39  57  90 127 154 191 248 299 341
#     4   9  19  37  61  86 112 148 202 247 283 348
#     4  10  21  39  63  88 116 158 200 236 287 356
#     4  11  24  41  61  87 119 159 204 252 307 363
#     4  11  21  38  61  88 120 158 202 253 302 354
#
# _framework density 19.982313999999999
#
# number of rings (size 3 to 8) (size 9 to 14) (size 15 to 20)
#    0.000    1.714    1.429    2.571    2.000    4.000 
#    0.000    1.429    0.000    0.000    0.000    0.000 
#    0.000    0.000    0.000    0.000    0.000    0.000 
#
# Total GULP energy -347185.590376 kJ/mol
# GULP energy per Si atom -12399.485371 kJ/mol
# Density = 1.993683 g / cm^3
# Si number density = 19.982314 Si / 1000 Ang^3
#
#
#
# Elastic Constant Matrix: (Units=GPa)
#
#
# Indices 1 2 3 4 5 6 
#
# 1 145.0508 36.4067 32.4261 0.0000 8.7352 0.0000
# 2 36.4067 52.5718 29.7164 0.0000 -0.0014 0.0000
# 3 32.4261 29.7164 93.7783 0.0000 11.0999 0.0000
# 4 0.0000 0.0000 0.0000 31.1474 0.0000 5.3510
# 5 8.7352 -0.0014 11.0999 0.0000 43.2398 0.0000
# 6 0.0000 0.0000 0.0000 5.3510 0.0000 35.4188
#
#
#
# Elastic Compliance Matrix: (Units=1/GPa)
#
#
# Indices 1 2 3 4 5 6 
#
# 1 0.008559 -0.005301 -0.001109 0.000000 -0.001445 0.000000
# 2 -0.005301 0.026614 -0.006938 0.000000 0.002853 0.000000
# 3 -0.001109 -0.006938 0.013633 0.000000 -0.003276 0.000000
# 4 0.000000 0.000000 0.000000 0.032961 0.000000 -0.004980
# 5 -0.001445 0.002853 -0.003276 0.000000 0.024260 0.000000
# 6 0.000000 0.000000 0.000000 -0.004980 0.000000 0.028986
#
#
# Mechanical properties :
#
#
# Convention : Reuss Voigt Hill
#
# Bulk Modulus (GPa) = 45.22625 54.27769 49.75197
# Shear Modulus (GPa) = 29.57174 34.81799 32.19486
#
# Velocity S-wave (km/s) = 3.85111 4.17878 4.01829
# Velocity P-wave (km/s) = 6.51591 7.10667 6.81769
#
# Compressibility (1/GPa) = 0.02211105
#
# Stress axis : x y z
#
# Youngs Moduli (GPa) = 116.82938 37.57354 73.34997
#
# Poissons Ratio (x) = 0.19917 0.08134
# Poissons Ratio (y) = 0.61928 0.50893
# Poissons Ratio (z) = 0.12956 0.26070
#
# Static dielectric constant tensor:
#      x y z
#    x 3.692700 0.000000 -0.004930 
#    y 0.000000 3.398670 0.000000 
#    z -0.004930 0.000000 3.882530 
# 
# 
# High freq. dielectric constant tensor:
#      x y z
#    x 1.799530 0.000000 0.001450 
#    y 0.000000 1.761030 0.000000 
#    z 0.001450 0.000000 1.792410 
# 
# From -- ./inp_files/28318.got.cif
#   From: 2010.06.25/outbox.cif.g09.slc.cpg/sg11_15_cif.got.tgz:28318.got - 2010.06.27 23:14:04.
