data_PCOD8076247
_publ_section_title
;
Structure prediction by ZEFSAII (Michael W. Deem and Ramdas Pophale) SiO2 
 PCOD8076247
Probable space group: P 21/M
;
_chemical_formula_sum "Si O2"
_cell_formula_units_Z 28
_cell_length_a 8.890390
_cell_length_b 14.664761
_cell_length_c 14.612103
_cell_angle_alpha 90.000000
_cell_angle_beta 49.826113
_cell_angle_gamma 90.000000
_cell_volume 1455.637087
_symmetry_space_group_name_H-M "P 21/M"
_symmetry_group_IT_number 11
_symmetry_cell_setting 'monoclinic'
loop_
_space_group_symop_operation_xyz
x,y,z
-x,1/2+y,-z
-x,-y,-z
x,1/2-y,z
loop_
_atom_site_type_symbol
_atom_site_label
_atom_site_fract_x
_atom_site_fract_y
_atom_site_fract_z
Si Si1 0.092019 0.352889 0.188414
Si Si2 0.888539 0.643877 0.609887
Si Si3 0.466488 0.022033 0.239556
Si Si4 0.892072 0.004444 0.140087
Si Si5 0.937215 0.352054 0.803801
Si Si6 0.525033 0.147454 0.048528
Si Si7 0.804970 0.355126 0.663927
O O1 0.018066 0.250000 0.207125
O O2 0.062614 0.385834 0.305002
O O3 0.322160 0.364028 0.072058
O O4 0.966182 0.409012 0.166532
O O5 0.830010 0.750000 0.627929
O O6 0.701949 0.585114 0.647972
O O7 0.078175 0.621962 0.474668
O O8 0.657268 0.012822 0.227973
O O9 0.541668 0.069896 0.117948
O O10 0.382840 0.920786 0.254638
O O11 0.932561 0.914635 0.183079
O O12 0.000000 0.000000 0.000000
O O13 0.003376 0.250000 0.802543
O O14 0.959142 0.372233 0.686994
O O15 0.704391 0.367188 0.909859
O O16 0.529683 0.250000 0.090464
O O17 0.731124 0.250000 0.694510
#
# Coordination Sequence:
#
# PCOD8076247 Si02
#       7
#     4   4   4   4   4   4   4
#     4   9  20  37  60  83 110 146 193 242 279 324
#     4   9  19  41  66  88 108 140 197 251 282 321
#     4  11  21  35  59  84 118 150 189 230 286 337
#     4  12  25  36  51  85 125 157 181 221 288 349
#     4  10  21  38  57  80 114 153 192 235 284 340
#     4   9  18  35  59  83 106 146 199 245 279 323
#     4  10  22  39  63  86 109 147 194 241 289 335
#
# _framework density 19.235562999999999
#
# number of rings (size 3 to 8) (size 9 to 14) (size 15 to 20)
#    0.000    2.000    1.429    3.429    2.000    3.429 
#    0.000    2.857    0.000    5.143    0.000    0.000 
#    0.000    0.000    0.000    0.000    0.000    0.000 
#
# Total GULP energy -347139.658633 kJ/mol
# GULP energy per Si atom -12397.844951 kJ/mol
# Density = 1.919178 g / cm^3
# Si number density = 19.235563 Si / 1000 Ang^3
#
#
#
# Elastic Constant Matrix: (Units=GPa)
#
#
# Indices 1 2 3 4 5 6 
#
# 1 139.0090 75.5543 41.0711 0.0000 -2.2948 0.0000
# 2 75.5543 119.8651 39.4347 0.0000 -0.6041 0.0000
# 3 41.0711 39.4347 68.9422 0.0000 10.1031 0.0000
# 4 0.0000 0.0000 0.0000 15.3441 0.0000 13.6758
# 5 -2.2948 -0.6041 10.1031 0.0000 20.2872 0.0000
# 6 0.0000 0.0000 0.0000 13.6758 0.0000 25.7828
#
#
#
# Elastic Compliance Matrix: (Units=1/GPa)
#
#
# Indices 1 2 3 4 5 6 
#
# 1 0.011712 -0.006061 -0.003967 0.000000 0.003120 0.000000
# 2 -0.006061 0.013648 -0.004482 0.000000 0.001953 0.000000
# 3 -0.003967 -0.004482 0.021054 0.000000 -0.011067 0.000000
# 4 0.000000 0.000000 0.000000 0.123607 0.000000 -0.065564
# 5 0.003120 0.001953 -0.011067 0.000000 0.055215 0.000000
# 6 0.000000 0.000000 0.000000 -0.065564 0.000000 0.073562
#
#
# Mechanical properties :
#
#
# Convention : Reuss Voigt Hill
#
# Bulk Modulus (GPa) = 57.49563 71.10405 64.29984
# Shear Modulus (GPa) = 14.98736 23.73323 19.36029
#
# Velocity S-wave (km/s) = 2.79435 3.51639 3.17596
# Velocity P-wave (km/s) = 6.35345 7.31654 6.85194
#
# Compressibility (1/GPa) = 0.01739263
#
# Stress axis : x y z
#
# Youngs Moduli (GPa) = 85.38266 73.27268 47.49783
#
# Poissons Ratio (x) = 0.44414 0.18844
# Poissons Ratio (y) = 0.51754 0.21286
# Poissons Ratio (z) = 0.33874 0.32838
#
# Static dielectric constant tensor:
#      x y z
#    x 3.293050 0.000000 0.010730 
#    y 0.000000 3.743190 0.000000 
#    z 0.010730 0.000000 3.565560 
# 
# 
# High freq. dielectric constant tensor:
#      x y z
#    x 1.722670 0.000000 0.002890 
#    y 0.000000 1.770050 0.000000 
#    z 0.002890 0.000000 1.743620 
# 
# From -- ./inp_files/22122.got.cif
#   From: 2010.06.25/outbox.cif.g09.slc.cpg/sg11_12_cif.got.tgz:22122.got - 2010.06.27 23:14:04.
