data_PCOD8076330
_publ_section_title
;
Structure prediction by ZEFSAII (Michael W. Deem and Ramdas Pophale) SiO2 
 PCOD8076330
Probable space group: P 21/M
;
_chemical_formula_sum "Si O2"
_cell_formula_units_Z 32
_cell_length_a 13.360590
_cell_length_b 14.402462
_cell_length_c 12.378202
_cell_angle_alpha 90.000000
_cell_angle_beta 137.561314
_cell_angle_gamma 90.000000
_cell_volume 1607.294851
_symmetry_space_group_name_H-M "P 21/M"
_symmetry_group_IT_number 11
_symmetry_cell_setting 'monoclinic'
loop_
_space_group_symop_operation_xyz
x,y,z
-x,1/2+y,-z
-x,-y,-z
x,1/2-y,z
loop_
_atom_site_type_symbol
_atom_site_label
_atom_site_fract_x
_atom_site_fract_y
_atom_site_fract_z
Si Si1 0.784503 0.857668 0.204100
Si Si2 0.873632 0.142038 0.527103
Si Si3 0.660932 0.531807 0.915935
Si Si4 0.359165 0.149810 0.545479
Si Si5 0.563121 0.909907 0.608478
Si Si6 0.669222 0.987362 0.294850
Si Si7 0.711444 0.145533 0.852774
Si Si8 0.245997 0.647180 0.347858
O O1 0.734495 0.750000 0.168200
O O2 0.688524 0.917890 0.210415
O O3 0.956401 0.867850 0.371401
O O4 0.758544 0.898074 0.063797
O O5 0.821932 0.250000 0.475965
O O6 0.849280 0.102873 0.630367
O O7 0.776162 0.077115 0.370034
O O8 0.652433 0.572545 0.788675
O O9 0.499410 0.521913 0.840723
O O10 0.743058 0.430272 0.972164
O O11 0.294096 0.250000 0.529911
O O12 0.325456 0.136263 0.390657
O O13 0.289595 0.068567 0.562620
O O14 0.535402 0.149379 0.699054
O O15 0.418555 0.849090 0.521823
O O16 0.500000 0.000000 0.500000
O O17 0.770154 0.250000 0.928603
O O18 0.776506 0.104435 0.790532
O O19 0.185823 0.750000 0.286092
#
# Coordination Sequence:
#
# PCOD8076330 Si02
#       8
#     4   4   4   4   4   4   4   4
#     4  11  26  42  54  79 119 155 186 231 293 339
#     4  10  21  38  60  84 109 147 195 236 278 335
#     4  11  21  34  59  86 115 146 183 231 291 336
#     4   9  17  28  52  86 115 144 183 235 287 324
#     4  11  15  28  51  86 117 138 182 235 273 327
#     4  11  20  39  63  81 108 146 202 237 272 331
#     4   8  15  28  50  81 112 144 179 222 279 335
#     4   9  15  27  51  78 106 137 180 227 264 316
#
# _framework density 19.909227999999999
#
# number of rings (size 3 to 8) (size 9 to 14) (size 15 to 20)
#    0.000    2.000    5.000    2.250    0.000    2.000 
#    0.000    1.250    0.000    1.500    0.000    0.000 
#    0.000    0.000    0.000    0.000    0.000    0.000 
#
# Total GULP energy -396450.853324 kJ/mol
# GULP energy per Si atom -12389.089166 kJ/mol
# Density = 1.986391 g / cm^3
# Si number density = 19.909228 Si / 1000 Ang^3
#
#
#
# Elastic Constant Matrix: (Units=GPa)
#
#
# Indices 1 2 3 4 5 6 
#
# 1 37.7788 14.2707 13.4209 0.0000 -16.1201 0.0000
# 2 14.2707 110.0901 30.6937 0.0000 -7.4980 0.0000
# 3 13.4209 30.6937 38.5388 0.0000 -14.0767 0.0000
# 4 0.0000 0.0000 0.0000 28.8610 0.0000 -7.1188
# 5 -16.1201 -7.4980 -14.0767 0.0000 20.6376 0.0000
# 6 0.0000 0.0000 0.0000 -7.1188 0.0000 27.8535
#
#
#
# Elastic Compliance Matrix: (Units=1/GPa)
#
#
# Indices 1 2 3 4 5 6 
#
# 1 0.040783 -0.003017 -0.000751 0.000000 0.030247 0.000000
# 2 -0.003017 0.012022 -0.010374 0.000000 -0.005065 0.000000
# 3 -0.000751 -0.010374 0.043791 0.000000 0.025513 0.000000
# 4 0.000000 0.000000 0.000000 0.036980 0.000000 0.009451
# 5 0.030247 -0.005065 0.025513 0.000000 0.087644 0.000000
# 6 0.000000 0.000000 0.000000 0.009451 0.000000 0.038318
#
#
# Mechanical properties :
#
#
# Convention : Reuss Voigt Hill
#
# Bulk Modulus (GPa) = 14.63903 33.68648 24.16276
# Shear Modulus (GPa) = 16.09828 24.00525 20.05177
#
# Velocity S-wave (km/s) = 2.84665 3.47614 3.17702
# Velocity P-wave (km/s) = 4.26302 5.75049 5.06169
#
# Compressibility (1/GPa) = 0.06831052
#
# Stress axis : x y z
#
# Youngs Moduli (GPa) = 24.52019 83.18123 22.83582
#
# Poissons Ratio (x) = 0.25096 0.01716
# Poissons Ratio (y) = 0.07398 0.23690
# Poissons Ratio (z) = 0.01842 0.86293
#
# Static dielectric constant tensor:
#      x y z
#    x 3.773580 0.000000 -0.344920 
#    y 0.000000 4.086310 0.000000 
#    z -0.344920 0.000000 3.140630 
# 
# 
# High freq. dielectric constant tensor:
#      x y z
#    x 1.769860 0.000000 -0.027240 
#    y 0.000000 1.789980 0.000000 
#    z -0.027240 0.000000 1.715090 
# 
# From -- ./inp_files/39681.got.cif
#   From: 2010.06.25/outbox.cif.g09.slc.cpg/sg11_20_cif.got.tgz:39681.got - 2010.06.27 23:14:04.
