data_PCOD8076019
_publ_section_title
;
Structure prediction by ZEFSAII (Michael W. Deem and Ramdas Pophale) SiO2 
 PCOD8076019
Probable space group: P 21/M
;
_chemical_formula_sum "Si O2"
_cell_formula_units_Z 28
_cell_length_a 19.525698
_cell_length_b 9.013718
_cell_length_c 14.226285
_cell_angle_alpha 90.000000
_cell_angle_beta 144.970193
_cell_angle_gamma 90.000000
_cell_volume 1437.195432
_symmetry_space_group_name_H-M "P 21/M"
_symmetry_group_IT_number 11
_symmetry_cell_setting 'monoclinic'
loop_
_space_group_symop_operation_xyz
x,y,z
-x,1/2+y,-z
-x,-y,-z
x,1/2-y,z
loop_
_atom_site_type_symbol
_atom_site_label
_atom_site_fract_x
_atom_site_fract_y
_atom_site_fract_z
Si Si1 0.459360 0.076424 0.726865
Si Si2 0.450753 0.075598 0.353232
Si Si3 0.291174 0.918473 0.910080
Si Si4 0.221642 0.918186 0.040992
Si Si5 0.195534 0.425478 0.472726
Si Si6 0.885615 0.925465 0.417703
Si Si7 0.982640 0.577686 0.881217
O O1 0.461214 0.250000 0.702016
O O2 0.334355 0.027224 0.632530
O O3 0.472895 0.982419 0.648139
O O4 0.568810 0.040926 0.920235
O O5 0.464575 0.250000 0.376666
O O6 0.500000 0.000000 0.500000
O O7 0.312410 0.033444 0.188871
O O8 0.277214 0.750000 0.858082
O O9 0.234954 0.030467 0.772297
O O10 0.219158 0.938744 0.926226
O O11 0.262039 0.750000 0.110732
O O12 0.093108 0.954500 0.937387
O O13 0.183899 0.250000 0.458801
O O14 0.129518 0.483769 0.492294
O O15 0.131590 0.485386 0.305508
O O16 0.902057 0.750000 0.431910
O O17 0.000000 0.000000 0.500000
O O18 0.967351 0.750000 0.886158
O O19 0.000000 0.500000 0.000000
#
# Coordination Sequence:
#
# PCOD8076019 Si02
#       7
#     4   4   4   4   4   4   4
#     4   9  19  38  60  82 113 153 193 230 284 349
#     4  11  22  35  55  82 112 146 190 240 288 340
#     4   9  18  35  59  85 115 149 186 233 288 342
#     4   9  19  37  57  79 112 151 190 232 284 343
#     4   9  20  39  60  82 113 154 192 231 287 350
#     4  11  22  37  60  87 115 151 196 239 283 341
#     4  10  21  37  57  81 111 147 190 237 288 342
#
# _framework density 19.482389999999999
#
# number of rings (size 3 to 8) (size 9 to 14) (size 15 to 20)
#    0.000    2.286    0.000    3.429    2.000    5.714 
#    0.000    4.286    0.000    0.000    0.000    0.000 
#    0.000    0.000    0.000    0.000    0.000    0.000 
#
# Total GULP energy -347173.900415 kJ/mol
# GULP energy per Si atom -12399.067872 kJ/mol
# Density = 1.943805 g / cm^3
# Si number density = 19.482390 Si / 1000 Ang^3
#
#
#
# Elastic Constant Matrix: (Units=GPa)
#
#
# Indices 1 2 3 4 5 6 
#
# 1 105.3563 38.1574 80.8898 0.0000 7.0120 0.0000
# 2 38.1574 80.3628 45.5295 0.0000 -4.3566 0.0000
# 3 80.8898 45.5295 135.3175 0.0000 -5.1289 0.0000
# 4 0.0000 0.0000 0.0000 34.6790 0.0000 -3.0789
# 5 7.0120 -4.3566 -5.1289 0.0000 33.3675 0.0000
# 6 0.0000 0.0000 0.0000 -3.0789 0.0000 25.9435
#
#
#
# Elastic Compliance Matrix: (Units=1/GPa)
#
#
# Indices 1 2 3 4 5 6 
#
# 1 0.019300 -0.003495 -0.010594 0.000000 -0.006140 0.000000
# 2 -0.003495 0.016057 -0.003225 0.000000 0.002335 0.000000
# 3 -0.010594 -0.003225 0.014963 0.000000 0.004105 0.000000
# 4 0.000000 0.000000 0.000000 0.029143 0.000000 0.003459
# 5 -0.006140 0.002335 0.004105 0.000000 0.032196 0.000000
# 6 0.000000 0.000000 0.000000 0.003459 0.000000 0.038956
#
#
# Mechanical properties :
#
#
# Convention : Reuss Voigt Hill
#
# Bulk Modulus (GPa) = 63.72336 72.24333 67.98335
# Shear Modulus (GPa) = 26.25065 29.22865 27.73965
#
# Velocity S-wave (km/s) = 3.67468 3.87752 3.77746
# Velocity P-wave (km/s) = 7.12626 7.56365 7.34821
#
# Compressibility (1/GPa) = 0.01569283
#
# Stress axis : x y z
#
# Youngs Moduli (GPa) = 51.81459 62.27985 66.82974
#
# Poissons Ratio (x) = 0.21765 0.70798
# Poissons Ratio (y) = 0.18108 0.21552
# Poissons Ratio (z) = 0.54891 0.20085
#
# Static dielectric constant tensor:
#      x y z
#    x 3.798690 0.000000 -0.269600 
#    y 0.000000 3.366280 0.000000 
#    z -0.269600 0.000000 4.154000 
# 
# 
# High freq. dielectric constant tensor:
#      x y z
#    x 1.759860 0.000000 0.003710 
#    y 0.000000 1.737450 0.000000 
#    z 0.003710 0.000000 1.770680 
# 
# From -- ./inp_files/49490.got.cif
#   From: 2010.06.25/outbox.cif.g09.slc.cpg/sg11_25_cif.got.tgz:49490.got - 2010.06.27 23:14:04.
