data_PCOD8076184
_publ_section_title
;
Structure prediction by ZEFSAII (Michael W. Deem and Ramdas Pophale) SiO2 
 PCOD8076184
Probable space group: P 21/M
;
_chemical_formula_sum "Si O2"
_cell_formula_units_Z 28
_cell_length_a 11.873946
_cell_length_b 8.931084
_cell_length_c 15.470134
_cell_angle_alpha 90.000000
_cell_angle_beta 119.156346
_cell_angle_gamma 90.000000
_cell_volume 1432.694390
_symmetry_space_group_name_H-M "P 21/M"
_symmetry_group_IT_number 11
_symmetry_cell_setting 'monoclinic'
loop_
_space_group_symop_operation_xyz
x,y,z
-x,1/2+y,-z
-x,-y,-z
x,1/2-y,z
loop_
_atom_site_type_symbol
_atom_site_label
_atom_site_fract_x
_atom_site_fract_y
_atom_site_fract_z
Si Si1 0.961536 0.426865 0.574964
Si Si2 0.897972 0.925735 0.025206
Si Si3 0.568106 0.927752 0.106937
Si Si4 0.671375 0.077771 0.503639
Si Si5 0.625259 0.574688 0.843072
Si Si6 0.431276 0.577760 0.346440
Si Si7 0.861259 0.927767 0.203610
O O1 0.978592 0.250000 0.574004
O O2 0.815775 0.473573 0.539549
O O3 0.000000 0.500000 0.500000
O O4 0.049217 0.491044 0.685996
O O5 0.921104 0.750000 0.027776
O O6 0.913947 0.984383 0.129908
O O7 0.753475 0.967984 0.943044
O O8 0.000000 0.000000 0.000000
O O9 0.559750 0.750000 0.096107
O O10 0.715731 0.983355 0.165585
O O11 0.496971 0.984390 0.166037
O O12 0.500000 0.000000 0.000000
O O13 0.646698 0.250000 0.469025
O O14 0.646256 0.051129 0.594925
O O15 0.578834 0.975278 0.411204
O O16 0.596386 0.750000 0.837761
O O17 0.643179 0.522258 0.751396
O O18 0.430560 0.750000 0.317391
O O19 0.864729 0.750000 0.204037
#
# Coordination Sequence:
#
# PCOD8076184 Si02
#       7
#     4   4   4   4   4   4   4
#     4  10  22  40  61  85 115 154 198 246 295 352
#     4  10  22  40  61  87 121 159 197 242 293 352
#     4  11  21  38  61  87 118 154 198 242 292 350
#     4   9  20  39  60  84 116 153 195 244 301 355
#     4  11  23  39  59  88 123 155 193 245 298 349
#     4  10  21  37  61  89 115 152 197 243 296 355
#     4   9  20  40  62  83 116 157 194 240 298 350
#
# _framework density 19.543596000000001
#
# number of rings (size 3 to 8) (size 9 to 14) (size 15 to 20)
#    0.000    2.000    1.429    1.286    4.000    2.286 
#    0.000    1.429    0.000    0.000    0.000    0.000 
#    0.000    0.000    0.000    0.000    0.000    0.000 
#
# Total GULP energy -347270.860192 kJ/mol
# GULP energy per Si atom -12402.530721 kJ/mol
# Density = 1.949911 g / cm^3
# Si number density = 19.543596 Si / 1000 Ang^3
#
#
#
# Elastic Constant Matrix: (Units=GPa)
#
#
# Indices 1 2 3 4 5 6 
#
# 1 149.9538 43.2630 67.8345 0.0000 0.9544 0.0000
# 2 43.2630 49.2257 38.9623 0.0000 2.5312 0.0000
# 3 67.8345 38.9623 148.3977 0.0000 -4.8749 0.0000
# 4 0.0000 0.0000 0.0000 34.5263 0.0000 -4.1550
# 5 0.9544 2.5312 -4.8749 0.0000 24.3486 0.0000
# 6 0.0000 0.0000 0.0000 -4.1550 0.0000 31.9030
#
#
#
# Elastic Compliance Matrix: (Units=1/GPa)
#
#
# Indices 1 2 3 4 5 6 
#
# 1 0.009774 -0.006352 -0.002810 0.000000 -0.000285 0.000000
# 2 -0.006352 0.030172 -0.005147 0.000000 -0.003918 0.000000
# 3 -0.002810 -0.005147 0.009458 0.000000 0.002539 0.000000
# 4 0.000000 0.000000 0.000000 0.029425 0.000000 0.003832
# 5 -0.000285 -0.003918 0.002539 0.000000 0.041997 0.000000
# 6 0.000000 0.000000 0.000000 0.003832 0.000000 0.031844
#
#
# Mechanical properties :
#
#
# Convention : Reuss Voigt Hill
#
# Bulk Modulus (GPa) = 48.10610 71.96630 60.03620
# Shear Modulus (GPa) = 26.56530 31.32341 28.94436
#
# Velocity S-wave (km/s) = 3.69085 4.00777 3.85257
# Velocity P-wave (km/s) = 6.54457 7.63674 7.11165
#
# Compressibility (1/GPa) = 0.02078739
#
# Stress axis : x y z
#
# Youngs Moduli (GPa) = 102.31231 33.14300 105.73366
#
# Poissons Ratio (x) = 0.21051 0.29706
# Poissons Ratio (y) = 0.64985 0.54422
# Poissons Ratio (z) = 0.28745 0.17059
#
# Static dielectric constant tensor:
#      x y z
#    x 3.903300 0.000000 0.198680 
#    y 0.000000 3.435790 0.000000 
#    z 0.198680 0.000000 4.045830 
# 
# 
# High freq. dielectric constant tensor:
#      x y z
#    x 1.769620 0.000000 -0.003710 
#    y 0.000000 1.745310 0.000000 
#    z -0.003710 0.000000 1.773260 
# 
# From -- ./inp_files/38418.got.cif
#   From: 2010.06.25/outbox.cif.g09.slc.cpg/sg11_20_cif.got.tgz:38418.got - 2010.06.27 23:14:04.
