data_PCOD8076789
_publ_section_title
;
Structure prediction by ZEFSAII (Michael W. Deem and Ramdas Pophale) SiO2 
 PCOD8076789
Probable space group: P 21/M
;
_chemical_formula_sum "Si O2"
_cell_formula_units_Z 26
_cell_length_a 19.164701
_cell_length_b 12.339385
_cell_length_c 8.135201
_cell_angle_alpha 90.000000
_cell_angle_beta 138.052466
_cell_angle_gamma 90.000000
_cell_volume 1285.975410
_symmetry_space_group_name_H-M "P 21/M"
_symmetry_group_IT_number 11
_symmetry_cell_setting 'monoclinic'
loop_
_space_group_symop_operation_xyz
x,y,z
-x,1/2+y,-z
-x,-y,-z
x,1/2-y,z
loop_
_atom_site_type_symbol
_atom_site_label
_atom_site_fract_x
_atom_site_fract_y
_atom_site_fract_z
Si Si1 0.141546 0.130531 0.080364
Si Si2 0.683140 0.629240 0.858061
Si Si3 0.266769 0.968635 0.488306
Si Si4 0.056037 0.750000 0.305857
Si Si5 0.328723 0.932103 0.943302
Si Si6 0.562089 0.628728 0.323408
Si Si7 0.796154 0.250000 0.121671
Si Si8 0.205377 0.750000 0.252610
O O1 0.184684 0.250000 0.212669
O O2 0.206179 0.096795 0.030930
O O3 0.165590 0.040419 0.260649
O O4 0.017931 0.141759 0.826270
O O5 0.687824 0.750000 0.938826
O O6 0.589502 0.616923 0.563628
O O7 0.659141 0.552514 0.967851
O O8 0.252311 0.932605 0.651555
O O9 0.274472 0.858960 0.392749
O O10 0.372033 0.039238 0.660090
O O11 0.119478 0.750000 0.246876
O O12 0.116604 0.750000 0.583802
O O13 0.440363 0.888946 0.081461
O O14 0.277418 0.854855 0.989240
O O15 0.590382 0.750000 0.311260
O O16 0.843278 0.250000 0.018400
#
# Coordination Sequence:
#
# PCOD8076789 Si02
#       8
#     4   4   4   2   4   4   2   2
#     4   8  19  42  68  86 122 167 213 269 315 375
#     4   9  19  37  60  92 126 164 220 267 313 373
#     4  11  22  42  63  94 132 170 216 266 322 380
#     4  10  22  48  69  92 128 167 223 267 325 389
#     4  12  22  39  63  96 137 165 217 265 318 393
#     4  10  21  40  65  88 130 180 215 259 317 382
#     4  12  24  44  65  95 130 171 209 272 333 374
#     4  12  26  44  66  95 134 170 214 267 330 387
#
# _framework density 20.218115999999998
#
# number of rings (size 3 to 8) (size 9 to 14) (size 15 to 20)
#    0.462    1.231    2.308    4.154    0.000    1.846 
#    4.154    1.538    0.000    0.000    0.000    0.000 
#    0.000    0.000    0.000    0.000    0.000    0.000 
#
# Total GULP energy -322264.092548 kJ/mol
# GULP energy per Si atom -12394.772790 kJ/mol
# Density = 2.017210 g / cm^3
# Si number density = 20.218116 Si / 1000 Ang^3
#
#
#
# Elastic Constant Matrix: (Units=GPa)
#
#
# Indices 1 2 3 4 5 6 
#
# 1 61.9473 32.2585 38.8163 0.0000 -10.4112 0.0000
# 2 32.2585 127.0726 36.8040 0.0000 -9.8919 0.0000
# 3 38.8163 36.8040 86.4178 0.0000 -9.1447 0.0000
# 4 0.0000 0.0000 0.0000 27.6162 0.0000 3.2525
# 5 -10.4112 -9.8919 -9.1447 0.0000 36.9155 0.0000
# 6 0.0000 0.0000 0.0000 3.2525 0.0000 27.2998
#
#
#
# Elastic Compliance Matrix: (Units=1/GPa)
#
#
# Indices 1 2 3 4 5 6 
#
# 1 0.024122 -0.003207 -0.009078 0.000000 0.003695 0.000000
# 2 -0.003207 0.009484 -0.002491 0.000000 0.001020 0.000000
# 3 -0.009078 -0.002491 0.016809 0.000000 0.000936 0.000000
# 4 0.000000 0.000000 0.000000 0.036726 0.000000 -0.004376
# 5 0.003695 0.001020 0.000936 0.000000 0.028636 0.000000
# 6 0.000000 0.000000 0.000000 -0.004376 0.000000 0.037152
#
#
# Mechanical properties :
#
#
# Convention : Reuss Voigt Hill
#
# Bulk Modulus (GPa) = 47.92941 54.57726 51.25333
# Shear Modulus (GPa) = 26.39415 29.53690 27.96552
#
# Velocity S-wave (km/s) = 3.61705 3.82634 3.72316
# Velocity P-wave (km/s) = 6.41885 6.82451 6.62479
#
# Compressibility (1/GPa) = 0.02086402
#
# Stress axis : x y z
#
# Youngs Moduli (GPa) = 41.45590 105.43604 59.49085
#
# Poissons Ratio (x) = 0.33809 0.54007
# Poissons Ratio (y) = 0.13293 0.14819
# Poissons Ratio (z) = 0.37635 0.26264
#
# Static dielectric constant tensor:
#      x y z
#    x 3.358410 0.000000 0.043990 
#    y 0.000000 3.857980 0.000000 
#    z 0.043990 0.000000 3.569770 
# 
# 
# High freq. dielectric constant tensor:
#      x y z
#    x 1.765610 0.000000 0.000520 
#    y 0.000000 1.805760 0.000000 
#    z 0.000520 0.000000 1.778580 
# 
# From -- ./inp_files/26672.got.cif
#   From: 2010.06.25/outbox.cif.g09.slc.cpg/sg11_14_cif.got.tgz:26672.got - 2010.06.27 23:14:04.
