data_PCOD8076216
_publ_section_title
;
Structure prediction by ZEFSAII (Michael W. Deem and Ramdas Pophale) SiO2 
 PCOD8076216
Probable space group: P 21/M
;
_chemical_formula_sum "Si O2"
_cell_formula_units_Z 32
_cell_length_a 12.029652
_cell_length_b 17.587173
_cell_length_c 15.118354
_cell_angle_alpha 90.000000
_cell_angle_beta 29.185270
_cell_angle_gamma 90.000000
_cell_volume 1559.727326
_symmetry_space_group_name_H-M "P 21/M"
_symmetry_group_IT_number 11
_symmetry_cell_setting 'monoclinic'
loop_
_space_group_symop_operation_xyz
x,y,z
-x,1/2+y,-z
-x,-y,-z
x,1/2-y,z
loop_
_atom_site_type_symbol
_atom_site_label
_atom_site_fract_x
_atom_site_fract_y
_atom_site_fract_z
Si Si1 0.597013 0.164496 0.170704
Si Si2 0.796319 0.161578 0.548737
Si Si3 0.724754 0.430272 0.433372
Si Si4 0.332063 0.161147 0.180127
Si Si5 0.837431 0.476107 0.823868
Si Si6 0.501137 0.915033 0.579384
Si Si7 0.961977 0.663482 0.233754
Si Si8 0.437704 0.933424 0.136419
O O1 0.516228 0.250000 0.245538
O O2 0.455876 0.133284 0.184237
O O3 0.540168 0.116827 0.295775
O O4 0.871388 0.161368 0.966955
O O5 0.745629 0.250000 0.599248
O O6 0.694704 0.138312 0.523509
O O7 0.654789 0.113150 0.717509
O O8 0.063251 0.143255 0.372072
O O9 0.707546 0.398936 0.344099
O O10 0.529336 0.494649 0.575255
O O11 0.963375 0.467717 0.289470
O O12 0.376966 0.250000 0.135529
O O13 0.442415 0.120773 0.019103
O O14 0.764855 0.481444 0.770861
O O15 0.908359 0.387857 0.783860
O O16 0.626759 0.503421 0.033285
O O17 0.719527 0.874577 0.381365
O O18 0.935134 0.750000 0.287866
#
# Coordination Sequence:
#
# PCOD8076216 Si02
#       8
#     4   4   4   4   4   4   4   4
#     4  10  21  37  64  95 121 159 204 255 321 366
#     4  11  25  40  63  93 125 172 211 251 317 379
#     4  10  23  45  61  91 127 162 213 258 307 371
#     4  10  21  38  60  94 132 159 203 262 308 373
#     4  10  22  39  63  92 127 166 200 258 315 362
#     4  10  23  42  65  87 123 167 209 261 311 364
#     4  10  21  38  61  93 123 154 208 261 309 367
#     4  11  22  39  63  92 129 166 211 246 316 382
#
# _framework density 20.516407000000001
#
# number of rings (size 3 to 8) (size 9 to 14) (size 15 to 20)
#    0.000    1.750    2.500    0.750    5.250    2.000 
#    2.250    1.875    0.000    0.000    0.000    0.000 
#    0.000    0.000    0.000    0.000    0.000    0.000 
#
# Total GULP energy -396536.430835 kJ/mol
# GULP energy per Si atom -12391.763464 kJ/mol
# Density = 2.046971 g / cm^3
# Si number density = 20.516407 Si / 1000 Ang^3
#
#
#
# Elastic Constant Matrix: (Units=GPa)
#
#
# Indices 1 2 3 4 5 6 
#
# 1 92.3648 29.8835 21.0526 0.0000 6.4677 0.0000
# 2 29.8835 74.4265 18.3930 0.0000 -5.2646 0.0000
# 3 21.0526 18.3930 48.4440 0.0000 8.2224 0.0000
# 4 0.0000 0.0000 0.0000 37.8855 0.0000 0.1953
# 5 6.4677 -5.2646 8.2224 0.0000 19.2851 0.0000
# 6 0.0000 0.0000 0.0000 0.1953 0.0000 22.9277
#
#
#
# Elastic Compliance Matrix: (Units=1/GPa)
#
#
# Indices 1 2 3 4 5 6 
#
# 1 0.013470 -0.004930 -0.003220 0.000000 -0.004491 0.000000
# 2 -0.004930 0.017550 -0.006052 0.000000 0.009025 0.000000
# 3 -0.003220 -0.006052 0.026343 0.000000 -0.011804 0.000000
# 4 0.000000 0.000000 0.000000 0.026397 0.000000 -0.000225
# 5 -0.004491 0.009025 -0.011804 0.000000 0.060856 0.000000
# 6 0.000000 0.000000 0.000000 -0.000225 0.000000 0.043617
#
#
# Mechanical properties :
#
#
# Convention : Reuss Voigt Hill
#
# Bulk Modulus (GPa) = 34.53271 39.32150 36.92711
# Shear Modulus (GPa) = 22.09551 25.74673 23.92112
#
# Velocity S-wave (km/s) = 3.28528 3.54635 3.41831
# Velocity P-wave (km/s) = 5.59098 5.99802 5.79807
#
# Compressibility (1/GPa) = 0.02895805
#
# Stress axis : x y z
#
# Youngs Moduli (GPa) = 74.23839 56.98061 37.96076
#
# Poissons Ratio (x) = 0.28094 0.12222
# Poissons Ratio (y) = 0.36603 0.22975
# Poissons Ratio (z) = 0.23902 0.34487
#
# Static dielectric constant tensor:
#      x y z
#    x 3.796710 0.000000 -0.206240 
#    y 0.000000 4.048800 0.000000 
#    z -0.206240 0.000000 3.720160 
# 
# 
# High freq. dielectric constant tensor:
#      x y z
#    x 1.789500 0.000000 -0.013120 
#    y 0.000000 1.822180 0.000000 
#    z -0.013120 0.000000 1.790430 
# 
# From -- ./inp_files/50673.got.cif
#   From: 2010.06.25/outbox.cif.g09.slc.cpg/sg11_26_cif.got.tgz:50673.got - 2010.06.27 23:14:04.
