data_PCOD8076077
_publ_section_title
;
Structure prediction by ZEFSAII (Michael W. Deem and Ramdas Pophale) SiO2 
 PCOD8076077
Probable space group: P 21/M
;
_chemical_formula_sum "Si O2"
_cell_formula_units_Z 32
_cell_length_a 12.033735
_cell_length_b 8.438752
_cell_length_c 31.526195
_cell_angle_alpha 90.000000
_cell_angle_beta 29.835752
_cell_angle_gamma 90.000000
_cell_volume 1592.783331
_symmetry_space_group_name_H-M "P 21/M"
_symmetry_group_IT_number 11
_symmetry_cell_setting 'monoclinic'
loop_
_space_group_symop_operation_xyz
x,y,z
-x,1/2+y,-z
-x,-y,-z
x,1/2-y,z
loop_
_atom_site_type_symbol
_atom_site_label
_atom_site_fract_x
_atom_site_fract_y
_atom_site_fract_z
Si Si1 0.194338 0.936147 0.405650
Si Si2 0.332151 0.935681 0.740698
Si Si3 0.133200 0.564168 0.893467
Si Si4 0.836998 0.565801 0.285754
Si Si5 0.542671 0.934523 0.532251
Si Si6 0.983062 0.566383 0.618878
Si Si7 0.310913 0.065749 0.917389
Si Si8 0.190545 0.565633 0.237282
O O1 0.166215 0.750000 0.409745
O O2 0.434378 0.976746 0.346265
O O3 0.187409 0.019652 0.361918
O O4 0.000000 0.000000 0.500000
O O5 0.379140 0.750000 0.729062
O O6 0.220417 0.007956 0.820326
O O7 0.161919 0.969747 0.758574
O O8 0.121106 0.750000 0.891692
O O9 0.304898 0.520736 0.873977
O O10 0.884840 0.498348 0.987186
O O11 0.857863 0.750000 0.268405
O O12 0.607970 0.533179 0.385921
O O13 0.045776 0.507697 0.245144
O O14 0.480685 0.750000 0.555321
O O15 0.500000 0.000000 0.500000
O O16 0.798378 0.959776 0.460289
O O17 0.047900 0.750000 0.594230
O O18 0.872852 0.535095 0.700711
O O19 0.270308 0.250000 0.921839
O O20 0.550195 0.034946 0.859817
O O21 0.142218 0.750000 0.263145
#
# Coordination Sequence:
#
# PCOD8076077 Si02
#       8
#     4   4   4   4   4   4   4   4
#     4  12  25  42  61  84 116 151 192 240 290 346
#     4  11  23  40  60  84 117 156 197 239 290 350
#     4   9  19  36  59  87 117 150 187 233 290 350
#     4  11  23  39  58  82 115 155 199 243 290 344
#     4  12  23  38  58  83 114 152 195 240 288 338
#     4  12  24  38  59  86 117 152 192 239 292 347
#     4   9  18  35  60  88 116 147 186 236 292 346
#     4  10  21  37  58  84 115 150 192 242 291 342
#
# _framework density 20.090617000000002
#
# number of rings (size 3 to 8) (size 9 to 14) (size 15 to 20)
#    0.000    1.250    1.250    5.625    0.000    4.000 
#    0.000    0.625    0.000    0.000    0.000    0.000 
#    0.000    0.000    0.000    0.000    0.000    0.000 
#
# Total GULP energy -396949.697009 kJ/mol
# GULP energy per Si atom -12404.678032 kJ/mol
# Density = 2.004489 g / cm^3
# Si number density = 20.090617 Si / 1000 Ang^3
#
#
#
# Elastic Constant Matrix: (Units=GPa)
#
#
# Indices 1 2 3 4 5 6 
#
# 1 131.1832 22.1839 59.1410 0.0000 4.8424 0.0000
# 2 22.1839 62.2305 21.0749 0.0000 3.9396 0.0000
# 3 59.1410 21.0749 116.0541 0.0000 3.8772 0.0000
# 4 0.0000 0.0000 0.0000 22.9106 0.0000 1.3160
# 5 4.8424 3.9396 3.8772 0.0000 37.1660 0.0000
# 6 0.0000 0.0000 0.0000 1.3160 0.0000 32.6580
#
#
#
# Elastic Compliance Matrix: (Units=1/GPa)
#
#
# Indices 1 2 3 4 5 6 
#
# 1 0.010135 -0.001952 -0.004790 0.000000 -0.000614 0.000000
# 2 -0.001952 0.017581 -0.002152 0.000000 -0.001385 0.000000
# 3 -0.004790 -0.002152 0.011460 0.000000 -0.000343 0.000000
# 4 0.000000 0.000000 0.000000 0.043749 0.000000 -0.001763
# 5 -0.000614 -0.001385 -0.000343 0.000000 0.027169 0.000000
# 6 0.000000 0.000000 0.000000 -0.001763 0.000000 0.030691
#
#
# Mechanical properties :
#
#
# Convention : Reuss Voigt Hill
#
# Bulk Modulus (GPa) = 46.75240 57.14082 51.94661
# Shear Modulus (GPa) = 30.17453 32.35146 31.26300
#
# Velocity S-wave (km/s) = 3.87967 4.01718 3.94902
# Velocity P-wave (km/s) = 6.58714 7.07250 6.83413
#
# Compressibility (1/GPa) = 0.02138928
#
# Stress axis : x y z
#
# Youngs Moduli (GPa) = 98.66725 56.87798 87.26167
#
# Poissons Ratio (x) = 0.11102 0.41797
# Poissons Ratio (y) = 0.19259 0.18776
# Poissons Ratio (z) = 0.47260 0.12239
#
# Static dielectric constant tensor:
#      x y z
#    x 3.854930 0.000000 -0.006850 
#    y 0.000000 3.592700 0.000000 
#    z -0.006850 0.000000 4.053340 
# 
# 
# High freq. dielectric constant tensor:
#      x y z
#    x 1.788390 0.000000 -0.002950 
#    y 0.000000 1.783870 0.000000 
#    z -0.002950 0.000000 1.779300 
# 
# From -- ./inp_files/73052.got.cif
#   From: 2010.06.25/outbox.cif.g09.slc.cpg/sg11_37_cif.got.tgz:73052.got - 2010.06.27 23:14:04.
