data_PCOD8076041
_publ_section_title
;
Structure prediction by ZEFSAII (Michael W. Deem and Ramdas Pophale) SiO2 
 PCOD8076041
Probable space group: P 21/M
;
_chemical_formula_sum "Si O2"
_cell_formula_units_Z 32
_cell_length_a 16.878731
_cell_length_b 8.851308
_cell_length_c 25.817455
_cell_angle_alpha 90.000000
_cell_angle_beta 153.524875
_cell_angle_gamma 90.000000
_cell_volume 1719.529909
_symmetry_space_group_name_H-M "P 21/M"
_symmetry_group_IT_number 11
_symmetry_cell_setting 'monoclinic'
loop_
_space_group_symop_operation_xyz
x,y,z
-x,1/2+y,-z
-x,-y,-z
x,1/2-y,z
loop_
_atom_site_type_symbol
_atom_site_label
_atom_site_fract_x
_atom_site_fract_y
_atom_site_fract_z
Si Si1 0.266979 0.426064 0.665811
Si Si2 0.560770 0.078372 0.483342
Si Si3 0.176485 0.416060 0.227365
Si Si4 0.101676 0.430277 0.368701
Si Si5 0.658926 0.429424 0.923151
Si Si6 0.067060 0.926447 0.459617
Si Si7 0.933628 0.575524 0.012713
Si Si8 0.087610 0.921075 0.840258
O O1 0.269655 0.250000 0.653445
O O2 0.453404 0.478795 0.800086
O O3 0.228797 0.514180 0.589960
O O4 0.118074 0.464630 0.620853
O O5 0.623995 0.250000 0.531407
O O6 0.387181 0.076909 0.345589
O O7 0.500000 0.000000 0.500000
O O8 0.707730 0.988483 0.537881
O O9 0.110699 0.250000 0.168808
O O10 0.093536 0.552135 0.146494
O O11 0.104622 0.434580 0.244107
O O12 0.106687 0.250000 0.372196
O O13 0.058385 0.490693 0.399917
O O14 0.948736 0.490046 0.238480
O O15 0.680652 0.250000 0.934259
O O16 0.754687 0.497146 0.928790
O O17 0.754980 0.495182 0.032032
O O18 0.094833 0.750000 0.466337
O O19 0.893974 0.750000 0.980606
O O20 0.000000 0.500000 0.000000
O O21 0.146915 0.750000 0.866783
#
# Coordination Sequence:
#
# PCOD8076041 Si02
#       8
#     4   4   4   4   4   4   4   4
#     4   9  19  38  63  84 106 141 184 226 278 341
#     4  11  21  34  53  78 109 145 184 226 271 318
#     4   9  18  35  53  71 101 142 182 220 266 316
#     4  11  21  35  54  80 113 149 188 225 274 332
#     4   9  18  36  60  81 104 139 181 224 273 328
#     4  10  21  37  57  84 113 142 178 229 284 328
#     4  11  22  35  52  77 107 141 179 223 270 319
#     4   8  15  31  53  76 104 140 176 214 262 318
#
# _framework density 18.609736000000002
#
# number of rings (size 3 to 8) (size 9 to 14) (size 15 to 20)
#    0.000    2.250    1.250    3.000    0.000    3.000 
#    0.000    1.250    0.000    0.000    0.000    0.000 
#    0.000    0.000    0.000    0.000    0.000    0.000 
#
# Total GULP energy -396580.269730 kJ/mol
# GULP energy per Si atom -12393.133429 kJ/mol
# Density = 1.856738 g / cm^3
# Si number density = 18.609736 Si / 1000 Ang^3
#
#
#
# Elastic Constant Matrix: (Units=GPa)
#
#
# Indices 1 2 3 4 5 6 
#
# 1 105.1151 45.7046 61.6387 0.0000 -13.0560 0.0000
# 2 45.7046 77.4066 37.4683 0.0000 -5.8497 0.0000
# 3 61.6387 37.4683 137.0998 0.0000 -2.5070 0.0000
# 4 0.0000 0.0000 0.0000 23.7517 0.0000 -0.8835
# 5 -13.0560 -5.8497 -2.5070 0.0000 22.3104 0.0000
# 6 0.0000 0.0000 0.0000 -0.8835 0.0000 31.6756
#
#
#
# Elastic Compliance Matrix: (Units=1/GPa)
#
#
# Indices 1 2 3 4 5 6 
#
# 1 0.016477 -0.006517 -0.005493 0.000000 0.007316 0.000000
# 2 -0.006517 0.017736 -0.001906 0.000000 0.000623 0.000000
# 3 -0.005493 -0.001906 0.010238 0.000000 -0.002564 0.000000
# 4 0.000000 0.000000 0.000000 0.042146 0.000000 0.001176
# 5 0.007316 0.000623 -0.002564 0.000000 0.048979 0.000000
# 6 0.000000 0.000000 0.000000 0.001176 0.000000 0.031603
#
#
# Mechanical properties :
#
#
# Convention : Reuss Voigt Hill
#
# Bulk Modulus (GPa) = 60.17199 67.69386 63.93293
# Shear Modulus (GPa) = 24.93155 27.20155 26.06655
#
# Velocity S-wave (km/s) = 3.66417 3.82735 3.74665
# Velocity P-wave (km/s) = 7.09262 7.48237 7.29010
#
# Compressibility (1/GPa) = 0.01661903
#
# Stress axis : x y z
#
# Youngs Moduli (GPa) = 60.69167 56.38167 97.67998
#
# Poissons Ratio (x) = 0.36743 0.53655
# Poissons Ratio (y) = 0.39552 0.18616
# Poissons Ratio (z) = 0.33338 0.10746
#
# Static dielectric constant tensor:
#      x y z
#    x 3.176660 0.000000 0.083880 
#    y 0.000000 3.245560 0.000000 
#    z 0.083880 0.000000 3.654140 
# 
# 
# High freq. dielectric constant tensor:
#      x y z
#    x 1.709180 0.000000 -0.008800 
#    y 0.000000 1.713370 0.000000 
#    z -0.008800 0.000000 1.726900 
# 
# From -- ./inp_files/69138.got.cif
#   From: 2010.06.25/outbox.cif.g09.slc.cpg/sg11_35_cif.got.tgz:69138.got - 2010.06.27 23:14:04.
