data_PCOD8076529
_publ_section_title
;
Structure prediction by ZEFSAII (Michael W. Deem and Ramdas Pophale) SiO2 
 PCOD8076529
Probable space group: P 21/M
;
_chemical_formula_sum "Si O2"
_cell_formula_units_Z 32
_cell_length_a 14.810124
_cell_length_b 8.879374
_cell_length_c 23.770484
_cell_angle_alpha 90.000000
_cell_angle_beta 29.948288
_cell_angle_gamma 90.000000
_cell_volume 1560.520406
_symmetry_space_group_name_H-M "P 21/M"
_symmetry_group_IT_number 11
_symmetry_cell_setting 'monoclinic'
loop_
_space_group_symop_operation_xyz
x,y,z
-x,1/2+y,-z
-x,-y,-z
x,1/2-y,z
loop_
_atom_site_type_symbol
_atom_site_label
_atom_site_fract_x
_atom_site_fract_y
_atom_site_fract_z
Si Si1 0.057791 0.070415 0.218089
Si Si2 0.401171 0.420821 0.685395
Si Si3 0.092873 0.924151 0.898800
Si Si4 0.322923 0.924218 0.618109
Si Si5 0.899785 0.571719 0.678701
Si Si6 0.772358 0.576698 0.987275
Si Si7 0.261168 0.576505 0.425037
Si Si8 0.578619 0.927725 0.772630
O O1 0.052966 0.250000 0.219297
O O2 0.109546 0.007968 0.252187
O O3 0.857698 0.006940 0.312181
O O4 0.199644 0.018227 0.092642
O O5 0.365578 0.250000 0.683984
O O6 0.330604 0.545216 0.679739
O O7 0.608760 0.438930 0.591064
O O8 0.271246 0.470271 0.805685
O O9 0.142020 0.750000 0.883093
O O10 0.967321 0.942178 0.911378
O O11 0.000000 0.000000 0.000000
O O12 0.332468 0.750000 0.599033
O O13 0.500000 0.000000 0.500000
O O14 0.923150 0.750000 0.669249
O O15 0.716277 0.521630 0.747433
O O16 0.069342 0.509286 0.550174
O O17 0.710912 0.750000 0.021201
O O18 0.619155 0.485576 0.103442
O O19 0.243537 0.750000 0.415861
O O20 0.344584 0.487914 0.327699
O O21 0.568801 0.750000 0.772462
#
# Coordination Sequence:
#
# PCOD8076529 Si02
#       8
#     4   4   4   4   4   4   4   4
#     4   9  18  37  61  83 114 157 196 234 287 358
#     4  11  22  36  57  86 115 150 193 236 286 345
#     4  11  22  37  56  83 115 154 196 236 287 347
#     4  11  21  36  58  86 118 156 196 236 285 345
#     4   9  19  37  61  86 114 149 195 244 296 352
#     4  10  21  39  60  82 114 158 200 234 284 360
#     4  10  21  39  61  85 116 157 197 236 291 369
#     4  11  23  37  58  89 117 148 193 253 304 337
#
# _framework density 20.505979
#
# number of rings (size 3 to 8) (size 9 to 14) (size 15 to 20)
#    0.000    1.750    1.250    3.375    0.000    7.500 
#    0.000    0.625    0.000    4.500    0.000    0.000 
#    0.000    0.000    0.000    0.000    0.000    0.000 
#
# Total GULP energy -396575.838965 kJ/mol
# GULP energy per Si atom -12392.994968 kJ/mol
# Density = 2.045931 g / cm^3
# Si number density = 20.505979 Si / 1000 Ang^3
#
#
#
# Elastic Constant Matrix: (Units=GPa)
#
#
# Indices 1 2 3 4 5 6 
#
# 1 76.7571 27.0062 11.9892 0.0000 7.9921 0.0000
# 2 27.0062 56.7219 26.7338 0.0000 -4.3785 0.0000
# 3 11.9892 26.7338 96.3706 0.0000 6.3025 0.0000
# 4 0.0000 0.0000 0.0000 27.4077 0.0000 1.1891
# 5 7.9921 -4.3785 6.3025 0.0000 37.0611 0.0000
# 6 0.0000 0.0000 0.0000 1.1891 0.0000 25.9226
#
#
#
# Elastic Compliance Matrix: (Units=1/GPa)
#
#
# Indices 1 2 3 4 5 6 
#
# 1 0.016388 -0.008447 0.000608 0.000000 -0.004635 0.000000
# 2 -0.008447 0.025065 -0.006285 0.000000 0.005852 0.000000
# 3 0.000608 -0.006285 0.012238 0.000000 -0.002955 0.000000
# 4 0.000000 0.000000 0.000000 0.036559 0.000000 -0.001677
# 5 -0.004635 0.005852 -0.002955 0.000000 0.029176 0.000000
# 6 0.000000 0.000000 0.000000 -0.001677 0.000000 0.038653
#
#
# Mechanical properties :
#
#
# Convention : Reuss Voigt Hill
#
# Bulk Modulus (GPa) = 39.30439 40.14533 39.72486
# Shear Modulus (GPa) = 25.66629 29.01965 27.34297
#
# Velocity S-wave (km/s) = 3.54170 3.76597 3.65556
# Velocity P-wave (km/s) = 5.99448 6.20725 6.10179
#
# Compressibility (1/GPa) = 0.02544245
#
# Stress axis : x y z
#
# Youngs Moduli (GPa) = 61.02145 39.89566 81.71397
#
# Poissons Ratio (x) = 0.33698 -0.04964
# Poissons Ratio (y) = 0.51542 0.51359
# Poissons Ratio (z) = -0.03707 0.25075
#
# Static dielectric constant tensor:
#      x y z
#    x 10.118330 0.000000 -1.487240 
#    y 0.000000 3.288680 0.000000 
#    z -1.487240 0.000000 4.056330 
# 
# 
# High freq. dielectric constant tensor:
#      x y z
#    x 1.805120 0.000000 0.006410 
#    y 0.000000 1.772110 0.000000 
#    z 0.006410 0.000000 1.821850 
# 
# From -- ./inp_files/69018.got.cif
#   From: 2010.06.25/outbox.cif.g09.slc.cpg/sg11_35_cif.got.tgz:69018.got - 2010.06.27 23:14:04.
