data_PCOD8076083
_publ_section_title
;
Structure prediction by ZEFSAII (Michael W. Deem and Ramdas Pophale) SiO2 
 PCOD8076083
Probable space group: P 21/M
;
_chemical_formula_sum "Si O2"
_cell_formula_units_Z 28
_cell_length_a 21.107715
_cell_length_b 8.862868
_cell_length_c 14.482546
_cell_angle_alpha 90.000000
_cell_angle_beta 29.208237
_cell_angle_gamma 90.000000
_cell_volume 1322.108275
_symmetry_space_group_name_H-M "P 21/M"
_symmetry_group_IT_number 11
_symmetry_cell_setting 'monoclinic'
loop_
_space_group_symop_operation_xyz
x,y,z
-x,1/2+y,-z
-x,-y,-z
x,1/2-y,z
loop_
_atom_site_type_symbol
_atom_site_label
_atom_site_fract_x
_atom_site_fract_y
_atom_site_fract_z
Si Si1 0.493746 0.920625 0.410350
Si Si2 0.147447 0.579468 0.723529
Si Si3 0.412461 0.573960 0.031672
Si Si4 0.611312 0.924081 0.623091
Si Si5 0.860648 0.428597 0.701692
Si Si6 0.114268 0.580811 0.973122
Si Si7 0.219451 0.417006 0.012404
O O1 0.435410 0.750000 0.493840
O O2 0.500000 0.000000 0.500000
O O3 0.408941 0.033173 0.457320
O O4 0.627054 0.909768 0.185452
O O5 0.106783 0.750000 0.749150
O O6 0.264824 0.527071 0.506933
O O7 0.034694 0.462106 0.848334
O O8 0.186232 0.569039 0.782738
O O9 0.410015 0.750000 0.056281
O O10 0.486473 0.536036 0.842800
O O11 0.500000 0.500000 0.000000
O O12 0.261607 0.517183 0.209152
O O13 0.649351 0.750000 0.583800
O O14 0.873514 0.250000 0.677748
O O15 0.829884 0.470374 0.846178
O O16 0.000000 0.500000 0.500000
O O17 0.122796 0.750000 0.001290
O O18 0.179035 0.469197 0.962474
O O19 0.161813 0.250000 0.105303
#
# Coordination Sequence:
#
# PCOD8076083 Si02
#       7
#     4   4   4   4   4   4   4
#     4  11  23  37  59  91 126 165 207 252 309 374
#     4  10  21  37  58  87 123 165 211 258 312 377
#     4  10  24  44  68  95 126 166 213 269 331 394
#     4  11  22  39  61  88 123 161 205 256 315 380
#     4  11  24  45  69  96 129 168 215 273 336 399
#     4  10  21  37  58  85 122 167 210 257 313 375
#     4  11  23  39  61  90 122 161 208 259 315 379
#
# _framework density 21.178298000000002
#
# number of rings (size 3 to 8) (size 9 to 14) (size 15 to 20)
#    0.000    1.429    1.429    3.429    0.000    9.143 
#    0.000    2.857    0.000    0.000    0.000    0.000 
#    0.000    0.000    0.000    0.000    0.000    0.000 
#
# Total GULP energy -347000.197355 kJ/mol
# GULP energy per Si atom -12392.864191 kJ/mol
# Density = 2.113010 g / cm^3
# Si number density = 21.178298 Si / 1000 Ang^3
#
#
#
# Elastic Constant Matrix: (Units=GPa)
#
#
# Indices 1 2 3 4 5 6 
#
# 1 71.8439 39.1886 22.4820 0.0000 -15.4070 0.0000
# 2 39.1886 87.0984 49.3850 0.0000 4.0442 0.0000
# 3 22.4820 49.3850 118.4795 0.0000 -16.9067 0.0000
# 4 0.0000 0.0000 0.0000 34.1900 0.0000 1.8001
# 5 -15.4070 4.0442 -16.9067 0.0000 18.1616 0.0000
# 6 0.0000 0.0000 0.0000 1.8001 0.0000 36.7150
#
#
#
# Elastic Compliance Matrix: (Units=1/GPa)
#
#
# Indices 1 2 3 4 5 6 
#
# 1 0.030305 -0.019828 0.007857 0.000000 0.037437 0.000000
# 2 -0.019828 0.030008 -0.013953 0.000000 -0.036492 0.000000
# 3 0.007857 -0.013953 0.016329 0.000000 0.024973 0.000000
# 4 0.000000 0.000000 0.000000 0.029324 0.000000 -0.001438
# 5 0.037437 -0.036492 0.024973 0.000000 0.118194 0.000000
# 6 0.000000 0.000000 0.000000 -0.001438 0.000000 0.027307
#
#
# Mechanical properties :
#
#
# Convention : Reuss Voigt Hill
#
# Bulk Modulus (GPa) = 40.33425 55.50368 47.91896
# Shear Modulus (GPa) = 16.04723 28.90439 22.47581
#
# Velocity S-wave (km/s) = 2.75566 3.69834 3.26124
# Velocity P-wave (km/s) = 5.40475 6.67096 6.07096
#
# Compressibility (1/GPa) = 0.02479283
#
# Stress axis : x y z
#
# Youngs Moduli (GPa) = 32.99834 33.32396 61.24095
#
# Poissons Ratio (x) = 0.66075 -0.48114
# Poissons Ratio (y) = 0.65429 0.85450
# Poissons Ratio (z) = -0.25925 0.46497
#
# Static dielectric constant tensor:
#      x y z
#    x 3.758830 0.000000 -0.184640 
#    y 0.000000 3.753070 0.000000 
#    z -0.184640 0.000000 4.015120 
# 
# 
# High freq. dielectric constant tensor:
#      x y z
#    x 1.819650 0.000000 -0.012460 
#    y 0.000000 1.837300 0.000000 
#    z -0.012460 0.000000 1.839430 
# 
# From -- ./inp_files/54473.got.cif
#   From: 2010.06.25/outbox.cif.g09.slc.cpg/sg11_28_cif.got.tgz:54473.got - 2010.06.27 23:14:04.
