data_PCOD8076873
_publ_section_title
;
Structure prediction by ZEFSAII (Michael W. Deem and Ramdas Pophale) SiO2 
 PCOD8076873
Probable space group: P 21/M
;
_chemical_formula_sum "Si O2"
_cell_formula_units_Z 20
_cell_length_a 13.825431
_cell_length_b 13.005124
_cell_length_c 5.406058
_cell_angle_alpha 90.000000
_cell_angle_beta 99.540920
_cell_angle_gamma 90.000000
_cell_volume 958.571587
_symmetry_space_group_name_H-M "P 21/M"
_symmetry_group_IT_number 11
_symmetry_cell_setting 'monoclinic'
loop_
_space_group_symop_operation_xyz
x,y,z
-x,1/2+y,-z
-x,-y,-z
x,1/2-y,z
loop_
_atom_site_type_symbol
_atom_site_label
_atom_site_fract_x
_atom_site_fract_y
_atom_site_fract_z
Si Si1 0.794424 0.441222 0.906300
Si Si2 0.607209 0.134755 0.033954
Si Si3 0.885712 0.479600 0.451321
Si Si4 0.431060 0.449843 0.669026
Si Si5 0.243918 0.366057 0.374224
O O1 0.694268 0.374059 0.867849
O O2 0.856968 0.422341 0.183077
O O3 0.855500 0.411045 0.682248
O O4 0.765296 0.562699 0.874844
O O5 0.607578 0.250000 0.147176
O O6 0.630854 0.045546 0.242966
O O7 0.497892 0.113448 0.887883
O O8 0.830148 0.589668 0.447828
O O9 0.000000 0.500000 0.500000
O O10 0.500000 0.500000 0.500000
O O11 0.355392 0.370006 0.519357
O O12 0.215924 0.250000 0.293902
#
# Coordination Sequence:
#
# PCOD8076873 Si02
#       5
#     4   4   4   4   4
#     4  10  21  42  62  94 128 164 212 270 315 387
#     4  11  23  39  63  92 130 173 213 264 331 393
#     4  10  21  41  67  88 129 166 211 274 324 370
#     4  11  21  42  58  91 129 168 218 267 316 385
#     4  10  22  38  64  92 128 171 212 263 325 382
#
# _framework density 20.864380000000001
#
# number of rings (size 3 to 8) (size 9 to 14) (size 15 to 20)
#    1.200    0.400    4.000    1.200    0.000    2.400 
#    0.000    2.000    0.000    0.000    0.000    0.000 
#    0.000    0.000    0.000    0.000    0.000    0.000 
#
# Total GULP energy -247807.015726 kJ/mol
# GULP energy per Si atom -12390.350786 kJ/mol
# Density = 2.081689 g / cm^3
# Si number density = 20.864380 Si / 1000 Ang^3
#
#
#
# Elastic Constant Matrix: (Units=GPa)
#
#
# Indices 1 2 3 4 5 6 
#
# 1 122.9869 12.7688 27.4741 0.0000 -1.9056 0.0000
# 2 12.7688 84.8606 11.2430 0.0000 -5.3618 0.0000
# 3 27.4741 11.2430 110.5071 0.0000 -3.5853 0.0000
# 4 0.0000 0.0000 0.0000 19.0579 0.0000 -0.3041
# 5 -1.9056 -5.3618 -3.5853 0.0000 32.8035 0.0000
# 6 0.0000 0.0000 0.0000 -0.3041 0.0000 16.2805
#
#
#
# Elastic Compliance Matrix: (Units=1/GPa)
#
#
# Indices 1 2 3 4 5 6 
#
# 1 0.008698 -0.001030 -0.002054 0.000000 0.000112 0.000000
# 2 -0.001030 0.012177 -0.000924 0.000000 0.001830 0.000000
# 3 -0.002054 -0.000924 0.009679 0.000000 0.000788 0.000000
# 4 0.000000 0.000000 0.000000 0.052487 0.000000 0.000980
# 5 0.000112 0.001830 0.000788 0.000000 0.030876 0.000000
# 6 0.000000 0.000000 0.000000 0.000980 0.000000 0.061442
#
#
# Mechanical properties :
#
#
# Convention : Reuss Voigt Hill
#
# Bulk Modulus (GPa) = 44.36530 46.81406 45.58968
# Shear Modulus (GPa) = 26.19336 31.41962 28.80649
#
# Velocity S-wave (km/s) = 3.54702 3.88480 3.71975
# Velocity P-wave (km/s) = 6.17130 6.52750 6.35190
#
# Compressibility (1/GPa) = 0.02254014
#
# Stress axis : x y z
#
# Youngs Moduli (GPa) = 114.96264 82.12267 103.31196
#
# Poissons Ratio (x) = 0.08455 0.21222
# Poissons Ratio (y) = 0.11836 0.09541
# Poissons Ratio (z) = 0.23616 0.07584
#
# Static dielectric constant tensor:
#      x y z
#    x 3.922080 0.000000 -0.070140 
#    y 0.000000 3.421500 0.000000 
#    z -0.070140 0.000000 3.627130 
# 
# 
# High freq. dielectric constant tensor:
#      x y z
#    x 1.823620 0.000000 -0.002250 
#    y 0.000000 1.780580 0.000000 
#    z -0.002250 0.000000 1.807890 
# 
# From -- ./inp_files/6117.got.cif
#   From: 2010.06.25/outbox.cif.g09.slc.cpg/sg11_4_cif.got.tgz:6117.got - 2010.06.27 23:14:04.
