data_PCOD8076756
_publ_section_title
;
Structure prediction by ZEFSAII (Michael W. Deem and Ramdas Pophale) SiO2 
 PCOD8076756
Probable space group: P 21/M
;
_chemical_formula_sum "Si O2"
_cell_formula_units_Z 22
_cell_length_a 13.454139
_cell_length_b 10.696747
_cell_length_c 16.713021
_cell_angle_alpha 90.000000
_cell_angle_beta 153.893425
_cell_angle_gamma 90.000000
_cell_volume 1058.417326
_symmetry_space_group_name_H-M "P 21/M"
_symmetry_group_IT_number 11
_symmetry_cell_setting 'monoclinic'
loop_
_space_group_symop_operation_xyz
x,y,z
-x,1/2+y,-z
-x,-y,-z
x,1/2-y,z
loop_
_atom_site_type_symbol
_atom_site_label
_atom_site_fract_x
_atom_site_fract_y
_atom_site_fract_z
Si Si1 0.825630 0.393741 0.583566
Si Si2 0.970874 0.499832 0.851664
Si Si3 0.148525 0.012513 0.684314
Si Si4 0.682435 0.895174 0.780100
Si Si5 0.882657 0.250000 0.302248
Si Si6 0.837379 0.250000 0.083553
Si Si7 0.677861 0.750000 0.264715
O O1 0.858243 0.250000 0.584030
O O2 0.570945 0.437854 0.381775
O O3 0.874839 0.414979 0.711883
O O4 0.994903 0.471969 0.651445
O O5 0.064671 0.630423 0.889332
O O6 0.770444 0.522102 0.769927
O O7 0.170158 0.419683 0.034994
O O8 0.316002 0.128188 0.789863
O O9 0.262408 0.874601 0.778749
O O10 0.000000 0.000000 0.500000
O O11 0.689366 0.750000 0.760961
O O12 0.922075 0.250000 0.235978
O O13 0.125586 0.250000 0.525486
O O14 0.568111 0.250000 0.874446
#
# Coordination Sequence:
#
# PCOD8076756 Si02
#       7
#     4   4   4   4   2   2   2
#     4  11  22  41  66  90 123 166 206 261 317 369
#     4  11  23  41  62  93 126 158 208 262 306 382
#     4  10  21  40  63  89 124 164 209 260 306 372
#     4  10  23  42  64  91 123 162 208 257 320 370
#     4  10  22  42  62  88 124 162 216 262 306 368
#     4  12  24  38  65  90 124 166 207 254 310 375
#     4  10  24  42  61  90 126 168 211 256 318 367
#
# _framework density 20.785753
#
# number of rings (size 3 to 8) (size 9 to 14) (size 15 to 20)
#    0.000    1.455    3.636    1.091    5.091    0.727 
#    0.000    0.000    0.000    0.000    0.000    0.000 
#    0.000    0.000    0.000    0.000    0.000    0.000 
#
# Total GULP energy -272740.118219 kJ/mol
# GULP energy per Si atom -12397.278101 kJ/mol
# Density = 2.073844 g / cm^3
# Si number density = 20.785753 Si / 1000 Ang^3
#
#
#
# Elastic Constant Matrix: (Units=GPa)
#
#
# Indices 1 2 3 4 5 6 
#
# 1 40.7017 18.4445 7.4906 0.0000 -12.7860 0.0000
# 2 18.4445 102.6882 6.2747 0.0000 8.8136 0.0000
# 3 7.4906 6.2747 67.4981 0.0000 -4.4766 0.0000
# 4 0.0000 0.0000 0.0000 13.9069 0.0000 -18.5078
# 5 -12.7860 8.8136 -4.4766 0.0000 31.5798 0.0000
# 6 0.0000 0.0000 0.0000 -18.5078 0.0000 17.1427
#
#
#
# Elastic Compliance Matrix: (Units=1/GPa)
#
#
# Indices 1 2 3 4 5 6 
#
# 1 0.032845 -0.007064 -0.001994 0.000000 0.014987 0.000000
# 2 -0.007064 0.011581 -0.000703 0.000000 -0.006192 0.000000
# 3 -0.001994 -0.000703 0.015204 0.000000 0.001544 0.000000
# 4 0.000000 0.000000 0.000000 -0.164617 0.000000 -0.177725
# 5 0.014987 -0.006192 0.001544 0.000000 0.039681 0.000000
# 6 0.000000 0.000000 0.000000 -0.177725 0.000000 -0.133544
#
#
# Mechanical properties :
#
#
# Convention : Reuss Voigt Hill
#
# Bulk Modulus (GPa) = 24.93293 30.58973 27.76133
# Shear Modulus (GPa) = -30.12847 24.43777 -2.84535
#
# Velocity S-wave (km/s) = -3.81133 3.43257 -1.17127
# Velocity P-wave (km/s) = 2.71055 5.51893 3.39938
#
# Compressibility (1/GPa) = 0.04010759
#
# Stress axis : x y z
#
# Youngs Moduli (GPa) = 30.44579 86.34484 65.77065
#
# Poissons Ratio (x) = 0.60994 0.13117
# Poissons Ratio (y) = 0.21507 0.04626
# Poissons Ratio (z) = 0.06072 0.06073
#
# Static dielectric constant tensor:
#      x y z
#    x 3.790720 0.000000 -0.129240 
#    y 0.000000 4.532320 0.000000 
#    z -0.129240 0.000000 3.632830 
# 
# 
# High freq. dielectric constant tensor:
#      x y z
#    x 1.814930 0.000000 -0.014320 
#    y 0.000000 1.834340 0.000000 
#    z -0.014320 0.000000 1.802670 
# 
# From -- ./inp_files/39289.got.cif
#   From: 2010.06.25/outbox.cif.g09.slc.cpg/sg11_20_cif.got.tgz:39289.got - 2010.06.27 23:14:04.
