data_PCOD8076012
_publ_section_title
;
Structure prediction by ZEFSAII (Michael W. Deem and Ramdas Pophale) SiO2 
 PCOD8076012
Probable space group: P 21/M
;
_chemical_formula_sum "Si O2"
_cell_formula_units_Z 32
_cell_length_a 6.942436
_cell_length_b 8.819368
_cell_length_c 27.990826
_cell_angle_alpha 90.000000
_cell_angle_beta 91.910857
_cell_angle_gamma 90.000000
_cell_volume 1712.866408
_symmetry_space_group_name_H-M "P 21/M"
_symmetry_group_IT_number 11
_symmetry_cell_setting 'monoclinic'
loop_
_space_group_symop_operation_xyz
x,y,z
-x,1/2+y,-z
-x,-y,-z
x,1/2-y,z
loop_
_atom_site_type_symbol
_atom_site_label
_atom_site_fract_x
_atom_site_fract_y
_atom_site_fract_z
Si Si1 0.713067 0.076599 0.626897
Si Si2 0.675187 0.074913 0.117620
Si Si3 0.960889 0.926633 0.050269
Si Si4 0.974058 0.925957 0.448854
Si Si5 0.271126 0.925464 0.132632
Si Si6 0.690399 0.072661 0.374763
Si Si7 0.948550 0.573646 0.300474
Si Si8 0.008290 0.924071 0.799739
O O1 0.640438 0.250000 0.627998
O O2 0.833304 0.045214 0.579900
O O3 0.845877 0.039248 0.673646
O O4 0.535096 0.963491 0.626473
O O5 0.623769 0.250000 0.108358
O O6 0.810245 0.053102 0.164434
O O7 0.485353 0.979302 0.124910
O O8 0.777091 0.009498 0.071478
O O9 0.912792 0.750000 0.044247
O O10 0.148530 0.954392 0.083994
O O11 0.000000 0.000000 0.000000
O O12 0.931602 0.750000 0.454962
O O13 0.000000 0.000000 0.500000
O O14 0.789703 0.995591 0.421043
O O15 0.269902 0.750000 0.147219
O O16 0.185145 0.020058 0.175943
O O17 0.722387 0.250000 0.379160
O O18 0.779264 0.015720 0.325772
O O19 0.897973 0.750000 0.304180
O O20 0.953808 0.524777 0.245993
O O21 0.980242 0.750000 0.784599
#
# Coordination Sequence:
#
# PCOD8076012 Si02
#       8
#     4   4   4   4   4   4   4   4
#     4   9  20  38  57  79 108 143 182 223 268 319
#     4  10  21  37  57  81 110 144 181 224 272 321
#     4  10  21  37  57  81 109 142 181 224 271 323
#     4  10  21  38  59  82 111 145 183 227 272 322
#     4  10  21  37  57  81 109 143 182 223 269 322
#     4  11  22  36  57  83 111 144 181 224 273 323
#     4  10  21  38  59  81 109 145 183 225 271 321
#     4  10  21  37  57  82 111 142 180 225 271 321
#
# _framework density 18.682133
#
# number of rings (size 3 to 8) (size 9 to 14) (size 15 to 20)
#    0.000    2.000    0.000    4.125    0.000    8.000 
#    0.000    0.000    0.000    0.000    0.000    0.000 
#    0.000    0.000    0.000    0.000    0.000    0.000 
#
# Total GULP energy -396968.219062 kJ/mol
# GULP energy per Si atom -12405.256846 kJ/mol
# Density = 1.863961 g / cm^3
# Si number density = 18.682133 Si / 1000 Ang^3
#
#
#
# Elastic Constant Matrix: (Units=GPa)
#
#
# Indices 1 2 3 4 5 6 
#
# 1 100.8585 44.1081 25.9080 0.0000 -7.9195 0.0000
# 2 44.1081 106.0570 42.1549 0.0000 0.5070 0.0000
# 3 25.9080 42.1549 107.5545 0.0000 -7.7262 0.0000
# 4 0.0000 0.0000 0.0000 38.4777 0.0000 -2.9447
# 5 -7.9195 0.5070 -7.7262 0.0000 12.3781 0.0000
# 6 0.0000 0.0000 0.0000 -2.9447 0.0000 35.1062
#
#
#
# Elastic Compliance Matrix: (Units=1/GPa)
#
#
# Indices 1 2 3 4 5 6 
#
# 1 0.012978 -0.005246 -0.000480 0.000000 0.008219 0.000000
# 2 -0.005246 0.013423 -0.004479 0.000000 -0.006702 0.000000
# 3 -0.000480 -0.004479 0.011684 0.000000 0.007169 0.000000
# 4 0.000000 0.000000 0.000000 0.026157 0.000000 0.002194
# 5 0.008219 -0.006702 0.007169 0.000000 0.090796 0.000000
# 6 0.000000 0.000000 0.000000 0.002194 0.000000 0.028669
#
#
# Mechanical properties :
#
#
# Convention : Reuss Voigt Hill
#
# Bulk Modulus (GPa) = 56.57554 59.86802 58.22178
# Shear Modulus (GPa) = 23.80886 30.67899 27.24392
#
# Velocity S-wave (km/s) = 3.57377 4.05675 3.82290
# Velocity P-wave (km/s) = 6.88318 7.35242 7.12167
#
# Compressibility (1/GPa) = 0.01767548
#
# Stress axis : x y z
#
# Youngs Moduli (GPa) = 77.05597 74.50004 85.59056
#
# Poissons Ratio (x) = 0.39082 0.04105
# Poissons Ratio (y) = 0.40423 0.38334
# Poissons Ratio (z) = 0.03696 0.33366
#
# Static dielectric constant tensor:
#      x y z
#    x 3.359910 0.000000 -0.022350 
#    y 0.000000 3.594860 0.000000 
#    z -0.022350 0.000000 3.466270 
# 
# 
# High freq. dielectric constant tensor:
#      x y z
#    x 1.725810 0.000000 -0.004300 
#    y 0.000000 1.741990 0.000000 
#    z -0.004300 0.000000 1.728650 
# 
# From -- ./inp_files/72594.got.cif
#   From: 2010.06.25/outbox.cif.g09.slc.cpg/sg11_37_cif.got.tgz:72594.got - 2010.06.27 23:14:04.
