data_PCOD8076106
_publ_section_title
;
Structure prediction by ZEFSAII (Michael W. Deem and Ramdas Pophale) SiO2 
 PCOD8076106
Probable space group: P 21/M
;
_chemical_formula_sum "Si O2"
_cell_formula_units_Z 32
_cell_length_a 18.485079
_cell_length_b 14.084546
_cell_length_c 18.270100
_cell_angle_alpha 90.000000
_cell_angle_beta 158.208013
_cell_angle_gamma 90.000000
_cell_volume 1765.864960
_symmetry_space_group_name_H-M "P 21/M"
_symmetry_group_IT_number 11
_symmetry_cell_setting 'monoclinic'
loop_
_space_group_symop_operation_xyz
x,y,z
-x,1/2+y,-z
-x,-y,-z
x,1/2-y,z
loop_
_atom_site_type_symbol
_atom_site_label
_atom_site_fract_x
_atom_site_fract_y
_atom_site_fract_z
Si Si1 0.394401 0.640746 0.470727
Si Si2 0.238864 0.640707 0.671574
Si Si3 0.602607 0.640755 0.512568
Si Si4 0.528723 0.141740 0.968441
Si Si5 0.630372 0.993568 0.793441
Si Si6 0.435888 0.028014 0.099401
Si Si7 0.196240 0.361298 0.765128
Si Si8 0.942361 0.997632 0.861597
O O1 0.366207 0.750000 0.466044
O O2 0.474011 0.628105 0.464020
O O3 0.552860 0.594840 0.673375
O O4 0.184855 0.589938 0.279224
O O5 0.268640 0.750000 0.676920
O O6 0.362922 0.578774 0.732062
O O7 0.018467 0.607439 0.457527
O O8 0.295854 0.625869 0.809651
O O9 0.631862 0.750000 0.518367
O O10 0.483564 0.589108 0.336386
O O11 0.816004 0.596027 0.725196
O O12 0.514363 0.250000 0.928354
O O13 0.332808 0.108081 0.825791
O O14 0.563366 0.079641 0.929246
O O15 0.585405 0.972129 0.834593
O O16 0.862292 0.004859 0.002820
O O17 0.256247 0.084913 0.895317
O O18 0.220251 0.250000 0.802693
O O19 0.000000 0.000000 0.000000
#
# Coordination Sequence:
#
# PCOD8076106 Si02
#       8
#     4   4   4   4   4   4   4   4
#     4  10  21  37  59  84 106 138 184 229 277 330
#     4   9  18  35  58  80 107 141 177 223 268 313
#     4  10  21  38  60  82 104 139 186 230 276 328
#     4   9  19  35  53  78 106 138 185 226 258 308
#     4  11  23  38  53  81 118 148 178 229 279 326
#     4  11  22  33  53  79 112 147 177 215 272 326
#     4   9  18  34  57  83 106 137 181 223 264 317
#     4  11  19  37  60  82 110 138 180 233 275 321
#
# _framework density 18.121431000000001
#
# number of rings (size 3 to 8) (size 9 to 14) (size 15 to 20)
#    0.000    2.000    2.500    3.375    0.000    7.000 
#    0.000    1.250    0.000    1.500    0.000    0.000 
#    0.000    0.000    0.000    0.000    0.000    0.000 
#
# Total GULP energy -396875.176377 kJ/mol
# GULP energy per Si atom -12402.349262 kJ/mol
# Density = 1.808019 g / cm^3
# Si number density = 18.121431 Si / 1000 Ang^3
#
#
#
# Elastic Constant Matrix: (Units=GPa)
#
#
# Indices 1 2 3 4 5 6 
#
# 1 33.6478 8.2767 16.4959 0.0000 -1.8191 0.0000
# 2 8.2767 97.4969 30.7543 0.0000 7.5497 0.0000
# 3 16.4959 30.7543 103.3482 0.0000 30.7749 0.0000
# 4 0.0000 0.0000 0.0000 22.5931 0.0000 1.2399
# 5 -1.8191 7.5497 30.7749 0.0000 24.0100 0.0000
# 6 0.0000 0.0000 0.0000 1.2399 0.0000 13.3729
#
#
#
# Elastic Compliance Matrix: (Units=1/GPa)
#
#
# Indices 1 2 3 4 5 6 
#
# 1 0.035863 -0.001073 -0.010212 0.000000 0.016144 0.000000
# 2 -0.001073 0.011374 -0.003435 0.000000 0.000746 0.000000
# 3 -0.010212 -0.003435 0.019791 0.000000 -0.025061 0.000000
# 4 0.000000 0.000000 0.000000 0.044488 0.000000 -0.004125
# 5 0.016144 0.000746 -0.025061 0.000000 0.074760 0.000000
# 6 0.000000 0.000000 0.000000 -0.004125 0.000000 0.075161
#
#
# Mechanical properties :
#
#
# Convention : Reuss Voigt Hill
#
# Bulk Modulus (GPa) = 26.60574 38.39407 32.49991
# Shear Modulus (GPa) = 16.47957 23.92627 20.20292
#
# Velocity S-wave (km/s) = 3.01889 3.63758 3.34258
# Velocity P-wave (km/s) = 5.18319 6.23504 5.73329
#
# Compressibility (1/GPa) = 0.03758587
#
# Stress axis : x y z
#
# Youngs Moduli (GPa) = 27.88385 87.92188 50.52843
#
# Poissons Ratio (x) = 0.09436 0.51601
# Poissons Ratio (y) = 0.02993 0.17358
# Poissons Ratio (z) = 0.28476 0.30204
#
# Static dielectric constant tensor:
#      x y z
#    x 3.108580 0.000000 0.187410 
#    y 0.000000 3.463940 0.000000 
#    z 0.187410 0.000000 3.559870 
# 
# 
# High freq. dielectric constant tensor:
#      x y z
#    x 1.678750 0.000000 0.009310 
#    y 0.000000 1.713080 0.000000 
#    z 0.009310 0.000000 1.711060 
# 
# From -- ./inp_files/61625.got.cif
#   From: 2010.06.25/outbox.cif.g09.slc.cpg/sg11_31_cif.got.tgz:61625.got - 2010.06.27 23:14:04.
