data_PCOD8076891
_publ_section_title
;
Structure prediction by ZEFSAII (Michael W. Deem and Ramdas Pophale) SiO2 
 PCOD8076891
Probable space group: P 21/M
;
_chemical_formula_sum "Si O2"
_cell_formula_units_Z 32
_cell_length_a 23.640292
_cell_length_b 9.071520
_cell_length_c 14.108337
_cell_angle_alpha 90.000000
_cell_angle_beta 33.012129
_cell_angle_gamma 90.000000
_cell_volume 1648.386409
_symmetry_space_group_name_H-M "P 21/M"
_symmetry_group_IT_number 11
_symmetry_cell_setting 'monoclinic'
loop_
_space_group_symop_operation_xyz
x,y,z
-x,1/2+y,-z
-x,-y,-z
x,1/2-y,z
loop_
_atom_site_type_symbol
_atom_site_label
_atom_site_fract_x
_atom_site_fract_y
_atom_site_fract_z
Si Si1 0.912602 0.577654 0.500385
Si Si2 0.485660 0.078464 0.299995
Si Si3 0.105282 0.578960 0.826301
Si Si4 0.880693 0.922037 0.762387
Si Si5 0.210401 0.578738 0.485374
Si Si6 0.453008 0.922042 0.156710
Si Si7 0.695002 0.420412 0.338420
Si Si8 0.307207 0.580575 0.878162
O O1 0.924730 0.750000 0.466058
O O2 0.876967 0.539525 0.656604
O O3 0.824780 0.514529 0.555354
O O4 0.023107 0.503251 0.322532
O O5 0.473563 0.250000 0.293076
O O6 0.580880 0.047364 0.235862
O O7 0.506854 0.991159 0.173358
O O8 0.382235 0.023073 0.495619
O O9 0.080717 0.750000 0.854687
O O10 0.148142 0.523185 0.665008
O O11 0.188734 0.544889 0.790716
O O12 0.000000 0.500000 0.000000
O O13 0.894639 0.750000 0.761110
O O14 0.774613 0.975653 0.956810
O O15 0.189940 0.750000 0.493311
O O16 0.330784 0.548339 0.334517
O O17 0.479542 0.750000 0.115190
O O18 0.500000 0.000000 0.000000
O O19 0.666093 0.250000 0.399581
O O20 0.687358 0.460260 0.239407
O O21 0.273826 0.750000 0.940292
#
# Coordination Sequence:
#
# PCOD8076891 Si02
#       8
#     4   4   4   4   4   4   4   4
#     4  10  22  39  61  87 119 158 198 244 301 359
#     4  11  23  40  62  92 123 158 203 251 305 364
#     4  10  22  40  61  89 122 159 202 249 307 362
#     4  10  22  40  60  88 120 156 200 247 300 359
#     4  10  22  41  63  89 122 161 201 250 307 361
#     4  11  24  43  65  91 125 165 206 255 309 366
#     4  10  21  42  64  85 119 161 201 249 307 361
#     4  10  23  39  61  90 121 157 202 252 304 358
#
# _framework density 19.412924
#
# number of rings (size 3 to 8) (size 9 to 14) (size 15 to 20)
#    0.000    1.750    1.250    1.875    3.500    5.000 
#    0.000    0.000    0.000    0.000    0.000    0.000 
#    0.000    0.000    0.000    0.000    0.000    0.000 
#
# Total GULP energy -396996.063047 kJ/mol
# GULP energy per Si atom -12406.126970 kJ/mol
# Density = 1.936874 g / cm^3
# Si number density = 19.412924 Si / 1000 Ang^3
#
#
#
# Elastic Constant Matrix: (Units=GPa)
#
#
# Indices 1 2 3 4 5 6 
#
# 1 128.5454 54.5370 33.8287 0.0000 9.4839 0.0000
# 2 54.5370 88.6219 47.2734 0.0000 5.5667 0.0000
# 3 33.8287 47.2734 100.6257 0.0000 12.4349 0.0000
# 4 0.0000 0.0000 0.0000 41.2686 0.0000 -0.4013
# 5 9.4839 5.5667 12.4349 0.0000 24.5049 0.0000
# 6 0.0000 0.0000 0.0000 -0.4013 0.0000 30.9469
#
#
#
# Elastic Compliance Matrix: (Units=1/GPa)
#
#
# Indices 1 2 3 4 5 6 
#
# 1 0.010708 -0.006241 -0.000353 0.000000 -0.002547 0.000000
# 2 -0.006241 0.018696 -0.006891 0.000000 0.001665 0.000000
# 3 -0.000353 -0.006891 0.013959 0.000000 -0.005381 0.000000
# 4 0.000000 0.000000 0.000000 0.024235 0.000000 0.000314
# 5 -0.002547 0.001665 -0.005381 0.000000 0.044147 0.000000
# 6 0.000000 0.000000 0.000000 0.000314 0.000000 0.032317
#
#
# Mechanical properties :
#
#
# Convention : Reuss Voigt Hill
#
# Bulk Modulus (GPa) = 61.00316 65.45235 63.22776
# Shear Modulus (GPa) = 28.32928 31.48767 29.90847
#
# Velocity S-wave (km/s) = 3.82422 4.03177 3.92937
# Velocity P-wave (km/s) = 7.14085 7.44732 7.29570
#
# Compressibility (1/GPa) = 0.01639259
#
# Stress axis : x y z
#
# Youngs Moduli (GPa) = 93.38662 53.48764 71.63983
#
# Poissons Ratio (x) = 0.33384 0.02528
# Poissons Ratio (y) = 0.58287 0.49365
# Poissons Ratio (z) = 0.03296 0.36857
#
# Static dielectric constant tensor:
#      x y z
#    x 3.594570 0.000000 -0.163020 
#    y 0.000000 3.623940 0.000000 
#    z -0.163020 0.000000 3.228390 
# 
# 
# High freq. dielectric constant tensor:
#      x y z
#    x 1.770440 0.000000 0.000590 
#    y 0.000000 1.758810 0.000000 
#    z 0.000590 0.000000 1.759720 
# 
# From -- ./inp_files/55510.got.cif
#   From: 2010.06.25/outbox.cif.g09.slc.cpg/sg11_28_cif.got.tgz:55510.got - 2010.06.27 23:14:04.
