data_PCOD8076991
_publ_section_title
;
Structure prediction by ZEFSAII (Michael W. Deem and Ramdas Pophale) SiO2 
 PCOD8076991
Probable space group: P 21/M
;
_chemical_formula_sum "Si O2"
_cell_formula_units_Z 18
_cell_length_a 8.848385
_cell_length_b 9.838373
_cell_length_c 12.596084
_cell_angle_alpha 90.000000
_cell_angle_beta 116.975027
_cell_angle_gamma 90.000000
_cell_volume 977.237500
_symmetry_space_group_name_H-M "P 21/M"
_symmetry_group_IT_number 11
_symmetry_cell_setting 'monoclinic'
loop_
_space_group_symop_operation_xyz
x,y,z
-x,1/2+y,-z
-x,-y,-z
x,1/2-y,z
loop_
_atom_site_type_symbol
_atom_site_label
_atom_site_fract_x
_atom_site_fract_y
_atom_site_fract_z
Si Si1 0.658142 0.250000 0.956695
Si Si2 0.729462 0.750000 0.110777
Si Si3 0.165315 0.519400 0.340564
Si Si4 0.101091 0.991628 0.923281
Si Si5 0.617104 0.250000 0.694314
Si Si6 0.747785 0.750000 0.512538
Si Si7 0.032537 0.250000 0.616159
O O1 0.471850 0.250000 0.946447
O O2 0.656870 0.250000 0.830273
O O3 0.757551 0.377707 0.032505
O O4 0.793979 0.626738 0.061323
O O5 0.808332 0.750000 0.253425
O O6 0.305699 0.612358 0.328926
O O7 0.252779 0.386469 0.417558
O O8 0.030077 0.464869 0.213081
O O9 0.076687 0.613145 0.401576
O O10 0.000000 0.000000 0.000000
O O11 0.418108 0.250000 0.612229
O O12 0.909792 0.750000 0.487120
#
# Coordination Sequence:
#
# PCOD8076991 Si02
#       7
#     2   2   4   4   2   2   2
#     4  12  21  38  59  85 122 153 192 240 297 339
#     4  10  22  38  58  90 118 152 189 238 299 345
#     4  10  22  39  59  87 114 151 201 233 287 349
#     4  11  21  38  64  86 116 155 194 237 286 351
#     4  11  22  39  57  82 117 161 185 237 298 341
#     4  12  21  37  61  85 115 147 197 247 285 329
#     4   9  20  38  61  82 114 155 187 236 293 348
#
# _framework density 18.419270000000001
#
# number of rings (size 3 to 8) (size 9 to 14) (size 15 to 20)
#    0.000    1.333    3.333    4.000    0.000    0.000 
#    0.000    0.000    0.000    0.000    0.000    0.000 
#    0.000    0.000    0.000    0.000    0.000    0.000 
#
# Total GULP energy -223229.550387 kJ/mol
# GULP energy per Si atom -12401.641688 kJ/mol
# Density = 1.837735 g / cm^3
# Si number density = 18.419270 Si / 1000 Ang^3
#
#
#
# Elastic Constant Matrix: (Units=GPa)
#
#
# Indices 1 2 3 4 5 6 
#
# 1 88.0972 31.4913 14.0291 0.0000 -6.8660 0.0000
# 2 31.4913 139.4341 44.3884 0.0000 -0.4593 0.0000
# 3 14.0291 44.3884 58.7536 0.0000 -4.3917 0.0000
# 4 0.0000 0.0000 0.0000 32.0322 0.0000 5.1070
# 5 -6.8660 -0.4593 -4.3917 0.0000 34.2743 0.0000
# 6 0.0000 0.0000 0.0000 5.1070 0.0000 31.5828
#
#
#
# Elastic Compliance Matrix: (Units=1/GPa)
#
#
# Indices 1 2 3 4 5 6 
#
# 1 0.012591 -0.002548 -0.000904 0.000000 0.002372 0.000000
# 2 -0.002548 0.009980 -0.007027 0.000000 -0.001277 0.000000
# 3 -0.000904 -0.007027 0.022742 0.000000 0.002639 0.000000
# 4 0.000000 0.000000 0.000000 0.032045 0.000000 -0.005182
# 5 0.002372 -0.001277 0.002639 0.000000 0.029973 0.000000
# 6 0.000000 0.000000 0.000000 -0.005182 0.000000 0.032501
#
#
# Mechanical properties :
#
#
# Convention : Reuss Voigt Hill
#
# Bulk Modulus (GPa) = 41.05941 51.78916 46.42428
# Shear Modulus (GPa) = 29.60195 32.66961 31.13578
#
# Velocity S-wave (km/s) = 4.01324 4.21606 4.11590
# Velocity P-wave (km/s) = 6.61927 7.20264 6.91711
#
# Compressibility (1/GPa) = 0.02435495
#
# Stress axis : x y z
#
# Youngs Moduli (GPa) = 79.42332 100.19894 43.97091
#
# Poissons Ratio (x) = 0.25531 0.03975
# Poissons Ratio (y) = 0.20237 0.30899
# Poissons Ratio (z) = 0.07180 0.70410
#
# Static dielectric constant tensor:
#      x y z
#    x 3.417920 0.000000 0.064450 
#    y 0.000000 3.484820 0.000000 
#    z 0.064450 0.000000 3.342180 
# 
# 
# High freq. dielectric constant tensor:
#      x y z
#    x 1.723810 0.000000 0.002060 
#    y 0.000000 1.728140 0.000000 
#    z 0.002060 0.000000 1.713740 
# 
# From -- ./inp_files/11498.got.cif
#   From: 2010.06.25/outbox.cif.g09.slc.cpg/sg11_6_cif.got.tgz:11498.got - 2010.06.27 23:14:04.
