data_PCOD8076971
_publ_section_title
;
Structure prediction by ZEFSAII (Michael W. Deem and Ramdas Pophale) SiO2 
 PCOD8076971
Probable space group: P 21/M
;
_chemical_formula_sum "Si O2"
_cell_formula_units_Z 28
_cell_length_a 17.699740
_cell_length_b 9.160031
_cell_length_c 19.447036
_cell_angle_alpha 90.000000
_cell_angle_beta 150.725244
_cell_angle_gamma 90.000000
_cell_volume 1541.787392
_symmetry_space_group_name_H-M "P 21/M"
_symmetry_group_IT_number 11
_symmetry_cell_setting 'monoclinic'
loop_
_space_group_symop_operation_xyz
x,y,z
-x,1/2+y,-z
-x,-y,-z
x,1/2-y,z
loop_
_atom_site_type_symbol
_atom_site_label
_atom_site_fract_x
_atom_site_fract_y
_atom_site_fract_z
Si Si1 0.188009 0.579040 0.487309
Si Si2 0.582068 0.914018 0.505553
Si Si3 0.517537 0.922292 0.299166
Si Si4 0.252301 0.579016 0.988175
Si Si5 0.041737 0.583064 0.601362
Si Si6 0.096274 0.416966 0.286686
Si Si7 0.639316 0.083089 0.074440
O O1 0.186385 0.750000 0.502552
O O2 0.351312 0.509245 0.639555
O O3 0.161162 0.543076 0.386896
O O4 0.046669 0.497033 0.408925
O O5 0.523737 0.750000 0.466840
O O6 0.523386 0.970218 0.383820
O O7 0.769920 0.921414 0.665555
O O8 0.500000 0.000000 0.500000
O O9 0.549097 0.750000 0.317136
O O10 0.358152 0.970910 0.136179
O O11 0.261106 0.750000 0.985082
O O12 0.308939 0.514022 0.959016
O O13 0.077257 0.535879 0.871814
O O14 0.987734 0.750000 0.552274
O O15 0.221917 0.572537 0.761145
O O16 0.000000 0.500000 0.500000
O O17 0.094332 0.250000 0.316335
O O18 0.587608 0.250000 0.022620
O O19 0.500000 0.000000 0.000000
#
# Coordination Sequence:
#
# PCOD8076971 Si02
#       7
#     4   4   4   4   4   4   4
#     4  11  21  34  53  79 107 140 179 224 271 318
#     4   9  18  32  54  81 111 144 177 219 266 318
#     4   9  19  35  57  82 106 141 184 223 267 321
#     4   9  17  35  60  80 102 139 186 228 270 319
#     4  11  23  39  56  77 106 140 184 229 274 324
#     4   9  17  35  59  80 103 139 183 221 264 321
#     4  10  22  38  56  79 108 143 180 228 277 324
#
# _framework density 18.160739
#
# number of rings (size 3 to 8) (size 9 to 14) (size 15 to 20)
#    0.000    2.286    1.429    2.571    2.000    3.429 
#    0.000    1.429    0.000    0.000    0.000    0.000 
#    0.000    0.000    0.000    0.000    0.000    0.000 
#
# Total GULP energy -346874.413952 kJ/mol
# GULP energy per Si atom -12388.371927 kJ/mol
# Density = 1.811940 g / cm^3
# Si number density = 18.160739 Si / 1000 Ang^3
#
#
#
# Elastic Constant Matrix: (Units=GPa)
#
#
# Indices 1 2 3 4 5 6 
#
# 1 98.8112 38.4943 53.2001 0.0000 16.2627 0.0000
# 2 38.4943 81.7981 39.1830 0.0000 8.4175 0.0000
# 3 53.2001 39.1830 134.3869 0.0000 15.7881 0.0000
# 4 0.0000 0.0000 0.0000 21.0826 0.0000 3.8018
# 5 16.2627 8.4175 15.7881 0.0000 27.1414 0.0000
# 6 0.0000 0.0000 0.0000 3.8018 0.0000 33.5720
#
#
#
# Elastic Compliance Matrix: (Units=1/GPa)
#
#
# Indices 1 2 3 4 5 6 
#
# 1 0.014885 -0.004579 -0.003946 0.000000 -0.005203 0.000000
# 2 -0.004579 0.015736 -0.002709 0.000000 -0.000560 0.000000
# 3 -0.003946 -0.002709 0.010108 0.000000 -0.002675 0.000000
# 4 0.000000 0.000000 0.000000 0.048421 0.000000 -0.005483
# 5 -0.005203 -0.000560 -0.002675 0.000000 0.041692 0.000000
# 6 0.000000 0.000000 0.000000 -0.005483 0.000000 0.030408
#
#
# Mechanical properties :
#
#
# Convention : Reuss Voigt Hill
#
# Bulk Modulus (GPa) = 54.76788 64.08344 59.42566
# Shear Modulus (GPa) = 26.34277 28.63378 27.48827
#
# Velocity S-wave (km/s) = 3.81272 3.97506 3.89473
# Velocity P-wave (km/s) = 7.04310 7.51209 7.28137
#
# Compressibility (1/GPa) = 0.01825888
#
# Stress axis : x y z
#
# Youngs Moduli (GPa) = 67.18024 63.54949 98.93522
#
# Poissons Ratio (x) = 0.29101 0.39042
# Poissons Ratio (y) = 0.30764 0.26806
# Poissons Ratio (z) = 0.26511 0.17218
#
# Static dielectric constant tensor:
#      x y z
#    x 1.904070 0.000000 -0.196300 
#    y 0.000000 3.185570 0.000000 
#    z -0.196300 0.000000 3.612460 
# 
# 
# High freq. dielectric constant tensor:
#      x y z
#    x 1.690670 0.000000 0.015620 
#    y 0.000000 1.684880 0.000000 
#    z 0.015620 0.000000 1.708140 
# 
# From -- ./inp_files/61239.got.cif
#   From: 2010.06.25/outbox.cif.g09.slc.cpg/sg11_31_cif.got.tgz:61239.got - 2010.06.27 23:14:04.
