data_PCOD8076752
_publ_section_title
;
Structure prediction by ZEFSAII (Michael W. Deem and Ramdas Pophale) SiO2 
 PCOD8076752
Probable space group: P 21/M
;
_chemical_formula_sum "Si O2"
_cell_formula_units_Z 24
_cell_length_a 17.032210
_cell_length_b 8.552718
_cell_length_c 24.407372
_cell_angle_alpha 90.000000
_cell_angle_beta 160.578958
_cell_angle_gamma 90.000000
_cell_volume 1182.218184
_symmetry_space_group_name_H-M "P 21/M"
_symmetry_group_IT_number 11
_symmetry_cell_setting 'monoclinic'
loop_
_space_group_symop_operation_xyz
x,y,z
-x,1/2+y,-z
-x,-y,-z
x,1/2-y,z
loop_
_atom_site_type_symbol
_atom_site_label
_atom_site_fract_x
_atom_site_fract_y
_atom_site_fract_z
Si Si1 0.978338 0.434632 0.114705
Si Si2 0.452267 0.935161 0.242187
Si Si3 0.076092 0.066142 0.300143
Si Si4 0.037793 0.434066 0.465094
Si Si5 0.569526 0.565712 0.654012
Si Si6 0.247211 0.066907 0.819334
O O1 0.992837 0.250000 0.124812
O O2 0.984064 0.495480 0.180884
O O3 0.202359 0.497746 0.228366
O O4 0.735901 0.490329 0.927212
O O5 0.440071 0.750000 0.245231
O O6 0.708701 0.988612 0.390584
O O7 0.390275 0.027897 0.256127
O O8 0.031777 0.250000 0.279269
O O9 0.351973 0.030656 0.486478
O O10 0.939613 0.973336 0.256912
O O11 0.022207 0.250000 0.457078
O O12 0.000000 0.500000 0.500000
O O13 0.832955 0.497337 0.291270
O O14 0.527646 0.750000 0.618537
O O15 0.267863 0.250000 0.825989
O O16 0.500000 0.000000 0.000000
#
# Coordination Sequence:
#
# PCOD8076752 Si02
#       6
#     4   4   4   4   4   4
#     4   9  21  38  60  91 124 163 211 259 308 365
#     4  10  21  40  63  88 123 166 206 253 313 373
#     4  11  22  40  64  90 125 166 208 257 315 372
#     4  11  24  42  67  96 128 166 209 257 317 377
#     4  11  21  37  61  90 125 165 210 258 309 368
#     4  12  26  45  68  95 127 162 208 261 317 380
#
# _framework density 20.300822
#
# number of rings (size 3 to 8) (size 9 to 14) (size 15 to 20)
#    0.000    1.333    1.667    4.000    2.333    0.667 
#    0.000    5.000    0.000    0.000    0.000    0.000 
#    0.000    0.000    0.000    0.000    0.000    0.000 
#
# Total GULP energy -297730.662547 kJ/mol
# GULP energy per Si atom -12405.444273 kJ/mol
# Density = 2.025462 g / cm^3
# Si number density = 20.300822 Si / 1000 Ang^3
#
#
#
# Elastic Constant Matrix: (Units=GPa)
#
#
# Indices 1 2 3 4 5 6 
#
# 1 124.0498 30.7869 53.7324 0.0000 -21.2676 0.0000
# 2 30.7869 41.9347 20.4579 0.0000 -0.6800 0.0000
# 3 53.7324 20.4579 159.1467 0.0000 -17.1693 0.0000
# 4 0.0000 0.0000 0.0000 30.9256 0.0000 -2.9186
# 5 -21.2676 -0.6800 -17.1693 0.0000 43.0669 0.0000
# 6 0.0000 0.0000 0.0000 -2.9186 0.0000 31.4274
#
#
#
# Elastic Compliance Matrix: (Units=1/GPa)
#
#
# Indices 1 2 3 4 5 6 
#
# 1 0.011783 -0.007341 -0.002528 0.000000 0.004695 0.000000
# 2 -0.007341 0.030053 -0.001802 0.000000 -0.003869 0.000000
# 3 -0.002528 -0.001802 0.007556 0.000000 0.001735 0.000000
# 4 0.000000 0.000000 0.000000 0.032622 0.000000 0.003029
# 5 0.004695 -0.003869 0.001735 0.000000 0.026169 0.000000
# 6 0.000000 0.000000 0.000000 0.003029 0.000000 0.032101
#
#
# Mechanical properties :
#
#
# Convention : Reuss Voigt Hill
#
# Bulk Modulus (GPa) = 38.38921 59.45395 48.92158
# Shear Modulus (GPa) = 29.01760 35.76091 32.38926
#
# Velocity S-wave (km/s) = 3.78482 4.20164 3.99866
# Velocity P-wave (km/s) = 6.16855 7.27244 6.74312
#
# Compressibility (1/GPa) = 0.02604899
#
# Stress axis : x y z
#
# Youngs Moduli (GPa) = 84.86592 33.27486 132.34625
#
# Poissons Ratio (x) = 0.24428 0.33459
# Poissons Ratio (y) = 0.62303 0.23848
# Poissons Ratio (z) = 0.21455 0.05996
#
# Static dielectric constant tensor:
#      x y z
#    x 3.967760 0.000000 -0.051940 
#    y 0.000000 3.571560 0.000000 
#    z -0.051940 0.000000 4.014740 
# 
# 
# High freq. dielectric constant tensor:
#      x y z
#    x 1.805760 0.000000 -0.004570 
#    y 0.000000 1.783940 0.000000 
#    z -0.004570 0.000000 1.811140 
# 
# From -- ./inp_files/69534.got.cif
#   From: 2010.06.25/outbox.cif.g09.slc.cpg/sg11_35_cif.got.tgz:69534.got - 2010.06.27 23:14:04.
