data_PCOD8076362
_publ_section_title
;
Structure prediction by ZEFSAII (Michael W. Deem and Ramdas Pophale) SiO2 
 PCOD8076362
Probable space group: P 21/M
;
_chemical_formula_sum "Si O2"
_cell_formula_units_Z 32
_cell_length_a 29.678504
_cell_length_b 8.857031
_cell_length_c 13.083670
_cell_angle_alpha 90.000000
_cell_angle_beta 152.984261
_cell_angle_gamma 90.000000
_cell_volume 1562.214182
_symmetry_space_group_name_H-M "P 21/M"
_symmetry_group_IT_number 11
_symmetry_cell_setting 'monoclinic'
loop_
_space_group_symop_operation_xyz
x,y,z
-x,1/2+y,-z
-x,-y,-z
x,1/2-y,z
loop_
_atom_site_type_symbol
_atom_site_label
_atom_site_fract_x
_atom_site_fract_y
_atom_site_fract_z
Si Si1 0.247437 0.428211 0.847044
Si Si2 0.244975 0.071793 0.615370
Si Si3 0.554471 0.415363 0.022067
Si Si4 0.827966 0.573196 0.899313
Si Si5 0.104437 0.070891 0.737256
Si Si6 0.899914 0.429445 0.839816
Si Si7 0.535417 0.924518 0.672164
Si Si8 0.603861 0.913837 0.468337
O O1 0.253537 0.250000 0.869758
O O2 0.203087 0.468621 0.644695
O O3 0.180809 0.492461 0.805377
O O4 0.358909 0.496180 0.080261
O O5 0.237637 0.250000 0.578723
O O6 0.359177 0.021586 0.846643
O O7 0.188234 0.983238 0.412118
O O8 0.597166 0.250000 0.141162
O O9 0.500000 0.500000 0.000000
O O10 0.466642 0.385623 0.767612
O O11 0.848959 0.750000 0.925386
O O12 0.885400 0.482098 0.927463
O O13 0.712369 0.532687 0.652906
O O14 0.862658 0.520415 0.082494
O O15 0.097017 0.250000 0.715351
O O16 0.000000 0.000000 0.500000
O O17 0.907378 0.250000 0.852892
O O18 0.000000 0.500000 0.000000
O O19 0.549483 0.750000 0.683045
O O20 0.500000 0.000000 0.500000
O O21 0.445946 0.953933 0.568414
O O22 0.614430 0.750000 0.548091
#
# Coordination Sequence:
#
# PCOD8076362 Si02
#       8
#     4   4   4   4   4   4   4   4
#     4   9  20  39  63  91 127 169 208 254 318 385
#     4  11  22  41  66  95 131 172 215 262 322 388
#     4  11  22  36  59  92 129 169 214 263 315 376
#     4  10  22  43  67  93 130 171 214 265 322 386
#     4  10  22  41  65  93 124 163 212 264 324 384
#     4  12  27  46  69  97 128 166 216 271 329 388
#     4  11  21  36  59  89 124 167 212 256 310 373
#     4  10  21  38  60  88 124 165 206 253 309 370
#
# _framework density 20.483747999999999
#
# number of rings (size 3 to 8) (size 9 to 14) (size 15 to 20)
#    0.000    1.500    1.250    3.750    1.750    4.500 
#    0.000    3.125    0.000    0.000    0.000    0.000 
#    0.000    0.000    0.000    0.000    0.000    0.000 
#
# Total GULP energy -396641.947187 kJ/mol
# GULP energy per Si atom -12395.060850 kJ/mol
# Density = 2.043713 g / cm^3
# Si number density = 20.483748 Si / 1000 Ang^3
#
#
#
# Elastic Constant Matrix: (Units=GPa)
#
#
# Indices 1 2 3 4 5 6 
#
# 1 167.1515 54.4519 56.4361 0.0000 -3.6637 0.0000
# 2 54.4519 88.1653 37.7814 0.0000 -6.1782 0.0000
# 3 56.4361 37.7814 101.6299 0.0000 1.6990 0.0000
# 4 0.0000 0.0000 0.0000 30.7736 0.0000 1.8554
# 5 -3.6637 -6.1782 1.6990 0.0000 40.0943 0.0000
# 6 0.0000 0.0000 0.0000 1.8554 0.0000 33.2895
#
#
#
# Elastic Compliance Matrix: (Units=1/GPa)
#
#
# Indices 1 2 3 4 5 6 
#
# 1 0.008289 -0.003714 -0.003228 0.000000 0.000322 0.000000
# 2 -0.003714 0.015370 -0.003688 0.000000 0.002185 0.000000
# 3 -0.003228 -0.003688 0.013027 0.000000 -0.001415 0.000000
# 4 0.000000 0.000000 0.000000 0.032605 0.000000 -0.001817
# 5 0.000322 0.002185 -0.001415 0.000000 0.025367 0.000000
# 6 0.000000 0.000000 0.000000 -0.001817 0.000000 0.030141
#
#
# Mechanical properties :
#
#
# Convention : Reuss Voigt Hill
#
# Bulk Modulus (GPa) = 64.82395 72.69837 68.76116
# Shear Modulus (GPa) = 33.06878 34.71664 33.89271
#
# Velocity S-wave (km/s) = 4.02231 4.12131 4.07211
# Velocity P-wave (km/s) = 7.29981 7.62986 7.46666
#
# Compressibility (1/GPa) = 0.01542640
#
# Stress axis : x y z
#
# Youngs Moduli (GPa) = 120.63724 65.06388 76.76495
#
# Poissons Ratio (x) = 0.24163 0.24779
# Poissons Ratio (y) = 0.44802 0.28310
# Poissons Ratio (z) = 0.38941 0.23995
#
# Static dielectric constant tensor:
#      x y z
#    x 4.699840 0.000000 -0.110610 
#    y 0.000000 2.986760 0.000000 
#    z -0.110610 0.000000 3.844270 
# 
# 
# High freq. dielectric constant tensor:
#      x y z
#    x 1.812610 0.000000 -0.003460 
#    y 0.000000 1.789320 0.000000 
#    z -0.003460 0.000000 1.808750 
# 
# From -- ./inp_files/45298.got.cif
#   From: 2010.06.25/outbox.cif.g09.slc.cpg/sg11_23_cif.got.tgz:45298.got - 2010.06.27 23:14:04.
