data_PCOD8076762
_publ_section_title
;
Structure prediction by ZEFSAII (Michael W. Deem and Ramdas Pophale) SiO2 
 PCOD8076762
Probable space group: P 21/M
;
_chemical_formula_sum "Si O2"
_cell_formula_units_Z 28
_cell_length_a 11.547445
_cell_length_b 14.950664
_cell_length_c 8.297873
_cell_angle_alpha 90.000000
_cell_angle_beta 63.091560
_cell_angle_gamma 90.000000
_cell_volume 1277.459000
_symmetry_space_group_name_H-M "P 21/M"
_symmetry_group_IT_number 11
_symmetry_cell_setting 'monoclinic'
loop_
_space_group_symop_operation_xyz
x,y,z
-x,1/2+y,-z
-x,-y,-z
x,1/2-y,z
loop_
_atom_site_type_symbol
_atom_site_label
_atom_site_fract_x
_atom_site_fract_y
_atom_site_fract_z
Si Si1 0.112985 0.352018 0.149648
Si Si2 0.062906 0.410832 0.524422
Si Si3 0.836584 0.356366 0.198562
Si Si4 0.357943 0.146333 0.798872
Si Si5 0.702353 0.982265 0.440051
Si Si6 0.421374 0.555059 0.178285
Si Si7 0.188630 0.849370 0.157038
O O1 0.112729 0.250000 0.100761
O O2 0.130977 0.362893 0.329778
O O3 0.976173 0.391600 0.174317
O O4 0.236053 0.393348 0.978173
O O5 0.165994 0.430120 0.598678
O O6 0.000000 0.500000 0.500000
O O7 0.951222 0.349002 0.669559
O O8 0.813415 0.250000 0.249198
O O9 0.729879 0.417073 0.356528
O O10 0.827442 0.379730 0.016579
O O11 0.341217 0.250000 0.758428
O O12 0.373336 0.081413 0.636141
O O13 0.489195 0.137823 0.821144
O O14 0.610640 0.990313 0.652649
O O15 0.285571 0.586177 0.189360
O O16 0.500000 0.500000 0.000000
O O17 0.246105 0.750000 0.128380
#
# Coordination Sequence:
#
# PCOD8076762 Si02
#       7
#     4   4   4   4   4   4   4
#     4  10  21  40  63  93 130 169 210 262 323 388
#     4  12  22  37  64 101 128 165 211 267 333 390
#     4  10  22  40  66  99 129 164 211 271 335 391
#     4  11  26  44  65  93 132 177 220 264 319 385
#     4  12  25  42  69  95 129 170 216 272 328 389
#     4  12  25  45  67  93 128 170 224 270 323 386
#     4  11  24  42  66  95 130 169 214 269 328 391
#
# _framework density 21.918513000000001
#
# number of rings (size 3 to 8) (size 9 to 14) (size 15 to 20)
#    0.000    0.857    2.857    3.857    2.000    5.714 
#    0.000    2.857    0.000    0.000    0.000    0.000 
#    0.000    0.000    0.000    0.000    0.000    0.000 
#
# Total GULP energy -347270.298249 kJ/mol
# GULP energy per Si atom -12402.510652 kJ/mol
# Density = 2.186863 g / cm^3
# Si number density = 21.918513 Si / 1000 Ang^3
#
#
#
# Elastic Constant Matrix: (Units=GPa)
#
#
# Indices 1 2 3 4 5 6 
#
# 1 96.0679 35.0096 33.4680 0.0000 9.6799 0.0000
# 2 35.0096 83.8108 45.6287 0.0000 2.1855 0.0000
# 3 33.4680 45.6287 159.7839 0.0000 4.3945 0.0000
# 4 0.0000 0.0000 0.0000 35.5192 0.0000 1.7277
# 5 9.6799 2.1855 4.3945 0.0000 34.2019 0.0000
# 6 0.0000 0.0000 0.0000 1.7277 0.0000 30.1941
#
#
#
# Elastic Compliance Matrix: (Units=1/GPa)
#
#
# Indices 1 2 3 4 5 6 
#
# 1 0.012850 -0.004579 -0.001297 0.000000 -0.003178 0.000000
# 2 -0.004579 0.015765 -0.003563 0.000000 0.000746 0.000000
# 3 -0.001297 -0.003563 0.007558 0.000000 -0.000376 0.000000
# 4 0.000000 0.000000 0.000000 0.028232 0.000000 -0.001615
# 5 -0.003178 0.000746 -0.000376 0.000000 0.030138 0.000000
# 6 0.000000 0.000000 0.000000 -0.001615 0.000000 0.033212
#
#
# Mechanical properties :
#
#
# Convention : Reuss Voigt Hill
#
# Bulk Modulus (GPa) = 57.81999 63.09727 60.45863
# Shear Modulus (GPa) = 32.80898 35.02012 33.91455
#
# Velocity S-wave (km/s) = 3.87313 4.00151 3.93784
# Velocity P-wave (km/s) = 6.81456 7.08514 6.95117
#
# Compressibility (1/GPa) = 0.01729506
#
# Stress axis : x y z
#
# Youngs Moduli (GPa) = 77.82191 63.43218 132.31126
#
# Poissons Ratio (x) = 0.29045 0.17154
# Poissons Ratio (y) = 0.35634 0.47147
# Poissons Ratio (z) = 0.10090 0.22603
#
# Static dielectric constant tensor:
#      x y z
#    x 4.285000 0.000000 0.110310 
#    y 0.000000 3.918470 0.000000 
#    z 0.110310 0.000000 4.413280 
# 
# 
# High freq. dielectric constant tensor:
#      x y z
#    x 1.867030 0.000000 0.005310 
#    y 0.000000 1.857170 0.000000 
#    z 0.005310 0.000000 1.870570 
# 
# From -- ./inp_files/17912.got.cif
#   From: 2010.06.25/outbox.cif.g09.slc.cpg/sg11_9_cif.got.tgz:17912.got - 2010.06.27 23:14:04.
