data_PCOD8076073
_publ_section_title
;
Structure prediction by ZEFSAII (Michael W. Deem and Ramdas Pophale) SiO2 
 PCOD8076073
Probable space group: P 21/M
;
_chemical_formula_sum "Si O2"
_cell_formula_units_Z 28
_cell_length_a 25.687672
_cell_length_b 8.706326
_cell_length_c 9.543441
_cell_angle_alpha 90.000000
_cell_angle_beta 42.417765
_cell_angle_gamma 90.000000
_cell_volume 1439.682694
_symmetry_space_group_name_H-M "P 21/M"
_symmetry_group_IT_number 11
_symmetry_cell_setting 'monoclinic'
loop_
_space_group_symop_operation_xyz
x,y,z
-x,1/2+y,-z
-x,-y,-z
x,1/2-y,z
loop_
_atom_site_type_symbol
_atom_site_label
_atom_site_fract_x
_atom_site_fract_y
_atom_site_fract_z
Si Si1 0.400023 0.574091 0.830164
Si Si2 0.861448 0.073169 0.108065
Si Si3 0.424562 0.073590 0.492971
Si Si4 0.012383 0.070193 0.323796
Si Si5 0.873874 0.068569 0.401258
Si Si6 0.685940 0.427310 0.500733
Si Si7 0.714170 0.571369 0.736558
O O1 0.374280 0.750000 0.902782
O O2 0.485680 0.544452 0.719670
O O3 0.396692 0.536436 0.672546
O O4 0.341676 0.460562 0.022885
O O5 0.882178 0.250000 0.042182
O O6 0.887666 0.021821 0.211812
O O7 0.770624 0.042655 0.268386
O O8 0.905116 0.975382 0.903864
O O9 0.411267 0.250000 0.562722
O O10 0.376035 0.033368 0.452368
O O11 0.008544 0.250000 0.349295
O O12 0.946474 0.012769 0.347776
O O13 0.000000 0.000000 0.500000
O O14 0.858340 0.250000 0.443390
O O15 0.800161 0.979549 0.608778
O O16 0.662296 0.250000 0.533053
O O17 0.684545 0.471049 0.665842
O O18 0.713084 0.750000 0.699655
#
# Coordination Sequence:
#
# PCOD8076073 Si02
#       7
#     4   4   4   4   4   4   4
#     4  10  21  38  58  80 112 151 185 225 281 336
#     4   9  19  37  59  81 107 141 181 223 271 328
#     4  10  21  37  58  84 111 144 189 233 273 326
#     4  11  23  37  56  82 112 145 181 224 271 322
#     4   9  20  39  59  80 109 145 182 222 276 335
#     4  10  21  38  59  83 114 150 183 223 279 334
#     4  11  22  36  58  86 112 142 186 236 276 321
#
# _framework density 19.448729
#
# number of rings (size 3 to 8) (size 9 to 14) (size 15 to 20)
#    0.000    2.000    0.000    4.286    0.000    7.429 
#    0.000    1.429    0.000    0.000    0.000    0.000 
#    0.000    0.000    0.000    0.000    0.000    0.000 
#
# Total GULP energy -347340.236532 kJ/mol
# GULP energy per Si atom -12405.008448 kJ/mol
# Density = 1.940446 g / cm^3
# Si number density = 19.448729 Si / 1000 Ang^3
#
#
#
# Elastic Constant Matrix: (Units=GPa)
#
#
# Indices 1 2 3 4 5 6 
#
# 1 37.6886 18.2952 1.6483 0.0000 -0.8003 0.0000
# 2 18.2952 64.4823 31.7572 0.0000 -5.0798 0.0000
# 3 1.6483 31.7572 95.6117 0.0000 -0.6998 0.0000
# 4 0.0000 0.0000 0.0000 35.3773 0.0000 2.0149
# 5 -0.8003 -5.0798 -0.6998 0.0000 16.8939 0.0000
# 6 0.0000 0.0000 0.0000 2.0149 0.0000 31.4861
#
#
#
# Elastic Compliance Matrix: (Units=1/GPa)
#
#
# Indices 1 2 3 4 5 6 
#
# 1 0.031466 -0.010493 0.002931 0.000000 -0.001543 0.000000
# 2 -0.010493 0.022531 -0.007259 0.000000 0.005977 0.000000
# 3 0.002931 -0.007259 0.012808 0.000000 -0.001513 0.000000
# 4 0.000000 0.000000 0.000000 0.028370 0.000000 -0.001815
# 5 -0.001543 0.005977 -0.001513 0.000000 0.060855 0.000000
# 6 0.000000 0.000000 0.000000 -0.001815 0.000000 0.031876
#
#
# Mechanical properties :
#
#
# Convention : Reuss Voigt Hill
#
# Bulk Modulus (GPa) = 26.90750 33.46493 30.18621
# Shear Modulus (GPa) = 21.74523 26.49023 24.11773
#
# Velocity S-wave (km/s) = 3.34740 3.69461 3.52528
# Velocity P-wave (km/s) = 5.36705 5.95351 5.66787
#
# Compressibility (1/GPa) = 0.03716437
#
# Stress axis : x y z
#
# Youngs Moduli (GPa) = 31.78051 44.38302 78.07359
#
# Poissons Ratio (x) = 0.46571 -0.22887
# Poissons Ratio (y) = 0.33347 0.56674
# Poissons Ratio (z) = -0.09316 0.32218
#
# Static dielectric constant tensor:
#      x y z
#    x 3.562830 0.000000 -0.113480 
#    y 0.000000 3.489570 0.000000 
#    z -0.113480 0.000000 3.437230 
# 
# 
# High freq. dielectric constant tensor:
#      x y z
#    x 1.755870 0.000000 -0.004850 
#    y 0.000000 1.762680 0.000000 
#    z -0.004850 0.000000 1.756100 
# 
# From -- ./inp_files/28442.got.cif
#   From: 2010.06.25/outbox.cif.g09.slc.cpg/sg11_15_cif.got.tgz:28442.got - 2010.06.27 23:14:04.
