data_PCOD8076895
_publ_section_title
;
Structure prediction by ZEFSAII (Michael W. Deem and Ramdas Pophale) SiO2 
 PCOD8076895
Probable space group: P 21/M
;
_chemical_formula_sum "Si O2"
_cell_formula_units_Z 20
_cell_length_a 9.628762
_cell_length_b 8.753381
_cell_length_c 12.018750
_cell_angle_alpha 90.000000
_cell_angle_beta 103.412359
_cell_angle_gamma 90.000000
_cell_volume 985.362545
_symmetry_space_group_name_H-M "P 21/M"
_symmetry_group_IT_number 11
_symmetry_cell_setting 'monoclinic'
loop_
_space_group_symop_operation_xyz
x,y,z
-x,1/2+y,-z
-x,-y,-z
x,1/2-y,z
loop_
_atom_site_type_symbol
_atom_site_label
_atom_site_fract_x
_atom_site_fract_y
_atom_site_fract_z
Si Si1 0.846192 0.070547 0.472121
Si Si2 0.726226 0.429098 0.208948
Si Si3 0.142225 0.430901 0.973458
Si Si4 0.370486 0.068931 0.409435
Si Si5 0.406907 0.068774 0.167251
O O1 0.851809 0.250000 0.494046
O O2 0.763307 0.031831 0.343074
O O3 0.774205 0.989137 0.563225
O O4 0.000000 0.000000 0.500000
O O5 0.742990 0.250000 0.188725
O O6 0.837565 0.517271 0.150338
O O7 0.563801 0.486943 0.156254
O O8 0.129908 0.250000 0.978404
O O9 0.281977 0.493969 0.064428
O O10 0.000000 0.500000 0.000000
O O11 0.380451 0.250000 0.415027
O O12 0.375331 0.006913 0.284646
O O13 0.500000 0.000000 0.500000
O O14 0.406427 0.250000 0.168425
#
# Coordination Sequence:
#
# PCOD8076895 Si02
#       5
#     4   4   4   4   4
#     4  11  24  41  62  91 127 165 203 252 309 365
#     4  10  21  42  65  86 119 161 201 248 305 361
#     4  11  24  41  62  90 121 157 202 252 304 361
#     4  11  21  39  64  93 125 162 204 248 304 367
#     4   9  20  40  64  87 119 160 198 244 305 359
#
# _framework density 20.297097999999998
#
# number of rings (size 3 to 8) (size 9 to 14) (size 15 to 20)
#    0.000    1.600    2.000    2.400    2.800    1.600 
#    0.000    4.000    0.000    0.000    0.000    0.000 
#    0.000    0.000    0.000    0.000    0.000    0.000 
#
# Total GULP energy -248041.511922 kJ/mol
# GULP energy per Si atom -12402.075596 kJ/mol
# Density = 2.025090 g / cm^3
# Si number density = 20.297098 Si / 1000 Ang^3
#
#
#
# Elastic Constant Matrix: (Units=GPa)
#
#
# Indices 1 2 3 4 5 6 
#
# 1 145.4612 31.3541 27.9187 0.0000 -14.3407 0.0000
# 2 31.3541 64.8435 30.7951 0.0000 -4.8972 0.0000
# 3 27.9187 30.7951 71.8993 0.0000 -15.9019 0.0000
# 4 0.0000 0.0000 0.0000 31.7164 0.0000 -3.2813
# 5 -14.3407 -4.8972 -15.9019 0.0000 45.1839 0.0000
# 6 0.0000 0.0000 0.0000 -3.2813 0.0000 39.0195
#
#
#
# Elastic Compliance Matrix: (Units=1/GPa)
#
#
# Indices 1 2 3 4 5 6 
#
# 1 0.007972 -0.003057 -0.001410 0.000000 0.001703 0.000000
# 2 -0.003057 0.020565 -0.007963 0.000000 -0.001544 0.000000
# 3 -0.001410 -0.007963 0.019060 0.000000 0.005397 0.000000
# 4 0.000000 0.000000 0.000000 0.031806 0.000000 0.002675
# 5 0.001703 -0.001544 0.005397 0.000000 0.024405 0.000000
# 6 0.000000 0.000000 0.000000 0.002675 0.000000 0.025853
#
#
# Mechanical properties :
#
#
# Convention : Reuss Voigt Hill
#
# Bulk Modulus (GPa) = 43.97777 51.37108 47.67442
# Shear Modulus (GPa) = 30.84560 35.99304 33.41932
#
# Velocity S-wave (km/s) = 3.90257 4.21564 4.06212
# Velocity P-wave (km/s) = 6.48234 7.00428 6.74836
#
# Compressibility (1/GPa) = 0.02273876
#
# Stress axis : x y z
#
# Youngs Moduli (GPa) = 125.43925 48.62714 52.46613
#
# Poissons Ratio (x) = 0.14863 0.07397
# Poissons Ratio (y) = 0.38342 0.41776
# Poissons Ratio (z) = 0.17684 0.38719
#
# Static dielectric constant tensor:
#      x y z
#    x 3.325790 0.000000 2.331720 
#    y 0.000000 3.507910 0.000000 
#    z 2.331720 0.000000 -3.795810 
# 
# 
# High freq. dielectric constant tensor:
#      x y z
#    x 1.810590 0.000000 -0.005950 
#    y 0.000000 1.777880 0.000000 
#    z -0.005950 0.000000 1.802090 
# 
# From -- ./inp_files/15917.got.cif
#   From: 2010.06.25/outbox.cif.g09.slc.cpg/sg11_8_cif.got.tgz:15917.got - 2010.06.27 23:14:04.
