data_PCOD8076838
_publ_section_title
;
Structure prediction by ZEFSAII (Michael W. Deem and Ramdas Pophale) SiO2 
 PCOD8076838
Probable space group: P 21/M
;
_chemical_formula_sum "Si O2"
_cell_formula_units_Z 32
_cell_length_a 15.422896
_cell_length_b 9.138279
_cell_length_c 25.897190
_cell_angle_alpha 90.000000
_cell_angle_beta 152.792121
_cell_angle_gamma 90.000000
_cell_volume 1668.815883
_symmetry_space_group_name_H-M "P 21/M"
_symmetry_group_IT_number 11
_symmetry_cell_setting 'monoclinic'
loop_
_space_group_symop_operation_xyz
x,y,z
-x,1/2+y,-z
-x,-y,-z
x,1/2-y,z
loop_
_atom_site_type_symbol
_atom_site_label
_atom_site_fract_x
_atom_site_fract_y
_atom_site_fract_z
Si Si1 0.489020 0.422578 0.939582
Si Si2 0.237144 0.920342 0.728472
Si Si3 0.856511 0.578251 0.962236
Si Si4 0.425100 0.582552 0.721083
Si Si5 0.250338 0.419457 0.331454
Si Si6 0.139382 0.919823 0.927777
Si Si7 0.399338 0.077730 0.520358
Si Si8 0.191426 0.422641 0.511758
O O1 0.469594 0.250000 0.937382
O O2 0.305465 0.483926 0.812884
O O3 0.500000 0.500000 0.000000
O O4 0.674123 0.464312 0.004722
O O5 0.239588 0.750000 0.745827
O O6 0.374928 0.952391 0.753612
O O7 0.026483 0.972738 0.602154
O O8 0.900128 0.750000 0.986597
O O9 0.645661 0.546617 0.829549
O O10 0.881304 0.516947 0.032583
O O11 0.000000 0.500000 0.000000
O O12 0.378337 0.750000 0.683170
O O13 0.298336 0.483354 0.617761
O O14 0.298450 0.250000 0.349736
O O15 0.392664 0.506909 0.369726
O O16 0.280136 0.468249 0.406553
O O17 0.036138 0.455432 0.202628
O O18 0.143173 0.750000 0.946191
O O19 0.426062 0.250000 0.537919
O O20 0.286804 0.016440 0.510075
O O21 0.207271 0.250000 0.522669
#
# Coordination Sequence:
#
# PCOD8076838 Si02
#       8
#     4   4   4   4   4   4   4   4
#     4  11  24  40  63  92 123 160 201 249 300 360
#     4  10  21  41  63  85 117 155 195 245 300 354
#     4  11  24  41  62  89 122 160 199 248 301 357
#     4  10  22  40  60  84 117 153 194 245 298 351
#     4   9  19  36  58  80 112 151 188 232 287 342
#     4  10  22  40  63  90 118 157 201 245 299 356
#     4   9  19  36  55  83 114 147 189 234 285 342
#     4  10  22  36  60  88 114 151 195 242 295 354
#
# _framework density 19.175273000000001
#
# number of rings (size 3 to 8) (size 9 to 14) (size 15 to 20)
#    0.000    2.000    1.250    1.125    3.500    3.500 
#    0.000    0.000    0.000    0.000    0.000    0.000 
#    0.000    0.000    0.000    0.000    0.000    0.000 
#
# Total GULP energy -396938.487629 kJ/mol
# GULP energy per Si atom -12404.327738 kJ/mol
# Density = 1.913163 g / cm^3
# Si number density = 19.175273 Si / 1000 Ang^3
#
#
#
# Elastic Constant Matrix: (Units=GPa)
#
#
# Indices 1 2 3 4 5 6 
#
# 1 100.7218 44.5062 41.0176 0.0000 -1.2999 0.0000
# 2 44.5062 58.8492 45.5084 0.0000 -5.0034 0.0000
# 3 41.0176 45.5084 118.5378 0.0000 -4.3633 0.0000
# 4 0.0000 0.0000 0.0000 35.4190 0.0000 -4.6472
# 5 -1.2999 -5.0034 -4.3633 0.0000 28.3380 0.0000
# 6 0.0000 0.0000 0.0000 -4.6472 0.0000 32.6993
#
#
#
# Elastic Compliance Matrix: (Units=1/GPa)
#
#
# Indices 1 2 3 4 5 6 
#
# 1 0.015080 -0.010591 -0.001202 0.000000 -0.001363 0.000000
# 2 -0.010591 0.031837 -0.008417 0.000000 0.003840 0.000000
# 3 -0.001202 -0.008417 0.012095 0.000000 0.000321 0.000000
# 4 0.000000 0.000000 0.000000 0.028770 0.000000 0.004089
# 5 -0.001363 0.003840 0.000321 0.000000 0.035953 0.000000
# 6 0.000000 0.000000 0.000000 0.004089 0.000000 0.031163
#
#
# Mechanical properties :
#
#
# Convention : Reuss Voigt Hill
#
# Bulk Modulus (GPa) = 53.78409 60.01924 56.90167
# Shear Modulus (GPa) = 24.81188 29.09638 26.95413
#
# Velocity S-wave (km/s) = 3.60106 3.89960 3.75330
# Velocity P-wave (km/s) = 6.73793 7.18638 6.96577
#
# Compressibility (1/GPa) = 0.01859286
#
# Stress axis : x y z
#
# Youngs Moduli (GPa) = 66.31188 31.40962 82.67673
#
# Poissons Ratio (x) = 0.33266 0.09941
# Poissons Ratio (y) = 0.70231 0.69587
# Poissons Ratio (z) = 0.07973 0.26437
#
# Static dielectric constant tensor:
#      x y z
#    x 3.767150 0.000000 0.121600 
#    y 0.000000 2.771270 0.000000 
#    z 0.121600 0.000000 3.578780 
# 
# 
# High freq. dielectric constant tensor:
#      x y z
#    x 1.753770 0.000000 0.002310 
#    y 0.000000 1.740700 0.000000 
#    z 0.002310 0.000000 1.756390 
# 
# From -- ./inp_files/55639.got.cif
#   From: 2010.06.25/outbox.cif.g09.slc.cpg/sg11_28_cif.got.tgz:55639.got - 2010.06.27 23:14:04.
