data_PCOD8076557
_publ_section_title
;
Structure prediction by ZEFSAII (Michael W. Deem and Ramdas Pophale) SiO2 
 PCOD8076557
Probable space group: P 21/M
;
_chemical_formula_sum "Si O2"
_cell_formula_units_Z 28
_cell_length_a 19.080799
_cell_length_b 13.063102
_cell_length_c 5.265532
_cell_angle_alpha 90.000000
_cell_angle_beta 67.330868
_cell_angle_gamma 90.000000
_cell_volume 1211.064398
_symmetry_space_group_name_H-M "P 21/M"
_symmetry_group_IT_number 11
_symmetry_cell_setting 'monoclinic'
loop_
_space_group_symop_operation_xyz
x,y,z
-x,1/2+y,-z
-x,-y,-z
x,1/2-y,z
loop_
_atom_site_type_symbol
_atom_site_label
_atom_site_fract_x
_atom_site_fract_y
_atom_site_fract_z
Si Si1 0.409990 0.871510 0.817866
Si Si2 0.289460 0.990574 0.718382
Si Si3 0.850083 0.129695 0.202264
Si Si4 0.645042 0.863299 0.735564
Si Si5 0.505949 0.131541 0.802308
Si Si6 0.086618 0.969423 0.399963
Si Si7 0.202891 0.136405 0.177187
O O1 0.396636 0.750000 0.845083
O O2 0.464875 0.906682 0.510268
O O3 0.328493 0.926824 0.893412
O O4 0.449094 0.916725 0.017809
O O5 0.356856 0.044408 0.463787
O O6 0.235919 0.912781 0.634487
O O7 0.234285 0.080834 0.885090
O O8 0.845153 0.250000 0.178364
O O9 0.901412 0.103926 0.374844
O O10 0.886292 0.084746 0.895095
O O11 0.623533 0.750000 0.648966
O O12 0.730169 0.857928 0.714370
O O13 0.584590 0.888950 0.043682
O O14 0.525098 0.250000 0.793661
O O15 0.132636 0.073903 0.389678
O O16 0.000000 0.000000 0.500000
O O17 0.174894 0.250000 0.141978
#
# Coordination Sequence:
#
# PCOD8076557 Si02
#       7
#     4   4   4   4   4   4   4
#     4  10  22  39  59  86 124 165 214 273 330 379
#     4  11  23  38  63  91 126 170 222 268 321 391
#     4  11  24  44  70 101 138 176 216 263 324 387
#     4  10  21  39  61  84 121 169 217 270 327 383
#     4   9  21  38  57  84 120 165 216 272 327 384
#     4  11  24  46  72 105 136 171 216 267 316 396
#     4  10  23  42  64  94 130 172 216 268 326 387
#
# _framework density 23.120159000000001
#
# number of rings (size 3 to 8) (size 9 to 14) (size 15 to 20)
#    0.000    1.714    1.429    1.714    4.000    2.286 
#    0.000    2.857    0.000    0.000    0.000    0.000 
#    0.000    0.000    0.000    0.000    0.000    0.000 
#
# Total GULP energy -347147.645325 kJ/mol
# GULP energy per Si atom -12398.130190 kJ/mol
# Density = 2.306754 g / cm^3
# Si number density = 23.120159 Si / 1000 Ang^3
#
#
#
# Elastic Constant Matrix: (Units=GPa)
#
#
# Indices 1 2 3 4 5 6 
#
# 1 57.7706 20.3444 -21.1771 0.0000 -4.2394 0.0000
# 2 20.3444 125.4808 22.3738 0.0000 -11.2669 0.0000
# 3 -21.1771 22.3738 57.7775 0.0000 9.2108 0.0000
# 4 0.0000 0.0000 0.0000 24.6827 0.0000 4.4447
# 5 -4.2394 -11.2669 9.2108 0.0000 35.0036 0.0000
# 6 0.0000 0.0000 0.0000 4.4447 0.0000 32.5903
#
#
#
# Elastic Compliance Matrix: (Units=1/GPa)
#
#
# Indices 1 2 3 4 5 6 
#
# 1 0.023369 -0.005969 0.011202 0.000000 -0.002039 0.000000
# 2 -0.005969 0.010595 -0.007013 0.000000 0.004533 0.000000
# 3 0.011202 -0.007013 0.025336 0.000000 -0.007567 0.000000
# 4 0.000000 0.000000 0.000000 0.041534 0.000000 -0.005664
# 5 -0.002039 0.004533 -0.007567 0.000000 0.031772 0.000000
# 6 0.000000 0.000000 0.000000 -0.005664 0.000000 0.031456
#
#
# Mechanical properties :
#
#
# Convention : Reuss Voigt Hill
#
# Bulk Modulus (GPa) = 17.94113 31.56788 24.75450
# Shear Modulus (GPa) = 26.85262 33.08787 29.97025
#
# Velocity S-wave (km/s) = 3.41168 3.78713 3.60430
# Velocity P-wave (km/s) = 4.82662 5.72770 5.29636
#
# Compressibility (1/GPa) = 0.05573785
#
# Stress axis : x y z
#
# Youngs Moduli (GPa) = 42.79250 94.38781 39.47003
#
# Poissons Ratio (x) = 0.56342 -0.44213
# Poissons Ratio (y) = 0.25544 0.27681
# Poissons Ratio (z) = -0.47935 0.66195
#
# Static dielectric constant tensor:
#      x y z
#    x 4.066340 0.000000 0.005460 
#    y 0.000000 4.565610 0.000000 
#    z 0.005460 0.000000 4.119330 
# 
# 
# High freq. dielectric constant tensor:
#      x y z
#    x 1.904140 0.000000 0.003760 
#    y 0.000000 1.937010 0.000000 
#    z 0.003760 0.000000 1.903510 
# 
# From -- ./inp_files/7895.got.cif
#   From: 2010.06.25/outbox.cif.g09.slc.cpg/sg11_4_cif.got.tgz:7895.got - 2010.06.27 23:14:04.
