data_PCOD8076433
_publ_section_title
;
Structure prediction by ZEFSAII (Michael W. Deem and Ramdas Pophale) SiO2 
 PCOD8076433
Probable space group: P 21/M
;
_chemical_formula_sum "Si O2"
_cell_formula_units_Z 24
_cell_length_a 11.881251
_cell_length_b 9.004461
_cell_length_c 11.841097
_cell_angle_alpha 90.000000
_cell_angle_beta 92.136622
_cell_angle_gamma 90.000000
_cell_volume 1265.930287
_symmetry_space_group_name_H-M "P 21/M"
_symmetry_group_IT_number 11
_symmetry_cell_setting 'monoclinic'
loop_
_space_group_symop_operation_xyz
x,y,z
-x,1/2+y,-z
-x,-y,-z
x,1/2-y,z
loop_
_atom_site_type_symbol
_atom_site_label
_atom_site_fract_x
_atom_site_fract_y
_atom_site_fract_z
Si Si1 0.523702 0.575234 0.330616
Si Si2 0.412011 0.074786 0.914759
Si Si3 0.042063 0.921647 0.175105
Si Si4 0.333853 0.075746 0.450316
Si Si5 0.168372 0.421199 0.989603
Si Si6 0.922204 0.573967 0.589783
O O1 0.505720 0.750000 0.330451
O O2 0.566689 0.517901 0.211463
O O3 0.616602 0.526882 0.426515
O O4 0.403572 0.501502 0.352789
O O5 0.426558 0.250000 0.923154
O O6 0.287336 0.025444 0.945620
O O7 0.500000 0.000000 0.000000
O O8 0.064138 0.750000 0.205041
O O9 0.921934 0.946001 0.112180
O O10 0.039197 0.018174 0.287197
O O11 0.141035 0.978809 0.097097
O O12 0.344337 0.250000 0.431866
O O13 0.205437 0.022791 0.438855
O O14 0.170355 0.250000 0.028630
O O15 0.935120 0.750000 0.583453
O O16 0.000000 0.500000 0.500000
#
# Coordination Sequence:
#
# PCOD8076433 Si02
#       6
#     4   4   4   4   4   4
#     4   9  19  37  60  83 110 146 189 232 279 334
#     4  10  22  37  57  84 114 149 189 234 282 333
#     4  10  21  38  62  86 114 151 191 235 286 339
#     4   9  20  38  60  82 111 149 186 228 282 338
#     4   9  20  39  61  83 114 154 192 233 286 342
#     4  11  24  39  59  87 118 150 190 235 284 339
#
# _framework density 18.958389
#
# number of rings (size 3 to 8) (size 9 to 14) (size 15 to 20)
#    0.000    2.333    0.000    1.000    4.667    3.333 
#    0.000    0.000    0.000    0.000    0.000    0.000 
#    0.000    0.000    0.000    0.000    0.000    0.000 
#
# Total GULP energy -297694.051761 kJ/mol
# GULP energy per Si atom -12403.918823 kJ/mol
# Density = 1.891524 g / cm^3
# Si number density = 18.958389 Si / 1000 Ang^3
#
#
#
# Elastic Constant Matrix: (Units=GPa)
#
#
# Indices 1 2 3 4 5 6 
#
# 1 152.4204 49.7099 77.4407 0.0000 -24.8554 0.0000
# 2 49.7099 53.0793 44.8919 0.0000 -7.1823 0.0000
# 3 77.4407 44.8919 139.2189 0.0000 -20.9470 0.0000
# 4 0.0000 0.0000 0.0000 36.8583 0.0000 -1.5702
# 5 -24.8554 -7.1823 -20.9470 0.0000 27.3986 0.0000
# 6 0.0000 0.0000 0.0000 -1.5702 0.0000 32.9368
#
#
#
# Elastic Compliance Matrix: (Units=1/GPa)
#
#
# Indices 1 2 3 4 5 6 
#
# 1 0.011548 -0.007332 -0.003133 0.000000 0.006159 0.000000
# 2 -0.007332 0.030565 -0.006297 0.000000 -0.003453 0.000000
# 3 -0.003133 -0.006297 0.011616 0.000000 0.004388 0.000000
# 4 0.000000 0.000000 0.000000 0.027186 0.000000 0.001296
# 5 0.006159 -0.003453 0.004388 0.000000 0.044535 0.000000
# 6 0.000000 0.000000 0.000000 0.001296 0.000000 0.030423
#
#
# Mechanical properties :
#
#
# Convention : Reuss Voigt Hill
#
# Bulk Modulus (GPa) = 49.49098 76.53375 63.01236
# Shear Modulus (GPa) = 25.49303 30.95050 28.22176
#
# Velocity S-wave (km/s) = 3.67097 4.04486 3.86244
# Velocity P-wave (km/s) = 6.64302 7.89123 7.29388
#
# Compressibility (1/GPa) = 0.02020570
#
# Stress axis : x y z
#
# Youngs Moduli (GPa) = 86.59454 32.71739 86.08667
#
# Poissons Ratio (x) = 0.23989 0.26968
# Poissons Ratio (y) = 0.63493 0.54208
# Poissons Ratio (z) = 0.27127 0.20602
#
# Static dielectric constant tensor:
#      x y z
#    x 3.614510 0.000000 -0.011200 
#    y 0.000000 3.443160 0.000000 
#    z -0.011200 0.000000 3.721160 
# 
# 
# High freq. dielectric constant tensor:
#      x y z
#    x 1.744860 0.000000 -0.002680 
#    y 0.000000 1.733180 0.000000 
#    z -0.002680 0.000000 1.745450 
# 
# From -- ./inp_files/33806.got.cif
#   From: 2010.06.25/outbox.cif.g09.slc.cpg/sg11_17_cif.got.tgz:33806.got - 2010.06.27 23:14:04.
