data_PCOD8076596
_publ_section_title
;
Structure prediction by ZEFSAII (Michael W. Deem and Ramdas Pophale) SiO2 
 PCOD8076596
Probable space group: P 21/M
;
_chemical_formula_sum "Si O2"
_cell_formula_units_Z 32
_cell_length_a 12.229377
_cell_length_b 8.652465
_cell_length_c 32.024420
_cell_angle_alpha 90.000000
_cell_angle_beta 28.064982
_cell_angle_gamma 90.000000
_cell_volume 1594.262549
_symmetry_space_group_name_H-M "P 21/M"
_symmetry_group_IT_number 11
_symmetry_cell_setting 'monoclinic'
loop_
_space_group_symop_operation_xyz
x,y,z
-x,1/2+y,-z
-x,-y,-z
x,1/2-y,z
loop_
_atom_site_type_symbol
_atom_site_label
_atom_site_fract_x
_atom_site_fract_y
_atom_site_fract_z
Si Si1 0.257494 0.567334 0.032915
Si Si2 0.464450 0.072451 0.253669
Si Si3 0.989408 0.071665 0.370824
Si Si4 0.870087 0.067796 0.320054
Si Si5 0.386752 0.430587 0.445408
Si Si6 0.938939 0.931686 0.065171
Si Si7 0.217245 0.433014 0.133620
Si Si8 0.745831 0.068100 0.592671
O O1 0.237439 0.750000 0.042189
O O2 0.145288 0.499198 0.112836
O O3 0.117373 0.503321 0.040070
O O4 0.525116 0.512884 0.939541
O O5 0.540538 0.250000 0.232852
O O6 0.262181 0.055157 0.287563
O O7 0.678671 0.973086 0.165555
O O8 0.377739 0.011020 0.326959
O O9 0.908833 0.250000 0.402014
O O10 0.939637 0.001819 0.341829
O O11 0.850417 0.970390 0.451019
O O12 0.905776 0.250000 0.308674
O O13 0.604670 0.021542 0.400553
O O14 0.038769 0.997837 0.227780
O O15 0.389566 0.250000 0.433218
O O16 0.407582 0.528912 0.396120
O O17 0.965154 0.750000 0.053107
O O18 0.000000 0.000000 0.000000
O O19 0.200877 0.250000 0.136494
O O20 0.762574 0.250000 0.594355
O O21 0.000000 0.000000 0.500000
#
# Coordination Sequence:
#
# PCOD8076596 Si02
#       8
#     4   4   4   4   4   4   4   4
#     4   9  20  38  60  85 117 152 193 244 301 357
#     4  11  24  41  65  93 123 165 209 253 310 370
#     4  10  21  39  62  85 118 162 206 248 304 366
#     4   9  20  36  59  89 116 154 203 249 299 359
#     4  11  22  37  59  89 125 159 202 251 303 362
#     4  11  25  43  64  93 127 163 205 255 309 368
#     4   9  18  36  62  86 112 150 195 244 298 359
#     4  12  24  41  64  91 125 164 208 257 309 367
#
# _framework density 20.071975999999999
#
# number of rings (size 3 to 8) (size 9 to 14) (size 15 to 20)
#    0.000    1.750    1.250    2.625    3.500    1.500 
#    0.000    1.875    0.000    0.000    0.000    0.000 
#    0.000    0.000    0.000    0.000    0.000    0.000 
#
# Total GULP energy -396916.826735 kJ/mol
# GULP energy per Si atom -12403.650835 kJ/mol
# Density = 2.002629 g / cm^3
# Si number density = 20.071976 Si / 1000 Ang^3
#
#
#
# Elastic Constant Matrix: (Units=GPa)
#
#
# Indices 1 2 3 4 5 6 
#
# 1 152.0278 24.8762 43.3098 0.0000 8.7976 0.0000
# 2 24.8762 32.4485 5.6529 0.0000 -3.0638 0.0000
# 3 43.3098 5.6529 102.8427 0.0000 7.6225 0.0000
# 4 0.0000 0.0000 0.0000 30.5620 0.0000 3.7655
# 5 8.7976 -3.0638 7.6225 0.0000 32.2101 0.0000
# 6 0.0000 0.0000 0.0000 3.7655 0.0000 29.4637
#
#
#
# Elastic Compliance Matrix: (Units=1/GPa)
#
#
# Indices 1 2 3 4 5 6 
#
# 1 0.008622 -0.006275 -0.003122 0.000000 -0.002213 0.000000
# 2 -0.006275 0.036058 0.000284 0.000000 0.005076 0.000000
# 3 -0.003122 0.000284 0.011153 0.000000 -0.001760 0.000000
# 4 0.000000 0.000000 0.000000 0.033244 0.000000 -0.004249
# 5 -0.002213 0.005076 -0.001760 0.000000 0.032550 0.000000
# 6 0.000000 0.000000 0.000000 -0.004249 0.000000 0.034483
#
#
# Mechanical properties :
#
#
# Convention : Reuss Voigt Hill
#
# Bulk Modulus (GPa) = 26.58992 48.33297 37.46145
# Shear Modulus (GPa) = 26.75630 32.67915 29.71772
#
# Velocity S-wave (km/s) = 3.65501 4.03935 3.85198
# Velocity P-wave (km/s) = 5.57568 6.77401 6.20385
#
# Compressibility (1/GPa) = 0.03760823
#
# Stress axis : x y z
#
# Youngs Moduli (GPa) = 115.98276 27.73271 89.66090
#
# Poissons Ratio (x) = 0.17402 0.27992
# Poissons Ratio (y) = 0.72779 -0.02549
# Poissons Ratio (z) = 0.36210 -0.00788
#
# Static dielectric constant tensor:
#      x y z
#    x 4.036720 0.000000 0.086780 
#    y 0.000000 3.505330 0.000000 
#    z 0.086780 0.000000 3.809660 
# 
# 
# High freq. dielectric constant tensor:
#      x y z
#    x 1.800340 0.000000 0.002260 
#    y 0.000000 1.769360 0.000000 
#    z 0.002260 0.000000 1.786780 
# 
# From -- ./inp_files/73031.got.cif
#   From: 2010.06.25/outbox.cif.g09.slc.cpg/sg11_37_cif.got.tgz:73031.got - 2010.06.27 23:14:04.
