data_PCOD8076069
_publ_section_title
;
Structure prediction by ZEFSAII (Michael W. Deem and Ramdas Pophale) SiO2 
 PCOD8076069
Probable space group: P 21/M
;
_chemical_formula_sum "Si O2"
_cell_formula_units_Z 28
_cell_length_a 5.209895
_cell_length_b 9.020198
_cell_length_c 28.603285
_cell_angle_alpha 90.000000
_cell_angle_beta 109.173873
_cell_angle_gamma 90.000000
_cell_volume 1269.623582
_symmetry_space_group_name_H-M "P 21/M"
_symmetry_group_IT_number 11
_symmetry_cell_setting 'monoclinic'
loop_
_space_group_symop_operation_xyz
x,y,z
-x,1/2+y,-z
-x,-y,-z
x,1/2-y,z
loop_
_atom_site_type_symbol
_atom_site_label
_atom_site_fract_x
_atom_site_fract_y
_atom_site_fract_z
Si Si1 0.754381 0.077156 0.286590
Si Si2 0.791781 0.909414 0.423928
Si Si3 0.213299 0.580092 0.979646
Si Si4 0.358834 0.421168 0.348616
Si Si5 0.419767 0.072637 0.817574
Si Si6 0.757584 0.907884 0.526864
Si Si7 0.999106 0.078748 0.137623
O O1 0.752395 0.250000 0.271302
O O2 0.534295 0.043369 0.313046
O O3 0.050847 0.027907 0.322292
O O4 0.684570 0.972063 0.239495
O O5 0.794629 0.750000 0.397787
O O6 0.881120 0.880679 0.482748
O O7 0.497179 0.986696 0.399427
O O8 0.035665 0.019148 0.422495
O O9 0.246288 0.750000 0.997972
O O10 0.107722 0.571975 0.920997
O O11 0.500000 0.500000 0.000000
O O12 0.000000 0.500000 0.000000
O O13 0.376398 0.250000 0.362705
O O14 0.434371 0.250000 0.823102
O O15 0.713480 0.002335 0.843313
O O16 0.212821 0.007293 0.842878
O O17 0.680997 0.750000 0.545123
O O18 0.500000 0.000000 0.500000
O O19 0.029246 0.250000 0.156178
#
# Coordination Sequence:
#
# PCOD8076069 Si02
#       7
#     4   4   4   4   4   4   4
#     4  10  22  41  63  88 122 164 204 248 311 379
#     4  10  22  38  56  83 115 151 192 242 297 351
#     4  11  24  41  64  94 131 174 219 267 322 379
#     4  10  22  39  61  89 118 158 204 245 297 367
#     4  12  25  41  66  99 129 162 213 275 327 371
#     4  10  21  37  58  83 113 150 192 239 293 352
#     4  11  24  43  66  93 129 177 220 259 318 392
#
# _framework density 22.053782000000002
#
# number of rings (size 3 to 8) (size 9 to 14) (size 15 to 20)
#    0.000    1.429    0.000    4.714    2.000    9.714 
#    0.000    0.000    0.000    0.000    0.000    0.000 
#    0.000    0.000    0.000    0.000    0.000    0.000 
#
# Total GULP energy -347096.990136 kJ/mol
# GULP energy per Si atom -12396.321076 kJ/mol
# Density = 2.200359 g / cm^3
# Si number density = 22.053782 Si / 1000 Ang^3
#
#
#
# Elastic Constant Matrix: (Units=GPa)
#
#
# Indices 1 2 3 4 5 6 
#
# 1 129.8238 55.3870 35.0327 0.0000 18.6106 0.0000
# 2 55.3870 179.5425 47.3713 0.0000 27.3543 0.0000
# 3 35.0327 47.3713 95.5081 0.0000 12.8676 0.0000
# 4 0.0000 0.0000 0.0000 34.8029 0.0000 7.6449
# 5 18.6106 27.3543 12.8676 0.0000 41.4512 0.0000
# 6 0.0000 0.0000 0.0000 7.6449 0.0000 35.2394
#
#
#
# Elastic Compliance Matrix: (Units=1/GPa)
#
#
# Indices 1 2 3 4 5 6 
#
# 1 0.009468 -0.002003 -0.002175 0.000000 -0.002253 0.000000
# 2 -0.002003 0.007322 -0.002470 0.000000 -0.003165 0.000000
# 3 -0.002175 -0.002470 0.012672 0.000000 -0.001327 0.000000
# 4 0.000000 0.000000 0.000000 0.030171 0.000000 -0.006545
# 5 -0.002253 -0.003165 -0.001327 0.000000 0.027637 0.000000
# 6 0.000000 0.000000 0.000000 -0.006545 0.000000 0.029797
#
#
# Mechanical properties :
#
#
# Convention : Reuss Voigt Hill
#
# Bulk Modulus (GPa) = 61.86801 75.60626 68.73714
# Shear Modulus (GPa) = 36.83157 40.10425 38.46791
#
# Velocity S-wave (km/s) = 4.09109 4.26898 4.18099
# Velocity P-wave (km/s) = 7.10142 7.65873 7.38533
#
# Compressibility (1/GPa) = 0.01616344
#
# Stress axis : x y z
#
# Youngs Moduli (GPa) = 105.62441 136.57944 78.91238
#
# Poissons Ratio (x) = 0.27361 0.17167
# Poissons Ratio (y) = 0.21160 0.19493
# Poissons Ratio (z) = 0.22979 0.33738
#
# Static dielectric constant tensor:
#      x y z
#    x 4.262000 0.000000 -0.116630 
#    y 0.000000 4.470050 0.000000 
#    z -0.116630 0.000000 4.535420 
# 
# 
# High freq. dielectric constant tensor:
#      x y z
#    x 1.883330 0.000000 0.005780 
#    y 0.000000 1.880310 0.000000 
#    z 0.005780 0.000000 1.869990 
# 
# From -- ./inp_files/72625.got.cif
#   From: 2010.06.25/outbox.cif.g09.slc.cpg/sg11_37_cif.got.tgz:72625.got - 2010.06.27 23:14:04.
