data_PCOD8076508
_publ_section_title
;
Structure prediction by ZEFSAII (Michael W. Deem and Ramdas Pophale) SiO2 
 PCOD8076508
Probable space group: P 21/M
;
_chemical_formula_sum "Si O2"
_cell_formula_units_Z 24
_cell_length_a 11.237722
_cell_length_b 15.323303
_cell_length_c 18.877326
_cell_angle_alpha 90.000000
_cell_angle_beta 157.705212
_cell_angle_gamma 90.000000
_cell_volume 1233.208239
_symmetry_space_group_name_H-M "P 21/M"
_symmetry_group_IT_number 11
_symmetry_cell_setting 'monoclinic'
loop_
_space_group_symop_operation_xyz
x,y,z
-x,1/2+y,-z
-x,-y,-z
x,1/2-y,z
loop_
_atom_site_type_symbol
_atom_site_label
_atom_site_fract_x
_atom_site_fract_y
_atom_site_fract_z
Si Si1 0.710904 0.003101 0.546594
Si Si2 0.366746 0.003627 0.208893
Si Si3 0.619437 0.349187 0.248316
Si Si4 0.847947 0.653754 0.248143
Si Si5 0.291714 0.347758 0.672788
Si Si6 0.339619 0.913514 0.882999
O O1 0.482033 0.000698 0.353194
O O2 0.907869 0.092574 0.658458
O O3 0.500000 0.000000 0.500000
O O4 0.960905 0.922036 0.681624
O O5 0.485934 0.092487 0.238360
O O6 0.465603 0.915924 0.223820
O O7 0.000000 0.000000 0.000000
O O8 0.482238 0.250000 0.177315
O O9 0.543659 0.394488 0.132163
O O10 0.993100 0.345372 0.457703
O O11 0.996469 0.750000 0.332040
O O12 0.811551 0.616849 0.307284
O O13 0.500964 0.660173 0.020931
O O14 0.439866 0.250000 0.759764
O O15 0.500000 0.000000 0.000000
#
# Coordination Sequence:
#
# PCOD8076508 Si02
#       6
#     4   4   4   4   4   4
#     4  11  24  40  58  88 128 162 199 249 315 381
#     4  12  25  39  63  91 126 167 205 256 319 375
#     4  11  22  41  68  92 120 165 218 268 312 364
#     4  10  21  40  65  90 117 157 208 258 308 367
#     4  10  21  41  67  91 117 159 216 269 309 361
#     4  10  21  38  65  89 121 159 207 254 304 369
#
# _framework density 19.461434000000001
#
# number of rings (size 3 to 8) (size 9 to 14) (size 15 to 20)
#    0.000    1.333    3.333    3.000    7.000    0.667 
#    0.000    2.500    0.000    0.000    0.000    0.000 
#    0.000    0.000    0.000    0.000    0.000    0.000 
#
# Total GULP energy -297479.053080 kJ/mol
# GULP energy per Si atom -12394.960545 kJ/mol
# Density = 1.941714 g / cm^3
# Si number density = 19.461434 Si / 1000 Ang^3
#
#
#
# Elastic Constant Matrix: (Units=GPa)
#
#
# Indices 1 2 3 4 5 6 
#
# 1 142.6636 67.6689 53.3635 0.0000 -5.5541 0.0000
# 2 67.6689 116.8349 42.6514 0.0000 12.1838 0.0000
# 3 53.3635 42.6514 122.0581 0.0000 -3.1328 0.0000
# 4 0.0000 0.0000 0.0000 22.6616 0.0000 -6.2457
# 5 -5.5541 12.1838 -3.1328 0.0000 38.0748 0.0000
# 6 0.0000 0.0000 0.0000 -6.2457 0.0000 20.4528
#
#
#
# Elastic Compliance Matrix: (Units=1/GPa)
#
#
# Indices 1 2 3 4 5 6 
#
# 1 0.010790 -0.005599 -0.002680 0.000000 0.003145 0.000000
# 2 -0.005599 0.013184 -0.002293 0.000000 -0.005224 0.000000
# 3 -0.002680 -0.002293 0.010196 0.000000 0.001182 0.000000
# 4 0.000000 0.000000 0.000000 0.048183 0.000000 0.014713
# 5 0.003145 -0.005224 0.001182 0.000000 0.028492 0.000000
# 6 0.000000 0.000000 0.000000 0.014713 0.000000 0.053386
#
#
# Mechanical properties :
#
#
# Convention : Reuss Voigt Hill
#
# Bulk Modulus (GPa) = 76.77217 78.76934 77.77076
# Shear Modulus (GPa) = 26.35496 30.76271 28.55883
#
# Velocity S-wave (km/s) = 3.68396 3.98012 3.83490
# Velocity P-wave (km/s) = 7.59140 7.85393 7.72378
#
# Compressibility (1/GPa) = 0.01302555
#
# Stress axis : x y z
#
# Youngs Moduli (GPa) = 92.67602 75.85007 98.07547
#
# Poissons Ratio (x) = 0.42469 0.26286
# Poissons Ratio (y) = 0.51890 0.22490
# Poissons Ratio (z) = 0.24839 0.17393
#
# Static dielectric constant tensor:
#      x y z
#    x 3.531500 0.000000 -0.321800 
#    y 0.000000 4.083790 0.000000 
#    z -0.321800 0.000000 3.610060 
# 
# 
# High freq. dielectric constant tensor:
#      x y z
#    x 1.753650 0.000000 -0.027120 
#    y 0.000000 1.764710 0.000000 
#    z -0.027120 0.000000 1.757940 
# 
# From -- ./inp_files/25155.got.cif
#   From: 2010.06.25/outbox.cif.g09.slc.cpg/sg11_13_cif.got.tgz:25155.got - 2010.06.27 23:14:04.
