data_PCOD8076434
_publ_section_title
;
Structure prediction by ZEFSAII (Michael W. Deem and Ramdas Pophale) SiO2 
 PCOD8076434
Probable space group: P 21/M
;
_chemical_formula_sum "Si O2"
_cell_formula_units_Z 24
_cell_length_a 21.893757
_cell_length_b 9.004645
_cell_length_c 9.516748
_cell_angle_alpha 90.000000
_cell_angle_beta 43.752188
_cell_angle_gamma 90.000000
_cell_volume 1297.457578
_symmetry_space_group_name_H-M "P 21/M"
_symmetry_group_IT_number 11
_symmetry_cell_setting 'monoclinic'
loop_
_space_group_symop_operation_xyz
x,y,z
-x,1/2+y,-z
-x,-y,-z
x,1/2-y,z
loop_
_atom_site_type_symbol
_atom_site_label
_atom_site_fract_x
_atom_site_fract_y
_atom_site_fract_z
Si Si1 0.714699 0.075130 0.936787
Si Si2 0.091166 0.077321 0.881454
Si Si3 0.640081 0.419274 0.572229
Si Si4 0.532042 0.923733 0.305428
Si Si5 0.209060 0.920230 0.895107
Si Si6 0.244314 0.422920 0.409114
O O1 0.696871 0.250000 0.956709
O O2 0.766590 0.015951 0.715045
O O3 0.776141 0.036486 0.967643
O O4 0.621929 0.992486 0.100494
O O5 0.073943 0.250000 0.925963
O O6 0.158734 0.040183 0.644058
O O7 0.130290 0.019007 0.963591
O O8 0.000000 0.000000 0.000000
O O9 0.653231 0.250000 0.600684
O O10 0.539348 0.451610 0.698636
O O11 0.699158 0.451896 0.336828
O O12 0.667896 0.526405 0.653328
O O13 0.544140 0.750000 0.315889
O O14 0.500000 0.000000 0.500000
O O15 0.180145 0.750000 0.926787
O O16 0.253003 0.250000 0.359307
#
# Coordination Sequence:
#
# PCOD8076434 Si02
#       6
#     4   4   4   4   4   4
#     4  11  22  37  56  82 114 152 188 228 282 329
#     4  10  21  38  62  88 111 139 180 224 275 335
#     4   9  18  35  55  77 107 148 191 231 274 324
#     4  11  21  34  54  81 113 149 194 238 276 323
#     4   9  18  35  57  81 110 143 185 227 272 328
#     4  10  22  38  56  83 113 144 183 230 280 331
#
# _framework density 18.497714999999999
#
# number of rings (size 3 to 8) (size 9 to 14) (size 15 to 20)
#    0.000    2.000    1.667    2.000    0.000    5.333 
#    0.000    0.833    0.000    0.000    0.000    0.000 
#    0.000    0.000    0.000    0.000    0.000    0.000 
#
# Total GULP energy -297691.814350 kJ/mol
# GULP energy per Si atom -12403.825598 kJ/mol
# Density = 1.845561 g / cm^3
# Si number density = 18.497715 Si / 1000 Ang^3
#
#
#
# Elastic Constant Matrix: (Units=GPa)
#
#
# Indices 1 2 3 4 5 6 
#
# 1 146.5882 82.1356 65.5419 0.0000 0.8380 0.0000
# 2 82.1356 110.8363 53.8345 0.0000 -0.0320 0.0000
# 3 65.5419 53.8345 71.6638 0.0000 10.2590 0.0000
# 4 0.0000 0.0000 0.0000 33.6107 0.0000 1.2358
# 5 0.8380 -0.0320 10.2590 0.0000 33.4510 0.0000
# 6 0.0000 0.0000 0.0000 1.2358 0.0000 36.5895
#
#
#
# Elastic Compliance Matrix: (Units=1/GPa)
#
#
# Indices 1 2 3 4 5 6 
#
# 1 0.014187 -0.006383 -0.008501 0.000000 0.002246 0.000000
# 2 -0.006383 0.017466 -0.007643 0.000000 0.002521 0.000000
# 3 -0.008501 -0.007643 0.028701 0.000000 -0.008597 0.000000
# 4 0.000000 0.000000 0.000000 0.029789 0.000000 -0.001006
# 5 0.002246 0.002521 -0.008597 0.000000 0.032477 0.000000
# 6 0.000000 0.000000 0.000000 -0.001006 0.000000 0.027364
#
#
# Mechanical properties :
#
#
# Convention : Reuss Voigt Hill
#
# Bulk Modulus (GPa) = 65.36630 81.34581 73.35606
# Shear Modulus (GPa) = 24.98265 29.23533 27.10899
#
# Velocity S-wave (km/s) = 3.67901 3.97984 3.83238
# Velocity P-wave (km/s) = 7.31171 8.07406 7.70232
#
# Compressibility (1/GPa) = 0.01529840
#
# Stress axis : x y z
#
# Youngs Moduli (GPa) = 70.48908 57.25438 34.84190
#
# Poissons Ratio (x) = 0.36548 0.29619
# Poissons Ratio (y) = 0.44996 0.26631
# Poissons Ratio (z) = 0.59922 0.43761
#
# Static dielectric constant tensor:
#      x y z
#    x 3.453870 0.000000 0.100530 
#    y 0.000000 3.562560 0.000000 
#    z 0.100530 0.000000 3.377090 
# 
# 
# High freq. dielectric constant tensor:
#      x y z
#    x 1.721580 0.000000 0.007880 
#    y 0.000000 1.728450 0.000000 
#    z 0.007880 0.000000 1.700660 
# 
# From -- ./inp_files/20346.got.cif
#   From: 2010.06.25/outbox.cif.g09.slc.cpg/sg11_11_cif.got.tgz:20346.got - 2010.06.27 23:14:04.
