data_PCOD8076431
_publ_section_title
;
Structure prediction by ZEFSAII (Michael W. Deem and Ramdas Pophale) SiO2 
 PCOD8076431
Probable space group: P 21/M
;
_chemical_formula_sum "Si O2"
_cell_formula_units_Z 24
_cell_length_a 6.327891
_cell_length_b 21.112812
_cell_length_c 8.678743
_cell_angle_alpha 90.000000
_cell_angle_beta 80.939404
_cell_angle_gamma 90.000000
_cell_volume 1145.008811
_symmetry_space_group_name_H-M "P 21/M"
_symmetry_group_IT_number 11
_symmetry_cell_setting 'monoclinic'
loop_
_space_group_symop_operation_xyz
x,y,z
-x,1/2+y,-z
-x,-y,-z
x,1/2-y,z
loop_
_atom_site_type_symbol
_atom_site_label
_atom_site_fract_x
_atom_site_fract_y
_atom_site_fract_z
Si Si1 0.797161 0.678947 0.286673
Si Si2 0.046422 0.088332 0.167850
Si Si3 0.562859 0.903091 0.083250
Si Si4 0.338440 0.987916 0.712297
Si Si5 0.272155 0.420643 0.452813
Si Si6 0.175531 0.676860 0.023832
O O1 0.738494 0.750000 0.332304
O O2 0.644513 0.657131 0.167231
O O3 0.745879 0.643000 0.448567
O O4 0.040544 0.671237 0.198021
O O5 0.090111 0.088829 0.345238
O O6 0.860600 0.036173 0.162574
O O7 0.964958 0.155982 0.109197
O O8 0.264206 0.069301 0.056581
O O9 0.520340 0.961240 0.206283
O O10 0.360238 0.876149 0.014930
O O11 0.236794 0.019518 0.570015
O O12 0.492414 0.929289 0.649905
O O13 0.251672 0.750000 0.990586
#
# Coordination Sequence:
#
# PCOD8076431 Si02
#       6
#     4   4   4   4   4   4
#     4   9  20  39  61  83 109 151 199 239 286 343
#     4  11  22  37  58  87 118 152 190 237 293 344
#     4  10  21  38  62  85 114 152 194 241 289 343
#     4  10  22  39  58  87 120 155 194 234 286 347
#     4  10  22  37  58  87 121 154 190 238 288 344
#     4  10  22  40  61  85 113 148 196 245 289 341
#
# _framework density 20.960536000000001
#
# number of rings (size 3 to 8) (size 9 to 14) (size 15 to 20)
#    0.000    2.000    0.000    2.500    0.000   12.000 
#    0.000    2.500    0.000    0.000    0.000    0.000 
#    0.000    0.000    0.000    0.000    0.000    0.000 
#
# Total GULP energy -297442.998937 kJ/mol
# GULP energy per Si atom -12393.458289 kJ/mol
# Density = 2.091283 g / cm^3
# Si number density = 20.960536 Si / 1000 Ang^3
#
#
#
# Elastic Constant Matrix: (Units=GPa)
#
#
# Indices 1 2 3 4 5 6 
#
# 1 83.0122 55.3937 46.9676 0.0000 -3.4893 0.0000
# 2 55.3937 116.8841 61.8102 0.0000 -4.7773 0.0000
# 3 46.9676 61.8102 107.4050 0.0000 11.0037 0.0000
# 4 0.0000 0.0000 0.0000 29.9815 0.0000 -3.7880
# 5 -3.4893 -4.7773 11.0037 0.0000 38.2438 0.0000
# 6 0.0000 0.0000 0.0000 -3.7880 0.0000 32.0830
#
#
#
# Elastic Compliance Matrix: (Units=1/GPa)
#
#
# Indices 1 2 3 4 5 6 
#
# 1 0.019220 -0.006378 -0.004979 0.000000 0.002390 0.000000
# 2 -0.006378 0.014939 -0.006120 0.000000 0.003045 0.000000
# 3 -0.004979 -0.006120 0.015595 0.000000 -0.005706 0.000000
# 4 0.000000 0.000000 0.000000 0.033859 0.000000 0.003998
# 5 0.002390 0.003045 -0.005706 0.000000 0.028388 0.000000
# 6 0.000000 0.000000 0.000000 0.003998 0.000000 0.031641
#
#
# Mechanical properties :
#
#
# Convention : Reuss Voigt Hill
#
# Bulk Modulus (GPa) = 67.57218 70.62715 69.09966
# Shear Modulus (GPa) = 27.24355 29.60363 28.42359
#
# Velocity S-wave (km/s) = 3.60912 3.76220 3.68646
# Velocity P-wave (km/s) = 7.04808 7.25539 7.15249
#
# Compressibility (1/GPa) = 0.01479899
#
# Stress axis : x y z
#
# Youngs Moduli (GPa) = 52.02886 66.93860 64.12509
#
# Poissons Ratio (x) = 0.42694 0.31929
# Poissons Ratio (y) = 0.33184 0.39245
# Poissons Ratio (z) = 0.25906 0.40967
#
# Static dielectric constant tensor:
#      x y z
#    x 3.722470 0.000000 0.013910 
#    y 0.000000 3.669640 0.000000 
#    z 0.013910 0.000000 3.854830 
# 
# 
# High freq. dielectric constant tensor:
#      x y z
#    x 1.814610 0.000000 0.002550 
#    y 0.000000 1.812530 0.000000 
#    z 0.002550 0.000000 1.826000 
# 
# From -- ./inp_files/5321.got.cif
#   From: 2010.06.25/outbox.cif.g09.slc.cpg/sg11_3_cif.got.tgz:5321.got - 2010.06.27 23:14:04.
