data_PCOD8076167
_publ_section_title
;
Structure prediction by ZEFSAII (Michael W. Deem and Ramdas Pophale) SiO2 
 PCOD8076167
Probable space group: P 21/M
;
_chemical_formula_sum "Si O2"
_cell_formula_units_Z 24
_cell_length_a 10.228630
_cell_length_b 8.833029
_cell_length_c 13.883795
_cell_angle_alpha 90.000000
_cell_angle_beta 90.099594
_cell_angle_gamma 90.000000
_cell_volume 1254.396004
_symmetry_space_group_name_H-M "P 21/M"
_symmetry_group_IT_number 11
_symmetry_cell_setting 'monoclinic'
loop_
_space_group_symop_operation_xyz
x,y,z
-x,1/2+y,-z
-x,-y,-z
x,1/2-y,z
loop_
_atom_site_type_symbol
_atom_site_label
_atom_site_fract_x
_atom_site_fract_y
_atom_site_fract_z
Si Si1 0.368114 0.071598 0.460282
Si Si2 0.881115 0.428714 0.442912
Si Si3 0.883327 0.578216 0.052396
Si Si4 0.266249 0.073308 0.251114
Si Si5 0.984855 0.576202 0.261320
Si Si6 0.626149 0.572292 0.954009
O O1 0.370868 0.250000 0.477885
O O2 0.348645 0.033666 0.347109
O O3 0.500000 0.000000 0.500000
O O4 0.252398 0.000176 0.521402
O O5 0.877321 0.250000 0.457998
O O6 0.000000 0.500000 0.500000
O O7 0.903884 0.469569 0.332325
O O8 0.886316 0.750000 0.017592
O O9 0.899571 0.561387 0.165662
O O10 0.747110 0.506936 0.016470
O O11 0.000000 0.500000 0.000000
O O12 0.228107 0.250000 0.249097
O O13 0.354012 0.028733 0.158619
O O14 0.132904 0.978884 0.248112
O O15 0.989747 0.750000 0.297497
O O16 0.611514 0.750000 0.965856
O O17 0.500000 0.500000 0.000000
#
# Coordination Sequence:
#
# PCOD8076167 Si02
#       6
#     4   4   4   4   4   4
#     4  11  24  42  64  92 126 165 208 258 314 372
#     4  12  24  40  63  92 124 162 207 258 311 367
#     4  10  21  37  60  90 121 156 202 252 301 361
#     4  10  21  39  63  87 119 162 207 251 308 372
#     4  11  22  36  61  95 125 159 207 255 307 370
#     4  10  22  40  60  87 123 160 202 252 304 362
#
# _framework density 19.132714
#
# number of rings (size 3 to 8) (size 9 to 14) (size 15 to 20)
#    0.000    1.333    3.333    2.500    0.000    4.000 
#    0.000    3.333    0.000    0.000    0.000    0.000 
#    0.000    0.000    0.000    0.000    0.000    0.000 
#
# Total GULP energy -297629.167393 kJ/mol
# GULP energy per Si atom -12401.215308 kJ/mol
# Density = 1.908917 g / cm^3
# Si number density = 19.132714 Si / 1000 Ang^3
#
#
#
# Elastic Constant Matrix: (Units=GPa)
#
#
# Indices 1 2 3 4 5 6 
#
# 1 179.7069 60.8441 82.1111 0.0000 -7.3239 0.0000
# 2 60.8441 86.8450 50.4643 0.0000 -3.6235 0.0000
# 3 82.1111 50.4643 129.9800 0.0000 -9.5747 0.0000
# 4 0.0000 0.0000 0.0000 29.6325 0.0000 -5.8556
# 5 -7.3239 -3.6235 -9.5747 0.0000 37.1922 0.0000
# 6 0.0000 0.0000 0.0000 -5.8556 0.0000 37.3366
#
#
#
# Elastic Compliance Matrix: (Units=1/GPa)
#
#
# Indices 1 2 3 4 5 6 
#
# 1 0.008672 -0.003735 -0.004005 0.000000 0.000313 0.000000
# 2 -0.003735 0.016478 -0.004051 0.000000 -0.000173 0.000000
# 3 -0.004005 -0.004051 0.011935 0.000000 0.001889 0.000000
# 4 0.000000 0.000000 0.000000 0.034826 0.000000 0.005462
# 5 0.000313 -0.000173 0.001889 0.000000 0.027418 0.000000
# 6 0.000000 0.000000 0.000000 0.005462 0.000000 0.027640
#
#
# Mechanical properties :
#
#
# Convention : Reuss Voigt Hill
#
# Bulk Modulus (GPa) = 74.05427 87.04121 80.54774
# Shear Modulus (GPa) = 32.24692 34.37310 33.31001
#
# Velocity S-wave (km/s) = 4.10986 4.24318 4.17705
# Velocity P-wave (km/s) = 7.83012 8.34256 8.09040
#
# Compressibility (1/GPa) = 0.01350361
#
# Stress axis : x y z
#
# Youngs Moduli (GPa) = 115.31348 60.68558 83.78449
#
# Poissons Ratio (x) = 0.22668 0.33556
# Poissons Ratio (y) = 0.43074 0.33939
# Poissons Ratio (z) = 0.46183 0.24582
#
# Static dielectric constant tensor:
#      x y z
#    x 3.392030 0.000000 0.084530 
#    y 0.000000 3.907250 0.000000 
#    z 0.084530 0.000000 3.689240 
# 
# 
# High freq. dielectric constant tensor:
#      x y z
#    x 1.745770 0.000000 0.003580 
#    y 0.000000 1.748630 0.000000 
#    z 0.003580 0.000000 1.761290 
# 
# From -- ./inp_files/46459.got.cif
#   From: 2010.06.25/outbox.cif.g09.slc.cpg/sg11_24_cif.got.tgz:46459.got - 2010.06.27 23:14:04.
