data_PCOD8076940
_publ_section_title
;
Structure prediction by ZEFSAII (Michael W. Deem and Ramdas Pophale) SiO2 
 PCOD8076940
Probable space group: P 21/M
;
_chemical_formula_sum "Si O2"
_cell_formula_units_Z 32
_cell_length_a 11.251234
_cell_length_b 21.229444
_cell_length_c 12.134020
_cell_angle_alpha 90.000000
_cell_angle_beta 143.226927
_cell_angle_gamma 90.000000
_cell_volume 1735.059815
_symmetry_space_group_name_H-M "P 21/M"
_symmetry_group_IT_number 11
_symmetry_cell_setting 'monoclinic'
loop_
_space_group_symop_operation_xyz
x,y,z
-x,1/2+y,-z
-x,-y,-z
x,1/2-y,z
loop_
_atom_site_type_symbol
_atom_site_label
_atom_site_fract_x
_atom_site_fract_y
_atom_site_fract_z
Si Si1 0.409796 0.358998 0.795290
Si Si2 0.847132 0.320417 0.111292
Si Si3 0.921069 0.927054 0.819946
Si Si4 0.631604 0.555447 0.045578
Si Si5 0.743607 0.974536 0.897839
Si Si6 0.017406 0.679362 0.544638
Si Si7 0.947767 0.448890 0.552146
Si Si8 0.359594 0.465084 0.579445
O O1 0.431790 0.380175 0.940176
O O2 0.221879 0.313739 0.637938
O O3 0.363431 0.420970 0.689691
O O4 0.611850 0.324593 0.913027
O O5 0.918609 0.250000 0.142472
O O6 0.961147 0.362534 0.107953
O O7 0.905088 0.341085 0.277597
O O8 0.829004 0.924291 0.874337
O O9 0.745000 0.930904 0.600310
O O10 0.074939 0.984396 0.919827
O O11 0.866286 0.547421 0.229864
O O12 0.500000 0.500000 0.000000
O O13 0.612652 0.557705 0.898543
O O14 0.586652 0.018844 0.715495
O O15 0.099801 0.750000 0.574760
O O16 0.089993 0.622617 0.519510
O O17 0.754258 0.470282 0.474992
O O18 0.000000 0.500000 0.500000
#
# Coordination Sequence:
#
# PCOD8076940 Si02
#       8
#     4   4   4   4   4   4   4   4
#     4  11  21  32  58  85 119 142 187 233 287 342
#     4  11  22  37  59  82 111 152 190 232 278 338
#     4  11  22  39  55  82 116 143 201 225 282 336
#     4  11  19  31  53  85 119 145 177 228 294 328
#     4  11  23  35  56  84 115 150 176 241 284 330
#     4  10  22  37  53  81 120 151 183 235 287 338
#     4  11  19  31  54  86 112 147 188 228 280 350
#     4  12  20  34  57  86 114 150 181 241 285 333
#
# _framework density 18.443168
#
# number of rings (size 3 to 8) (size 9 to 14) (size 15 to 20)
#    0.000    1.000    7.500    0.750    3.500    0.000 
#    0.000    0.000    0.000    4.500    0.000    0.000 
#    0.000    0.000    0.000    0.000    0.000    0.000 
#
# Total GULP energy -396584.863142 kJ/mol
# GULP energy per Si atom -12393.276973 kJ/mol
# Density = 1.840119 g / cm^3
# Si number density = 18.443168 Si / 1000 Ang^3
#
#
#
# Elastic Constant Matrix: (Units=GPa)
#
#
# Indices 1 2 3 4 5 6 
#
# 1 85.5618 29.9561 20.0270 0.0000 -12.9498 0.0000
# 2 29.9561 77.8629 13.9852 0.0000 -12.4932 0.0000
# 3 20.0270 13.9852 73.5590 0.0000 -0.0402 0.0000
# 4 0.0000 0.0000 0.0000 16.1288 0.0000 2.9522
# 5 -12.9498 -12.4932 -0.0402 0.0000 20.1398 0.0000
# 6 0.0000 0.0000 0.0000 2.9522 0.0000 23.1498
#
#
#
# Elastic Compliance Matrix: (Units=1/GPa)
#
#
# Indices 1 2 3 4 5 6 
#
# 1 0.014942 -0.004015 -0.003301 0.000000 0.007110 0.000000
# 2 -0.004015 0.015902 -0.001926 0.000000 0.007279 0.000000
# 3 -0.003301 -0.001926 0.014858 0.000000 -0.003288 0.000000
# 4 0.000000 0.000000 0.000000 0.063483 0.000000 -0.008096
# 5 0.007110 0.007279 -0.003288 0.000000 0.058734 0.000000
# 6 0.000000 0.000000 0.000000 -0.008096 0.000000 0.044229
#
#
# Mechanical properties :
#
#
# Convention : Reuss Voigt Hill
#
# Bulk Modulus (GPa) = 36.74129 40.54670 38.64399
# Shear Modulus (GPa) = 20.85914 23.41802 22.13858
#
# Velocity S-wave (km/s) = 3.36668 3.56721 3.46839
# Velocity P-wave (km/s) = 5.92261 6.24492 6.08590
#
# Compressibility (1/GPa) = 0.02721734
#
# Stress axis : x y z
#
# Youngs Moduli (GPa) = 66.92597 62.88690 67.30548
#
# Poissons Ratio (x) = 0.25248 0.22217
# Poissons Ratio (y) = 0.26870 0.12964
# Poissons Ratio (z) = 0.22091 0.12113
#
# Static dielectric constant tensor:
#      x y z
#    x 3.246600 0.000000 0.117250 
#    y 0.000000 3.167780 0.000000 
#    z 0.117250 0.000000 3.737600 
# 
# 
# High freq. dielectric constant tensor:
#      x y z
#    x 1.692690 0.000000 0.014790 
#    y 0.000000 1.687850 0.000000 
#    z 0.014790 0.000000 1.739160 
# 
# From -- ./inp_files/36358.got.cif
#   From: 2010.06.25/outbox.cif.g09.slc.cpg/sg11_19_cif.got.tgz:36358.got - 2010.06.27 23:14:04.
