data_PCOD8076871
_publ_section_title
;
Structure prediction by ZEFSAII (Michael W. Deem and Ramdas Pophale) SiO2 
 PCOD8076871
Probable space group: P 21/M
;
_chemical_formula_sum "Si O2"
_cell_formula_units_Z 28
_cell_length_a 5.339365
_cell_length_b 17.657007
_cell_length_c 14.647748
_cell_angle_alpha 90.000000
_cell_angle_beta 111.849660
_cell_angle_gamma 90.000000
_cell_volume 1281.746361
_symmetry_space_group_name_H-M "P 21/M"
_symmetry_group_IT_number 11
_symmetry_cell_setting 'monoclinic'
loop_
_space_group_symop_operation_xyz
x,y,z
-x,1/2+y,-z
-x,-y,-z
x,1/2-y,z
loop_
_atom_site_type_symbol
_atom_site_label
_atom_site_fract_x
_atom_site_fract_y
_atom_site_fract_z
Si Si1 0.683414 0.467336 0.742480
Si Si2 0.963750 0.337511 0.452492
Si Si3 0.383277 0.596626 0.073915
Si Si4 0.385365 0.750000 0.980327
Si Si5 0.797102 0.467974 0.118472
Si Si6 0.246421 0.250000 0.148778
Si Si7 0.414715 0.884226 0.751294
Si Si8 0.453890 0.914328 0.466156
O O1 0.687212 0.411559 0.829764
O O2 0.456739 0.532945 0.710544
O O3 0.662795 0.413389 0.652422
O O4 0.951078 0.517232 0.782614
O O5 0.986296 0.250000 0.481543
O O6 0.839231 0.347170 0.334707
O O7 0.769040 0.376558 0.499943
O O8 0.263306 0.371090 0.492625
O O9 0.643251 0.546791 0.085594
O O10 0.447545 0.681988 0.057835
O O11 0.140789 0.565333 0.974535
O O12 0.596064 0.750000 0.925981
O O13 0.075546 0.750000 0.903614
O O14 0.635234 0.400684 0.148219
O O15 0.334903 0.325177 0.217957
O O16 0.500000 0.000000 0.500000
#
# Coordination Sequence:
#
# PCOD8076871 Si02
#       8
#     4   4   4   2   4   2   4   4
#     4  11  24  41  70  98 132 185 237 285 339 409
#     4  12  27  48  72 107 147 185 230 300 370 423
#     4  10  23  40  65  97 137 179 229 279 342 408
#     4  12  26  44  64  96 141 187 220 278 346 417
#     4  10  21  41  67 101 132 175 231 287 337 410
#     4  12  26  42  68 104 139 175 222 282 356 423
#     4  11  23  41  70 104 134 176 223 290 356 414
#     4  12  26  47  75 105 140 187 245 293 348 426
#
# _framework density 21.845193999999999
#
# number of rings (size 3 to 8) (size 9 to 14) (size 15 to 20)
#    0.000    0.857    3.571    3.000    6.000    0.000 
#    2.571    0.000    0.000    0.000    0.000    0.000 
#    0.000    0.000    0.000    0.000    0.000    0.000 
#
# Total GULP energy -347088.020385 kJ/mol
# GULP energy per Si atom -12396.000728 kJ/mol
# Density = 2.179547 g / cm^3
# Si number density = 21.845194 Si / 1000 Ang^3
#
#
#
# Elastic Constant Matrix: (Units=GPa)
#
#
# Indices 1 2 3 4 5 6 
#
# 1 49.1569 11.0438 0.5824 0.0000 -4.3997 0.0000
# 2 11.0438 114.5455 32.8352 0.0000 -16.2315 0.0000
# 3 0.5824 32.8352 112.0934 0.0000 -8.9255 0.0000
# 4 0.0000 0.0000 0.0000 -8.2241 0.0000 5.4658
# 5 -4.3997 -16.2315 -8.9255 0.0000 27.2075 0.0000
# 6 0.0000 0.0000 0.0000 5.4658 0.0000 29.0730
#
#
#
# Elastic Compliance Matrix: (Units=1/GPa)
#
#
# Indices 1 2 3 4 5 6 
#
# 1 0.020974 -0.001850 0.000632 0.000000 0.002496 0.000000
# 2 -0.001850 0.010375 -0.002629 0.000000 0.005028 0.000000
# 3 0.000632 -0.002629 0.009828 0.000000 0.001758 0.000000
# 4 0.000000 0.000000 0.000000 -0.108089 0.000000 0.020321
# 5 0.002496 0.005028 0.001758 0.000000 0.040734 0.000000
# 6 0.000000 0.000000 0.000000 0.020321 0.000000 0.030576
#
#
# Mechanical properties :
#
#
# Convention : Reuss Voigt Hill
#
# Bulk Modulus (GPa) = 29.86620 40.52427 35.19524
# Shear Modulus (GPa) = 215.02513 25.03359 120.02936
#
# Velocity S-wave (km/s) = 9.93202 3.38887 7.42056
# Velocity P-wave (km/s) = 12.05106 5.82267 9.46392
#
# Compressibility (1/GPa) = 0.03348267
#
# Stress axis : x y z
#
# Youngs Moduli (GPa) = 47.67703 96.38964 101.75086
#
# Poissons Ratio (x) = 0.17829 -0.06426
# Poissons Ratio (y) = 0.08819 0.26751
# Poissons Ratio (z) = -0.03011 0.25341
#
# Static dielectric constant tensor:
#      x y z
#    x 3.848000 0.000000 -0.040850 
#    y 0.000000 4.135900 0.000000 
#    z -0.040850 0.000000 4.169590 
# 
# 
# High freq. dielectric constant tensor:
#      x y z
#    x 1.849710 0.000000 -0.001950 
#    y 0.000000 1.868290 0.000000 
#    z -0.001950 0.000000 1.865930 
# 
# From -- ./inp_files/45901.got.cif
#   From: 2010.06.25/outbox.cif.g09.slc.cpg/sg11_23_cif.got.tgz:45901.got - 2010.06.27 23:14:04.
