data_PCOD8076850
_publ_section_title
;
Structure prediction by ZEFSAII (Michael W. Deem and Ramdas Pophale) SiO2 
 PCOD8076850
Probable space group: P 21/M
;
_chemical_formula_sum "Si O2"
_cell_formula_units_Z 32
_cell_length_a 11.794860
_cell_length_b 8.917632
_cell_length_c 28.625406
_cell_angle_alpha 90.000000
_cell_angle_beta 31.028026
_cell_angle_gamma 90.000000
_cell_volume 1551.982003
_symmetry_space_group_name_H-M "P 21/M"
_symmetry_group_IT_number 11
_symmetry_cell_setting 'monoclinic'
loop_
_space_group_symop_operation_xyz
x,y,z
-x,1/2+y,-z
-x,-y,-z
x,1/2-y,z
loop_
_atom_site_type_symbol
_atom_site_label
_atom_site_fract_x
_atom_site_fract_y
_atom_site_fract_z
Si Si1 0.084215 0.922029 0.836079
Si Si2 0.186118 0.926727 0.328827
Si Si3 0.230462 0.922007 0.482186
Si Si4 0.111546 0.573886 0.005398
Si Si5 0.617099 0.577753 0.827485
Si Si6 0.383520 0.079224 0.584005
Si Si7 0.021276 0.078024 0.228628
Si Si8 0.591847 0.922295 0.667256
O O1 0.020842 0.750000 0.869416
O O2 0.343834 0.941109 0.738045
O O3 0.974714 0.979882 0.826371
O O4 0.006096 0.024546 0.905810
O O5 0.163860 0.750000 0.341985
O O6 0.256522 0.968566 0.251983
O O7 0.374794 0.988704 0.296467
O O8 0.952547 0.002804 0.420963
O O9 0.165939 0.750000 0.495457
O O10 0.464902 0.934898 0.424148
O O11 0.242047 0.009103 0.429258
O O12 0.085374 0.750000 0.008865
O O13 0.365431 0.525675 0.919902
O O14 0.000000 0.500000 0.000000
O O15 0.633509 0.750000 0.804230
O O16 0.733876 0.559949 0.836745
O O17 0.344137 0.250000 0.583251
O O18 0.500000 0.000000 0.500000
O O19 0.148191 0.009165 0.678646
O O20 0.942469 0.250000 0.256156
O O21 0.655437 0.750000 0.652806
#
# Coordination Sequence:
#
# PCOD8076850 Si02
#       8
#     4   4   4   4   4   4   4   4
#     4  10  22  40  65  94 124 161 202 252 312 371
#     4  12  25  39  59  88 122 161 206 256 309 366
#     4  11  23  39  58  85 121 161 204 252 306 364
#     4  11  24  42  66  95 126 162 204 253 308 369
#     4  10  23  43  64  89 123 161 204 253 306 363
#     4  11  23  37  58  87 122 163 209 257 304 361
#     4  10  21  41  65  89 122 162 205 253 307 366
#     4  11  22  39  62  88 121 160 204 253 306 367
#
# _framework density 20.618797000000001
#
# number of rings (size 3 to 8) (size 9 to 14) (size 15 to 20)
#    0.000    1.250    1.250    4.500    0.000   11.000 
#    0.000    0.000    0.000    0.000    0.000    0.000 
#    0.000    0.000    0.000    0.000    0.000    0.000 
#
# Total GULP energy -396977.024581 kJ/mol
# GULP energy per Si atom -12405.532018 kJ/mol
# Density = 2.057187 g / cm^3
# Si number density = 20.618797 Si / 1000 Ang^3
#
#
#
# Elastic Constant Matrix: (Units=GPa)
#
#
# Indices 1 2 3 4 5 6 
#
# 1 117.0668 33.7219 47.4639 0.0000 -1.2833 0.0000
# 2 33.7219 101.3971 52.7662 0.0000 2.5261 0.0000
# 3 47.4639 52.7662 107.5507 0.0000 2.8324 0.0000
# 4 0.0000 0.0000 0.0000 30.9537 0.0000 6.0655
# 5 -1.2833 2.5261 2.8324 0.0000 39.9291 0.0000
# 6 0.0000 0.0000 0.0000 6.0655 0.0000 33.0854
#
#
#
# Elastic Compliance Matrix: (Units=1/GPa)
#
#
# Indices 1 2 3 4 5 6 
#
# 1 0.010582 -0.001473 -0.003966 0.000000 0.000715 0.000000
# 2 -0.001473 0.013454 -0.005938 0.000000 -0.000477 0.000000
# 3 -0.003966 -0.005938 0.013981 0.000000 -0.000744 0.000000
# 4 0.000000 0.000000 0.000000 0.033510 0.000000 -0.006143
# 5 0.000715 -0.000477 -0.000744 0.000000 0.025150 0.000000
# 6 0.000000 0.000000 0.000000 -0.006143 0.000000 0.031351
#
#
# Mechanical properties :
#
#
# Convention : Reuss Voigt Hill
#
# Bulk Modulus (GPa) = 65.51929 65.99095 65.75512
# Shear Modulus (GPa) = 32.07757 33.59780 32.83769
#
# Velocity S-wave (km/s) = 3.94857 4.04105 3.99508
# Velocity P-wave (km/s) = 7.25491 7.33813 7.29664
#
# Compressibility (1/GPa) = 0.01526268
#
# Stress axis : x y z
#
# Youngs Moduli (GPa) = 94.49636 74.32618 71.52450
#
# Poissons Ratio (x) = 0.10950 0.28368
# Poissons Ratio (y) = 0.13922 0.42472
# Poissons Ratio (z) = 0.37479 0.44136
#
# Static dielectric constant tensor:
#      x y z
#    x 3.916280 0.000000 -0.109690 
#    y 0.000000 3.708710 0.000000 
#    z -0.109690 0.000000 3.612900 
# 
# 
# High freq. dielectric constant tensor:
#      x y z
#    x 1.823800 0.000000 -0.004250 
#    y 0.000000 1.809490 0.000000 
#    z -0.004250 0.000000 1.802080 
# 
# From -- ./inp_files/73084.got.cif
#   From: 2010.06.25/outbox.cif.g09.slc.cpg/sg11_37_cif.got.tgz:73084.got - 2010.06.27 23:14:04.
