data_PCOD8076194
_publ_section_title
;
Structure prediction by ZEFSAII (Michael W. Deem and Ramdas Pophale) SiO2 
 PCOD8076194
Probable space group: P 21/M
;
_chemical_formula_sum "Si O2"
_cell_formula_units_Z 32
_cell_length_a 22.170636
_cell_length_b 15.129892
_cell_length_c 8.164891
_cell_angle_alpha 90.000000
_cell_angle_beta 147.953372
_cell_angle_gamma 90.000000
_cell_volume 1453.246146
_symmetry_space_group_name_H-M "P 21/M"
_symmetry_group_IT_number 11
_symmetry_cell_setting 'monoclinic'
loop_
_space_group_symop_operation_xyz
x,y,z
-x,1/2+y,-z
-x,-y,-z
x,1/2-y,z
loop_
_atom_site_type_symbol
_atom_site_label
_atom_site_fract_x
_atom_site_fract_y
_atom_site_fract_z
Si Si1 0.603880 0.650139 0.125404
Si Si2 0.875377 0.347519 0.890288
Si Si3 0.147949 0.654905 0.533961
Si Si4 0.628485 0.094756 0.819360
Si Si5 0.246472 0.146237 0.228798
Si Si6 0.622265 0.608238 0.805295
Si Si7 0.642220 0.147214 0.502394
Si Si8 0.970428 0.523274 0.253218
O O1 0.589707 0.750000 0.148978
O O2 0.675619 0.608481 0.441771
O O3 0.659659 0.648470 0.069225
O O4 0.478009 0.605372 0.833962
O O5 0.902884 0.250000 0.036613
O O6 0.896819 0.336218 0.750793
O O7 0.742611 0.371769 0.607021
O O8 0.953033 0.428759 0.125801
O O9 0.120974 0.750000 0.559168
O O10 0.084951 0.570347 0.458887
O O11 0.284361 0.640449 0.854668
O O12 0.504375 0.141927 0.537218
O O13 0.682141 0.100777 0.761613
O O14 0.616411 0.993590 0.838034
O O15 0.219071 0.250000 0.186655
O O16 0.295876 0.131260 0.158635
O O17 0.132768 0.091081 0.993836
O O18 0.623431 0.250000 0.495278
O O19 0.000000 0.500000 0.500000
#
# Coordination Sequence:
#
# PCOD8076194 Si02
#       8
#     4   4   4   4   4   4   4   4
#     4   9  20  37  60  91 130 172 211 260 319 384
#     4  10  23  41  66  98 125 163 216 268 329 392
#     4  11  24  42  66  95 126 168 220 270 322 382
#     4  10  21  37  61  94 129 169 215 260 325 387
#     4  11  24  41  66  97 130 175 221 263 326 395
#     4  10  21  39  60  97 136 171 213 266 326 394
#     4   9  17  35  59  89 128 163 206 259 314 382
#     4  12  26  46  67  89 128 169 217 273 329 385
#
# _framework density 22.019670000000001
#
# number of rings (size 3 to 8) (size 9 to 14) (size 15 to 20)
#    0.000    1.750    0.000    3.750    3.500    3.500 
#    2.250    2.500    0.000    0.000    0.000    0.000 
#    0.000    0.000    0.000    0.000    0.000    0.000 
#
# Total GULP energy -396448.729844 kJ/mol
# GULP energy per Si atom -12389.022808 kJ/mol
# Density = 2.196955 g / cm^3
# Si number density = 22.019670 Si / 1000 Ang^3
#
#
#
# Elastic Constant Matrix: (Units=GPa)
#
#
# Indices 1 2 3 4 5 6 
#
# 1 58.9284 5.3839 5.2251 0.0000 -9.6664 0.0000
# 2 5.3839 99.3974 33.0370 0.0000 -0.8748 0.0000
# 3 5.2251 33.0370 93.8148 0.0000 -13.3030 0.0000
# 4 0.0000 0.0000 0.0000 26.3673 0.0000 -1.0578
# 5 -9.6664 -0.8748 -13.3030 0.0000 31.4100 0.0000
# 6 0.0000 0.0000 0.0000 -1.0578 0.0000 22.4887
#
#
#
# Elastic Compliance Matrix: (Units=1/GPa)
#
#
# Indices 1 2 3 4 5 6 
#
# 1 0.017958 -0.000966 0.000128 0.000000 0.005554 0.000000
# 2 -0.000966 0.011510 -0.004252 0.000000 -0.001777 0.000000
# 3 0.000128 -0.004252 0.012914 0.000000 0.005390 0.000000
# 4 0.000000 0.000000 0.000000 0.037997 0.000000 0.001787
# 5 0.005554 -0.001777 0.005390 0.000000 0.035780 0.000000
# 6 0.000000 0.000000 0.000000 0.001787 0.000000 0.044551
#
#
# Mechanical properties :
#
#
# Convention : Reuss Voigt Hill
#
# Bulk Modulus (GPa) = 31.05461 37.71474 34.38467
# Shear Modulus (GPa) = 27.52937 29.95282 28.74110
#
# Velocity S-wave (km/s) = 3.53968 3.69219 3.61674
# Velocity P-wave (km/s) = 5.55333 5.94486 5.75243
#
# Compressibility (1/GPa) = 0.03220134
#
# Stress axis : x y z
#
# Youngs Moduli (GPa) = 55.68639 86.87752 77.43685
#
# Poissons Ratio (x) = 0.08394 -0.00988
# Poissons Ratio (y) = 0.05381 0.32923
# Poissons Ratio (z) = -0.00711 0.36937
#
# Static dielectric constant tensor:
#      x y z
#    x 3.778710 0.000000 -0.142800 
#    y 0.000000 3.850080 0.000000 
#    z -0.142800 0.000000 3.971590 
# 
# 
# High freq. dielectric constant tensor:
#      x y z
#    x 1.856680 0.000000 -0.006850 
#    y 0.000000 1.874450 0.000000 
#    z -0.006850 0.000000 1.862400 
# 
# From -- ./inp_files/27802.got.cif
#   From: 2010.06.25/outbox.cif.g09.slc.cpg/sg11_14_cif.got.tgz:27802.got - 2010.06.27 23:14:04.
