data_PCOD8076706
_publ_section_title
;
Structure prediction by ZEFSAII (Michael W. Deem and Ramdas Pophale) SiO2 
 PCOD8076706
Probable space group: P 21/M
;
_chemical_formula_sum "Si O2"
_cell_formula_units_Z 28
_cell_length_a 8.646284
_cell_length_b 26.807486
_cell_length_c 8.674143
_cell_angle_alpha 90.000000
_cell_angle_beta 42.998110
_cell_angle_gamma 90.000000
_cell_volume 1371.134723
_symmetry_space_group_name_H-M "P 21/M"
_symmetry_group_IT_number 11
_symmetry_cell_setting 'monoclinic'
loop_
_space_group_symop_operation_xyz
x,y,z
-x,1/2+y,-z
-x,-y,-z
x,1/2-y,z
loop_
_atom_site_type_symbol
_atom_site_label
_atom_site_fract_x
_atom_site_fract_y
_atom_site_fract_z
Si Si1 0.244167 0.371319 0.817481
Si Si2 0.038149 0.446666 0.547720
Si Si3 0.364607 0.805542 0.394532
Si Si4 0.922246 0.636771 0.733472
Si Si5 0.505049 0.193220 0.047164
Si Si6 0.208407 0.892055 0.010756
Si Si7 0.470544 0.447184 0.443560
O O1 0.392007 0.320729 0.711383
O O2 0.407867 0.413481 0.633865
O O3 0.183053 0.386809 0.035785
O O4 0.023378 0.364954 0.872097
O O5 0.042312 0.407708 0.408249
O O6 0.000000 0.500000 0.500000
O O7 0.278395 0.448248 0.455160
O O8 0.839913 0.429302 0.810351
O O9 0.318091 0.750000 0.485417
O O10 0.161352 0.839134 0.606189
O O11 0.365286 0.809573 0.209282
O O12 0.759004 0.678937 0.779298
O O13 0.518726 0.250000 0.103384
O O14 0.619001 0.152812 0.077329
O O15 0.302605 0.926452 0.803594
O O16 0.500000 0.500000 0.500000
#
# Coordination Sequence:
#
# PCOD8076706 Si02
#       7
#     4   4   4   4   4   4   4
#     4  10  25  40  65  91 132 166 211 262 318 383
#     4  11  26  39  67  98 126 170 219 267 326 384
#     4  10  21  40  66  96 128 168 211 261 323 383
#     4  11  21  42  65  96 130 163 215 264 316 384
#     4  10  21  39  66  95 125 168 213 266 324 381
#     4  11  23  45  63  96 135 168 215 271 325 390
#     4  11  26  44  64  92 131 174 213 263 332 385
#
# _framework density 20.421042
#
# number of rings (size 3 to 8) (size 9 to 14) (size 15 to 20)
#    0.000    1.429    2.857    1.286    6.000    2.857 
#    0.000    2.143    0.000    0.000    0.000    0.000 
#    0.000    0.000    0.000    0.000    0.000    0.000 
#
# Total GULP energy -347221.667287 kJ/mol
# GULP energy per Si atom -12400.773832 kJ/mol
# Density = 2.037456 g / cm^3
# Si number density = 20.421042 Si / 1000 Ang^3
#
#
#
# Elastic Constant Matrix: (Units=GPa)
#
#
# Indices 1 2 3 4 5 6 
#
# 1 89.5304 53.9782 43.5902 0.0000 -4.8639 0.0000
# 2 53.9782 147.2579 65.9232 0.0000 9.7878 0.0000
# 3 43.5902 65.9232 133.0046 0.0000 5.3073 0.0000
# 4 0.0000 0.0000 0.0000 28.8042 0.0000 1.4237
# 5 -4.8639 9.7878 5.3073 0.0000 29.7668 0.0000
# 6 0.0000 0.0000 0.0000 1.4237 0.0000 33.6688
#
#
#
# Elastic Compliance Matrix: (Units=1/GPa)
#
#
# Indices 1 2 3 4 5 6 
#
# 1 0.015738 -0.004738 -0.002996 0.000000 0.004663 0.000000
# 2 -0.004738 0.010288 -0.003405 0.000000 -0.003550 0.000000
# 3 -0.002996 -0.003405 0.010236 0.000000 -0.001195 0.000000
# 4 0.000000 0.000000 0.000000 0.034790 0.000000 -0.001471
# 5 0.004663 -0.003550 -0.001195 0.000000 0.035737 0.000000
# 6 0.000000 0.000000 0.000000 -0.001471 0.000000 0.029763
#
#
# Mechanical properties :
#
#
# Convention : Reuss Voigt Hill
#
# Bulk Modulus (GPa) = 71.50627 77.41956 74.46291
# Shear Modulus (GPa) = 30.58332 32.20139 31.39235
#
# Velocity S-wave (km/s) = 3.87413 3.97529 3.92504
# Velocity P-wave (km/s) = 7.42320 7.68535 7.55541
#
# Compressibility (1/GPa) = 0.01398479
#
# Stress axis : x y z
#
# Youngs Moduli (GPa) = 63.54226 97.20529 97.69917
#
# Poissons Ratio (x) = 0.46052 0.29267
# Poissons Ratio (y) = 0.30104 0.33263
# Poissons Ratio (z) = 0.19035 0.33095
#
# Static dielectric constant tensor:
#      x y z
#    x 4.002900 0.000000 0.119110 
#    y 0.000000 3.770900 0.000000 
#    z 0.119110 0.000000 3.987170 
# 
# 
# High freq. dielectric constant tensor:
#      x y z
#    x 1.799320 0.000000 -0.004160 
#    y 0.000000 1.797260 0.000000 
#    z -0.004160 0.000000 1.809870 
# 
# From -- ./inp_files/15262.got.cif
#   From: 2010.06.25/outbox.cif.g09.slc.cpg/sg11_8_cif.got.tgz:15262.got - 2010.06.27 23:14:04.
