data_PCOD8076788
_publ_section_title
;
Structure prediction by ZEFSAII (Michael W. Deem and Ramdas Pophale) SiO2 
 PCOD8076788
Probable space group: P 21/M
;
_chemical_formula_sum "Si O2"
_cell_formula_units_Z 20
_cell_length_a 9.539990
_cell_length_b 14.742242
_cell_length_c 13.809846
_cell_angle_alpha 90.000000
_cell_angle_beta 29.242651
_cell_angle_gamma 90.000000
_cell_volume 948.796669
_symmetry_space_group_name_H-M "P 21/M"
_symmetry_group_IT_number 11
_symmetry_cell_setting 'monoclinic'
loop_
_space_group_symop_operation_xyz
x,y,z
-x,1/2+y,-z
-x,-y,-z
x,1/2-y,z
loop_
_atom_site_type_symbol
_atom_site_label
_atom_site_fract_x
_atom_site_fract_y
_atom_site_fract_z
Si Si1 0.892518 0.151538 0.890946
Si Si2 0.765639 0.073793 0.164916
Si Si3 0.040579 0.146077 0.186916
Si Si4 0.855541 0.523957 0.402432
Si Si5 0.677422 0.149281 0.822334
O O1 0.049056 0.250000 0.798447
O O2 0.124666 0.075284 0.715351
O O3 0.745654 0.136286 0.082467
O O4 0.639822 0.152698 0.962306
O O5 0.461847 0.026667 0.365009
O O6 0.853117 0.134363 0.203704
O O7 0.000000 0.000000 0.000000
O O8 0.018953 0.250000 0.235714
O O9 0.371991 0.120378 0.961428
O O10 0.933867 0.081188 0.338060
O O11 0.072796 0.574024 0.348356
O O12 0.768989 0.250000 0.728881
#
# Coordination Sequence:
#
# PCOD8076788 Si02
#       5
#     4   4   4   4   4
#     4   9  20  38  64  87 115 156 204 246 293 362
#     4  12  23  39  60  91 123 158 203 251 300 358
#     4  11  22  38  63  91 122 157 200 258 306 345
#     4  10  21  40  65  83 121 167 202 234 304 371
#     4   8  18  39  64  88 118 158 203 249 298 357
#
# _framework density 21.079332999999998
#
# number of rings (size 3 to 8) (size 9 to 14) (size 15 to 20)
#    1.200    0.800    2.000    1.800    0.000    3.200 
#    0.000    5.000    0.000    4.800    0.000    0.000 
#    0.000    0.000    0.000    0.000    0.000    0.000 
#
# Total GULP energy -247763.323646 kJ/mol
# GULP energy per Si atom -12388.166182 kJ/mol
# Density = 2.103136 g / cm^3
# Si number density = 21.079333 Si / 1000 Ang^3
#
#
#
# Elastic Constant Matrix: (Units=GPa)
#
#
# Indices 1 2 3 4 5 6 
#
# 1 27.7293 7.4485 10.3618 0.0000 -19.5236 0.0000
# 2 7.4485 129.3938 51.3458 0.0000 -15.3791 0.0000
# 3 10.3618 51.3458 113.8099 0.0000 -25.7133 0.0000
# 4 0.0000 0.0000 0.0000 18.3097 0.0000 -4.8859
# 5 -19.5236 -15.3791 -25.7133 0.0000 29.2183 0.0000
# 6 0.0000 0.0000 0.0000 -4.8859 0.0000 12.9760
#
#
#
# Elastic Compliance Matrix: (Units=1/GPa)
#
#
# Indices 1 2 3 4 5 6 
#
# 1 0.070553 0.000000 0.005277 0.000000 0.051787 0.000000
# 2 0.000000 0.009468 -0.003926 0.000000 0.001528 0.000000
# 3 0.005277 -0.003926 0.012990 0.000000 0.012891 0.000000
# 4 0.000000 0.000000 0.000000 0.060717 0.000000 0.022862
# 5 0.051787 0.001528 0.012891 0.000000 0.080978 0.000000
# 6 0.000000 0.000000 0.000000 0.022862 0.000000 0.085673
#
#
# Mechanical properties :
#
#
# Convention : Reuss Voigt Hill
#
# Bulk Modulus (GPa) = 10.44799 45.47169 27.95984
# Shear Modulus (GPa) = 14.30277 25.55260 19.92769
#
# Velocity S-wave (km/s) = 2.60767 3.48546 3.07802
# Velocity P-wave (km/s) = 3.74618 6.14951 5.09167
#
# Compressibility (1/GPa) = 0.09571216
#
# Stress axis : x y z
#
# Youngs Moduli (GPa) = 14.17370 105.61902 76.98213
#
# Poissons Ratio (x) = 0.00002 -0.40623
# Poissons Ratio (y) = 0.00000 0.30225
# Poissons Ratio (z) = -0.07479 0.41469
#
# Static dielectric constant tensor:
#      x y z
#    x 3.836410 0.000000 0.004480 
#    y 0.000000 3.909690 0.000000 
#    z 0.004480 0.000000 3.408200 
# 
# 
# High freq. dielectric constant tensor:
#      x y z
#    x 1.812790 0.000000 -0.011170 
#    y 0.000000 1.839500 0.000000 
#    z -0.011170 0.000000 1.787850 
# 
# From -- ./inp_files/50573.got.cif
#   From: 2010.06.25/outbox.cif.g09.slc.cpg/sg11_26_cif.got.tgz:50573.got - 2010.06.27 23:14:04.
