data_PCOD8076493
_publ_section_title
;
Structure prediction by ZEFSAII (Michael W. Deem and Ramdas Pophale) SiO2 
 PCOD8076493
Probable space group: P 21/M
;
_chemical_formula_sum "Si O2"
_cell_formula_units_Z 24
_cell_length_a 5.151573
_cell_length_b 11.361133
_cell_length_c 19.131535
_cell_angle_alpha 90.000000
_cell_angle_beta 97.426639
_cell_angle_gamma 90.000000
_cell_volume 1110.331678
_symmetry_space_group_name_H-M "P 21/M"
_symmetry_group_IT_number 11
_symmetry_cell_setting 'monoclinic'
loop_
_space_group_symop_operation_xyz
x,y,z
-x,1/2+y,-z
-x,-y,-z
x,1/2-y,z
loop_
_atom_site_type_symbol
_atom_site_label
_atom_site_fract_x
_atom_site_fract_y
_atom_site_fract_z
Si Si1 0.772830 0.984263 0.047463
Si Si2 0.349339 0.750000 0.236230
Si Si3 0.802464 0.750000 0.138318
Si Si4 0.816254 0.113018 0.186661
Si Si5 0.647201 0.610758 0.733928
Si Si6 0.000851 0.618123 0.452732
Si Si7 0.458008 0.920660 0.363304
O O1 0.793708 0.861054 0.087309
O O2 0.801735 0.087692 0.104482
O O3 0.500000 0.000000 0.000000
O O4 0.000000 0.000000 0.000000
O O5 0.553982 0.750000 0.180228
O O6 0.386327 0.862455 0.286931
O O7 0.060925 0.750000 0.194004
O O8 0.831274 0.250000 0.198118
O O9 0.563254 0.062935 0.217328
O O10 0.075895 0.058781 0.230607
O O11 0.644280 0.750000 0.726403
O O12 0.577287 0.559606 0.654466
O O13 0.991289 0.750000 0.489540
O O14 0.753421 0.610421 0.393272
O O15 0.000000 0.500000 0.500000
O O16 0.268188 0.618611 0.418538
#
# Coordination Sequence:
#
# PCOD8076493 Si02
#       7
#     4   2   2   4   4   4   4
#     4  12  26  41  62  87 124 168 217 261 324 397
#     4  12  22  42  72  96 136 160 219 280 335 388
#     4  12  26  42  66 100 128 170 219 284 331 382
#     4  10  21  39  61  87 125 165 205 261 329 380
#     4  10  21  38  63  96 126 159 210 264 321 389
#     4  12  26  46  67 100 137 182 222 263 320 393
#     4  12  23  42  71  98 133 171 217 267 334 381
#
# _framework density 21.615162000000002
#
# number of rings (size 3 to 8) (size 9 to 14) (size 15 to 20)
#    0.000    0.667    1.667    6.500    2.333    1.333 
#    0.000    0.000    0.000    0.000    0.000    0.000 
#    0.000    0.000    0.000    0.000    0.000    0.000 
#
# Total GULP energy -297537.572641 kJ/mol
# GULP energy per Si atom -12397.398860 kJ/mol
# Density = 2.156597 g / cm^3
# Si number density = 21.615162 Si / 1000 Ang^3
#
#
#
# Elastic Constant Matrix: (Units=GPa)
#
#
# Indices 1 2 3 4 5 6 
#
# 1 109.8068 34.8537 16.7293 0.0000 8.2353 0.0000
# 2 34.8537 83.5756 56.0711 0.0000 1.1366 0.0000
# 3 16.7293 56.0711 76.6188 0.0000 0.9002 0.0000
# 4 0.0000 0.0000 0.0000 47.6207 0.0000 1.8974
# 5 8.2353 1.1366 0.9002 0.0000 40.3623 0.0000
# 6 0.0000 0.0000 0.0000 1.8974 0.0000 20.2263
#
#
#
# Elastic Compliance Matrix: (Units=1/GPa)
#
#
# Indices 1 2 3 4 5 6 
#
# 1 0.010795 -0.005714 0.001849 0.000000 -0.002083 0.000000
# 2 -0.005714 0.026534 -0.018180 0.000000 0.000824 0.000000
# 3 0.001849 -0.018180 0.025958 0.000000 -0.000444 0.000000
# 4 0.000000 0.000000 0.000000 0.021078 0.000000 -0.001977
# 5 -0.002083 0.000824 -0.000444 0.000000 0.025187 0.000000
# 6 0.000000 0.000000 0.000000 -0.001977 0.000000 0.049626
#
#
# Mechanical properties :
#
#
# Convention : Reuss Voigt Hill
#
# Bulk Modulus (GPa) = 52.09279 53.92328 53.00803
# Shear Modulus (GPa) = 23.84724 32.46501 28.15613
#
# Velocity S-wave (km/s) = 3.32515 3.87971 3.61308
# Velocity P-wave (km/s) = 6.23655 6.71347 6.47940
#
# Compressibility (1/GPa) = 0.01919652
#
# Stress axis : x y z
#
# Youngs Moduli (GPa) = 92.63433 37.68721 38.52412
#
# Poissons Ratio (x) = 0.21535 -0.07124
# Poissons Ratio (y) = 0.52933 0.70038
# Poissons Ratio (z) = -0.17130 0.68516
#
# Static dielectric constant tensor:
#      x y z
#    x 4.360770 0.000000 -0.037460 
#    y 0.000000 4.238110 0.000000 
#    z -0.037460 0.000000 3.799000 
# 
# 
# High freq. dielectric constant tensor:
#      x y z
#    x 1.873590 0.000000 -0.000160 
#    y 0.000000 1.870070 0.000000 
#    z -0.000160 0.000000 1.838500 
# 
# From -- ./inp_files/56812.got.cif
#   From: 2010.06.25/outbox.cif.g09.slc.cpg/sg11_29_cif.got.tgz:56812.got - 2010.06.27 23:14:04.
