data_PCOD8076683
_publ_section_title
;
Structure prediction by ZEFSAII (Michael W. Deem and Ramdas Pophale) SiO2 
 PCOD8076683
Probable space group: P 21/M
;
_chemical_formula_sum "Si O2"
_cell_formula_units_Z 32
_cell_length_a 18.914160
_cell_length_b 13.617912
_cell_length_c 12.183533
_cell_angle_alpha 90.000000
_cell_angle_beta 151.709308
_cell_angle_gamma 90.000000
_cell_volume 1487.301181
_symmetry_space_group_name_H-M "P 21/M"
_symmetry_group_IT_number 11
_symmetry_cell_setting 'monoclinic'
loop_
_space_group_symop_operation_xyz
x,y,z
-x,1/2+y,-z
-x,-y,-z
x,1/2-y,z
loop_
_atom_site_type_symbol
_atom_site_label
_atom_site_fract_x
_atom_site_fract_y
_atom_site_fract_z
Si Si1 0.924378 0.941166 0.744428
Si Si2 0.558419 0.019860 0.701088
Si Si3 0.936733 0.363795 0.494203
Si Si4 0.402462 0.134352 0.668801
Si Si5 0.094360 0.859029 0.175473
Si Si6 0.567388 0.360568 0.325592
Si Si7 0.110593 0.545982 0.796135
Si Si8 0.626341 0.133843 0.163554
O O1 0.749503 0.922186 0.514374
O O2 0.984056 0.915406 0.705950
O O3 0.961353 0.056392 0.817831
O O4 0.011107 0.871097 0.946866
O O5 0.462453 0.105023 0.630112
O O6 0.500000 0.000000 0.500000
O O7 0.548150 0.922369 0.761067
O O8 0.730266 0.050174 0.926796
O O9 0.979061 0.250000 0.572947
O O10 0.888242 0.377525 0.301868
O O11 0.796534 0.400248 0.376199
O O12 0.076455 0.434122 0.711032
O O13 0.375590 0.250000 0.635934
O O14 0.517642 0.096545 0.918976
O O15 0.057828 0.750000 0.174268
O O16 0.270901 0.867920 0.396660
O O17 0.507021 0.250000 0.241231
O O18 0.573442 0.404425 0.210089
O O19 0.627037 0.250000 0.164306
#
# Coordination Sequence:
#
# PCOD8076683 Si02
#       8
#     4   4   4   4   4   4   4   4
#     4  11  23  41  65  96 129 170 224 273 317 393
#     4  12  26  44  64  96 138 180 219 271 330 401
#     4  10  22  42  65  95 134 173 216 273 341 402
#     4  11  24  44  68  97 131 173 223 272 327 393
#     4  10  21  39  64  93 127 168 218 276 328 379
#     4  10  21  40  66  96 127 168 219 271 328 387
#     4  11  25  41  65  98 133 175 219 269 339 396
#     4   9  19  39  68  95 123 167 218 270 329 390
#
# _framework density 21.515481000000001
#
# number of rings (size 3 to 8) (size 9 to 14) (size 15 to 20)
#    0.000    1.500    2.500    1.875    1.750    6.000 
#    0.000    1.250    0.000    0.000    0.000    0.000 
#    0.000    0.000    0.000    0.000    0.000    0.000 
#
# Total GULP energy -396853.461158 kJ/mol
# GULP energy per Si atom -12401.670661 kJ/mol
# Density = 2.146651 g / cm^3
# Si number density = 21.515481 Si / 1000 Ang^3
#
#
#
# Elastic Constant Matrix: (Units=GPa)
#
#
# Indices 1 2 3 4 5 6 
#
# 1 118.3579 20.7485 33.3516 0.0000 -4.9810 0.0000
# 2 20.7485 93.0901 3.8908 0.0000 6.9624 0.0000
# 3 33.3516 3.8908 93.2617 0.0000 -0.2323 0.0000
# 4 0.0000 0.0000 0.0000 15.5955 0.0000 -1.0131
# 5 -4.9810 6.9624 -0.2323 0.0000 30.6164 0.0000
# 6 0.0000 0.0000 0.0000 -1.0131 0.0000 27.4842
#
#
#
# Elastic Compliance Matrix: (Units=1/GPa)
#
#
# Indices 1 2 3 4 5 6 
#
# 1 0.009895 -0.002218 -0.003441 0.000000 0.002088 0.000000
# 2 -0.002218 0.011445 0.000308 0.000000 -0.002961 0.000000
# 3 -0.003441 0.000308 0.011939 0.000000 -0.000539 0.000000
# 4 0.000000 0.000000 0.000000 0.064275 0.000000 0.002369
# 5 0.002088 -0.002961 -0.000539 0.000000 0.033671 0.000000
# 6 0.000000 0.000000 0.000000 0.002369 0.000000 0.036472
#
#
# Mechanical properties :
#
#
# Convention : Reuss Voigt Hill
#
# Bulk Modulus (GPa) = 44.29047 46.74351 45.51699
# Shear Modulus (GPa) = 26.89268 31.18717 29.03992
#
# Velocity S-wave (km/s) = 3.53926 3.81139 3.67784
# Velocity P-wave (km/s) = 6.10998 6.41417 6.26392
#
# Compressibility (1/GPa) = 0.02257822
#
# Stress axis : x y z
#
# Youngs Moduli (GPa) = 101.05880 87.37280 83.76033
#
# Poissons Ratio (x) = 0.19378 0.28821
# Poissons Ratio (y) = 0.22414 -0.02582
# Poissons Ratio (z) = 0.34774 -0.02694
#
# Static dielectric constant tensor:
#      x y z
#    x 3.888300 0.000000 -0.122840 
#    y 0.000000 3.889550 0.000000 
#    z -0.122840 0.000000 3.946010 
# 
# 
# High freq. dielectric constant tensor:
#      x y z
#    x 1.838270 0.000000 -0.008290 
#    y 0.000000 1.848850 0.000000 
#    z -0.008290 0.000000 1.846070 
# 
# From -- ./inp_files/41695.got.cif
#   From: 2010.06.25/outbox.cif.g09.slc.cpg/sg11_21_cif.got.tgz:41695.got - 2010.06.27 23:14:04.
